REMARK  6 active torsions:
REMARK  status: ('A' for Active; 'I' for Inactive)
REMARK    1  A    between atoms: O1_1  and  C1_3 
REMARK    2  A    between atoms: C1_3  and  N1_4 
REMARK    3  A    between atoms: C1_3  and  C13_24 
REMARK    4  A    between atoms: N2_7  and  C4_8 
REMARK    5  A    between atoms: C4_8  and  N3_10 
REMARK    6  A    between atoms: N3_10  and  C5_12 
ROOT
HETATM    1  N1  UNL     1      -0.036  -0.001   0.377  1.00  0.00    -0.327 N 
HETATM    2  C2  UNL     1       0.099  -0.840  -0.786  1.00  0.00     0.148 C 
HETATM    3  C3  UNL     1       1.134  -1.924  -0.578  1.00  0.00     0.145 C 
HETATM    4  N2  UNL     1       2.449  -1.339  -0.287  1.00  0.00    -0.352 N 
HETATM    5  C11 UNL     1       2.430   0.009   0.160  1.00  0.00     0.190 C 
HETATM    6  C12 UNL     1       1.226   0.187   1.113  1.00  0.00     0.206 C 
HETATM    7 CL1  UNL     1       1.337   1.811   1.841  1.00  0.00    -0.076 Cl
HETATM    8 CL2  UNL     1       1.387  -1.059   2.361  1.00  0.00    -0.076 Cl
ENDROOT
BRANCH   1   9
HETATM    9  C1  UNL     1      -1.206   0.624   0.842  1.00  0.00     0.125 C 
BRANCH   9  10
HETATM   10  O1  UNL     1      -1.049   1.324   1.932  1.00  0.00    -0.349 OA
ATOM     11  H1  UNL     1      -1.840   1.746   2.246  1.00  0.00     0.219 HD
ENDBRANCH   9  10
BRANCH   9  12
HETATM   12  C13 UNL     1      -2.564   0.595   0.276  1.00  0.00     0.026 C 
HETATM   13  C14 UNL     1      -3.211  -0.726   0.539  1.00  0.00     0.022 C 
HETATM   14  C15 UNL     1      -4.582  -0.853  -0.098  1.00  0.00    -0.013 C 
HETATM   15  C16 UNL     1      -4.454  -0.601  -1.563  1.00  0.00     0.009 C 
HETATM   16  C20 UNL     1      -5.467   0.155   0.610  1.00  0.00     0.009 C 
HETATM   17  C17 UNL     1      -4.006   0.809  -1.754  1.00  0.00    -0.013 C 
HETATM   18  C18 UNL     1      -4.896   1.821  -1.057  1.00  0.00     0.009 C 
HETATM   19  C22 UNL     1      -2.616   1.003  -1.167  1.00  0.00     0.022 C 
HETATM   20  C19 UNL     1      -4.837   1.498   0.423  1.00  0.00    -0.013 C 
HETATM   21  C21 UNL     1      -3.455   1.626   1.000  1.00  0.00     0.022 C 
ENDBRANCH   9  12
ENDBRANCH   1   9
BRANCH   4  22
HETATM   22  C4  UNL     1       3.542  -2.196  -0.510  1.00  0.00     0.174 C 
HETATM   23  S1  UNL     1       3.165  -3.765  -1.070  1.00  0.00    -0.041 SA
BRANCH  22  24
HETATM   24  N3  UNL     1       4.909  -2.001  -0.356  1.00  0.00    -0.328 N 
ATOM     25  H3  UNL     1       5.495  -2.800  -0.597  1.00  0.00     0.168 HD
BRANCH  24  26
HETATM   26  C5  UNL     1       5.595  -0.863   0.083  1.00  0.00     0.112 A 
HETATM   27  C6  UNL     1       5.962   0.188  -0.735  1.00  0.00     0.146 A 
HETATM   28  F1  UNL     1       5.601   0.158  -2.039  1.00  0.00    -0.204 F 
HETATM   29  C7  UNL     1       6.672   1.242  -0.257  1.00  0.00     0.045 A 
HETATM   30  C8  UNL     1       7.045   1.283   1.070  1.00  0.00     0.006 A 
HETATM   31  C9  UNL     1       6.709   0.264   1.937  1.00  0.00     0.045 A 
HETATM   32  C10 UNL     1       5.983  -0.796   1.418  1.00  0.00     0.146 A 
HETATM   33  F2  UNL     1       5.628  -1.823   2.230  1.00  0.00    -0.204 F 
ENDBRANCH  24  26
ENDBRANCH  22  24
ENDBRANCH   4  22
TORSDOF 6
