REMARK  5 active torsions:
REMARK  status: ('A' for Active; 'I' for Inactive)
REMARK    1  A    between atoms: N1_7  and  C6_8 
REMARK    2  A    between atoms: C6_8  and  O1_9 
REMARK    3  A    between atoms: C6_8  and  N2_11 
REMARK       I    between atoms: N3_17  and  C12_18 
REMARK       I    between atoms: C12_18  and  N4_20 
REMARK    4  A    between atoms: N4_20  and  C13_22 
REMARK    5  A    between atoms: C16_25  and  C17_26 
ROOT
HETATM    1  N2  UNL     1      -3.158   0.866   0.341  1.00  0.00    -0.347 N 
HETATM    2  C7  UNL     1      -2.622   1.275  -0.927  1.00  0.00     0.127 C 
HETATM    3  C8  UNL     1      -1.603   0.322  -1.448  1.00  0.00     0.029 C 
HETATM    4  C9  UNL     1      -0.549   0.014  -0.378  1.00  0.00    -0.035 C 
HETATM    5  C10 UNL     1       0.247   1.214  -0.004  1.00  0.00     0.029 C 
HETATM    6  C11 UNL     1       1.399   1.316  -1.022  1.00  0.00     0.128 C 
HETATM    7  N3  UNL     1       2.325   0.293  -0.574  1.00  0.00    -0.334 N 
HETATM    8  C12 UNL     1       3.688   0.629  -0.353  1.00  0.00     0.322 C 
HETATM    9  O2  UNL     1       4.039   1.794  -0.551  1.00  0.00    -0.247 OA
HETATM   10  N4  UNL     1       4.552  -0.385   0.078  1.00  0.00    -0.309 N 
ATOM     11  H4  UNL     1       4.158  -1.316   0.210  1.00  0.00     0.170 HD
HETATM   12  C20 UNL     1       1.768  -1.021  -0.370  1.00  0.00     0.128 C 
HETATM   13  C21 UNL     1       0.364  -1.086  -0.903  1.00  0.00     0.029 C 
HETATM   14  C22 UNL     1      -1.288  -0.534   0.825  1.00  0.00     0.029 C 
HETATM   15  C23 UNL     1      -2.109   0.618   1.408  1.00  0.00     0.127 C 
ENDROOT
BRANCH   1  16
HETATM   16  C6  UNL     1      -4.442   0.595   0.729  1.00  0.00     0.217 C 
BRANCH  16  17
HETATM   17  N1  UNL     1      -5.583   0.495  -0.090  1.00  0.00    -0.340 N 
HETATM   18  C2  UNL     1      -6.964   0.368   0.422  1.00  0.00     0.086 C 
HETATM   19  C1  UNL     1      -7.103  -0.681   1.469  1.00  0.00     0.032 C 
HETATM   20  C3  UNL     1      -7.778   0.041  -0.776  1.00  0.00     0.064 C 
HETATM   21  C4  UNL     1      -6.827  -0.451  -1.830  1.00  0.00     0.190 C 
HETATM   22  F1  UNL     1      -6.428  -1.762  -1.544  1.00  0.00    -0.248 F 
HETATM   23  C5  UNL     1      -5.604   0.411  -1.524  1.00  0.00     0.164 C 
ENDBRANCH  16  17
BRANCH  16  24
HETATM   24  O1  UNL     1      -4.667   0.404   2.003  1.00  0.00    -0.332 OA
ATOM     25  H1  UNL     1      -3.897   0.471   2.556  1.00  0.00     0.220 HD
ENDBRANCH  16  24
ENDBRANCH   1  16
BRANCH  10  26
HETATM   26  C13 UNL     1       5.910  -0.217   0.340  1.00  0.00     0.036 A 
HETATM   27  C14 UNL     1       6.667   0.906   0.150  1.00  0.00     0.030 A 
HETATM   28  C15 UNL     1       8.029   0.933   0.479  1.00  0.00     0.018 A 
HETATM   29  C16 UNL     1       8.670  -0.158   1.004  1.00  0.00     0.048 A 
HETATM   30  C18 UNL     1       7.915  -1.290   1.196  1.00  0.00     0.018 A 
HETATM   31  C19 UNL     1       6.582  -1.328   0.879  1.00  0.00     0.030 A 
BRANCH  29  32
HETATM   32  C17 UNL     1      10.122  -0.139   1.358  1.00  0.00     0.417 C 
HETATM   33  F2  UNL     1      10.283  -0.478   2.695  1.00  0.00    -0.166 F 
HETATM   34  F3  UNL     1      10.563   1.163   1.144  1.00  0.00    -0.166 F 
HETATM   35  F4  UNL     1      10.833  -1.022   0.592  1.00  0.00    -0.166 F 
ENDBRANCH  29  32
ENDBRANCH  10  26
TORSDOF 5
