REMARK  6 active torsions:
REMARK  status: ('A' for Active; 'I' for Inactive)
REMARK       I    between atoms: C1_2  and  N1_3 
REMARK    1  A    between atoms: C1_2  and  C25_32 
REMARK    2  A    between atoms: N1_3  and  C2_5 
REMARK    3  A    between atoms: C5_8  and  O2_9 
REMARK    4  A    between atoms: C6_11  and  C7_12 
REMARK    5  A    between atoms: C8_13  and  C9_14 
REMARK    6  A    between atoms: C16_22  and  C17_23 
ROOT
HETATM    1  C7  UNL     1       1.557  -0.642  -0.757  1.00  0.00    -0.064 C 
HETATM    2  C8  UNL     1       0.357  -0.674  -0.866  1.00  0.00    -0.094 C 
ENDROOT
BRANCH   1   3
HETATM    3  C6  UNL     1       3.009  -0.583  -0.643  1.00  0.00     0.051 C 
HETATM    4  C5  UNL     1       3.575  -1.491   0.216  1.00  0.00     0.084 C 
HETATM    5  C4  UNL     1       4.853  -1.521   0.713  1.00  0.00     0.040 C 
HETATM    6  C3  UNL     1       5.937  -0.720   0.327  1.00  0.00     0.032 C 
HETATM    7  C2  UNL     1       5.920   0.485  -0.338  1.00  0.00     0.035 C 
HETATM    8  C24 UNL     1       4.898   0.897  -1.188  1.00  0.00     0.031 C 
HETATM    9  C23 UNL     1       3.656   0.359  -1.394  1.00  0.00     0.026 C 
BRANCH   4  10
HETATM   10  O2  UNL     1       2.735  -2.503   0.626  1.00  0.00    -0.359 OA
ATOM     11  H2  UNL     1       1.850  -2.482   0.282  1.00  0.00     0.217 HD
ENDBRANCH   4  10
BRANCH   7  12
HETATM   12  N1  UNL     1       6.904   1.280  -0.164  1.00  0.00    -0.320 N 
HETATM   13  C1  UNL     1       7.969   0.917   0.689  1.00  0.00     0.330 C 
HETATM   14  O1  UNL     1       7.818   0.750   1.936  1.00  0.00    -0.263 OA
ATOM     15  H1  UNL     1       6.921   2.180  -0.643  1.00  0.00     0.169 HD
BRANCH  13  16
HETATM   16  C25 UNL     1       9.320   0.719   0.128  1.00  0.00     0.472 C 
HETATM   17  F1  UNL     1       9.351  -0.287  -0.836  1.00  0.00    -0.162 F 
HETATM   18  F2  UNL     1      10.229   0.445   1.127  1.00  0.00    -0.162 F 
HETATM   19  F3  UNL     1       9.731   1.888  -0.516  1.00  0.00    -0.162 F 
ENDBRANCH  13  16
ENDBRANCH   7  12
ENDBRANCH   1   3
BRANCH   2  20
HETATM   20  C9  UNL     1      -1.114  -0.692  -0.988  1.00  0.00     0.089 C 
HETATM   21  C10 UNL     1      -1.527   0.716  -1.344  1.00  0.00     0.113 C 
HETATM   22  N2  UNL     1      -2.609   0.948  -0.344  1.00  0.00    -0.284 NA
HETATM   23  C11 UNL     1      -1.969   0.428   0.848  1.00  0.00     0.106 C 
HETATM   24  C16 UNL     1      -3.738   0.252  -0.840  1.00  0.00    -0.002 C 
HETATM   25  C12 UNL     1      -1.654  -0.924   0.399  1.00  0.00    -0.009 A 
HETATM   26  C13 UNL     1      -1.818  -2.231   0.856  1.00  0.00     0.018 A 
HETATM   27  C14 UNL     1      -3.066  -1.601   0.549  1.00  0.00     0.002 A 
HETATM   28  C15 UNL     1      -3.714  -1.262  -0.705  1.00  0.00     0.057 C 
BRANCH  24  29
HETATM   29  C17 UNL     1      -5.057   0.808  -0.530  1.00  0.00    -0.017 A 
HETATM   30  C18 UNL     1      -6.021   0.858  -1.511  1.00  0.00     0.013 A 
HETATM   31  C19 UNL     1      -7.298   1.366  -1.314  1.00  0.00     0.003 A 
HETATM   32  C20 UNL     1      -7.629   1.851  -0.066  1.00  0.00     0.024 A 
HETATM   33  C21 UNL     1      -6.685   1.815   0.937  1.00  0.00     0.034 A 
HETATM   34 CL1  UNL     1      -7.132   2.438   2.509  1.00  0.00    -0.084 Cl
HETATM   35  C22 UNL     1      -5.405   1.295   0.701  1.00  0.00     0.036 A 
ENDBRANCH  24  29
ENDBRANCH   2  20
TORSDOF 6
