REMARK  3 active torsions:
REMARK  status: ('A' for Active; 'I' for Inactive)
REMARK       I    between atoms: N2_10  and  C9_11 
REMARK       I    between atoms: C9_11  and  N3_13 
REMARK    1  A    between atoms: N3_13  and  C10_15 
REMARK    2  A    between atoms: C17_22  and  C18_23 
REMARK    3  A    between atoms: C22_27  and  C23_28 
ROOT
HETATM    1  C1  UNL     1      -5.309  -3.826   0.821  1.00  0.00     0.309 C 
HETATM    2  N1  UNL     1      -4.640  -2.536   0.860  1.00  0.00     0.085 N 
HETATM    3  C2  UNL     1      -4.566  -2.058  -0.495  1.00  0.00     0.272 C 
HETATM    4  C3  UNL     1      -3.106  -2.227  -0.910  1.00  0.00     0.041 C 
HETATM    5  C4  UNL     1      -2.387  -1.933   0.350  1.00  0.00    -0.012 C 
HETATM    6  C5  UNL     1      -1.044  -2.516   0.477  1.00  0.00     0.012 C 
HETATM    7  C6  UNL     1      -0.080  -2.121  -0.635  1.00  0.00     0.007 C 
HETATM    8  C7  UNL     1       0.689  -0.897  -0.274  1.00  0.00     0.008 C 
HETATM    9  C8  UNL     1       1.813  -0.719  -1.304  1.00  0.00     0.132 C 
HETATM   10  N2  UNL     1       2.471   0.549  -1.034  1.00  0.00    -0.334 N 
HETATM   11  C9  UNL     1       3.748   0.784  -0.567  1.00  0.00     0.318 C 
HETATM   12  O1  UNL     1       4.138   1.966  -0.321  1.00  0.00    -0.247 OA
HETATM   13  N3  UNL     1       4.685  -0.255  -0.332  1.00  0.00    -0.335 N 
ATOM     14  H3  UNL     1       4.418  -1.218  -0.538  1.00  0.00     0.165 HD
HETATM   15  C14 UNL     1       1.590   1.699  -1.304  1.00  0.00     0.128 C 
HETATM   16  C15 UNL     1       0.635   1.625  -0.124  1.00  0.00     0.025 C 
HETATM   17  C16 UNL     1      -0.059   0.324   0.051  1.00  0.00     0.001 C 
HETATM   18  C17 UNL     1      -1.560   0.335  -0.186  1.00  0.00     0.027 C 
HETATM   19  C25 UNL     1      -2.360  -0.463   0.745  1.00  0.00     0.021 C 
HETATM   20  C26 UNL     1      -3.291  -2.631   1.379  1.00  0.00     0.281 C 
ENDROOT
BRANCH  18  21
HETATM   21  C18 UNL     1      -2.061   1.681  -0.485  1.00  0.00    -0.014 A 
HETATM   22  C19 UNL     1      -1.779   2.292  -1.716  1.00  0.00     0.011 A 
HETATM   23  C20 UNL     1      -2.260   3.512  -2.096  1.00  0.00     0.002 A 
HETATM   24  C21 UNL     1      -3.089   4.230  -1.232  1.00  0.00     0.019 A 
HETATM   25  C22 UNL     1      -3.381   3.665  -0.025  1.00  0.00     0.086 A 
HETATM   26  C24 UNL     1      -2.880   2.430   0.324  1.00  0.00     0.138 A 
HETATM   27  F4  UNL     1      -3.222   1.985   1.546  1.00  0.00    -0.205 F 
BRANCH  25  28
HETATM   28  C23 UNL     1      -4.205   4.428   0.953  1.00  0.00     0.420 C 
HETATM   29  F1  UNL     1      -5.333   3.681   1.213  1.00  0.00    -0.166 F 
HETATM   30  F2  UNL     1      -4.506   5.687   0.506  1.00  0.00    -0.166 F 
HETATM   31  F3  UNL     1      -3.434   4.537   2.128  1.00  0.00    -0.166 F 
ENDBRANCH  25  28
ENDBRANCH  18  21
BRANCH  13  32
HETATM   32  C10 UNL     1       5.997   0.007   0.187  1.00  0.00     0.023 C 
HETATM   33  C11 UNL     1       6.817  -1.268   0.165  1.00  0.00     0.037 C 
HETATM   34  C12 UNL     1       6.744   1.112  -0.459  1.00  0.00     0.037 C 
HETATM   35  C13 UNL     1       5.789   0.288   1.697  1.00  0.00     0.037 C 
ENDBRANCH  13  32
TORSDOF 3
