REMARK  5 active torsions:
REMARK  status: ('A' for Active; 'I' for Inactive)
REMARK    1  A    between atoms: N1_5  and  C5_6 
REMARK    2  A    between atoms: N3_18  and  C16_19 
REMARK    3  A    between atoms: C16_19  and  N4_21 
REMARK    4  A    between atoms: N4_21  and  C17_23 
REMARK    5  A    between atoms: C21_28  and  C22_29 
ROOT
HETATM    1  C1  UNL     1       0.977  -1.714   2.072  1.00  0.00     0.040 C 
HETATM    2  C2  UNL     1       0.716  -1.299   0.623  1.00  0.00     0.054 C 
HETATM    3  C3  UNL     1       1.170  -2.500  -0.234  1.00  0.00     0.040 C 
HETATM    4  C4  UNL     1      -0.719  -1.135   0.345  1.00  0.00     0.303 C 
HETATM    5  N1  UNL     1      -1.276   0.183   0.405  1.00  0.00     0.098 N 
HETATM    6  C14 UNL     1      -0.524   1.142  -0.359  1.00  0.00     0.293 C 
HETATM    7  C15 UNL     1       0.940   1.030  -0.226  1.00  0.00     0.156 C 
HETATM    8  N3  UNL     1       1.501  -0.184   0.237  1.00  0.00    -0.346 N 
ENDROOT
BRANCH   8   9
HETATM    9  C16 UNL     1       2.942  -0.248   0.327  1.00  0.00     0.175 C 
HETATM   10  S1  UNL     1       3.593  -1.600   0.940  1.00  0.00    -0.041 SA
BRANCH   9  11
HETATM   11  N4  UNL     1       3.699   0.856  -0.068  1.00  0.00    -0.333 N 
ATOM     12  H4  UNL     1       3.168   1.664  -0.393  1.00  0.00     0.168 HD
BRANCH  11  13
HETATM   13  C17 UNL     1       5.108   1.002  -0.077  1.00  0.00     0.035 A 
HETATM   14  C18 UNL     1       5.660   2.293   0.042  1.00  0.00     0.032 A 
HETATM   15  C19 UNL     1       7.012   2.496   0.010  1.00  0.00     0.045 A 
HETATM   16  C20 UNL     1       7.889   1.438  -0.142  1.00  0.00     0.131 A 
HETATM   17  F1  UNL     1       9.231   1.661  -0.171  1.00  0.00    -0.205 F 
HETATM   18  C21 UNL     1       7.384   0.166  -0.262  1.00  0.00     0.088 A 
HETATM   19  C23 UNL     1       6.011  -0.010  -0.226  1.00  0.00     0.048 A 
BRANCH  18  20
HETATM   20  C22 UNL     1       8.317  -0.994  -0.426  1.00  0.00     0.420 C 
HETATM   21  F2  UNL     1       9.132  -1.013   0.704  1.00  0.00    -0.166 F 
HETATM   22  F3  UNL     1       7.590  -2.169  -0.444  1.00  0.00    -0.166 F 
HETATM   23  F4  UNL     1       9.038  -0.877  -1.583  1.00  0.00    -0.166 F 
ENDBRANCH  18  20
ENDBRANCH  11  13
ENDBRANCH   9  11
ENDBRANCH   8   9
BRANCH   5  24
HETATM   24  C5  UNL     1      -2.585   0.054  -0.271  1.00  0.00     0.251 C 
HETATM   25  C6  UNL     1      -3.366  -0.912   0.560  1.00  0.00     0.045 C 
HETATM   26  C7  UNL     1      -4.840  -0.737   0.528  1.00  0.00     0.027 C 
HETATM   27  C8  UNL     1      -5.202   0.215   1.675  1.00  0.00     0.037 C 
HETATM   28  C11 UNL     1      -5.263   0.097  -0.651  1.00  0.00     0.156 C 
HETATM   29  C9  UNL     1      -5.028   1.573   1.047  1.00  0.00     0.274 C 
HETATM   30  N2  UNL     1      -4.666   1.368  -0.344  1.00  0.00     0.100 N 
HETATM   31  C10 UNL     1      -3.245   1.386  -0.440  1.00  0.00     0.309 C 
HETATM   32  C12 UNL     1      -6.770   0.220  -0.596  1.00  0.00     0.049 C 
HETATM   33  C13 UNL     1      -4.892  -0.466  -1.979  1.00  0.00     0.049 C 
ENDBRANCH   5  24
TORSDOF 5
