REMARK  3 active torsions:
REMARK  status: ('A' for Active; 'I' for Inactive)
REMARK       I    between atoms: C2_4  and  N2_5 
REMARK       I    between atoms: C2_4  and  N3_8 
REMARK    1  A    between atoms: N4_22  and  C17_23 
REMARK    2  A    between atoms: C17_23  and  C20_30 
REMARK    3  A    between atoms: C18_24  and  C19_26 
ROOT
HETATM    1  C1  UNL     1       4.541  -2.115   1.517  1.00  0.00     0.165 C 
HETATM    2  N1  UNL     1       3.633  -1.074   1.163  1.00  0.00    -0.231 N 
ATOM      3  H1  UNL     1       3.001  -0.756   1.897  1.00  0.00     0.177 HD
HETATM    4  C2  UNL     1       3.522  -0.493   0.027  1.00  0.00     0.671 C 
HETATM    5  N2  UNL     1       4.363  -0.872  -1.049  1.00  0.00    -0.231 N 
ATOM      6  H2  UNL     1       4.000  -1.376  -1.858  1.00  0.00     0.177 HD
HETATM    7  C3  UNL     1       5.773  -0.508  -0.946  1.00  0.00     0.165 C 
HETATM    8  N3  UNL     1       2.564   0.519  -0.129  1.00  0.00    -0.216 N 
HETATM    9  C4  UNL     1       2.651   1.563  -1.136  1.00  0.00     0.141 C 
HETATM   10  C5  UNL     1       1.490   1.326  -2.059  1.00  0.00     0.023 C 
HETATM   11  C6  UNL     1       0.339   0.571  -1.513  1.00  0.00     0.039 C 
HETATM   12  C7  UNL     1       0.081   0.639  -0.076  1.00  0.00     0.077 C 
HETATM   13  C8  UNL     1       1.374   0.648   0.708  1.00  0.00     0.177 C 
HETATM   14  C9  UNL     1      -0.671   1.881   0.347  1.00  0.00    -0.022 A 
HETATM   15  C10 UNL     1      -0.988   2.896  -0.501  1.00  0.00     0.010 A 
HETATM   16  C11 UNL     1      -1.662   4.000  -0.020  1.00  0.00     0.001 A 
HETATM   17  C12 UNL     1      -2.013   4.077   1.309  1.00  0.00     0.001 A 
HETATM   18  C13 UNL     1      -1.679   3.034   2.144  1.00  0.00     0.008 A 
HETATM   19  C14 UNL     1      -1.012   1.937   1.674  1.00  0.00    -0.048 A 
HETATM   20  C15 UNL     1      -0.699   0.820   2.626  1.00  0.00     0.059 C 
HETATM   21  C16 UNL     1      -0.719  -0.502   1.946  1.00  0.00     0.129 C 
HETATM   22  N4  UNL     1      -0.701  -0.425   0.491  1.00  0.00    -0.363 N 
ENDROOT
BRANCH  22  23
HETATM   23  C17 UNL     1      -1.478  -1.417  -0.180  1.00  0.00     0.068 C 
HETATM   24  C18 UNL     1      -1.043  -2.593  -0.498  1.00  0.00     0.144 C 
HETATM   25 CL1  UNL     1       0.629  -3.095  -0.088  1.00  0.00    -0.077 Cl
BRANCH  24  26
HETATM   26  C19 UNL     1      -1.787  -3.601  -1.246  1.00  0.00     0.430 C 
HETATM   27  F1  UNL     1      -2.839  -3.184  -1.991  1.00  0.00    -0.165 F 
HETATM   28  F2  UNL     1      -0.864  -4.180  -2.148  1.00  0.00    -0.165 F 
HETATM   29  F3  UNL     1      -2.192  -4.670  -0.458  1.00  0.00    -0.165 F 
ENDBRANCH  24  26
BRANCH  23  30
HETATM   30  C20 UNL     1      -2.897  -1.120  -0.351  1.00  0.00    -0.008 A 
HETATM   31  C21 UNL     1      -3.811  -1.835   0.420  1.00  0.00     0.014 A 
HETATM   32  C22 UNL     1      -5.155  -1.636   0.340  1.00  0.00     0.001 A 
HETATM   33  C23 UNL     1      -5.668  -0.688  -0.538  1.00  0.00     0.000 A 
HETATM   34  C24 UNL     1      -4.797   0.039  -1.318  1.00  0.00     0.001 A 
HETATM   35  C25 UNL     1      -3.422  -0.197  -1.205  1.00  0.00     0.014 A 
ENDBRANCH  23  30
ENDBRANCH  22  23
TORSDOF 3
