REMARK  1 active torsions:
REMARK  status: ('A' for Active; 'I' for Inactive)
REMARK    1  A    between atoms: C2_2  and  C3_4 
ROOT
HETATM    1  C3  UNL     1       3.373  -1.161   0.138  1.00  0.00     0.009 A 
HETATM    2  C4  UNL     1       4.041  -0.065   0.646  1.00  0.00     0.047 A 
HETATM    3 CL2  UNL     1       5.569  -0.103   1.532  1.00  0.00    -0.083 Cl
HETATM    4  C5  UNL     1       3.460   1.167   0.468  1.00  0.00     0.036 A 
HETATM    5  C6  UNL     1       2.241   1.414  -0.189  1.00  0.00    -0.038 A 
HETATM    6  C7  UNL     1       1.595   0.312  -0.683  1.00  0.00     0.019 A 
HETATM    7  C8  UNL     1       2.123  -0.943  -0.532  1.00  0.00    -0.044 A 
HETATM    8  C9  UNL     1       1.524  -2.258  -0.893  1.00  0.00     0.041 C 
HETATM    9  C10 UNL     1       0.074  -2.371  -1.291  1.00  0.00     0.031 C 
HETATM   10  C11 UNL     1      -0.794  -1.841  -0.162  1.00  0.00     0.169 C 
HETATM   11  O1  UNL     1      -1.781  -1.022  -0.645  1.00  0.00    -0.380 OA
HETATM   12  C12 UNL     1      -3.003  -1.131   0.008  1.00  0.00     0.066 C 
HETATM   13  C13 UNL     1      -2.858  -1.097   1.504  1.00  0.00     0.046 C 
HETATM   14  C14 UNL     1      -3.611  -2.441  -0.466  1.00  0.00     0.046 C 
HETATM   15  C15 UNL     1      -3.896  -0.031  -0.492  1.00  0.00     0.177 C 
HETATM   16  S1  UNL     1      -3.536   1.551   0.223  1.00  0.00     0.148 S 
HETATM   17  O2  UNL     1      -4.415   2.553  -0.516  1.00  0.00    -0.228 OA
HETATM   18  O3  UNL     1      -3.882   1.581   1.678  1.00  0.00    -0.228 OA
HETATM   19  C16 UNL     1      -1.840   1.992  -0.040  1.00  0.00     0.162 C 
HETATM   20  C17 UNL     1      -1.603   3.472  -0.095  1.00  0.00     0.114 C 
HETATM   21 CL3  UNL     1      -2.702   4.336   1.008  1.00  0.00    -0.122 Cl
HETATM   22  C18 UNL     1      -0.181   3.819   0.362  1.00  0.00     0.105 C 
HETATM   23 CL4  UNL     1      -0.153   5.560   0.694  1.00  0.00    -0.123 Cl
HETATM   24  C19 UNL     1       0.851   3.530  -0.694  1.00  0.00     0.049 C 
HETATM   25  C20 UNL     1       1.963   2.708  -0.174  1.00  0.00    -0.014 C 
ENDROOT
BRANCH   1  26
HETATM   26  C2  UNL     1       3.951  -2.345   0.247  1.00  0.00     0.020 C 
HETATM   27  C1  UNL     1       5.285  -2.486   0.907  1.00  0.00     0.062 C 
HETATM   28 CL1  UNL     1       3.374  -3.904  -0.370  1.00  0.00    -0.088 Cl
ENDBRANCH   1  26
TORSDOF 1
