REMARK  1 active torsions:
REMARK  status: ('A' for Active; 'I' for Inactive)
REMARK    1  A    between atoms: C13_17  and  C14_18 
ROOT
HETATM    1  O1  UNL     1       2.346  -1.492   0.830  1.00  0.00    -0.294 OA
HETATM    2  C1  UNL     1       1.974  -0.774  -0.072  1.00  0.00     0.177 C 
HETATM    3  C2  UNL     1       0.468  -0.597  -0.078  1.00  0.00     0.099 C 
HETATM    4  C3  UNL     1      -0.044  -1.836   0.533  1.00  0.00     0.181 C 
HETATM    5  F1  UNL     1      -0.190  -1.592   1.908  1.00  0.00    -0.249 F 
HETATM    6  C4  UNL     1      -1.436  -2.338   0.058  1.00  0.00     0.038 C 
HETATM    7  C5  UNL     1      -2.154  -1.104  -0.070  1.00  0.00     0.003 C 
HETATM    8  C6  UNL     1      -3.503  -0.666  -0.302  1.00  0.00     0.000 C 
HETATM    9  C7  UNL     1      -3.316   0.873  -0.385  1.00  0.00     0.000 C 
HETATM   10  C8  UNL     1      -2.262   1.456   0.511  1.00  0.00     0.000 C 
HETATM   11  C9  UNL     1      -0.882   1.593   0.008  1.00  0.00     0.007 C 
HETATM   12  C10 UNL     1       0.223   0.725   0.577  1.00  0.00     0.024 C 
HETATM   13  C11 UNL     1       1.473   1.539   0.880  1.00  0.00     0.176 C 
HETATM   14  O2  UNL     1       2.504   1.602   0.048  1.00  0.00    -0.357 OA
HETATM   15  C12 UNL     1       2.462   1.164  -1.210  1.00  0.00     0.307 A 
HETATM   16  O3  UNL     1       3.027   0.379  -2.075  1.00  0.00    -0.330 OA
HETATM   17  C13 UNL     1       3.044  -0.255  -0.929  1.00  0.00     0.211 A 
ENDROOT
BRANCH  17  18
HETATM   18  C14 UNL     1       4.435  -0.417  -0.433  1.00  0.00     0.175 C 
HETATM   19 BR1  UNL     1       4.893   0.387   1.208  1.00  0.00    -0.056 Br
HETATM   20 BR2  UNL     1       4.680  -2.356  -0.230  1.00  0.00    -0.056 Br
HETATM   21 BR3  UNL     1       5.780   0.101  -1.749  1.00  0.00    -0.056 Br
ENDBRANCH  17  18
TORSDOF 1
