REMARK  4 active torsions:
REMARK  status: ('A' for Active; 'I' for Inactive)
REMARK    1  A    between atoms: N1_2  and  C3_4 
REMARK    2  A    between atoms: C6_8  and  C7_9 
REMARK    3  A    between atoms: C9_14  and  C10_15 
REMARK    4  A    between atoms: C11_22  and  N7_23 
ROOT
HETATM    1  C3  UNL     1      -1.537   0.025  -0.241  1.00  0.00     0.069 A 
HETATM    2  C4  UNL     1      -2.024   1.327  -0.469  1.00  0.00     0.074 A 
HETATM    3  N2  UNL     1      -3.402   1.539  -0.726  1.00  0.00    -0.100 NA
HETATM    4  C5  UNL     1      -1.208   2.426  -0.455  1.00  0.00     0.047 A 
HETATM    5  C6  UNL     1       0.145   2.216  -0.202  1.00  0.00     0.049 A 
HETATM    6  C8  UNL     1       0.617   0.942   0.021  1.00  0.00     0.038 A 
HETATM    7  S1  UNL     1       2.264   0.629   0.333  1.00  0.00    -0.067 SA
HETATM    8  C9  UNL     1       2.613  -1.017   0.575  1.00  0.00     0.117 A 
HETATM    9  N6  UNL     1       1.557  -1.792   0.484  1.00  0.00    -0.334 N 
ATOM     10  H6  UNL     1       1.733  -2.787   0.625  1.00  0.00     0.168 HD
HETATM   11  C11 UNL     1       0.285  -1.467   0.233  1.00  0.00     0.113 A 
HETATM   12  C12 UNL     1      -0.206  -0.196   0.009  1.00  0.00     0.054 A 
ENDROOT
BRANCH   8  13
HETATM   13  C10 UNL     1       3.955  -1.509   0.856  1.00  0.00     0.144 C 
HETATM   14  N4  UNL     1       4.125  -2.770   1.026  1.00  0.00    -0.385 N 
ATOM     15  H42 UNL     1       3.316  -3.387   0.958  1.00  0.00     0.157 HD
ATOM     16  H41 UNL     1       5.065  -3.115   1.223  1.00  0.00     0.157 HD
HETATM   17  N5  UNL     1       5.074  -0.656   0.950  1.00  0.00    -0.080 NA
ENDBRANCH   8  13
BRANCH  11  18
HETATM   18  N7  UNL     1      -0.530  -2.453   0.203  1.00  0.00    -0.385 N 
ATOM     19  H72 UNL     1      -0.167  -3.392   0.368  1.00  0.00     0.157 HD
ATOM     20  H71 UNL     1      -1.501  -2.205   0.011  1.00  0.00     0.157 HD
ENDBRANCH  11  18
BRANCH   5  21
HETATM   21  C7  UNL     1       1.070   3.325  -0.170  1.00  0.00     0.266 C 
HETATM   22  N3  UNL     1       2.443   3.139   0.084  1.00  0.00    -0.057 NA
HETATM   23  O1  UNL     1       0.657   4.494  -0.371  1.00  0.00    -0.271 OA
ENDBRANCH   5  21
BRANCH   1  24
HETATM   24  N1  UNL     1      -2.526  -0.968  -0.297  1.00  0.00    -0.387 N 
HETATM   25  C1  UNL     1      -3.334  -1.445   0.809  1.00  0.00     0.149 C 
HETATM   26  C2  UNL     1      -2.821  -1.555  -1.613  1.00  0.00     0.149 C 
ENDBRANCH   1  24
TORSDOF 4
