REMARK  4 active torsions:
REMARK  status: ('A' for Active; 'I' for Inactive)
REMARK    1  A    between atoms: C2_2  and  C3_3 
REMARK    2  A    between atoms: C3_3  and  N1_4 
REMARK       I    between atoms: N1_4  and  C4_6 
REMARK       I    between atoms: C4_6  and  N4_11 
REMARK    3  A    between atoms: C7_16  and  O1_17 
REMARK    4  A    between atoms: C9_20  and  C10_21 
ROOT
HETATM    1  N1  UNL     1       2.351  -0.943   0.499  1.00  0.00    -0.225 N 
ATOM      2  H1  UNL     1       2.590  -1.650   1.195  1.00  0.00     0.177 HD
HETATM    3  C4  UNL     1       1.693  -1.339  -0.689  1.00  0.00     0.688 C 
HETATM    4  N2  UNL     1       2.125  -2.247  -1.487  1.00  0.00    -0.126 N 
ATOM      5  H2  UNL     1       1.608  -2.493  -2.331  1.00  0.00     0.197 HD
HETATM    6  C5  UNL     1       3.324  -2.889  -1.165  1.00  0.00     0.196 C 
HETATM    7  N3  UNL     1       4.333  -3.433  -0.915  1.00  0.00    -0.171 NA
HETATM    8  N4  UNL     1       0.474  -0.700  -1.031  1.00  0.00    -0.178 N 
ATOM      9  H4  UNL     1       0.387  -0.184  -1.907  1.00  0.00     0.185 HD
HETATM   10  C6  UNL     1      -0.520  -0.781  -0.220  1.00  0.00     0.123 C 
HETATM   11  N5  UNL     1      -0.535  -1.467   1.030  1.00  0.00    -0.331 N 
ATOM     12  H5  UNL     1       0.219  -2.063   1.371  1.00  0.00     0.165 HD
HETATM   13  C7  UNL     1      -1.764  -1.204   1.750  1.00  0.00     0.229 C 
HETATM   14  C8  UNL     1      -2.199   0.114   1.096  1.00  0.00     0.118 C 
HETATM   15  C9  UNL     1      -1.886  -0.209  -0.349  1.00  0.00     0.115 C 
HETATM   16  N6  UNL     1      -2.769  -1.243  -0.802  1.00  0.00    -0.111 NA
HETATM   17  N7  UNL     1      -2.523  -2.382  -0.046  1.00  0.00    -0.034 NA
HETATM   18  N8  UNL     1      -2.728  -2.194   1.320  1.00  0.00    -0.070 NA
ENDROOT
BRANCH   1  19
HETATM   19  C3  UNL     1       2.693   0.438   0.751  1.00  0.00     0.137 C 
BRANCH  19  20
HETATM   20  C2  UNL     1       3.777   0.876  -0.223  1.00  0.00     0.016 C 
HETATM   21  C1  UNL     1       4.162   2.317   0.010  1.00  0.00     0.006 C 
ENDBRANCH  19  20
ENDBRANCH   1  19
BRANCH  15  22
HETATM   22  C10 UNL     1      -1.971   0.970  -1.254  1.00  0.00     0.011 C 
HETATM   23  C11 UNL     1      -3.381   1.455  -1.304  1.00  0.00     0.012 C 
HETATM   24  C12 UNL     1      -1.076   2.107  -0.889  1.00  0.00     0.012 C 
ENDBRANCH  15  22
BRANCH  13  25
HETATM   25  O1  UNL     1      -1.602  -1.107   3.100  1.00  0.00    -0.356 OA
ATOM     26  H1  UNL     1      -2.408  -0.935   3.572  1.00  0.00     0.214 HD
ENDBRANCH  13  25
TORSDOF 4
