REMARK  21 active torsions:
REMARK  status: ('A' for Active; 'I' for Inactive)
REMARK    1  A    between atoms: C2_2  and  C3_3 
REMARK    2  A    between atoms: C3_3  and  C4_4 
REMARK    3  A    between atoms: C4_4  and  N1_5 
REMARK    4  A    between atoms: N1_5  and  C5_6 
REMARK    5  A    between atoms: C5_6  and  O1_7 
REMARK    6  A    between atoms: C5_6  and  O2_9 
REMARK    7  A    between atoms: O2_9  and  C6_10 
REMARK    8  A    between atoms: C6_10  and  C7_11 
REMARK    9  A    between atoms: C8_13  and  O4_14 
REMARK   10  A    between atoms: O4_14  and  C9_15 
REMARK   11  A    between atoms: C9_15  and  C10_16 
REMARK   12  A    between atoms: C10_16  and  C11_17 
REMARK   13  A    between atoms: C11_17  and  S1_18 
REMARK   14  A    between atoms: S1_18  and  C12_20 
REMARK   15  A    between atoms: C12_20  and  N2_21 
REMARK   16  A    between atoms: N2_21  and  C13_24 
REMARK   17  A    between atoms: C13_24  and  O6_25 
REMARK   18  A    between atoms: C13_24  and  O7_27 
REMARK   19  A    between atoms: O7_27  and  C14_28 
REMARK   20  A    between atoms: C29_44  and  O9_45 
REMARK   21  A    between atoms: O9_45  and  C30_46 
REMARK       I    between atoms: C30_46  and  N3_48 
ROOT
HETATM    1  C9  UNL     1       1.895  -0.162  -1.998  1.00  0.00     0.174 C 
ENDROOT
BRANCH   1   2
HETATM    2  O4  UNL     1       2.643  -1.143  -2.652  1.00  0.00    -0.339 OA
BRANCH   2   3
HETATM    3  C8  UNL     1       4.002  -0.947  -2.363  1.00  0.00     0.413 C 
HETATM    4  O3  UNL     1       4.206  -1.891  -1.217  1.00  0.00    -0.329 OA
HETATM    5  C7  UNL     1       5.114  -1.110  -0.398  1.00  0.00     0.183 C 
HETATM    6  C29 UNL     1       6.410  -1.439  -1.200  1.00  0.00     0.193 C 
HETATM    7  C27 UNL     1       6.105  -1.828  -2.623  1.00  0.00     0.155 C 
HETATM    8  O8  UNL     1       4.940  -1.346  -3.199  1.00  0.00    -0.331 OA
HETATM    9  C28 UNL     1       6.327  -3.314  -2.838  1.00  0.00     0.042 C 
BRANCH   5  10
HETATM   10  C6  UNL     1       5.076  -1.718   0.941  1.00  0.00     0.215 C 
BRANCH  10  11
HETATM   11  O2  UNL     1       5.344  -0.888   2.042  1.00  0.00    -0.303 OA
BRANCH  11  12
HETATM   12  C5  UNL     1       4.394   0.134   2.359  1.00  0.00     0.340 C 
BRANCH  12  13
HETATM   13  N1  UNL     1       4.275   1.038   3.345  1.00  0.00    -0.376 NA
BRANCH  13  14
HETATM   14  C4  UNL     1       4.145   1.924   4.298  1.00  0.00     0.160 C 
BRANCH  14  15
HETATM   15  C3  UNL     1       4.192   3.424   4.031  1.00  0.00     0.059 C 
BRANCH  15  16
HETATM   16  C2  UNL     1       3.924   4.182   5.318  1.00  0.00     0.002 C 
HETATM   17  C1  UNL     1       4.046   5.665   5.057  1.00  0.00     0.005 C 
ENDBRANCH  15  16
ENDBRANCH  14  15
ENDBRANCH  13  14
ENDBRANCH  12  13
BRANCH  12  18
HETATM   18  O1  UNL     1       3.466   0.045   1.358  1.00  0.00    -0.316 OA
ATOM     19  H1  UNL     1       3.550  -0.594   0.661  1.00  0.00     0.222 HD
ENDBRANCH  12  18
ENDBRANCH  11  12
ENDBRANCH  10  11
ENDBRANCH   5  10
BRANCH   6  20
HETATM   20  O9  UNL     1       6.823  -2.668  -0.569  1.00  0.00    -0.293 OA
BRANCH  20  21
HETATM   21  C30 UNL     1       8.064  -2.857   0.037  1.00  0.00     0.360 C 
HETATM   22  O10 UNL     1       8.825  -1.905   0.190  1.00  0.00    -0.239 OA
HETATM   23  N3  UNL     1       8.334  -4.210   0.463  1.00  0.00    -0.341 N 
HETATM   24  C31 UNL     1       9.491  -4.539   1.319  1.00  0.00     0.151 C 
ATOM     25  H3  UNL     1       7.709  -4.958   0.165  1.00  0.00     0.164 HD
ENDBRANCH  20  21
ENDBRANCH   6  20
ENDBRANCH   2   3
ENDBRANCH   1   2
BRANCH   1  26
HETATM   26  C10 UNL     1       0.452  -0.708  -1.908  1.00  0.00     0.039 C 
BRANCH  26  27
HETATM   27  C11 UNL     1       0.534  -2.110  -1.401  1.00  0.00     0.112 C 
BRANCH  27  28
HETATM   28  S1  UNL     1      -0.849  -3.005  -0.915  1.00  0.00     0.041 S 
HETATM   29  O5  UNL     1      -1.112  -3.093   0.554  1.00  0.00    -0.256 OA
BRANCH  28  30
HETATM   30  C12 UNL     1      -2.202  -3.239  -1.998  1.00  0.00     0.346 C 
BRANCH  30  31
HETATM   31  N2  UNL     1      -2.859  -1.944  -2.281  1.00  0.00    -0.014 N 
ATOM     32  H22 UNL     1      -2.178  -1.267  -2.625  1.00  0.00     0.284 HD
ATOM     33  H21 UNL     1      -3.459  -2.021  -3.102  1.00  0.00     0.284 HD
BRANCH  31  34
HETATM   34  C13 UNL     1      -3.585  -1.405  -1.184  1.00  0.00     0.468 C 
BRANCH  34  35
HETATM   35  O6  UNL     1      -3.582  -2.101  -0.084  1.00  0.00    -0.350 OA
ATOM     36  H6  UNL     1      -4.067  -1.741   0.649  1.00  0.00     0.214 HD
ENDBRANCH  34  35
BRANCH  34  37
HETATM   37  O7  UNL     1      -4.304  -0.234  -1.139  1.00  0.00    -0.333 OA
BRANCH  37  38
HETATM   38  C14 UNL     1      -4.954   0.099   0.093  1.00  0.00     0.131 C 
HETATM   39  C15 UNL     1      -4.636   1.476   0.548  1.00  0.00     0.037 C 
HETATM   40  C16 UNL     1      -5.796   2.450   0.514  1.00  0.00    -0.011 C 
HETATM   41  C17 UNL     1      -6.918   1.925   1.405  1.00  0.00     0.005 C 
HETATM   42  C26 UNL     1      -6.232   2.864  -0.841  1.00  0.00     0.014 C 
HETATM   43  C18 UNL     1      -7.139   0.458   1.119  1.00  0.00     0.008 C 
HETATM   44  C19 UNL     1      -6.485  -0.009  -0.118  1.00  0.00     0.019 C 
HETATM   45  C20 UNL     1      -6.818   0.522  -1.412  1.00  0.00     0.000 C 
HETATM   46  C21 UNL     1      -7.828  -0.129  -2.290  1.00  0.00     0.006 C 
HETATM   47  C24 UNL     1      -7.189   1.963  -1.543  1.00  0.00    -0.040 C 
HETATM   48  C22 UNL     1      -7.830   0.799  -3.494  1.00  0.00     0.001 C 
HETATM   49  C23 UNL     1      -7.024   2.035  -3.092  1.00  0.00     0.009 C 
HETATM   50  C25 UNL     1      -8.620   2.321  -1.359  1.00  0.00     0.015 C 
ENDBRANCH  37  38
ENDBRANCH  34  37
ENDBRANCH  31  34
ENDBRANCH  30  31
ENDBRANCH  28  30
ENDBRANCH  27  28
ENDBRANCH  26  27
ENDBRANCH   1  26
TORSDOF 21
