REMARK  17 active torsions:
REMARK  status: ('A' for Active; 'I' for Inactive)
REMARK    1  A    between atoms: C2_2  and  C4_4 
REMARK    2  A    between atoms: C4_4  and  C5_5 
REMARK    3  A    between atoms: C5_5  and  O1_6 
REMARK    4  A    between atoms: C5_5  and  C6_8 
REMARK    5  A    between atoms: C17_23  and  N2_24 
REMARK       I    between atoms: N2_24  and  C18_26 
REMARK    6  A    between atoms: C18_26  and  C19_28 
REMARK    7  A    between atoms: C19_28  and  C20_29 
REMARK    8  A    between atoms: C20_29  and  C21_30 
REMARK    9  A    between atoms: C22_31  and  C23_32 
REMARK   10  A    between atoms: C24_33  and  C25_34 
REMARK   11  A    between atoms: N3_35  and  C26_36 
REMARK   12  A    between atoms: C26_36  and  C27_37 
REMARK   13  A    between atoms: C27_37  and  C28_38 
REMARK   14  A    between atoms: C28_38  and  O5_39 
REMARK   15  A    between atoms: O5_39  and  N4_40 
REMARK   16  A    between atoms: N4_40  and  O6_42 
REMARK   17  A    between atoms: C30_46  and  S1_48 
ROOT
HETATM    1  N2  UNL     1      -0.708  -0.269  -0.214  1.00  0.00    -0.344 N 
ATOM      2  H2  UNL     1      -0.474  -0.876  -1.000  1.00  0.00     0.164 HD
HETATM    3  C18 UNL     1       0.315   0.130   0.648  1.00  0.00     0.249 C 
HETATM    4  O4  UNL     1       0.043   0.901   1.646  1.00  0.00    -0.268 OA
ENDROOT
BRANCH   1   5
HETATM    5  C17 UNL     1      -2.137   0.154  -0.037  1.00  0.00     0.147 C 
HETATM    6  C16 UNL     1      -2.343   1.016  -1.282  1.00  0.00     0.036 C 
HETATM    7  C15 UNL     1      -1.516   2.249  -1.319  1.00  0.00     0.004 C 
HETATM    8  C14 UNL     1      -2.126   3.461  -0.680  1.00  0.00     0.020 C 
HETATM    9  C13 UNL     1      -3.571   3.653  -0.966  1.00  0.00     0.125 C 
HETATM   10  N1  UNL     1      -3.992   5.010  -1.183  1.00  0.00    -0.337 N 
HETATM   11  C12 UNL     1      -5.016   5.601  -0.401  1.00  0.00     0.360 C 
ATOM     12  H1  UNL     1      -3.544   5.560  -1.916  1.00  0.00     0.164 HD
HETATM   13  O2  UNL     1      -5.982   4.857   0.250  1.00  0.00    -0.304 OA
HETATM   14  O3  UNL     1      -4.996   6.872  -0.327  1.00  0.00    -0.239 OA
HETATM   15  C11 UNL     1      -6.753   3.825  -0.347  1.00  0.00     0.180 C 
HETATM   16  C10 UNL     1      -7.125   2.773   0.656  1.00  0.00     0.027 C 
HETATM   17  C9  UNL     1      -7.458   1.439   0.071  1.00  0.00     0.002 C 
HETATM   18  C8  UNL     1      -6.278   0.702  -0.527  1.00  0.00     0.001 C 
HETATM   19  C7  UNL     1      -5.360   0.121   0.453  1.00  0.00     0.018 C 
HETATM   20  C6  UNL     1      -4.842  -1.221   0.319  1.00  0.00     0.078 C 
HETATM   21  S2  UNL     1      -3.078  -1.321  -0.202  1.00  0.00    -0.136 SA
BRANCH  20  22
HETATM   22  C5  UNL     1      -5.492  -2.238  -0.524  1.00  0.00     0.132 C 
BRANCH  22  23
HETATM   23  C4  UNL     1      -6.838  -2.735  -0.333  1.00  0.00     0.037 C 
BRANCH  23  24
HETATM   24  C2  UNL     1      -7.367  -3.237   0.927  1.00  0.00    -0.020 C 
HETATM   25  C1  UNL     1      -7.430  -2.306   2.105  1.00  0.00     0.009 C 
HETATM   26  C3  UNL     1      -6.830  -4.564   1.390  1.00  0.00     0.009 C 
ENDBRANCH  23  24
ENDBRANCH  22  23
BRANCH  22  27
HETATM   27  O1  UNL     1      -5.371  -1.883  -1.918  1.00  0.00    -0.394 OA
ATOM     28  H1  UNL     1      -4.488  -1.557  -2.043  1.00  0.00     0.210 HD
ENDBRANCH  22  27
ENDBRANCH  20  22
ENDBRANCH   1   5
BRANCH   3  29
HETATM   29  C19 UNL     1       1.692  -0.272   0.499  1.00  0.00     0.129 C 
BRANCH  29  30
HETATM   30  C20 UNL     1       2.280  -1.044  -0.335  1.00  0.00    -0.123 C 
BRANCH  30  31
HETATM   31  C21 UNL     1       2.906  -1.873  -1.232  1.00  0.00     0.055 C 
HETATM   32  C22 UNL     1       4.226  -2.141  -1.211  1.00  0.00     0.008 C 
BRANCH  32  33
HETATM   33  C23 UNL     1       5.050  -1.531  -0.187  1.00  0.00    -0.001 C 
HETATM   34  C24 UNL     1       6.365  -1.827  -0.202  1.00  0.00     0.000 C 
BRANCH  34  35
HETATM   35  C25 UNL     1       7.318  -1.302   0.756  1.00  0.00     0.140 C 
HETATM   36  N3  UNL     1       8.280  -0.319   0.397  1.00  0.00    -0.340 N 
HETATM   37  C29 UNL     1       9.271  -1.302   0.103  1.00  0.00     0.243 C 
HETATM   38  O7  UNL     1      10.330  -1.403  -0.541  1.00  0.00    -0.271 OA
HETATM   39  C30 UNL     1       8.469  -2.254   0.947  1.00  0.00     0.138 C 
HETATM   40  C31 UNL     1       8.984  -2.335   2.374  1.00  0.00     0.042 C 
BRANCH  36  41
HETATM   41  C26 UNL     1       8.338   1.113   0.339  1.00  0.00     0.129 C 
BRANCH  41  42
HETATM   42  C27 UNL     1       7.910   1.570  -1.036  1.00  0.00     0.049 C 
BRANCH  42  43
HETATM   43  C28 UNL     1       8.044   3.094  -1.104  1.00  0.00     0.205 C 
BRANCH  43  44
HETATM   44  O5  UNL     1       7.268   3.748  -0.133  1.00  0.00    -0.260 OA
BRANCH  44  45
HETATM   45  N4  UNL     1       7.286   5.114  -0.069  1.00  0.00    -0.174 N 
ATOM     46  H4  UNL     1       6.412   5.633   0.020  1.00  0.00     0.223 HD
BRANCH  45  47
HETATM   47  O6  UNL     1       8.371   5.723  -0.119  1.00  0.00    -0.269 OA
ATOM     48  H6  UNL     1       8.384   6.672  -0.075  1.00  0.00     0.246 HD
ENDBRANCH  45  47
ENDBRANCH  44  45
ENDBRANCH  43  44
ENDBRANCH  42  43
ENDBRANCH  41  42
ENDBRANCH  36  41
BRANCH  39  49
HETATM   49  S1  UNL     1       8.399  -3.824   0.134  1.00  0.00     0.031 S 
HETATM   50  C32 UNL     1       9.898  -4.706   0.625  1.00  0.00     0.128 C 
HETATM   51  O8  UNL     1       8.637  -3.549  -1.543  1.00  0.00    -0.257 OA
ENDBRANCH  39  49
ENDBRANCH  34  35
ENDBRANCH  32  33
ENDBRANCH  30  31
ENDBRANCH  29  30
ENDBRANCH   3  29
TORSDOF 17
