REMARK  16 active torsions:
REMARK  status: ('A' for Active; 'I' for Inactive)
REMARK    1  A    between atoms: C2_2  and  C3_3 
REMARK    2  A    between atoms: C3_3  and  C4_4 
REMARK    3  A    between atoms: C4_4  and  C5_5 
REMARK    4  A    between atoms: C4_4  and  C27_38 
REMARK    5  A    between atoms: C5_5  and  C6_6 
REMARK    6  A    between atoms: C6_6  and  C7_7 
REMARK    7  A    between atoms: C7_7  and  C8_8 
REMARK    8  A    between atoms: C8_8  and  N1_9 
REMARK       I    between atoms: N1_9  and  C9_11 
REMARK    9  A    between atoms: C9_11  and  C10_13 
REMARK       I    between atoms: N2_14  and  C11_15 
REMARK   10  A    between atoms: C11_15  and  O3_17 
REMARK   11  A    between atoms: O3_17  and  C12_18 
REMARK   12  A    between atoms: C21_29  and  C22_30 
REMARK   13  A    between atoms: C22_30  and  O5_32 
REMARK       I    between atoms: C27_38  and  N4_40 
REMARK   14  A    between atoms: N4_40  and  S2_42 
REMARK   15  A    between atoms: S2_42  and  C28_45 
REMARK   16  A    between atoms: C28_45  and  C30_47 
ROOT
HETATM    1  C10 UNL     1      -1.774  -0.115   0.046  1.00  0.00     0.103 C 
HETATM    2  N2  UNL     1      -3.236   0.018   0.247  1.00  0.00    -0.278 N 
HETATM    3  C11 UNL     1      -3.705  -0.025   1.548  1.00  0.00     0.369 C 
HETATM    4  O2  UNL     1      -4.904   0.082   1.957  1.00  0.00    -0.238 OA
HETATM    5  C16 UNL     1      -4.101   0.109  -0.919  1.00  0.00     0.073 C 
HETATM    6  C17 UNL     1      -5.469   0.549  -0.462  1.00  0.00     0.078 C 
HETATM    7  C18 UNL     1      -6.363   0.942  -1.630  1.00  0.00     0.062 C 
HETATM    8  N3  UNL     1      -5.837   2.000  -2.393  1.00  0.00    -0.382 N 
ATOM      9  H3  UNL     1      -6.451   2.686  -2.833  1.00  0.00     0.163 HD
HETATM   10  C19 UNL     1      -4.449   2.084  -2.530  1.00  0.00     0.062 C 
HETATM   11  C20 UNL     1      -3.543   1.117  -1.898  1.00  0.00     0.078 C 
HETATM   12  C21 UNL     1      -4.181  -1.301  -1.394  1.00  0.00     0.177 C 
HETATM   13  S1  UNL     1      -2.962  -2.442  -0.664  1.00  0.00    -0.136 SA
HETATM   14  C24 UNL     1      -1.439  -1.553  -0.107  1.00  0.00     0.050 C 
HETATM   15  C25 UNL     1      -0.450  -1.796  -1.246  1.00  0.00     0.034 C 
HETATM   16  C26 UNL     1      -0.964  -2.290   1.086  1.00  0.00     0.034 C 
ENDROOT
BRANCH   1  17
HETATM   17  C9  UNL     1      -0.993   0.768   0.869  1.00  0.00     0.266 C 
HETATM   18  N1  UNL     1       0.368   0.598   1.204  1.00  0.00    -0.356 N 
ATOM     19  H1  UNL     1       0.865  -0.223   0.858  1.00  0.00     0.162 HD
HETATM   20  O1  UNL     1      -1.513   1.840   1.386  1.00  0.00    -0.266 OA
BRANCH  18  21
HETATM   21  C8  UNL     1       1.074   1.554   2.022  1.00  0.00     0.123 C 
BRANCH  21  22
HETATM   22  C7  UNL     1       1.177   2.855   1.288  1.00  0.00     0.020 C 
BRANCH  22  23
HETATM   23  C6  UNL     1       1.971   2.667  -0.019  1.00  0.00     0.002 C 
BRANCH  23  24
HETATM   24  C5  UNL     1       3.352   2.256   0.363  1.00  0.00     0.014 C 
BRANCH  24  25
HETATM   25  C4  UNL     1       4.291   2.021  -0.790  1.00  0.00     0.079 C 
BRANCH  25  26
HETATM   26  C3  UNL     1       4.465   3.212  -1.672  1.00  0.00     0.013 C 
BRANCH  26  27
HETATM   27  C2  UNL     1       5.028   4.398  -0.919  1.00  0.00    -0.004 C 
HETATM   28  C1  UNL     1       6.378   3.994  -0.364  1.00  0.00     0.005 C 
ENDBRANCH  26  27
ENDBRANCH  25  26
BRANCH  25  29
HETATM   29  C27 UNL     1       4.056   0.774  -1.507  1.00  0.00     0.235 C 
HETATM   30  O6  UNL     1       3.912   0.756  -2.765  1.00  0.00    -0.272 OA
HETATM   31  N4  UNL     1       3.981  -0.469  -0.818  1.00  0.00    -0.254 N 
ATOM     32  H4  UNL     1       4.093  -0.446   0.196  1.00  0.00     0.181 HD
BRANCH  31  33
HETATM   33  S2  UNL     1       3.721  -1.990  -1.533  1.00  0.00     0.236 S 
HETATM   34  O7  UNL     1       2.928  -2.849  -0.554  1.00  0.00    -0.205 OA
HETATM   35  O8  UNL     1       2.922  -1.857  -2.775  1.00  0.00    -0.205 OA
BRANCH  33  36
HETATM   36  C28 UNL     1       5.216  -2.898  -1.847  1.00  0.00     0.125 C 
HETATM   37  C29 UNL     1       4.821  -4.232  -2.482  1.00  0.00     0.028 C 
BRANCH  36  38
HETATM   38  C30 UNL     1       5.956  -3.248  -0.573  1.00  0.00     0.017 C 
HETATM   39  C31 UNL     1       6.375  -2.053   0.230  1.00  0.00     0.006 C 
ENDBRANCH  36  38
ENDBRANCH  33  36
ENDBRANCH  31  33
ENDBRANCH  25  29
ENDBRANCH  24  25
ENDBRANCH  23  24
ENDBRANCH  22  23
ENDBRANCH  21  22
ENDBRANCH  18  21
ENDBRANCH   1  17
BRANCH   3  40
HETATM   40  O3  UNL     1      -2.840  -0.209   2.643  1.00  0.00    -0.294 OA
BRANCH  40  41
HETATM   41  C12 UNL     1      -3.195  -0.270   3.967  1.00  0.00     0.061 C 
HETATM   42  C13 UNL     1      -4.153  -1.416   4.224  1.00  0.00     0.046 C 
HETATM   43  C14 UNL     1      -3.776   0.964   4.565  1.00  0.00     0.046 C 
HETATM   44  C15 UNL     1      -1.920  -0.576   4.764  1.00  0.00     0.046 C 
ENDBRANCH  40  41
ENDBRANCH   3  40
BRANCH  12  45
HETATM   45  C22 UNL     1      -4.241  -1.603  -2.797  1.00  0.00     0.275 C 
HETATM   46  O4  UNL     1      -4.284  -0.790  -3.716  1.00  0.00    -0.264 OA
BRANCH  45  47
HETATM   47  O5  UNL     1      -4.255  -2.954  -3.219  1.00  0.00    -0.326 OA
HETATM   48  C23 UNL     1      -4.315  -3.283  -4.587  1.00  0.00     0.213 C 
ENDBRANCH  45  47
ENDBRANCH  12  45
TORSDOF 16
