REMARK  17 active torsions:
REMARK  status: ('A' for Active; 'I' for Inactive)
REMARK    1  A    between atoms: C3_3  and  C4_4 
REMARK    2  A    between atoms: C9_10  and  O2_11 
REMARK    3  A    between atoms: C13_17  and  C14_18 
REMARK    4  A    between atoms: C14_18  and  C15_19 
REMARK    5  A    between atoms: C15_19  and  C16_21 
REMARK    6  A    between atoms: C16_21  and  C17_22 
REMARK    7  A    between atoms: C17_22  and  C18_23 
REMARK    8  A    between atoms: C18_23  and  C19_25 
REMARK    9  A    between atoms: C19_25  and  C20_26 
REMARK   10  A    between atoms: C20_26  and  C21_27 
REMARK   11  A    between atoms: C21_27  and  C22_28 
REMARK   12  A    between atoms: C22_28  and  C23_29 
REMARK   13  A    between atoms: C23_29  and  C24_30 
REMARK   14  A    between atoms: C24_30  and  C25_32 
REMARK   15  A    between atoms: C25_32  and  C26_33 
REMARK   16  A    between atoms: C26_33  and  O7_34 
REMARK   17  A    between atoms: C26_33  and  C27_36 
ROOT
HETATM    1  C4  UNL     1      -5.887   0.072   0.129  1.00  0.00     0.085 C 
HETATM    2  C5  UNL     1      -5.664   1.118   1.218  1.00  0.00     0.037 C 
HETATM    3  C6  UNL     1      -5.512   0.428   2.552  1.00  0.00     0.056 C 
HETATM    4  C7  UNL     1      -6.174   1.264   3.676  1.00  0.00     0.018 C 
HETATM    5  C8  UNL     1      -6.281  -0.772   2.352  1.00  0.00     0.167 C 
HETATM    6  O1  UNL     1      -7.054  -1.365   3.074  1.00  0.00    -0.294 OA
HETATM    7  C9  UNL     1      -5.895  -1.180   0.926  1.00  0.00     0.151 C 
HETATM    8  C10 UNL     1      -4.522  -1.743   1.092  1.00  0.00     0.068 C 
HETATM    9  C11 UNL     1      -4.041  -2.097   2.479  1.00  0.00     0.028 C 
HETATM   10  C12 UNL     1      -4.082  -2.878   0.240  1.00  0.00     0.144 C 
HETATM   11  O3  UNL     1      -4.448  -4.017   0.105  1.00  0.00    -0.297 OA
HETATM   12  C13 UNL     1      -3.040  -1.995  -0.335  1.00  0.00     0.075 C 
HETATM   13  C31 UNL     1      -3.658  -0.795   0.301  1.00  0.00     0.087 C 
HETATM   14  C32 UNL     1      -4.556   0.043  -0.525  1.00  0.00     0.149 C 
HETATM   15  O9  UNL     1      -4.209   0.572  -1.522  1.00  0.00    -0.296 OA
ENDROOT
BRANCH  12  16
HETATM   16  C14 UNL     1      -1.642  -2.318   0.091  1.00  0.00     0.091 C 
BRANCH  16  17
HETATM   17  C15 UNL     1      -0.644  -1.381  -0.515  1.00  0.00     0.128 C 
HETATM   18  O4  UNL     1      -0.383  -1.579  -1.684  1.00  0.00    -0.298 OA
BRANCH  17  19
HETATM   19  C16 UNL     1      -0.017  -0.291   0.244  1.00  0.00     0.085 C 
BRANCH  19  20
HETATM   20  C17 UNL     1       1.313  -0.596   0.840  1.00  0.00     0.085 C 
BRANCH  20  21
HETATM   21  C18 UNL     1       2.392  -0.917  -0.093  1.00  0.00     0.127 C 
HETATM   22  O5  UNL     1       2.337  -0.909  -1.310  1.00  0.00    -0.298 OA
BRANCH  21  23
HETATM   23  C19 UNL     1       3.724  -1.298   0.515  1.00  0.00     0.078 C 
BRANCH  23  24
HETATM   24  C20 UNL     1       4.298  -0.045   1.118  1.00  0.00     0.007 C 
BRANCH  24  25
HETATM   25  C21 UNL     1       4.508   1.075   0.160  1.00  0.00     0.001 C 
BRANCH  25  26
HETATM   26  C22 UNL     1       5.463   0.782  -0.961  1.00  0.00     0.007 C 
BRANCH  26  27
HETATM   27  C23 UNL     1       6.841   0.425  -0.445  1.00  0.00     0.078 C 
BRANCH  27  28
HETATM   28  C24 UNL     1       7.724   0.173  -1.600  1.00  0.00     0.129 C 
HETATM   29  O6  UNL     1       7.327   0.290  -2.720  1.00  0.00    -0.298 OA
BRANCH  28  30
HETATM   30  C25 UNL     1       9.141  -0.236  -1.318  1.00  0.00     0.112 C 
BRANCH  30  31
HETATM   31  C26 UNL     1      10.073   0.937  -1.317  1.00  0.00     0.158 C 
BRANCH  31  32
HETATM   32  O7  UNL     1      10.137   1.637  -2.493  1.00  0.00    -0.393 OA
ATOM     33  H7  UNL     1      10.728   2.381  -2.492  1.00  0.00     0.210 HD
ENDBRANCH  31  32
BRANCH  31  34
HETATM   34  C27 UNL     1      11.460   0.407  -0.961  1.00  0.00     0.238 C 
HETATM   35  C28 UNL     1      12.378   1.589  -0.765  1.00  0.00     0.203 C 
HETATM   36  O8  UNL     1      13.070   1.365   0.424  1.00  0.00    -0.387 OA
HETATM   37  C29 UNL     1      13.635   0.098   0.349  1.00  0.00     0.195 C 
HETATM   38  C30 UNL     1      12.556  -0.938   0.603  1.00  0.00     0.259 C 
HETATM   39  N1  UNL     1      11.292  -0.330   0.296  1.00  0.00    -0.064 N 
ATOM     40  H12 UNL     1      10.933   0.250   1.054  1.00  0.00     0.277 HD
ATOM     41  H11 UNL     1      10.523  -0.999   0.267  1.00  0.00     0.277 HD
ENDBRANCH  31  34
ENDBRANCH  30  31
ENDBRANCH  28  30
ENDBRANCH  27  28
ENDBRANCH  26  27
ENDBRANCH  25  26
ENDBRANCH  24  25
ENDBRANCH  23  24
ENDBRANCH  21  23
ENDBRANCH  20  21
ENDBRANCH  19  20
ENDBRANCH  17  19
ENDBRANCH  16  17
ENDBRANCH  12  16
BRANCH   7  42
HETATM   42  O2  UNL     1      -6.737  -2.189   0.590  1.00  0.00    -0.379 OA
ATOM     43  H2  UNL     1      -6.742  -2.990   1.100  1.00  0.00     0.211 HD
ENDBRANCH   7  42
BRANCH   1  44
HETATM   44  C3  UNL     1      -7.052   0.396  -0.744  1.00  0.00    -0.051 C 
HETATM   45  C2  UNL     1      -7.351  -0.385  -1.757  1.00  0.00    -0.079 C 
HETATM   46  C1  UNL     1      -6.645  -1.602  -2.187  1.00  0.00     0.043 C 
HETATM   47  C38 UNL     1      -8.610  -0.196  -2.649  1.00  0.00     0.034 C 
HETATM   48  C37 UNL     1      -9.620   0.627  -1.907  1.00  0.00     0.005 C 
HETATM   49  C36 UNL     1      -8.829   1.877  -1.691  1.00  0.00     0.013 C 
HETATM   50  C33 UNL     1      -7.856   1.675  -0.546  1.00  0.00    -0.023 C 
HETATM   51  C34 UNL     1      -8.759   1.656   0.649  1.00  0.00     0.019 C 
HETATM   52  C35 UNL     1      -7.018   2.932  -0.695  1.00  0.00     0.019 C 
ENDBRANCH   1  44
TORSDOF 17
