REMARK  19 active torsions:
REMARK  status: ('A' for Active; 'I' for Inactive)
REMARK    1  A    between atoms: O1_2  and  C2_3 
REMARK    2  A    between atoms: C2_3  and  C3_5 
REMARK    3  A    between atoms: C3_5  and  C4_6 
REMARK    4  A    between atoms: C4_6  and  C5_7 
REMARK    5  A    between atoms: C6_8  and  C7_9 
REMARK    6  A    between atoms: C8_11  and  C9_12 
REMARK    7  A    between atoms: C9_12  and  C10_13 
REMARK    8  A    between atoms: C9_12  and  C16_19 
REMARK    9  A    between atoms: C16_19  and  C17_20 
REMARK   10  A    between atoms: C16_19  and  C25_29 
REMARK   11  A    between atoms: C17_20  and  C18_21 
REMARK   12  A    between atoms: C25_29  and  O5_30 
REMARK   13  A    between atoms: C25_29  and  N1_32 
REMARK   14  A    between atoms: C28_37  and  C29_38 
REMARK       I    between atoms: C29_38  and  N2_40 
REMARK   15  A    between atoms: N2_40  and  C30_42 
REMARK   16  A    between atoms: C30_42  and  C31_43 
REMARK   17  A    between atoms: C31_43  and  N3_44 
REMARK   18  A    between atoms: C31_43  and  C32_48 
REMARK   19  A    between atoms: C32_48  and  S1_52 
ROOT
HETATM    1  C16 UNL     1      -1.254  -1.433   0.581  1.00  0.00     0.070 C 
ENDROOT
BRANCH   1   2
HETATM    2  C9  UNL     1      -2.083  -0.830  -0.584  1.00  0.00     0.033 C 
BRANCH   2   3
HETATM    3  C8  UNL     1      -1.203  -0.325  -1.630  1.00  0.00     0.160 A 
HETATM    4  C7  UNL     1      -0.494   0.974  -1.402  1.00  0.00     0.174 A 
HETATM    5  O3  UNL     1      -1.313   0.677  -2.519  1.00  0.00    -0.371 OA
BRANCH   4   6
HETATM    6  C6  UNL     1      -1.192   2.124  -0.686  1.00  0.00     0.003 C 
HETATM    7  C5  UNL     1      -0.870   3.374  -0.993  1.00  0.00    -0.028 C 
BRANCH   7   8
HETATM    8  C4  UNL     1      -1.489   4.555  -0.356  1.00  0.00     0.037 C 
BRANCH   8   9
HETATM    9  C3  UNL     1      -2.524   4.144   0.679  1.00  0.00     0.115 C 
BRANCH   9  10
HETATM   10  C2  UNL     1      -3.136   5.349   1.312  1.00  0.00     0.258 C 
HETATM   11  O2  UNL     1      -4.015   5.163   2.179  1.00  0.00    -0.265 OA
BRANCH  10  12
HETATM   12  O1  UNL     1      -2.764   6.634   0.969  1.00  0.00    -0.326 OA
HETATM   13  C1  UNL     1      -3.371   7.745   1.595  1.00  0.00     0.213 C 
ENDBRANCH  10  12
ENDBRANCH   9  10
ENDBRANCH   8   9
ENDBRANCH   7   8
ENDBRANCH   4   6
ENDBRANCH   2   3
BRANCH   2  14
HETATM   14  C10 UNL     1      -2.901  -2.031  -1.065  1.00  0.00    -0.007 C 
HETATM   15  C11 UNL     1      -3.704  -1.549  -2.321  1.00  0.00     0.005 C 
HETATM   16  C12 UNL     1      -4.622  -2.654  -2.721  1.00  0.00     0.000 C 
HETATM   17  C13 UNL     1      -4.386  -3.963  -2.032  1.00  0.00     0.000 C 
HETATM   18  C14 UNL     1      -4.477  -3.823  -0.527  1.00  0.00     0.000 C 
HETATM   19  C15 UNL     1      -3.981  -2.432  -0.119  1.00  0.00     0.005 C 
ENDBRANCH   2  14
ENDBRANCH   1   2
BRANCH   1  20
HETATM   20  C17 UNL     1      -0.386  -2.534   0.087  1.00  0.00     0.045 C 
BRANCH  20  21
HETATM   21  C18 UNL     1       0.320  -3.314   1.183  1.00  0.00     0.126 C 
HETATM   22  O4  UNL     1      -0.669  -3.923   2.016  1.00  0.00    -0.380 OA
HETATM   23  C19 UNL     1      -0.325  -5.232   2.307  1.00  0.00     0.122 C 
HETATM   24  C20 UNL     1      -0.339  -6.121   1.067  1.00  0.00     0.032 C 
HETATM   25  C24 UNL     1       1.060  -5.343   2.918  1.00  0.00     0.032 C 
HETATM   26  C21 UNL     1       0.518  -5.483  -0.024  1.00  0.00     0.010 C 
HETATM   27  C22 UNL     1       1.255  -4.342   0.631  1.00  0.00     0.015 C 
HETATM   28  C23 UNL     1       2.032  -4.929   1.815  1.00  0.00     0.010 C 
ENDBRANCH  20  21
ENDBRANCH   1  20
BRANCH   1  29
HETATM   29  C25 UNL     1      -0.689  -0.457   1.500  1.00  0.00     0.127 C 
BRANCH  29  30
HETATM   30  O5  UNL     1      -1.617   0.097   2.310  1.00  0.00    -0.349 OA
ATOM     31  H5  UNL     1      -1.248   0.734   2.910  1.00  0.00     0.219 HD
ENDBRANCH  29  30
BRANCH  29  32
HETATM   32  N1  UNL     1       0.599   0.052   1.751  1.00  0.00    -0.261 N 
HETATM   33  C26 UNL     1       0.830   1.029   2.838  1.00  0.00     0.369 C 
HETATM   34  O6  UNL     1       0.037   1.901   3.257  1.00  0.00    -0.238 OA
HETATM   35  O7  UNL     1       2.136   0.774   3.306  1.00  0.00    -0.301 OA
HETATM   36  C27 UNL     1       2.668  -0.354   2.605  1.00  0.00     0.216 C 
HETATM   37  C28 UNL     1       1.929  -0.097   1.251  1.00  0.00     0.213 C 
BRANCH  37  38
HETATM   38  C29 UNL     1       2.580   1.193   0.815  1.00  0.00     0.243 C 
HETATM   39  O8  UNL     1       1.960   2.238   0.985  1.00  0.00    -0.271 OA
HETATM   40  N2  UNL     1       3.853   1.125   0.242  1.00  0.00    -0.357 N 
ATOM     41  H2  UNL     1       4.251   0.189   0.170  1.00  0.00     0.162 HD
BRANCH  40  42
HETATM   42  C30 UNL     1       4.673   2.177  -0.256  1.00  0.00     0.162 C 
BRANCH  42  43
HETATM   43  C31 UNL     1       4.149   2.915  -1.446  1.00  0.00     0.257 C 
BRANCH  43  44
HETATM   44  N3  UNL     1       2.910   3.575  -1.243  1.00  0.00    -0.068 N 
ATOM     45  H33 UNL     1       2.211   2.915  -0.902  1.00  0.00     0.275 HD
ATOM     46  H32 UNL     1       2.971   4.200  -0.439  1.00  0.00     0.275 HD
ATOM     47  H31 UNL     1       2.553   4.078  -2.055  1.00  0.00     0.275 HD
ENDBRANCH  43  44
BRANCH  43  48
HETATM   48  C32 UNL     1       5.206   3.854  -1.953  1.00  0.00     0.072 C 
HETATM   49  N4  UNL     1       5.628   3.733  -3.146  1.00  0.00    -0.395 N 
ATOM     50  H42 UNL     1       5.239   2.998  -3.736  1.00  0.00     0.156 HD
ATOM     51  H41 UNL     1       6.346   4.371  -3.490  1.00  0.00     0.156 HD
BRANCH  48  52
HETATM   52  S1  UNL     1       5.886   5.138  -0.922  1.00  0.00    -0.119 SA
HETATM   53  C33 UNL     1       7.135   6.081  -1.831  1.00  0.00     0.097 C 
ENDBRANCH  48  52
ENDBRANCH  43  48
ENDBRANCH  42  43
ENDBRANCH  40  42
ENDBRANCH  37  38
ENDBRANCH  29  32
ENDBRANCH   1  29
TORSDOF 19
