REMARK  11 active torsions:
REMARK  status: ('A' for Active; 'I' for Inactive)
REMARK    1  A    between atoms: C2_3  and  C3_4 
REMARK    2  A    between atoms: C2_3  and  C14_24 
REMARK    3  A    between atoms: C3_4  and  O1_5 
REMARK    4  A    between atoms: O1_5  and  C4_6 
REMARK    5  A    between atoms: C9_11  and  C10_12 
REMARK    6  A    between atoms: C10_12  and  O2_13 
REMARK    7  A    between atoms: C11_15  and  O3_16 
REMARK    8  A    between atoms: C12_18  and  O4_19 
REMARK    9  A    between atoms: C13_21  and  O5_22 
REMARK   10  A    between atoms: C14_24  and  S1_25 
REMARK   11  A    between atoms: S1_25  and  C15_26 
ROOT
HETATM    1  C1  UNL     1       1.078  -4.572  -1.360  1.00  0.00     0.221 C 
HETATM    2  N1  UNL     1       1.312  -3.455  -1.591  1.00  0.00    -0.463 NA
HETATM    3  C2  UNL     1       1.584  -2.116  -1.880  1.00  0.00     0.194 C 
ENDROOT
BRANCH   3   4
HETATM    4  C3  UNL     1       0.391  -1.238  -1.735  1.00  0.00     0.208 C 
BRANCH   4   5
HETATM    5  O1  UNL     1      -0.138  -1.241  -0.471  1.00  0.00    -0.380 OA
BRANCH   5   6
HETATM    6  C4  UNL     1      -1.273  -0.407  -0.340  1.00  0.00     0.152 C 
HETATM    7  C5  UNL     1      -0.980   0.752   0.518  1.00  0.00     0.034 C 
HETATM    8  C6  UNL     1      -1.524   0.873   1.874  1.00  0.00     0.002 C 
HETATM    9  C7  UNL     1      -2.860   1.522   2.045  1.00  0.00     0.001 C 
HETATM   10  C8  UNL     1      -3.736   1.571   0.822  1.00  0.00     0.009 C 
HETATM   11  C9  UNL     1      -4.818   0.555   0.826  1.00  0.00     0.041 C 
HETATM   12  C11 UNL     1      -4.872  -0.439  -0.227  1.00  0.00     0.155 C 
HETATM   13  C12 UNL     1      -3.672  -0.832  -0.985  1.00  0.00     0.178 C 
HETATM   14  C13 UNL     1      -2.481  -1.227  -0.143  1.00  0.00     0.178 C 
BRANCH  11  15
HETATM   15  C10 UNL     1      -6.199   1.244   0.878  1.00  0.00     0.171 C 
BRANCH  15  16
HETATM   16  O2  UNL     1      -7.209   0.291   0.881  1.00  0.00    -0.400 OA
ATOM     17  H2  UNL     1      -8.059   0.715   0.913  1.00  0.00     0.209 HD
ENDBRANCH  15  16
ENDBRANCH  11  15
BRANCH  12  18
HETATM   18  O3  UNL     1      -5.842  -0.076  -1.201  1.00  0.00    -0.392 OA
ATOM     19  H3  UNL     1      -5.877  -0.728  -1.891  1.00  0.00     0.210 HD
ENDBRANCH  12  18
BRANCH  13  20
HETATM   20  O4  UNL     1      -3.316   0.072  -2.014  1.00  0.00    -0.390 OA
ATOM     21  H4  UNL     1      -2.542  -0.182  -2.503  1.00  0.00     0.210 HD
ENDBRANCH  13  20
BRANCH  14  22
HETATM   22  O5  UNL     1      -2.929  -1.433   1.131  1.00  0.00    -0.390 OA
ATOM     23  H5  UNL     1      -3.708  -1.962   1.258  1.00  0.00     0.210 HD
ENDBRANCH  14  22
ENDBRANCH   5   6
ENDBRANCH   4   5
ENDBRANCH   3   4
BRANCH   3  24
HETATM   24  C14 UNL     1       2.781  -1.620  -1.125  1.00  0.00     0.115 C 
BRANCH  24  25
HETATM   25  S1  UNL     1       3.105   0.111  -1.516  1.00  0.00    -0.161 SA
BRANCH  25  26
HETATM   26  C15 UNL     1       4.542   0.723  -0.636  1.00  0.00     0.047 C 
HETATM   27  C16 UNL     1       5.828   0.035  -1.113  1.00  0.00     0.015 C 
HETATM   28  C17 UNL     1       6.953   0.833  -0.465  1.00  0.00     0.001 C 
HETATM   29  C18 UNL     1       6.927   0.597   1.021  1.00  0.00     0.000 C 
HETATM   30  C19 UNL     1       5.591   0.829   1.650  1.00  0.00     0.001 C 
HETATM   31  C20 UNL     1       4.425   0.382   0.833  1.00  0.00     0.015 C 
ENDBRANCH  25  26
ENDBRANCH  24  25
ENDBRANCH   3  24
TORSDOF 11
