REMARK  9 active torsions:
REMARK  status: ('A' for Active; 'I' for Inactive)
REMARK    1  A    between atoms: C2_2  and  C3_3 
REMARK    2  A    between atoms: N1_10  and  N2_12 
REMARK    3  A    between atoms: N2_12  and  C10_14 
REMARK    4  A    between atoms: C11_17  and  N4_18 
REMARK    5  A    between atoms: C13_25  and  N7_26 
REMARK       I    between atoms: N7_26  and  C14_28 
REMARK    6  A    between atoms: C14_28  and  C15_30 
REMARK    7  A    between atoms: C15_30  and  N8_31 
REMARK    8  A    between atoms: N8_31  and  C16_32 
REMARK    9  A    between atoms: N8_31  and  C18_34 
ROOT
HETATM    1  C10 UNL     1       0.182  -2.026  -1.579  1.00  0.00     0.166 A 
HETATM    2  N3  UNL     1      -0.681  -3.051  -1.679  1.00  0.00    -0.173 N 
ATOM      3  H3  UNL     1      -1.650  -2.863  -1.937  1.00  0.00     0.186 HD
HETATM    4  C11 UNL     1      -0.297  -4.320  -1.447  1.00  0.00     0.678 A 
HETATM    5  N5  UNL     1       0.975  -4.627  -1.103  1.00  0.00    -0.177 N 
ATOM      6  H5  UNL     1       1.241  -5.597  -0.933  1.00  0.00     0.185 HD
HETATM    7  C12 UNL     1       1.882  -3.650  -0.987  1.00  0.00     0.162 A 
HETATM    8  N6  UNL     1       3.242  -3.937  -0.627  1.00  0.00    -0.080 NA
HETATM    9  C13 UNL     1       1.468  -2.346  -1.230  1.00  0.00     0.123 A 
ENDROOT
BRANCH   1  10
HETATM   10  N2  UNL     1      -0.184  -0.788  -1.803  1.00  0.00    -0.283 N 
ATOM     11  H2  UNL     1       0.506  -0.042  -1.716  1.00  0.00     0.188 HD
BRANCH  10  12
HETATM   12  N1  UNL     1      -1.486  -0.467  -2.156  1.00  0.00    -0.306 N 
HETATM   13  C9  UNL     1      -2.346   0.095  -1.383  1.00  0.00     0.012 C 
HETATM   14  C6  UNL     1      -3.721   0.371  -1.934  1.00  0.00    -0.007 C 
HETATM   15  C20 UNL     1      -2.106   0.496   0.009  1.00  0.00     0.059 C 
HETATM   16  C5  UNL     1      -3.959   1.836  -1.765  1.00  0.00     0.015 C 
HETATM   17  C7  UNL     1      -3.827  -0.072  -3.364  1.00  0.00     0.021 C 
HETATM   18  C8  UNL     1      -4.662  -0.487  -1.117  1.00  0.00     0.021 C 
HETATM   19  C4  UNL     1      -3.905   2.226  -0.331  1.00  0.00     0.006 C 
HETATM   20  C3  UNL     1      -2.702   1.791   0.418  1.00  0.00    -0.010 C 
ATOM     21  H1  UNL     1      -1.785  -0.695  -3.104  1.00  0.00     0.186 HD
BRANCH  20  22
HETATM   22  C2  UNL     1      -3.111   1.689   1.895  1.00  0.00     0.000 C 
HETATM   23  C1  UNL     1      -3.589   3.060   2.370  1.00  0.00     0.005 C 
ENDBRANCH  20  22
ENDBRANCH  10  12
ENDBRANCH   1  10
BRANCH   9  24
HETATM   24  N7  UNL     1       2.433  -1.327  -1.097  1.00  0.00    -0.320 N 
HETATM   25  C14 UNL     1       2.652  -0.670   0.157  1.00  0.00     0.250 C 
HETATM   26  O1  UNL     1       1.940  -1.048   1.118  1.00  0.00    -0.271 OA
ATOM     27  H7  UNL     1       2.986  -1.052  -1.909  1.00  0.00     0.169 HD
BRANCH  25  28
HETATM   28  C15 UNL     1       3.673   0.377   0.221  1.00  0.00     0.374 C 
BRANCH  28  29
HETATM   29  N8  UNL     1       3.845   0.979   1.518  1.00  0.00     0.096 N 
BRANCH  29  30
HETATM   30  C16 UNL     1       4.443  -0.005   2.399  1.00  0.00     0.268 C 
HETATM   31  C17 UNL     1       4.612   0.494   3.812  1.00  0.00     0.037 C 
ENDBRANCH  29  30
BRANCH  29  32
HETATM   32  C18 UNL     1       4.736   2.115   1.487  1.00  0.00     0.268 C 
HETATM   33  C19 UNL     1       4.155   3.285   0.734  1.00  0.00     0.037 C 
ENDBRANCH  29  32
ENDBRANCH  28  29
ENDBRANCH  25  28
ENDBRANCH   9  24
BRANCH   4  34
HETATM   34  N4  UNL     1      -1.151  -5.270  -1.554  1.00  0.00    -0.234 N 
ATOM     35  H42 UNL     1      -2.110  -5.039  -1.813  1.00  0.00     0.174 HD
ATOM     36  H41 UNL     1      -0.860  -6.232  -1.378  1.00  0.00     0.174 HD
ENDBRANCH   4  34
TORSDOF 9
