REMARK  10 active torsions:
REMARK  status: ('A' for Active; 'I' for Inactive)
REMARK    1  A    between atoms: N1_1  and  C1_4 
REMARK    2  A    between atoms: C2_7  and  N3_8 
REMARK    3  A    between atoms: N3_8  and  C3_9 
REMARK    4  A    between atoms: N3_8  and  C6_16 
REMARK    5  A    between atoms: C3_9  and  C4_10 
REMARK    6  A    between atoms: C4_10  and  C5_11 
REMARK    7  A    between atoms: C5_11  and  N4_12 
REMARK    8  A    between atoms: C6_16  and  C7_17 
REMARK    9  A    between atoms: C13_25  and  N6_26 
REMARK   10  A    between atoms: N6_26  and  C14_28 
ROOT
HETATM    1  C1  UNL     1       0.879  -0.108  -1.692  1.00  0.00     0.705 A 
HETATM    2  N2  UNL     1      -0.342   0.341  -1.346  1.00  0.00    -0.022 N 
ATOM      3  H2  UNL     1      -1.072   0.383  -2.057  1.00  0.00     0.203 HD
HETATM    4  C2  UNL     1      -0.630   0.736  -0.091  1.00  0.00     0.709 A 
HETATM    5  N5  UNL     1       0.362   0.659   0.802  1.00  0.00    -0.021 N 
ATOM      6  H5  UNL     1       0.182   0.949   1.763  1.00  0.00     0.203 HD
HETATM    7  C13 UNL     1       1.598   0.209   0.475  1.00  0.00     0.711 A 
HETATM    8  N7  UNL     1       1.871  -0.179  -0.772  1.00  0.00    -0.021 N 
ATOM      9  H7  UNL     1       2.799  -0.519  -1.025  1.00  0.00     0.203 HD
ENDROOT
BRANCH   4  10
HETATM   10  N3  UNL     1      -1.927   1.208   0.194  1.00  0.00    -0.216 N 
BRANCH  10  11
HETATM   11  C3  UNL     1      -2.103   2.658  -0.006  1.00  0.00     0.143 C 
BRANCH  11  12
HETATM   12  C4  UNL     1      -2.969   3.000  -1.171  1.00  0.00     0.048 C 
BRANCH  12  13
HETATM   13  C5  UNL     1      -3.080   4.530  -1.270  1.00  0.00     0.231 C 
BRANCH  13  14
HETATM   14  N4  UNL     1      -3.653   5.114  -0.094  1.00  0.00    -0.079 N 
ATOM     15  H43 UNL     1      -4.557   4.693   0.122  1.00  0.00     0.274 HD
ATOM     16  H42 UNL     1      -3.139   4.836   0.742  1.00  0.00     0.274 HD
ATOM     17  H41 UNL     1      -3.727   6.129  -0.160  1.00  0.00     0.274 HD
ENDBRANCH  13  14
ENDBRANCH  12  13
ENDBRANCH  11  12
ENDBRANCH  10  11
BRANCH  10  18
HETATM   18  C6  UNL     1      -3.069   0.495   0.620  1.00  0.00     0.145 C 
BRANCH  18  19
HETATM   19  C7  UNL     1      -2.946  -0.932   0.976  1.00  0.00     0.004 C 
HETATM   20  C8  UNL     1      -2.472  -1.883  -0.060  1.00  0.00     0.006 C 
HETATM   21  C9  UNL     1      -3.071  -3.277   0.214  1.00  0.00     0.000 C 
HETATM   22  C10 UNL     1      -4.507  -3.316  -0.207  1.00  0.00     0.000 C 
HETATM   23  C11 UNL     1      -5.084  -1.930   0.094  1.00  0.00     0.000 C 
HETATM   24  C12 UNL     1      -4.373  -1.398   1.339  1.00  0.00     0.006 C 
ENDBRANCH  18  19
ENDBRANCH  10  18
ENDBRANCH   4  10
BRANCH   1  25
HETATM   25  N1  UNL     1       1.177  -0.490  -2.888  1.00  0.00    -0.234 N 
ATOM     26  H12 UNL     1       0.430  -0.437  -3.581  1.00  0.00     0.174 HD
ATOM     27  H11 UNL     1       2.102  -0.830  -3.150  1.00  0.00     0.174 HD
ENDBRANCH   1  25
BRANCH   7  28
HETATM   28  N6  UNL     1       2.522   0.156   1.368  1.00  0.00    -0.191 N 
ATOM     29  H6  UNL     1       2.292   0.458   2.315  1.00  0.00     0.184 HD
BRANCH  28  30
HETATM   30  C14 UNL     1       3.840  -0.296   1.116  1.00  0.00     0.051 A 
HETATM   31  C15 UNL     1       4.261  -1.520   1.573  1.00  0.00     0.030 A 
HETATM   32  C16 UNL     1       5.544  -1.957   1.331  1.00  0.00     0.012 A 
HETATM   33  C17 UNL     1       6.439  -1.189   0.628  1.00  0.00    -0.023 A 
HETATM   34  C18 UNL     1       6.053   0.048   0.153  1.00  0.00     0.077 A 
HETATM   35  C21 UNL     1       7.850  -1.365   0.216  1.00  0.00     0.068 C 
HETATM   36  C19 UNL     1       4.765   0.456   0.413  1.00  0.00     0.067 A 
HETATM   37  O1  UNL     1       7.105   0.665  -0.530  1.00  0.00    -0.350 OA
HETATM   38  C20 UNL     1       7.999  -0.368  -0.920  1.00  0.00     0.180 C 
ENDBRANCH  28  30
ENDBRANCH   7  28
TORSDOF 10
