REMARK  8 active torsions:
REMARK  status: ('A' for Active; 'I' for Inactive)
REMARK    1  A    between atoms: C2_2  and  C3_3 
REMARK    2  A    between atoms: C3_3  and  C4_4 
REMARK    3  A    between atoms: C4_4  and  C5_5 
REMARK    4  A    between atoms: C5_5  and  C6_6 
REMARK    5  A    between atoms: C6_6  and  C7_7 
REMARK    6  A    between atoms: C15_24  and  N5_25 
REMARK    7  A    between atoms: N5_25  and  C16_27 
REMARK    8  A    between atoms: C21_32  and  N6_33 
ROOT
HETATM    1  C7  UNL     1       1.528   1.097   2.656  1.00  0.00     0.041 A 
HETATM    2  N1  UNL     1       2.441   1.473   3.630  1.00  0.00    -0.304 N 
ATOM      3  H1  UNL     1       2.749   2.427   3.818  1.00  0.00     0.186 HD
HETATM    4  N2  UNL     1       2.844   0.401   4.271  1.00  0.00    -0.304 N 
ATOM      5  H2  UNL     1       3.519   0.403   5.035  1.00  0.00     0.186 HD
HETATM    6  C8  UNL     1       2.249  -0.697   3.786  1.00  0.00     0.038 A 
HETATM    7  C9  UNL     1       2.398  -2.108   4.200  1.00  0.00     0.070 C 
HETATM    8  C10 UNL     1       1.396  -0.249   2.746  1.00  0.00     0.056 A 
HETATM    9  C11 UNL     1       0.492  -1.155   2.075  1.00  0.00     0.122 C 
HETATM   10  N3  UNL     1       0.848  -2.489   2.052  1.00  0.00    -0.331 N 
ATOM     11  H3  UNL     1       1.351  -2.830   2.871  1.00  0.00     0.168 HD
HETATM   12  C12 UNL     1       0.614  -3.401   1.079  1.00  0.00     0.081 C 
HETATM   13  C13 UNL     1       1.275  -4.727   1.210  1.00  0.00     0.089 C 
HETATM   14  N4  UNL     1      -0.159  -3.248  -0.012  1.00  0.00    -0.310 N 
ATOM     15  H4  UNL     1      -0.290  -4.083  -0.583  1.00  0.00     0.170 HD
HETATM   16  C14 UNL     1      -0.791  -2.121  -0.455  1.00  0.00     0.290 C 
HETATM   17  O1  UNL     1      -0.937  -2.096  -1.691  1.00  0.00    -0.264 OA
HETATM   18  C15 UNL     1      -1.255  -1.061   0.321  1.00  0.00     0.172 C 
HETATM   19  N7  UNL     1      -0.622  -0.714   1.481  1.00  0.00    -0.323 N 
ATOM     20  H7  UNL     1      -1.093   0.029   1.997  1.00  0.00     0.169 HD
ENDROOT
BRANCH   1  21
HETATM   21  C6  UNL     1       0.973   2.055   1.674  1.00  0.00     0.059 C 
BRANCH  21  22
HETATM   22  C5  UNL     1       1.877   2.200   0.459  1.00  0.00     0.006 C 
BRANCH  22  23
HETATM   23  C4  UNL     1       2.143   0.952  -0.298  1.00  0.00     0.000 C 
BRANCH  23  24
HETATM   24  C3  UNL     1       3.054   1.291  -1.465  1.00  0.00    -0.000 C 
BRANCH  24  25
HETATM   25  C2  UNL     1       3.379   0.077  -2.287  1.00  0.00    -0.005 C 
HETATM   26  C1  UNL     1       4.292   0.541  -3.419  1.00  0.00     0.005 C 
ENDBRANCH  24  25
ENDBRANCH  23  24
ENDBRANCH  22  23
ENDBRANCH  21  22
ENDBRANCH   1  21
BRANCH  18  27
HETATM   27  N5  UNL     1      -2.256  -0.421  -0.015  1.00  0.00    -0.365 N 
ATOM     28  H5  UNL     1      -2.461   0.319   0.657  1.00  0.00     0.161 HD
BRANCH  27  29
HETATM   29  C16 UNL     1      -3.191  -0.426  -1.062  1.00  0.00     0.113 C 
HETATM   30  C17 UNL     1      -4.622  -0.199  -0.576  1.00  0.00     0.027 C 
HETATM   31  C18 UNL     1      -4.916   1.182  -0.164  1.00  0.00     0.002 C 
HETATM   32  C19 UNL     1      -4.204   2.281  -0.867  1.00  0.00     0.002 C 
HETATM   33  C20 UNL     1      -2.884   1.933  -1.448  1.00  0.00     0.035 C 
HETATM   34  C21 UNL     1      -2.893   0.611  -2.140  1.00  0.00     0.206 C 
BRANCH  34  35
HETATM   35  N6  UNL     1      -3.952   0.490  -3.125  1.00  0.00    -0.073 N 
ATOM     36  H63 UNL     1      -4.058  -0.456  -3.491  1.00  0.00     0.274 HD
ATOM     37  H62 UNL     1      -4.887   0.576  -2.727  1.00  0.00     0.274 HD
ATOM     38  H61 UNL     1      -3.753   1.184  -3.846  1.00  0.00     0.274 HD
ENDBRANCH  34  35
ENDBRANCH  27  29
ENDBRANCH  18  27
TORSDOF 8
