REMARK  9 active torsions:
REMARK  status: ('A' for Active; 'I' for Inactive)
REMARK    1  A    between atoms: C2_2  and  C3_3 
REMARK    2  A    between atoms: C3_3  and  C4_4 
REMARK    3  A    between atoms: C6_6  and  C7_7 
REMARK    4  A    between atoms: C7_7  and  C8_8 
REMARK    5  A    between atoms: C8_8  and  C9_9 
REMARK       I    between atoms: C9_9  and  N1_11 
REMARK    6  A    between atoms: C14_20  and  O2_21 
REMARK    7  A    between atoms: O2_21  and  C15_22 
REMARK    8  A    between atoms: C19_29  and  N4_30 
REMARK    9  A    between atoms: C20_34  and  O3_35 
ROOT
HETATM    1  C4  UNL     1      -0.331  -0.991  -2.762  1.00  0.00    -0.022 A 
HETATM    2  C5  UNL     1       0.729  -0.076  -2.681  1.00  0.00     0.017 A 
HETATM    3  C6  UNL     1       0.845   0.832  -1.654  1.00  0.00    -0.054 A 
HETATM    4  C13 UNL     1      -0.158   0.811  -0.671  1.00  0.00     0.046 A 
HETATM    5  C14 UNL     1      -1.206  -0.063  -0.712  1.00  0.00     0.103 A 
HETATM    6  C20 UNL     1      -1.276  -0.970  -1.780  1.00  0.00     0.105 A 
ENDROOT
BRANCH   5   7
HETATM    7  O2  UNL     1      -2.173  -0.091   0.229  1.00  0.00    -0.339 OA
BRANCH   7   8
HETATM    8  C15 UNL     1      -2.359   0.661   1.367  1.00  0.00     0.187 C 
HETATM    9  C16 UNL     1      -2.372  -0.220   2.596  1.00  0.00     0.038 C 
HETATM   10  C17 UNL     1      -2.539   0.540   3.866  1.00  0.00     0.030 C 
HETATM   11  C18 UNL     1      -3.486   1.698   3.799  1.00  0.00     0.235 C 
HETATM   12  N3  UNL     1      -3.524   2.374   2.539  1.00  0.00    -0.044 N 
HETATM   13  C19 UNL     1      -3.637   1.470   1.394  1.00  0.00     0.409 C 
ATOM     14  H32 UNL     1      -4.270   3.069   2.525  1.00  0.00     0.279 HD
ATOM     15  H31 UNL     1      -2.717   2.989   2.435  1.00  0.00     0.279 HD
BRANCH  13  16
HETATM   16  N4  UNL     1      -4.769   0.607   1.662  1.00  0.00    -0.048 N 
ATOM     17  H43 UNL     1      -4.822  -0.168   1.001  1.00  0.00     0.276 HD
ATOM     18  H42 UNL     1      -4.642   0.066   2.517  1.00  0.00     0.276 HD
ATOM     19  H41 UNL     1      -5.631   1.152   1.680  1.00  0.00     0.276 HD
ENDBRANCH  13  16
ENDBRANCH   7   8
ENDBRANCH   5   7
BRANCH   6  20
HETATM   20  O3  UNL     1      -2.325  -1.853  -1.804  1.00  0.00    -0.357 OA
ATOM     21  H3  UNL     1      -2.984  -1.838  -1.120  1.00  0.00     0.217 HD
ENDBRANCH   6  20
BRANCH   3  22
HETATM   22  C7  UNL     1       1.961   1.783  -1.562  1.00  0.00     0.048 C 
BRANCH  22  23
HETATM   23  C8  UNL     1       3.066   1.485  -0.625  1.00  0.00     0.108 C 
BRANCH  23  24
HETATM   24  C9  UNL     1       3.822   0.258  -0.832  1.00  0.00     0.223 C 
HETATM   25  O1  UNL     1       3.430  -0.665  -1.559  1.00  0.00    -0.273 OA
HETATM   26  N1  UNL     1       5.094   0.080  -0.170  1.00  0.00    -0.308 N 
HETATM   27  C10 UNL     1       5.176  -0.327   1.037  1.00  0.00     0.142 C 
ATOM     28  H1  UNL     1       5.952   0.286  -0.682  1.00  0.00     0.171 HD
HETATM   29  N2  UNL     1       4.175  -0.683   1.970  1.00  0.00    -0.370 N 
HETATM   30  S1  UNL     1       6.719  -0.576   1.952  1.00  0.00    -0.092 SA
HETATM   31  C11 UNL     1       4.585  -1.626   2.951  1.00  0.00     0.132 C 
ATOM     32  H2  UNL     1       3.233  -0.294   1.941  1.00  0.00     0.161 HD
HETATM   33  C12 UNL     1       5.961  -1.258   3.472  1.00  0.00     0.102 C 
ENDBRANCH  23  24
ENDBRANCH  22  23
ENDBRANCH   3  22
BRANCH   1  34
HETATM   34  C3  UNL     1      -0.346  -1.826  -3.980  1.00  0.00     0.041 C 
BRANCH  34  35
HETATM   35  C2  UNL     1      -1.032  -1.252  -5.161  1.00  0.00     0.000 C 
HETATM   36  C1  UNL     1      -2.459  -0.936  -4.944  1.00  0.00     0.005 C 
ENDBRANCH  34  35
ENDBRANCH   1  34
TORSDOF 9
