REMARK  12 active torsions:
REMARK  status: ('A' for Active; 'I' for Inactive)
REMARK    1  A    between atoms: C2_2  and  C3_3 
REMARK    2  A    between atoms: C3_3  and  C4_4 
REMARK    3  A    between atoms: C4_4  and  C5_5 
REMARK    4  A    between atoms: C5_5  and  C6_6 
REMARK    5  A    between atoms: C6_6  and  C7_7 
REMARK    6  A    between atoms: C7_7  and  C8_8 
REMARK       I    between atoms: C8_8  and  N1_10 
REMARK    7  A    between atoms: N1_10  and  S1_12 
REMARK    8  A    between atoms: S1_12  and  C9_15 
REMARK    9  A    between atoms: C14_20  and  C15_21 
REMARK   10  A    between atoms: C18_24  and  C19_25 
REMARK   11  A    between atoms: C19_25  and  N2_26 
REMARK   12  A    between atoms: C21_32  and  C22_33 
ROOT
HETATM    1  C9  UNL     1       0.462  -2.721   1.280  1.00  0.00     0.090 A 
HETATM    2  C10 UNL     1      -0.274  -3.884   1.419  1.00  0.00     0.026 A 
HETATM    3  C11 UNL     1       0.318  -5.005   1.945  1.00  0.00     0.002 A 
HETATM    4  C12 UNL     1       1.637  -4.987   2.336  1.00  0.00     0.001 A 
HETATM    5  C13 UNL     1       2.361  -3.826   2.194  1.00  0.00     0.014 A 
HETATM    6  C14 UNL     1       1.765  -2.675   1.659  1.00  0.00    -0.003 A 
ENDROOT
BRANCH   6   7
HETATM    7  C15 UNL     1       2.593  -1.498   1.572  1.00  0.00    -0.024 A 
HETATM    8  C16 UNL     1       2.529  -0.386   2.369  1.00  0.00     0.013 A 
HETATM    9  C17 UNL     1       3.369   0.702   2.191  1.00  0.00     0.010 A 
HETATM   10  C18 UNL     1       4.344   0.734   1.181  1.00  0.00    -0.038 A 
HETATM   11  C26 UNL     1       4.410  -0.369   0.391  1.00  0.00     0.010 A 
HETATM   12  C27 UNL     1       3.563  -1.461   0.572  1.00  0.00     0.013 A 
BRANCH  10  13
HETATM   13  C19 UNL     1       5.167   1.944   1.056  1.00  0.00     0.189 C 
BRANCH  13  14
HETATM   14  N2  UNL     1       5.049   2.589  -0.234  1.00  0.00    -0.270 N 
HETATM   15  N3  UNL     1       3.994   3.420  -0.475  1.00  0.00    -0.292 N 
HETATM   16  C20 UNL     1       4.064   3.866  -1.719  1.00  0.00     0.199 A 
ATOM     17  H3  UNL     1       3.266   3.660   0.198  1.00  0.00     0.188 HD
HETATM   18  N4  UNL     1       5.154   3.320  -2.257  1.00  0.00    -0.335 N 
HETATM   19  C21 UNL     1       5.781   2.513  -1.324  1.00  0.00     0.140 A 
ATOM     20  H4  UNL     1       5.477   3.474  -3.212  1.00  0.00     0.168 HD
BRANCH  19  21
HETATM   21  C22 UNL     1       7.020   1.805  -1.601  1.00  0.00     0.050 A 
HETATM   22  C23 UNL     1       7.806   0.976  -0.894  1.00  0.00     0.023 A 
HETATM   23  C24 UNL     1       8.929   0.494  -1.462  1.00  0.00     0.009 A 
HETATM   24  C25 UNL     1       9.200   0.884  -2.741  1.00  0.00     0.050 A 
HETATM   25  S2  UNL     1       7.892   1.902  -3.108  1.00  0.00    -0.098 SA
ENDBRANCH  19  21
ENDBRANCH  13  14
ENDBRANCH  10  13
ENDBRANCH   6   7
BRANCH   1  26
HETATM   26  S1  UNL     1      -0.330  -1.355   0.574  1.00  0.00     0.266 S 
HETATM   27  O2  UNL     1      -0.417  -0.251   1.614  1.00  0.00    -0.200 OA
HETATM   28  O3  UNL     1       0.420  -0.789  -0.599  1.00  0.00    -0.200 OA
BRANCH  26  29
HETATM   29  N1  UNL     1      -1.947  -1.740   0.070  1.00  0.00    -0.250 N 
HETATM   30  C8  UNL     1      -2.771  -0.691  -0.483  1.00  0.00     0.231 C 
HETATM   31  O1  UNL     1      -2.281   0.443  -0.576  1.00  0.00    -0.273 OA
ATOM     32  H1  UNL     1      -2.308  -2.689   0.163  1.00  0.00     0.181 HD
BRANCH  30  33
HETATM   33  C7  UNL     1      -4.127  -1.031  -0.896  1.00  0.00     0.103 C 
BRANCH  33  34
HETATM   34  C6  UNL     1      -4.943   0.133  -1.319  1.00  0.00     0.009 C 
BRANCH  34  35
HETATM   35  C5  UNL     1      -5.162   1.098  -0.213  1.00  0.00     0.000 C 
BRANCH  35  36
HETATM   36  C4  UNL     1      -6.006   2.283  -0.656  1.00  0.00     0.000 C 
BRANCH  36  37
HETATM   37  C3  UNL     1      -7.369   1.880  -1.139  1.00  0.00    -0.000 C 
BRANCH  37  38
HETATM   38  C2  UNL     1      -8.181   1.172  -0.096  1.00  0.00    -0.005 C 
HETATM   39  C1  UNL     1      -9.515   0.823  -0.712  1.00  0.00     0.005 C 
ENDBRANCH  37  38
ENDBRANCH  36  37
ENDBRANCH  35  36
ENDBRANCH  34  35
ENDBRANCH  33  34
ENDBRANCH  30  33
ENDBRANCH  26  29
ENDBRANCH   1  26
TORSDOF 12
