REMARK  14 active torsions:
REMARK  status: ('A' for Active; 'I' for Inactive)
REMARK    1  A    between atoms: C2_2  and  N1_3 
REMARK    2  A    between atoms: C6_9  and  N3_10 
REMARK    3  A    between atoms: N3_10  and  C7_12 
REMARK    4  A    between atoms: C7_12  and  C8_13 
REMARK    5  A    between atoms: C8_13  and  C9_14 
REMARK    6  A    between atoms: C9_14  and  C10_15 
REMARK    7  A    between atoms: C10_15  and  C11_16 
REMARK    8  A    between atoms: C11_16  and  C12_17 
REMARK    9  A    between atoms: C12_17  and  N4_18 
REMARK   10  A    between atoms: N4_18  and  C13_19 
REMARK   11  A    between atoms: N4_18  and  C22_32 
REMARK   12  A    between atoms: C13_19  and  C14_20 
REMARK   13  A    between atoms: N5_22  and  C16_23 
REMARK   14  A    between atoms: C22_32  and  C23_33 
ROOT
HETATM    1  C12 UNL     1      -1.554   0.543  -0.014  1.00  0.00     0.064 C 
ENDROOT
BRANCH   1   2
HETATM    2  C11 UNL     1      -0.202  -0.145  -0.063  1.00  0.00     0.044 C 
BRANCH   2   3
HETATM    3  C10 UNL     1       0.508   0.127  -1.383  1.00  0.00     0.005 C 
BRANCH   3   4
HETATM    4  C9  UNL     1       0.731   1.571  -1.564  1.00  0.00     0.005 C 
BRANCH   4   5
HETATM    5  C8  UNL     1       1.559   2.231  -0.537  1.00  0.00     0.044 C 
BRANCH   5   6
HETATM    6  C7  UNL     1       2.971   1.854  -0.402  1.00  0.00     0.061 C 
BRANCH   6   7
HETATM    7  N3  UNL     1       3.382   0.559  -0.011  1.00  0.00    -0.369 N 
ATOM      8  H3  UNL     1       2.713  -0.150   0.289  1.00  0.00     0.165 HD
BRANCH   7   9
HETATM    9  C6  UNL     1       4.799   0.295  -0.060  1.00  0.00     0.034 A 
HETATM   10  C5  UNL     1       5.232  -0.976   0.203  1.00  0.00     0.061 A 
HETATM   11  C4  UNL     1       6.577  -1.259   0.177  1.00  0.00     0.062 A 
HETATM   12  N2  UNL     1       7.297  -2.457   0.403  1.00  0.00    -0.350 N 
HETATM   13  C29 UNL     1       7.496  -0.254  -0.118  1.00  0.00     0.062 A 
HETATM   14  C3  UNL     1       8.576  -2.228   0.263  1.00  0.00     0.183 A 
ATOM     15  H2  UNL     1       6.882  -3.359   0.638  1.00  0.00     0.166 HD
HETATM   16  N1  UNL     1       8.772  -0.875  -0.062  1.00  0.00    -0.342 N 
HETATM   17  C28 UNL     1       7.064   1.022  -0.382  1.00  0.00     0.034 A 
HETATM   18  C27 UNL     1       5.719   1.308  -0.356  1.00  0.00     0.032 A 
BRANCH  16  19
HETATM   19  C2  UNL     1      10.027  -0.192  -0.302  1.00  0.00     0.125 C 
HETATM   20  C1  UNL     1      10.845  -0.094   0.982  1.00  0.00     0.027 C 
ENDBRANCH  16  19
ENDBRANCH   7   9
ENDBRANCH   6   7
ENDBRANCH   5   6
ENDBRANCH   4   5
ENDBRANCH   3   4
ENDBRANCH   2   3
ENDBRANCH   1   2
BRANCH   1  21
HETATM   21  N4  UNL     1      -2.156   0.263   1.224  1.00  0.00    -0.363 N 
BRANCH  21  22
HETATM   22  C13 UNL     1      -2.592  -1.061   1.484  1.00  0.00     0.187 C 
BRANCH  22  23
HETATM   23  C14 UNL     1      -3.645  -1.549   0.555  1.00  0.00     0.059 A 
HETATM   24  C15 UNL     1      -5.009  -1.601   0.733  1.00  0.00     0.142 A 
HETATM   25  N5  UNL     1      -5.599  -2.120  -0.384  1.00  0.00    -0.249 N 
HETATM   26  N6  UNL     1      -4.593  -2.369  -1.205  1.00  0.00    -0.015 NA
HETATM   27  N7  UNL     1      -3.430  -2.040  -0.672  1.00  0.00    -0.285 N 
ATOM     28  H7  UNL     1      -2.520  -2.143  -1.120  1.00  0.00     0.184 HD
BRANCH  25  29
HETATM   29  C16 UNL     1      -6.993  -2.332  -0.587  1.00  0.00     0.054 A 
HETATM   30  C17 UNL     1      -7.786  -1.268  -0.953  1.00  0.00     0.031 A 
HETATM   31  C18 UNL     1      -9.136  -1.375  -1.168  1.00  0.00     0.002 A 
HETATM   32  C19 UNL     1      -9.734  -2.603  -1.011  1.00  0.00     0.000 A 
HETATM   33  C20 UNL     1      -8.958  -3.686  -0.644  1.00  0.00     0.002 A 
HETATM   34  C21 UNL     1      -7.594  -3.559  -0.432  1.00  0.00     0.031 A 
ENDBRANCH  25  29
ENDBRANCH  22  23
ENDBRANCH  21  22
BRANCH  21  35
HETATM   35  C22 UNL     1      -2.721   1.312   1.942  1.00  0.00     0.109 C 
BRANCH  35  36
HETATM   36  C23 UNL     1      -3.811   2.002   1.161  1.00  0.00     0.020 A 
HETATM   37  C24 UNL     1      -4.798   2.797   1.678  1.00  0.00     0.021 A 
HETATM   38  C25 UNL     1      -5.678   3.330   0.815  1.00  0.00     0.008 A 
HETATM   39  C26 UNL     1      -5.511   3.032  -0.512  1.00  0.00     0.050 A 
HETATM   40  S1  UNL     1      -4.140   2.023  -0.511  1.00  0.00    -0.101 SA
ENDBRANCH  35  36
ENDBRANCH  21  35
ENDBRANCH   1  21
TORSDOF 14
