REMARK  2 active torsions:
REMARK  status: ('A' for Active; 'I' for Inactive)
REMARK       I    between atoms: C1_4  and  N3_6 
REMARK    1  A    between atoms: N3_6  and  S1_8 
REMARK    2  A    between atoms: S1_8  and  N4_11 
REMARK       I    between atoms: N5_15  and  C5_16 
ROOT
HETATM    1  N4  UNL     1       0.696  -0.143  -0.207  1.00  0.00    -0.251 N 
HETATM    2  C2  UNL     1       0.198  -1.389   0.186  1.00  0.00     0.084 C 
HETATM    3  C3  UNL     1      -1.121  -1.395   0.884  1.00  0.00     0.066 C 
HETATM    4  C4  UNL     1      -2.276  -0.983   0.001  1.00  0.00     0.131 C 
HETATM    5  N5  UNL     1      -2.334   0.466   0.029  1.00  0.00    -0.351 N 
HETATM    6  C5  UNL     1      -3.627   1.034   0.118  1.00  0.00     0.184 C 
HETATM    7  N6  UNL     1      -3.809   2.179   0.729  1.00  0.00    -0.374 N 
ATOM      8  H61 UNL     1      -4.741   2.588   0.793  1.00  0.00     0.158 HD
ATOM      9  H62 UNL     1      -3.033   2.688   1.153  1.00  0.00     0.158 HD
HETATM   10  N7  UNL     1      -4.702   0.329  -0.469  1.00  0.00    -0.064 NA
HETATM   11  C6  UNL     1      -1.210   1.371  -0.026  1.00  0.00     0.171 C 
HETATM   12  C7  UNL     1      -0.156   0.739  -0.895  1.00  0.00     0.102 C 
ENDROOT
BRANCH   1  13
HETATM   13  S1  UNL     1       1.945   0.531   0.690  1.00  0.00     0.330 S 
HETATM   14  O1  UNL     1       1.609   0.824   2.118  1.00  0.00    -0.182 OA
HETATM   15  O2  UNL     1       2.347   1.848   0.062  1.00  0.00    -0.182 OA
BRANCH  13  16
HETATM   16  N3  UNL     1       3.344  -0.481   0.646  1.00  0.00    -0.241 N 
HETATM   17  C1  UNL     1       4.344  -0.337  -0.356  1.00  0.00     0.196 C 
HETATM   18  N1  UNL     1       5.412   0.328  -0.079  1.00  0.00    -0.373 N 
HETATM   19  N2  UNL     1       4.226  -0.896  -1.658  1.00  0.00    -0.063 NA
ATOM     20  H12 UNL     1       6.129   0.431  -0.797  1.00  0.00     0.158 HD
ATOM     21  H11 UNL     1       5.497   0.729   0.855  1.00  0.00     0.158 HD
ATOM     22  H3  UNL     1       3.457  -1.202   1.358  1.00  0.00     0.183 HD
ENDBRANCH  13  16
ENDBRANCH   1  13
TORSDOF 2
