REMARK  5 active torsions:
REMARK  status: ('A' for Active; 'I' for Inactive)
REMARK    1  A    between atoms: C2_2  and  C5_14 
REMARK    2  A    between atoms: N1_3  and  N2_5 
REMARK       I    between atoms: C3_7  and  N4_9 
REMARK    3  A    between atoms: N7_16  and  C7_18 
REMARK    4  A    between atoms: C7_18  and  N8_20 
REMARK    5  A    between atoms: N8_20  and  O1_22 
ROOT
HETATM    1  C1  UNL     1      -0.849   1.750  -0.733  1.00  0.00     0.072 C 
HETATM    2  C2  UNL     1      -0.885   0.299  -0.514  1.00  0.00     0.044 C 
HETATM    3  N1  UNL     1       0.221  -0.357  -0.442  1.00  0.00    -0.301 N 
ATOM      4  H1  UNL     1       0.165  -1.364  -0.288  1.00  0.00     0.186 HD
ENDROOT
BRANCH   2   5
HETATM    5  C5  UNL     1      -2.123  -0.458  -0.370  1.00  0.00     0.031 C 
HETATM    6  C6  UNL     1      -2.148  -1.920  -0.150  1.00  0.00     0.070 C 
HETATM    7  N7  UNL     1      -3.223   0.205  -0.443  1.00  0.00    -0.334 N 
ATOM      8  H7  UNL     1      -3.203   1.213  -0.595  1.00  0.00     0.168 HD
BRANCH   7   9
HETATM    9  C7  UNL     1      -4.467  -0.470  -0.311  1.00  0.00     0.196 C 
HETATM   10  S1  UNL     1      -4.821  -1.694  -1.355  1.00  0.00    -0.039 SA
BRANCH   9  11
HETATM   11  N8  UNL     1      -5.379  -0.103   0.686  1.00  0.00    -0.243 N 
ATOM     12  H8  UNL     1      -6.269  -0.594   0.771  1.00  0.00     0.196 HD
BRANCH  11  13
HETATM   13  O1  UNL     1      -5.080   0.894   1.528  1.00  0.00    -0.288 OA
ATOM     14  H1  UNL     1      -5.699   1.143   2.204  1.00  0.00     0.244 HD
ENDBRANCH  11  13
ENDBRANCH   9  11
ENDBRANCH   7   9
ENDBRANCH   2   5
BRANCH   3  15
HETATM   15  N2  UNL     1       1.475   0.205  -0.558  1.00  0.00    -0.273 N 
HETATM   16  C3  UNL     1       2.221   0.510   0.455  1.00  0.00     0.209 C 
HETATM   17  N3  UNL     1       1.842   0.303   1.797  1.00  0.00    -0.062 NA
HETATM   18  N4  UNL     1       3.499   1.087   0.212  1.00  0.00    -0.306 N 
HETATM   19  C4  UNL     1       4.509   0.290   0.013  1.00  0.00     0.203 C 
ATOM     20  H4  UNL     1       3.621   2.100   0.194  1.00  0.00     0.170 HD
HETATM   21  N5  UNL     1       5.764   0.902  -0.226  1.00  0.00    -0.066 NA
HETATM   22  N6  UNL     1       4.363  -1.130   0.035  1.00  0.00    -0.066 NA
ATOM     23  H2  UNL     1       1.835   0.391  -1.494  1.00  0.00     0.189 HD
ENDBRANCH   3  15
TORSDOF 5
