REMARK  3 active torsions:
REMARK  status: ('A' for Active; 'I' for Inactive)
REMARK       I    between atoms: C2_2  and  N1_4 
REMARK    1  A    between atoms: N1_4  and  S1_6 
REMARK    2  A    between atoms: S1_6  and  N2_9 
REMARK    3  A    between atoms: C5_12  and  N3_13 
REMARK       I    between atoms: N3_13  and  C6_15 
ROOT
HETATM    1  N2  UNL     1      -0.674   0.481  -0.354  1.00  0.00    -0.273 N 
HETATM    2  C3  UNL     1      -0.417  -0.716   0.329  1.00  0.00     0.144 C 
HETATM    3  C4  UNL     1       1.028  -0.767   0.869  1.00  0.00     0.046 C 
HETATM    4  C5  UNL     1       1.897  -0.612  -0.361  1.00  0.00     0.090 C 
HETATM    5  C7  UNL     1       1.701   0.799  -0.854  1.00  0.00     0.070 C 
HETATM    6  C8  UNL     1       0.260   0.946  -1.282  1.00  0.00     0.079 C 
ENDROOT
BRANCH   1   7
HETATM    7  S1  UNL     1      -2.160   1.231  -0.189  1.00  0.00     0.327 S 
HETATM    8  O2  UNL     1      -2.381   1.492   1.299  1.00  0.00    -0.182 OA
HETATM    9  O3  UNL     1      -2.158   2.591  -0.873  1.00  0.00    -0.182 OA
BRANCH   7  10
HETATM   10  N1  UNL     1      -3.500   0.294  -0.734  1.00  0.00    -0.237 N 
HETATM   11  C2  UNL     1      -4.483  -0.143   0.192  1.00  0.00     0.228 C 
HETATM   12  C1  UNL     1      -5.646  -0.958  -0.302  1.00  0.00     0.118 C 
HETATM   13  O1  UNL     1      -4.415   0.130   1.414  1.00  0.00    -0.273 OA
ATOM     14  H1  UNL     1      -3.587   0.054  -1.721  1.00  0.00     0.183 HD
ENDBRANCH   7  10
ENDBRANCH   1   7
BRANCH   4  15
HETATM   15  N3  UNL     1       3.283  -0.918  -0.087  1.00  0.00    -0.360 N 
HETATM   16  C6  UNL     1       4.064  -0.224   0.869  1.00  0.00     0.182 C 
HETATM   17  N4  UNL     1       3.622  -0.133   2.069  1.00  0.00    -0.374 N 
HETATM   18  N5  UNL     1       5.294   0.347   0.479  1.00  0.00    -0.064 NA
ATOM     19  H42 UNL     1       2.733  -0.546   2.351  1.00  0.00     0.158 HD
ATOM     20  H41 UNL     1       4.185   0.367   2.758  1.00  0.00     0.158 HD
ATOM     21  H3  UNL     1       3.722  -1.675  -0.611  1.00  0.00     0.162 HD
ENDBRANCH   4  15
TORSDOF 3
