REMARK  4 active torsions:
REMARK  status: ('A' for Active; 'I' for Inactive)
REMARK    1  A    between atoms: C5_5  and  N1_6 
REMARK    2  A    between atoms: C5_5  and  C7_11 
REMARK       I    between atoms: N1_6  and  C6_8 
REMARK    3  A    between atoms: N4_14  and  S1_15 
REMARK    4  A    between atoms: S1_15  and  N5_16 
ROOT
HETATM    1  C1  UNL     1      -2.314  -0.320  -1.474  1.00  0.00     0.033 C 
HETATM    2  C2  UNL     1      -1.716   0.406  -0.261  1.00  0.00     0.096 C 
HETATM    3  C3  UNL     1      -1.111   1.680  -0.811  1.00  0.00     0.030 C 
HETATM    4  C4  UNL     1       0.300   1.251  -1.108  1.00  0.00     0.067 C 
HETATM    5  C5  UNL     1       0.612   0.314   0.032  1.00  0.00     0.200 C 
HETATM    6  N4  UNL     1      -0.647  -0.289   0.318  1.00  0.00    -0.253 N 
ENDROOT
BRANCH   5   7
HETATM    7  N1  UNL     1       1.508  -0.753  -0.396  1.00  0.00    -0.310 N 
HETATM    8  C6  UNL     1       2.781  -0.536  -0.960  1.00  0.00     0.331 C 
HETATM    9  N2  UNL     1       3.591  -1.626  -1.345  1.00  0.00    -0.040 NA
HETATM   10  O1  UNL     1       3.191   0.632  -1.118  1.00  0.00    -0.251 OA
ATOM     11  H1  UNL     1       1.194  -1.717  -0.280  1.00  0.00     0.166 HD
ENDBRANCH   5   7
BRANCH   5  12
HETATM   12  C7  UNL     1       1.209   1.061   1.133  1.00  0.00     0.281 C 
HETATM   13  N3  UNL     1       0.588   2.182   1.735  1.00  0.00    -0.058 NA
HETATM   14  O2  UNL     1       2.322   0.715   1.586  1.00  0.00    -0.272 OA
ENDBRANCH   5  12
BRANCH   6  15
HETATM   15  S1  UNL     1      -0.840  -1.155   1.716  1.00  0.00     0.317 S 
HETATM   16  O3  UNL     1       0.449  -1.848   2.075  1.00  0.00    -0.183 OA
HETATM   17  O4  UNL     1      -1.324  -0.403   2.918  1.00  0.00    -0.183 OA
BRANCH  15  18
HETATM   18  N5  UNL     1      -2.007  -2.436   1.472  1.00  0.00    -0.311 N 
ATOM     19  H52 UNL     1      -2.490  -2.611   0.591  1.00  0.00     0.170 HD
ATOM     20  H51 UNL     1      -2.126  -2.969   2.333  1.00  0.00     0.170 HD
ENDBRANCH  15  18
ENDBRANCH   6  15
TORSDOF 4
