REMARK  12 active torsions:
REMARK  status: ('A' for Active; 'I' for Inactive)
REMARK    1  A    between atoms: O1_2  and  C2_3 
REMARK    2  A    between atoms: C2_3  and  C3_5 
REMARK    3  A    between atoms: C3_5  and  N1_6 
REMARK    4  A    between atoms: C3_5  and  C4_10 
REMARK    5  A    between atoms: C4_10  and  O3_11 
REMARK    6  A    between atoms: C4_10  and  C5_13 
REMARK    7  A    between atoms: C5_13  and  C6_14 
REMARK    8  A    between atoms: C5_13  and  N2_25 
REMARK    9  A    between atoms: C6_14  and  O5_16 
REMARK   10  A    between atoms: O5_16  and  C7_17 
REMARK   11  A    between atoms: C7_17  and  C9_19 
REMARK   12  A    between atoms: C15_28  and  N4_29 
ROOT
HETATM    1  C5  UNL     1      -0.943  -0.452   0.580  1.00  0.00     0.244 C 
ENDROOT
BRANCH   1   2
HETATM    2  C4  UNL     1      -2.177   0.208   0.091  1.00  0.00     0.193 C 
BRANCH   2   3
HETATM    3  C3  UNL     1      -2.144   1.701   0.011  1.00  0.00     0.313 C 
BRANCH   3   4
HETATM    4  C2  UNL     1      -3.510   2.135  -0.461  1.00  0.00     0.291 C 
HETATM    5  O2  UNL     1      -3.924   1.829  -1.619  1.00  0.00    -0.263 OA
BRANCH   4   6
HETATM    6  O1  UNL     1      -4.371   2.878   0.332  1.00  0.00    -0.325 OA
HETATM    7  C1  UNL     1      -5.650   3.276  -0.131  1.00  0.00     0.213 C 
ENDBRANCH   4   6
ENDBRANCH   3   4
BRANCH   3   8
HETATM    8  N1  UNL     1      -2.018   2.231   1.379  1.00  0.00    -0.063 N 
ATOM      9  H13 UNL     1      -2.176   3.236   1.446  1.00  0.00     0.275 HD
ATOM     10  H12 UNL     1      -2.776   1.949   2.000  1.00  0.00     0.275 HD
ATOM     11  H11 UNL     1      -1.095   1.938   1.698  1.00  0.00     0.275 HD
ENDBRANCH   3   8
ENDBRANCH   2   3
BRANCH   2  12
HETATM   12  O3  UNL     1      -3.300  -0.119   0.878  1.00  0.00    -0.390 OA
ATOM     13  H3  UNL     1      -3.321  -1.067   0.929  1.00  0.00     0.210 HD
ENDBRANCH   2  12
ENDBRANCH   1   2
BRANCH   1  14
HETATM   14  C6  UNL     1       0.250  -0.205  -0.253  1.00  0.00     0.287 C 
HETATM   15  O4  UNL     1       0.176   0.430  -1.330  1.00  0.00    -0.263 OA
BRANCH  14  16
HETATM   16  O5  UNL     1       1.518  -0.655   0.097  1.00  0.00    -0.310 OA
BRANCH  16  17
HETATM   17  C7  UNL     1       2.657  -0.425  -0.689  1.00  0.00     0.160 C 
HETATM   18  C8  UNL     1       3.232  -1.710  -1.252  1.00  0.00     0.045 C 
BRANCH  17  19
HETATM   19  C9  UNL     1       3.679   0.385  -0.003  1.00  0.00    -0.029 A 
HETATM   20  C10 UNL     1       3.355   1.518   0.706  1.00  0.00     0.010 A 
HETATM   21  C11 UNL     1       4.321   2.271   1.346  1.00  0.00     0.001 A 
HETATM   22  C12 UNL     1       5.650   1.914   1.298  1.00  0.00     0.000 A 
HETATM   23  C13 UNL     1       5.989   0.781   0.592  1.00  0.00     0.001 A 
HETATM   24  C14 UNL     1       5.011   0.034  -0.046  1.00  0.00     0.010 A 
ENDBRANCH  17  19
ENDBRANCH  16  17
ENDBRANCH  14  16
ENDBRANCH   1  14
BRANCH   1  25
HETATM   25  N2  UNL     1      -1.181  -1.902   0.523  1.00  0.00    -0.211 N 
HETATM   26  N3  UNL     1      -1.595  -2.544  -0.555  1.00  0.00    -0.125 N 
HETATM   27  C15 UNL     1      -1.726  -3.844  -0.323  1.00  0.00     0.694 A 
ATOM     28  H3  UNL     1      -1.789  -2.097  -1.451  1.00  0.00     0.206 HD
HETATM   29  N5  UNL     1      -1.382  -4.040   0.957  1.00  0.00    -0.139 N 
HETATM   30  C16 UNL     1      -1.044  -2.822   1.473  1.00  0.00     0.356 A 
ATOM     31  H5  UNL     1      -1.374  -4.931   1.453  1.00  0.00     0.189 HD
HETATM   32  O6  UNL     1      -0.669  -2.610   2.644  1.00  0.00    -0.244 OA
BRANCH  27  33
HETATM   33  N4  UNL     1      -2.114  -4.717  -1.194  1.00  0.00    -0.233 N 
ATOM     34  H42 UNL     1      -2.376  -4.568  -2.168  1.00  0.00     0.174 HD
ATOM     35  H41 UNL     1      -2.215  -5.716  -1.016  1.00  0.00     0.174 HD
ENDBRANCH  27  33
ENDBRANCH   1  25
TORSDOF 12
