REMARK  6 active torsions:
REMARK  status: ('A' for Active; 'I' for Inactive)
REMARK    1  A    between atoms: N1_2  and  C2_4 
REMARK    2  A    between atoms: C2_4  and  O1_5 
REMARK    3  A    between atoms: C3_7  and  N2_8 
REMARK    4  A    between atoms: C6_16  and  O4_17 
REMARK    5  A    between atoms: C8_19  and  O5_20 
REMARK    6  A    between atoms: C9_22  and  O6_23 
ROOT
HETATM    1  C2  UNL     1      -1.866   0.609  -0.073  1.00  0.00     0.166 C 
HETATM    2  C3  UNL     1      -2.023  -0.591  -0.960  1.00  0.00     0.262 C 
HETATM    3  C4  UNL     1      -0.748  -0.769  -1.721  1.00  0.00     0.209 C 
HETATM    4  O2  UNL     1       0.393  -0.704  -1.050  1.00  0.00    -0.350 OA
HETATM    5  C5  UNL     1       0.510  -0.109   0.140  1.00  0.00     0.203 C 
HETATM    6  O3  UNL     1       1.409   0.977  -0.028  1.00  0.00    -0.319 OA
HETATM    7  C6  UNL     1       2.465   0.355  -0.647  1.00  0.00     0.294 C 
HETATM    8  C8  UNL     1       2.739  -0.828   0.258  1.00  0.00     0.207 C 
HETATM    9  C9  UNL     1       1.407  -1.012   0.999  1.00  0.00     0.214 C 
HETATM   10  C10 UNL     1      -0.693   0.358   0.845  1.00  0.00     0.104 C 
HETATM   11  C11 UNL     1      -1.138  -0.543   1.983  1.00  0.00     0.021 C 
ENDROOT
BRANCH   9  12
HETATM   12  O6  UNL     1       1.486  -0.588   2.298  1.00  0.00    -0.387 OA
ATOM     13  H6  UNL     1       2.041  -1.147   2.829  1.00  0.00     0.210 HD
ENDBRANCH   9  12
BRANCH   7  14
HETATM   14  O4  UNL     1       3.626   1.119  -0.681  1.00  0.00    -0.363 OA
HETATM   15  C7  UNL     1       4.121   1.256  -1.973  1.00  0.00     0.204 C 
ENDBRANCH   7  14
BRANCH   8  16
HETATM   16  O5  UNL     1       3.004  -1.920  -0.568  1.00  0.00    -0.388 OA
ATOM     17  H5  UNL     1       3.176  -2.662  -0.000  1.00  0.00     0.210 HD
ENDBRANCH   8  16
BRANCH   1  18
HETATM   18  N1  UNL     1      -3.078   0.898   0.579  1.00  0.00    -0.394 N 
HETATM   19  C1  UNL     1      -3.102   2.003   1.455  1.00  0.00     0.143 C 
ATOM     20  H1  UNL     1      -3.910   0.329   0.424  1.00  0.00     0.155 HD
ENDBRANCH   1  18
BRANCH   1  21
HETATM   21  O1  UNL     1      -1.513   1.691  -0.889  1.00  0.00    -0.368 OA
ATOM     22  H1  UNL     1      -0.694   1.496  -1.329  1.00  0.00     0.212 HD
ENDBRANCH   1  21
BRANCH   2  23
HETATM   23  N2  UNL     1      -2.459  -1.772  -0.278  1.00  0.00    -0.068 N 
ATOM     24  H23 UNL     1      -1.837  -1.984   0.502  1.00  0.00     0.275 HD
ATOM     25  H22 UNL     1      -3.323  -1.591   0.233  1.00  0.00     0.275 HD
ATOM     26  H21 UNL     1      -2.566  -2.588  -0.881  1.00  0.00     0.275 HD
ENDBRANCH   2  23
TORSDOF 6
