REMARK  4 active torsions:
REMARK  status: ('A' for Active; 'I' for Inactive)
REMARK    1  A    between atoms: C2_3  and  C3_4 
REMARK    2  A    between atoms: C7_10  and  O1_11 
REMARK    3  A    between atoms: C8_15  and  N5_16 
REMARK    4  A    between atoms: C9_19  and  N6_20 
REMARK       I    between atoms: N6_20  and  C10_22 
REMARK       I    between atoms: C10_22  and  N8_26 
ROOT
HETATM    1  C3  UNL     1      -2.098   1.223  -1.405  1.00  0.00     0.068 C 
HETATM    2  C4  UNL     1      -3.377   1.017  -1.406  1.00  0.00     0.127 C 
HETATM    3  C5  UNL     1      -4.117   0.374  -0.376  1.00  0.00     0.111 C 
HETATM    4  N2  UNL     1      -4.739  -0.169   0.447  1.00  0.00    -0.191 NA
HETATM    5  C6  UNL     1      -4.139   1.483  -2.565  1.00  0.00     0.111 C 
HETATM    6  N3  UNL     1      -4.745   1.837  -3.472  1.00  0.00    -0.191 NA
ENDROOT
BRANCH   1   7
HETATM    7  C2  UNL     1      -1.180   0.837  -0.341  1.00  0.00     0.089 A 
HETATM    8  N1  UNL     1      -0.153   0.026  -0.661  1.00  0.00    -0.331 N 
HETATM    9  C1  UNL     1      -0.074  -0.435  -2.056  1.00  0.00     0.158 C 
HETATM   10  C9  UNL     1       0.778  -0.366   0.229  1.00  0.00     0.167 A 
HETATM   11  C8  UNL     1       0.675   0.087   1.534  1.00  0.00     0.146 A 
HETATM   12  N4  UNL     1      -0.338   0.896   1.876  1.00  0.00    -0.319 N 
HETATM   13  C7  UNL     1      -1.260   1.272   0.953  1.00  0.00     0.169 A 
ATOM     14  H4  UNL     1      -0.417   1.231   2.836  1.00  0.00     0.169 HD
BRANCH  10  15
HETATM   15  N6  UNL     1       1.688  -1.128  -0.202  1.00  0.00    -0.172 N 
HETATM   16  C10 UNL     1       2.777  -1.695   0.466  1.00  0.00     0.686 C 
HETATM   17  N7  UNL     1       2.657  -2.861   0.985  1.00  0.00    -0.234 N 
HETATM   18  N8  UNL     1       4.024  -1.034   0.595  1.00  0.00    -0.126 N 
ATOM     19  H72 UNL     1       1.760  -3.337   0.892  1.00  0.00     0.174 HD
ATOM     20  H71 UNL     1       3.452  -3.275   1.472  1.00  0.00     0.174 HD
HETATM   21  C11 UNL     1       5.189  -1.731   0.925  1.00  0.00     0.196 C 
ATOM     22  H8  UNL     1       4.072  -0.026   0.443  1.00  0.00     0.197 HD
HETATM   23  N9  UNL     1       6.162  -2.317   1.184  1.00  0.00    -0.171 NA
ATOM     24  H6  UNL     1       1.617  -1.367  -1.191  1.00  0.00     0.186 HD
ENDBRANCH  10  15
BRANCH  11  25
HETATM   25  N5  UNL     1       1.568  -0.287   2.398  1.00  0.00    -0.382 N 
ATOM     26  H52 UNL     1       1.492   0.047   3.359  1.00  0.00     0.157 HD
ATOM     27  H51 UNL     1       2.339  -0.902   2.138  1.00  0.00     0.157 HD
ENDBRANCH  11  25
BRANCH  13  28
HETATM   28  O1  UNL     1      -2.297   2.114   1.319  1.00  0.00    -0.344 OA
ATOM     29  H1  UNL     1      -2.353   2.416   2.218  1.00  0.00     0.219 HD
ENDBRANCH  13  28
ENDBRANCH   1   7
TORSDOF 4
