REMARK  6 active torsions:
REMARK  status: ('A' for Active; 'I' for Inactive)
REMARK    1  A    between atoms: C2_2  and  N1_3 
REMARK    2  A    between atoms: C2_2  and  N2_7 
REMARK    3  A    between atoms: C3_8  and  N3_9 
REMARK    4  A    between atoms: C5_16  and  N6_17 
REMARK    5  A    between atoms: C6_22  and  N8_23 
REMARK    6  A    between atoms: N9_25  and  N10_27 
ROOT
HETATM    1  N2  UNL     1      -0.439  -0.860   0.142  1.00  0.00    -0.279 N 
HETATM    2  C3  UNL     1       0.301  -1.940   0.492  1.00  0.00     0.197 A 
HETATM    3  C4  UNL     1       1.651  -1.622   0.419  1.00  0.00     0.174 A 
HETATM    4  N4  UNL     1       1.725  -0.353   0.023  1.00  0.00    -0.229 N 
HETATM    5  N5  UNL     1       2.819   0.398  -0.195  1.00  0.00    -0.124 N 
ATOM      6  H5  UNL     1       3.750   0.006  -0.055  1.00  0.00     0.206 HD
HETATM    7  C5  UNL     1       2.672   1.665  -0.598  1.00  0.00     0.692 A 
HETATM    8  N7  UNL     1       1.463   2.176  -0.782  1.00  0.00    -0.170 N 
ATOM      9  H7  UNL     1       1.368   3.144  -1.091  1.00  0.00     0.186 HD
HETATM   10  C6  UNL     1       0.344   1.428  -0.565  1.00  0.00     0.183 A 
HETATM   11  C7  UNL     1       0.484   0.122  -0.149  1.00  0.00     0.179 A 
ENDROOT
BRANCH  10  12
HETATM   12  N8  UNL     1      -0.917   2.014  -0.783  1.00  0.00    -0.268 N 
HETATM   13  N9  UNL     1      -1.204   3.225  -0.564  1.00  0.00    -0.248 N 
ATOM     14  H9  UNL     1      -2.155   3.535  -0.762  1.00  0.00     0.207 HD
ATOM     15  H8  UNL     1      -1.657   1.414  -1.146  1.00  0.00     0.190 HD
BRANCH  13  16
HETATM   16  N10 UNL     1      -0.298   4.166  -0.067  1.00  0.00    -0.331 N 
ATOM     17 2H10 UNL     1       0.649   3.839   0.125  1.00  0.00     0.178 HD
ATOM     18 1H10 UNL     1      -0.530   5.143   0.110  1.00  0.00     0.178 HD
ENDBRANCH  13  16
ENDBRANCH  10  12
BRANCH   7  19
HETATM   19  N6  UNL     1       3.760   2.351  -0.795  1.00  0.00    -0.233 N 
ATOM     20  H62 UNL     1       4.690   1.958  -0.653  1.00  0.00     0.174 HD
ATOM     21  H61 UNL     1       3.648   3.317  -1.102  1.00  0.00     0.174 HD
ENDBRANCH   7  19
BRANCH   1  22
HETATM   22  C2  UNL     1      -1.880  -0.764   0.099  1.00  0.00     0.287 C 
HETATM   23  C1  UNL     1      -2.518  -1.609  -0.973  1.00  0.00     0.063 C 
BRANCH  22  24
HETATM   24  N1  UNL     1      -2.376  -1.081   1.450  1.00  0.00    -0.058 N 
ATOM     25  H13 UNL     1      -3.393  -1.014   1.490  1.00  0.00     0.276 HD
ATOM     26  H12 UNL     1      -2.266  -2.074   1.655  1.00  0.00     0.276 HD
ATOM     27  H11 UNL     1      -1.944  -0.509   2.176  1.00  0.00     0.276 HD
ENDBRANCH  22  24
ENDBRANCH   1  22
BRANCH   2  28
HETATM   28  N3  UNL     1      -0.119  -3.239   0.869  1.00  0.00    -0.096 N 
HETATM   29  O1  UNL     1      -1.278  -3.599   0.915  1.00  0.00    -0.530 OA
HETATM   30  O2  UNL     1       0.814  -4.211   1.206  1.00  0.00    -0.530 OA
ENDBRANCH   2  28
TORSDOF 6
