REMARK  8 active torsions:
REMARK  status: ('A' for Active; 'I' for Inactive)
REMARK    1  A    between atoms: O1_2  and  C2_3 
REMARK       I    between atoms: C2_3  and  N1_5 
REMARK    2  A    between atoms: N1_5  and  C3_6 
REMARK    3  A    between atoms: C3_6  and  C4_7 
REMARK    4  A    between atoms: C5_9  and  O4_10 
REMARK    5  A    between atoms: C6_12  and  O5_13 
REMARK    6  A    between atoms: C6_12  and  C7_15 
REMARK    7  A    between atoms: C7_15  and  O6_17 
REMARK    8  A    between atoms: C9_20  and  O8_21 
ROOT
HETATM    1  C4  UNL     1       0.395  -1.692  -0.614  1.00  0.00     0.231 C 
HETATM    2  O3  UNL     1       0.503  -0.341  -0.771  1.00  0.00    -0.339 OA
HETATM    3  C5  UNL     1      -0.672   0.320  -1.030  1.00  0.00     0.323 C 
HETATM    4  C6  UNL     1      -1.823  -0.075  -0.178  1.00  0.00     0.241 C 
HETATM    5  O7  UNL     1      -1.852  -1.456  -0.040  1.00  0.00    -0.316 OA
HETATM    6  C9  UNL     1      -0.654  -1.969   0.446  1.00  0.00     0.295 C 
ENDROOT
BRANCH   1   7
HETATM    7  C3  UNL     1       1.711  -2.114   0.069  1.00  0.00     0.198 C 
BRANCH   7   8
HETATM    8  N1  UNL     1       2.576  -1.451   0.408  1.00  0.00    -0.360 NA
HETATM    9  C2  UNL     1       3.481  -0.547   0.737  1.00  0.00     0.438 C 
HETATM   10  O2  UNL     1       4.276  -0.618   1.763  1.00  0.00    -0.221 OA
BRANCH   9  11
HETATM   11  O1  UNL     1       3.686   0.625  -0.011  1.00  0.00    -0.298 OA
HETATM   12  C1  UNL     1       4.667   1.538   0.408  1.00  0.00     0.216 C 
ENDBRANCH   9  11
ENDBRANCH   7   8
ENDBRANCH   1   7
BRANCH   6  13
HETATM   13  O8  UNL     1      -0.233  -1.309   1.602  1.00  0.00    -0.368 OA
ATOM     14  H8  UNL     1      -0.890  -1.482   2.266  1.00  0.00     0.212 HD
ENDBRANCH   6  13
BRANCH   3  15
HETATM   15  O4  UNL     1      -0.394   1.699  -0.900  1.00  0.00    -0.366 OA
ATOM     16  H4  UNL     1      -1.207   2.156  -1.079  1.00  0.00     0.212 HD
ENDBRANCH   3  15
BRANCH   4  17
HETATM   17  O5  UNL     1      -1.762   0.445   1.115  1.00  0.00    -0.360 OA
ATOM     18  H5  UNL     1      -2.498   0.192   1.660  1.00  0.00     0.213 HD
ENDBRANCH   4  17
BRANCH   4  19
HETATM   19  C7  UNL     1      -3.128   0.370  -0.782  1.00  0.00     0.181 C 
HETATM   20  C8  UNL     1      -3.279   1.873  -0.774  1.00  0.00     0.045 C 
BRANCH  19  21
HETATM   21  O6  UNL     1      -4.198  -0.118  -0.001  1.00  0.00    -0.390 OA
ATOM     22  H6  UNL     1      -5.022   0.163  -0.382  1.00  0.00     0.210 HD
ENDBRANCH  19  21
ENDBRANCH   4  19
TORSDOF 8
