REMARK  5 active torsions:
REMARK  status: ('A' for Active; 'I' for Inactive)
REMARK    1  A    between atoms: C3_3  and  C4_4 
REMARK    2  A    between atoms: C4_4  and  O1_5 
REMARK    3  A    between atoms: C5_9  and  N2_10 
REMARK    4  A    between atoms: N2_10  and  N3_12 
REMARK    5  A    between atoms: C6_14  and  C7_15 
ROOT
HETATM    1  C1  UNL     1      -4.411   1.635   0.052  1.00  0.00     0.112 C 
HETATM    2  C2  UNL     1      -3.336   0.676  -0.190  1.00  0.00    -0.106 C 
HETATM    3  C3  UNL     1      -2.438  -0.098  -0.393  1.00  0.00    -0.040 C 
ENDROOT
BRANCH   3   4
HETATM    4  C4  UNL     1      -1.345  -1.073  -0.637  1.00  0.00     0.255 A 
HETATM    5  N1  UNL     1      -0.184  -0.386  -1.106  1.00  0.00    -0.175 N 
HETATM    6  C5  UNL     1       1.065  -0.346  -0.439  1.00  0.00     0.697 A 
ATOM      7  H1  UNL     1      -0.260   0.115  -1.991  1.00  0.00     0.182 HD
HETATM    8  N4  UNL     1       1.207  -0.963   0.675  1.00  0.00    -0.179 N 
HETATM    9  C8  UNL     1       0.101  -1.672   1.213  1.00  0.00     0.152 A 
ATOM     10  H4  UNL     1       2.100  -0.945   1.167  1.00  0.00     0.185 HD
HETATM   11  C9  UNL     1       0.237  -2.385   2.484  1.00  0.00     0.119 C 
HETATM   12  C10 UNL     1      -1.087  -1.753   0.652  1.00  0.00     0.128 A 
HETATM   13  N5  UNL     1       0.367  -2.945   3.497  1.00  0.00    -0.190 NA
HETATM   14  C11 UNL     1      -2.162  -2.512   1.291  1.00  0.00     0.104 C 
HETATM   15  N6  UNL     1      -3.011  -3.124   1.783  1.00  0.00    -0.191 NA
BRANCH   4  16
HETATM   16  O1  UNL     1      -1.854  -1.977  -1.570  1.00  0.00    -0.356 OA
ATOM     17  H1  UNL     1      -1.155  -2.601  -1.726  1.00  0.00     0.214 HD
ENDBRANCH   4  16
BRANCH   6  18
HETATM   18  N2  UNL     1       2.141   0.394  -1.047  1.00  0.00    -0.132 N 
ATOM     19  H2  UNL     1       2.833  -0.064  -1.640  1.00  0.00     0.205 HD
BRANCH  18  20
HETATM   20  N3  UNL     1       2.195   1.748  -0.793  1.00  0.00    -0.291 N 
HETATM   21  C6  UNL     1       3.183   2.402  -0.347  1.00  0.00     0.192 C 
ATOM     22  H3  UNL     1       1.347   2.281  -0.985  1.00  0.00     0.186 HD
BRANCH  21  23
HETATM   23  C7  UNL     1       4.475   1.827  -0.012  1.00  0.00     0.216 C 
HETATM   24  O2  UNL     1       5.433   2.511   0.429  1.00  0.00    -0.643 OA
HETATM   25  O3  UNL     1       4.693   0.467  -0.175  1.00  0.00    -0.643 OA
ENDBRANCH  21  23
ENDBRANCH  18  20
ENDBRANCH   6  18
ENDBRANCH   3   4
TORSDOF 5
