REMARK  1 active torsions:
REMARK  status: ('A' for Active; 'I' for Inactive)
REMARK    1  A    between atoms: N1_1  and  C1_4 
ROOT
HETATM    1  C1  UNL     1      -1.822  -0.114  -0.054  1.00  0.00     0.680 A 
HETATM    2  N2  UNL     1      -1.467   1.184  -0.048  1.00  0.00    -0.155 N 
ATOM      3  H2  UNL     1      -2.199   1.893  -0.072  1.00  0.00     0.187 HD
HETATM    4  C2  UNL     1      -0.181   1.581  -0.011  1.00  0.00     0.279 A 
HETATM    5  O1  UNL     1       0.165   2.787  -0.006  1.00  0.00    -0.266 OA
HETATM    6  C3  UNL     1       0.802   0.626   0.022  1.00  0.00     0.147 A 
HETATM    7  C4  UNL     1       2.138   0.996   0.060  1.00  0.00     0.280 A 
HETATM    8  O2  UNL     1       2.453   2.215   0.065  1.00  0.00    -0.266 OA
HETATM    9  N3  UNL     1       3.051   0.006   0.091  1.00  0.00    -0.251 N 
ATOM     10  H3  UNL     1       4.043   0.240   0.120  1.00  0.00     0.192 HD
HETATM   11  N4  UNL     1       2.678  -1.281   0.085  1.00  0.00    -0.238 N 
ATOM     12  H4  UNL     1       3.394  -2.007   0.110  1.00  0.00     0.208 HD
HETATM   13  N5  UNL     1       1.402  -1.631   0.048  1.00  0.00    -0.269 N 
ATOM     14  H5  UNL     1       1.159  -2.622   0.044  1.00  0.00     0.190 HD
HETATM   15  C5  UNL     1       0.407  -0.707   0.015  1.00  0.00     0.158 A 
HETATM   16  N6  UNL     1      -0.883  -1.077  -0.022  1.00  0.00    -0.174 N 
ATOM     17  H6  UNL     1      -1.144  -2.063  -0.026  1.00  0.00     0.186 HD
ENDROOT
BRANCH   1  18
HETATM   18  N1  UNL     1      -3.093  -0.419  -0.091  1.00  0.00    -0.234 N 
ATOM     19  H12 UNL     1      -3.805   0.311  -0.115  1.00  0.00     0.174 HD
ATOM     20  H11 UNL     1      -3.362  -1.403  -0.096  1.00  0.00     0.174 HD
ENDBRANCH   1  18
TORSDOF 1
