REMARK  2 active torsions:
REMARK  status: ('A' for Active; 'I' for Inactive)
REMARK    1  A    between atoms: N1_1  and  N2_4 
REMARK    2  A    between atoms: N2_4  and  C1_6 
ROOT
HETATM    1  C1  UNL     1       0.618   0.389  -0.003  1.00  0.00     0.702 A 
HETATM    2  N3  UNL     1      -0.189   1.458   0.017  1.00  0.00    -0.140 N 
ATOM      3  H3  UNL     1       0.213   2.393   0.085  1.00  0.00     0.189 HD
HETATM    4  C2  UNL     1      -1.530   1.311  -0.052  1.00  0.00     0.340 A 
HETATM    5  O1  UNL     1      -2.308   2.310  -0.035  1.00  0.00    -0.246 OA
HETATM    6  N4  UNL     1      -2.073   0.085  -0.142  1.00  0.00    -0.284 N 
ATOM      7  H4  UNL     1      -3.085  -0.032  -0.194  1.00  0.00     0.173 HD
HETATM    8  C3  UNL     1      -1.263  -0.978  -0.162  1.00  0.00     0.194 A 
HETATM    9  S1  UNL     1      -1.903  -2.473  -0.270  1.00  0.00    -0.040 SA
HETATM   10  N5  UNL     1       0.090  -0.840  -0.092  1.00  0.00    -0.164 N 
ATOM     11  H5  UNL     1       0.694  -1.662  -0.107  1.00  0.00     0.186 HD
ENDROOT
BRANCH   1  12
HETATM   12  N2  UNL     1       1.890   0.527   0.063  1.00  0.00    -0.138 N 
ATOM     13  H2  UNL     1       2.281   1.466   0.132  1.00  0.00     0.205 HD
BRANCH  12  14
HETATM   14  N1  UNL     1       2.754  -0.561   0.044  1.00  0.00    -0.331 N 
ATOM     15  H12 UNL     1       2.346  -1.493  -0.025  1.00  0.00     0.177 HD
ATOM     16  H11 UNL     1       3.767  -0.451   0.097  1.00  0.00     0.177 HD
ENDBRANCH  12  14
ENDBRANCH   1  12
TORSDOF 2
