REMARK  1 active torsions:
REMARK  status: ('A' for Active; 'I' for Inactive)
REMARK    1  A    between atoms: N1_1  and  N2_4 
ROOT
HETATM    1  N2  UNL     1      -1.567   0.022   0.040  1.00  0.00    -0.145 N 
HETATM    2  N3  UNL     1      -0.822  -1.053   0.204  1.00  0.00    -0.258 N 
ATOM      3  H3  UNL     1      -1.165  -1.998   0.376  1.00  0.00     0.191 HD
HETATM    4  C1  UNL     1       0.481  -0.685   0.105  1.00  0.00     0.153 A 
HETATM    5  C2  UNL     1       1.773  -1.158   0.150  1.00  0.00     0.127 A 
HETATM    6  C3  UNL     1       2.610  -0.086  -0.057  1.00  0.00     0.264 A 
HETATM    7  O1  UNL     1       3.890  -0.102  -0.090  1.00  0.00    -0.267 OA
HETATM    8  N4  UNL     1       1.816   0.986  -0.219  1.00  0.00    -0.254 N 
ATOM      9  H4  UNL     1       2.148   1.935  -0.391  1.00  0.00     0.191 HD
HETATM   10  N5  UNL     1       0.544   0.639  -0.124  1.00  0.00    -0.182 N 
HETATM   11  C4  UNL     1      -0.736   1.052  -0.159  1.00  0.00     0.383 A 
HETATM   12  O2  UNL     1      -1.121   2.238  -0.352  1.00  0.00    -0.241 OA
ENDROOT
BRANCH   1  13
HETATM   13  N1  UNL     1      -2.972   0.104   0.065  1.00  0.00    -0.320 N 
ATOM     14  H12 UNL     1      -3.605  -0.681   0.217  1.00  0.00     0.179 HD
ATOM     15  H11 UNL     1      -3.548   0.936  -0.062  1.00  0.00     0.179 HD
ENDBRANCH   1  13
TORSDOF 1
