REMARK  1 active torsions:
REMARK  status: ('A' for Active; 'I' for Inactive)
REMARK    1  A    between atoms: N1_1  and  C1_4 
ROOT
HETATM    1  C1  UNL     1       2.400   0.521  -0.234  1.00  0.00     0.681 A 
HETATM    2  N2  UNL     1       1.292   1.261   0.061  1.00  0.00    -0.179 N 
ATOM      3  H2  UNL     1       1.381   2.270   0.180  1.00  0.00     0.185 HD
HETATM    4  C2  UNL     1       0.086   0.685   0.198  1.00  0.00     0.124 A 
HETATM    5  N3  UNL     1       0.010  -0.646   0.035  1.00  0.00    -0.268 N 
HETATM    6  C3  UNL     1       1.067  -1.413  -0.254  1.00  0.00     0.343 A 
HETATM    7  O1  UNL     1       0.980  -2.655  -0.404  1.00  0.00    -0.246 OA
HETATM    8  N4  UNL     1       2.277  -0.809  -0.388  1.00  0.00    -0.141 N 
ATOM      9  H4  UNL     1       3.100  -1.370  -0.608  1.00  0.00     0.189 HD
HETATM   10  C4  UNL     1      -1.292  -1.246   0.186  1.00  0.00     0.275 C 
HETATM   11  N5  UNL     1      -2.276  -0.455  -0.447  1.00  0.00    -0.322 N 
ATOM     12  H5  UNL     1      -3.031  -0.888  -0.979  1.00  0.00     0.181 HD
HETATM   13  N6  UNL     1      -2.193   0.893  -0.330  1.00  0.00    -0.332 N 
ATOM     14  H6  UNL     1      -2.838   1.508  -0.826  1.00  0.00     0.180 HD
HETATM   15  C5  UNL     1      -1.166   1.421   0.516  1.00  0.00     0.216 C 
ENDROOT
BRANCH   1  16
HETATM   16  N1  UNL     1       3.556   1.046  -0.368  1.00  0.00    -0.234 N 
ATOM     17  H12 UNL     1       3.649   2.055  -0.251  1.00  0.00     0.174 HD
ATOM     18  H11 UNL     1       4.384   0.493  -0.588  1.00  0.00     0.174 HD
ENDBRANCH   1  16
TORSDOF 1
