REMARK  1 active torsions:
REMARK  status: ('A' for Active; 'I' for Inactive)
REMARK    1  A    between atoms: N1_1  and  C1_4 
REMARK       I    between atoms: N5_12  and  C3_14 
ROOT
HETATM    1  C1  UNL     1      -2.133   0.862   0.039  1.00  0.00     0.161 A 
HETATM    2  N2  UNL     1      -2.748  -0.316   0.009  1.00  0.00    -0.265 N 
ATOM      3  H2  UNL     1      -3.768  -0.294  -0.012  1.00  0.00     0.190 HD
HETATM    4  N3  UNL     1      -2.199  -1.488   0.003  1.00  0.00    -0.239 N 
ATOM      5  H3  UNL     1      -2.846  -2.276  -0.023  1.00  0.00     0.208 HD
HETATM    6  N4  UNL     1      -0.927  -1.804   0.026  1.00  0.00    -0.265 N 
ATOM      7  H4  UNL     1      -0.686  -2.795   0.017  1.00  0.00     0.190 HD
HETATM    8  C2  UNL     1       0.085  -0.917   0.061  1.00  0.00     0.171 A 
HETATM    9  N5  UNL     1       1.308  -1.332   0.082  1.00  0.00    -0.290 N 
ATOM     10  H5  UNL     1       1.488  -2.336   0.072  1.00  0.00     0.172 HD
HETATM   11  C3  UNL     1       2.409  -0.437   0.119  1.00  0.00     0.334 C 
HETATM   12  N6  UNL     1       2.367   0.842  -0.492  1.00  0.00    -0.040 NA
HETATM   13  O1  UNL     1       3.466  -0.772   0.709  1.00  0.00    -0.251 OA
HETATM   14  S1  UNL     1      -0.420   0.713   0.074  1.00  0.00    -0.015 SA
ENDROOT
BRANCH   1  15
HETATM   15  N1  UNL     1      -2.808   1.952   0.040  1.00  0.00    -0.378 N 
ATOM     16  H12 UNL     1      -3.824   2.040   0.019  1.00  0.00     0.158 HD
ATOM     17  H11 UNL     1      -2.336   2.856   0.063  1.00  0.00     0.158 HD
ENDBRANCH   1  15
TORSDOF 1
