REMARK  1 active torsions:
REMARK  status: ('A' for Active; 'I' for Inactive)
REMARK    1  A    between atoms: N1_1  and  C1_4 
ROOT
HETATM    1  C1  UNL     1       2.235  -0.237   0.230  1.00  0.00     0.706 A 
HETATM    2  N2  UNL     1       1.369  -1.249   0.051  1.00  0.00    -0.019 N 
ATOM      3  H2  UNL     1       1.621  -2.236  -0.002  1.00  0.00     0.203 HD
HETATM    4  C2  UNL     1       0.109  -0.757  -0.049  1.00  0.00     0.727 A 
HETATM    5  N3  UNL     1      -1.101  -1.336  -0.231  1.00  0.00    -0.138 N 
ATOM      6  H3  UNL     1      -1.152  -2.351  -0.319  1.00  0.00     0.189 HD
HETATM    7  C3  UNL     1      -2.240  -0.621  -0.300  1.00  0.00     0.342 A 
HETATM    8  O1  UNL     1      -3.359  -1.187  -0.471  1.00  0.00    -0.246 OA
HETATM    9  N4  UNL     1      -2.122   0.714  -0.179  1.00  0.00    -0.258 N 
ATOM     10  H4  UNL     1      -2.964   1.288  -0.227  1.00  0.00     0.175 HD
HETATM   11  C4  UNL     1      -0.933   1.321   0.003  1.00  0.00     0.365 A 
HETATM   12  O2  UNL     1      -0.868   2.551   0.110  1.00  0.00    -0.244 OA
HETATM   13  N5  UNL     1       0.206   0.580   0.070  1.00  0.00    -0.016 N 
HETATM   14  N6  UNL     1       1.485   0.879   0.237  1.00  0.00    -0.106 N 
ATOM     15  H6  UNL     1       1.850   1.824   0.355  1.00  0.00     0.207 HD
ENDROOT
BRANCH   1  16
HETATM   16  N1  UNL     1       3.524  -0.265   0.371  1.00  0.00    -0.233 N 
ATOM     17  H12 UNL     1       4.093  -1.112   0.366  1.00  0.00     0.174 HD
ATOM     18  H11 UNL     1       4.181   0.503   0.507  1.00  0.00     0.174 HD
ENDBRANCH   1  16
TORSDOF 1
