REMARK  16 active torsions:
REMARK  status: ('A' for Active; 'I' for Inactive)
REMARK    1  A    between atoms: N3_4  and  C2_6 
REMARK    2  A    between atoms: C2_6  and  C3_7 
REMARK    3  A    between atoms: C3_7  and  C4_8 
REMARK    4  A    between atoms: C4_8  and  C5_9 
REMARK    5  A    between atoms: C5_9  and  N4_10 
REMARK    6  A    between atoms: N4_10  and  C6_11 
REMARK    7  A    between atoms: N4_10  and  C11_21 
REMARK    8  A    between atoms: C6_11  and  C7_12 
REMARK    9  A    between atoms: C7_12  and  C8_13 
REMARK   10  A    between atoms: C8_13  and  N5_14 
REMARK   11  A    between atoms: N5_14  and  C9_17 
REMARK   12  A    between atoms: C9_17  and  C10_18 
REMARK   13  A    between atoms: C10_18  and  O1_19 
REMARK   14  A    between atoms: C11_21  and  C12_22 
REMARK   15  A    between atoms: C12_22  and  N6_23 
REMARK   16  A    between atoms: N6_23  and  C13_26 
ROOT
HETATM    1  N4  UNL     1       1.107  -0.270   0.003  1.00  0.00     0.090 N 
ENDROOT
BRANCH   1   2
HETATM    2  C5  UNL     1       2.141  -1.378   0.094  1.00  0.00     0.272 C 
BRANCH   2   3
HETATM    3  C4  UNL     1       2.667  -1.778  -1.218  1.00  0.00     0.032 C 
BRANCH   3   4
HETATM    4  C3  UNL     1       3.668  -2.933  -1.063  1.00  0.00     0.021 C 
BRANCH   4   5
HETATM    5  C2  UNL     1       3.039  -4.134  -0.404  1.00  0.00     0.122 C 
BRANCH   5   6
HETATM    6  N3  UNL     1       3.952  -5.241  -0.286  1.00  0.00    -0.367 N 
HETATM    7  C1  UNL     1       4.939  -5.307   0.519  1.00  0.00     0.196 C 
HETATM    8  N1  UNL     1       5.723  -6.492   0.477  1.00  0.00    -0.067 NA
HETATM    9  N2  UNL     1       5.222  -4.229   1.410  1.00  0.00    -0.067 NA
ATOM     10  H3  UNL     1       3.796  -6.041  -0.899  1.00  0.00     0.161 HD
ENDBRANCH   5   6
ENDBRANCH   4   5
ENDBRANCH   3   4
ENDBRANCH   2   3
ENDBRANCH   1   2
BRANCH   1  11
HETATM   11  C6  UNL     1       1.955   0.853  -0.393  1.00  0.00     0.274 C 
BRANCH  11  12
HETATM   12  C7  UNL     1       1.325   2.197  -0.363  1.00  0.00     0.057 C 
BRANCH  12  13
HETATM   13  C8  UNL     1       2.458   3.174  -0.758  1.00  0.00     0.234 C 
BRANCH  13  14
HETATM   14  N5  UNL     1       2.041   4.537  -0.754  1.00  0.00    -0.073 N 
ATOM     15  H52 UNL     1       2.714   5.138  -1.230  1.00  0.00     0.277 HD
ATOM     16  H51 UNL     1       1.239   4.687  -1.366  1.00  0.00     0.277 HD
BRANCH  14  17
HETATM   17  C9  UNL     1       1.781   4.988   0.574  1.00  0.00     0.258 C 
BRANCH  17  18
HETATM   18  C10 UNL     1       1.441   6.476   0.525  1.00  0.00     0.191 C 
BRANCH  18  19
HETATM   19  O1  UNL     1       2.531   7.173  -0.016  1.00  0.00    -0.399 OA
ATOM     20  H1  UNL     1       2.319   8.099  -0.046  1.00  0.00     0.209 HD
ENDBRANCH  18  19
ENDBRANCH  17  18
ENDBRANCH  14  17
ENDBRANCH  13  14
ENDBRANCH  12  13
ENDBRANCH  11  12
ENDBRANCH   1  11
BRANCH   1  21
HETATM   21  C11 UNL     1       0.202  -0.686  -1.034  1.00  0.00     0.299 C 
BRANCH  21  22
HETATM   22  C12 UNL     1      -1.182  -0.133  -1.021  1.00  0.00     0.263 C 
BRANCH  22  23
HETATM   23  N6  UNL     1      -1.770  -0.539   0.243  1.00  0.00    -0.067 N 
ATOM     24  H62 UNL     1      -1.532  -1.509   0.450  1.00  0.00     0.277 HD
ATOM     25  H61 UNL     1      -1.300  -0.074   1.020  1.00  0.00     0.277 HD
BRANCH  23  26
HETATM   26  C13 UNL     1      -3.195  -0.342   0.328  1.00  0.00     0.219 C 
HETATM   27  C14 UNL     1      -3.800  -1.244  -0.732  1.00  0.00     0.035 C 
HETATM   28  C15 UNL     1      -5.023  -1.937  -0.148  1.00  0.00     0.004 C 
HETATM   29  C16 UNL     1      -5.877  -0.878   0.485  1.00  0.00     0.030 C 
HETATM   30  C17 UNL     1      -5.855   0.336  -0.387  1.00  0.00     0.273 C 
HETATM   31  N7  UNL     1      -4.949   1.364  -0.003  1.00  0.00     0.095 N 
HETATM   32  C18 UNL     1      -5.238   2.019   1.258  1.00  0.00     0.275 A 
HETATM   33  C20 UNL     1      -3.627   1.057   0.298  1.00  0.00     0.255 A 
HETATM   34  C19 UNL     1      -3.854   1.604   1.714  1.00  0.00     0.068 A 
ENDBRANCH  23  26
ENDBRANCH  22  23
ENDBRANCH  21  22
ENDBRANCH   1  21
TORSDOF 16
