REMARK  19 active torsions:
REMARK  status: ('A' for Active; 'I' for Inactive)
REMARK    1  A    between atoms: C2_2  and  C3_3 
REMARK    2  A    between atoms: C3_3  and  N1_4 
REMARK    3  A    between atoms: N1_4  and  C4_6 
REMARK    4  A    between atoms: C5_9  and  N3_10 
REMARK    5  A    between atoms: N3_10  and  C6_12 
REMARK    6  A    between atoms: C6_12  and  C7_13 
REMARK    7  A    between atoms: C7_13  and  C8_14 
REMARK    8  A    between atoms: C8_14  and  C9_15 
REMARK    9  A    between atoms: C9_15  and  C10_16 
REMARK   10  A    between atoms: C10_16  and  C11_17 
REMARK   11  A    between atoms: C11_17  and  N4_18 
REMARK   12  A    between atoms: C14_23  and  N6_24 
REMARK   13  A    between atoms: N6_24  and  C15_26 
REMARK   14  A    between atoms: C15_26  and  C16_27 
REMARK   15  A    between atoms: C16_27  and  C17_28 
REMARK   16  A    between atoms: C17_28  and  N7_29 
REMARK   17  A    between atoms: N7_29  and  C18_31 
REMARK   18  A    between atoms: C18_31  and  C19_32 
REMARK   19  A    between atoms: C19_32  and  O1_33 
ROOT
HETATM    1  C4  UNL     1       1.679   2.181  -0.429  1.00  0.00     0.707 A 
HETATM    2  N2  UNL     1       0.543   1.968   0.254  1.00  0.00    -0.022 N 
ATOM      3  H2  UNL     1      -0.056   2.745   0.534  1.00  0.00     0.203 HD
HETATM    4  C5  UNL     1       0.213   0.678   0.563  1.00  0.00     0.707 A 
HETATM    5  N5  UNL     1       1.015  -0.302   0.182  1.00  0.00    -0.022 N 
ATOM      6  H5  UNL     1       0.751  -1.258   0.422  1.00  0.00     0.203 HD
HETATM    7  C14 UNL     1       2.174  -0.113  -0.513  1.00  0.00     0.707 A 
HETATM    8  N8  UNL     1       2.489   1.156  -0.811  1.00  0.00    -0.022 N 
ATOM      9  H8  UNL     1       3.345   1.355  -1.329  1.00  0.00     0.203 HD
ENDROOT
BRANCH   4  10
HETATM   10  N3  UNL     1      -0.886   0.562   1.213  1.00  0.00    -0.225 N 
ATOM     11  H3  UNL     1      -1.410   1.407   1.442  1.00  0.00     0.177 HD
BRANCH  10  12
HETATM   12  C6  UNL     1      -1.404  -0.692   1.627  1.00  0.00     0.138 C 
BRANCH  12  13
HETATM   13  C7  UNL     1      -2.924  -0.711   1.678  1.00  0.00     0.020 C 
BRANCH  13  14
HETATM   14  C8  UNL     1      -3.505  -0.413   0.303  1.00  0.00     0.002 C 
BRANCH  14  15
HETATM   15  C9  UNL     1      -5.043  -0.455   0.454  1.00  0.00     0.002 C 
BRANCH  15  16
HETATM   16  C10 UNL     1      -5.670  -0.160  -0.873  1.00  0.00     0.030 C 
BRANCH  16  17
HETATM   17  C11 UNL     1      -7.127  -0.104  -0.928  1.00  0.00     0.271 C 
BRANCH  17  18
HETATM   18  N4  UNL     1      -7.925  -1.224  -0.590  1.00  0.00     0.080 N 
HETATM   19  C12 UNL     1      -9.347  -0.952  -0.906  1.00  0.00     0.309 C 
HETATM   20  C13 UNL     1      -7.838  -1.671   0.790  1.00  0.00     0.309 C 
ENDBRANCH  17  18
ENDBRANCH  16  17
ENDBRANCH  15  16
ENDBRANCH  14  15
ENDBRANCH  13  14
ENDBRANCH  12  13
ENDBRANCH  10  12
ENDBRANCH   4  10
BRANCH   1  21
HETATM   21  N1  UNL     1       2.084   3.368  -0.781  1.00  0.00    -0.222 N 
ATOM     22  H1  UNL     1       2.960   3.436  -1.299  1.00  0.00     0.178 HD
BRANCH  21  23
HETATM   23  C3  UNL     1       1.386   4.584  -0.492  1.00  0.00     0.164 C 
BRANCH  23  24
HETATM   24  C2  UNL     1       1.715   5.133   0.836  1.00  0.00    -0.017 C 
HETATM   25  C1  UNL     1       2.238   6.329   0.947  1.00  0.00     0.008 C 
ENDBRANCH  23  24
ENDBRANCH  21  23
ENDBRANCH   1  21
BRANCH   7  26
HETATM   26  N6  UNL     1       2.894  -1.123  -0.846  1.00  0.00    -0.225 N 
ATOM     27  H6  UNL     1       2.548  -2.039  -0.562  1.00  0.00     0.177 HD
BRANCH  26  28
HETATM   28  C15 UNL     1       4.124  -1.107  -1.569  1.00  0.00     0.143 C 
BRANCH  28  29
HETATM   29  C16 UNL     1       5.354  -1.201  -0.672  1.00  0.00     0.065 C 
BRANCH  29  30
HETATM   30  C17 UNL     1       5.361  -2.446   0.137  1.00  0.00     0.062 C 
BRANCH  30  31
HETATM   31  N7  UNL     1       6.465  -2.579   0.970  1.00  0.00    -0.380 N 
ATOM     32  H7  UNL     1       6.308  -2.463   1.971  1.00  0.00     0.164 HD
BRANCH  31  33
HETATM   33  C18 UNL     1       7.756  -2.854   0.563  1.00  0.00     0.086 C 
BRANCH  33  34
HETATM   34  C19 UNL     1       8.552  -1.869  -0.213  1.00  0.00     0.208 C 
BRANCH  34  35
HETATM   35  O1  UNL     1       8.730  -0.658   0.459  1.00  0.00    -0.396 OA
ATOM     36  H1  UNL     1       9.239  -0.028  -0.037  1.00  0.00     0.209 HD
ENDBRANCH  34  35
ENDBRANCH  33  34
ENDBRANCH  31  33
ENDBRANCH  30  31
ENDBRANCH  29  30
ENDBRANCH  28  29
ENDBRANCH  26  28
ENDBRANCH   7  26
TORSDOF 19
