REMARK  18 active torsions:
REMARK  status: ('A' for Active; 'I' for Inactive)
REMARK    1  A    between atoms: N1_2  and  C3_4 
REMARK    2  A    between atoms: C3_4  and  C4_5 
REMARK    3  A    between atoms: C4_5  and  C5_6 
REMARK    4  A    between atoms: C5_6  and  C6_7 
REMARK    5  A    between atoms: C6_7  and  C7_8 
REMARK    6  A    between atoms: C7_8  and  O1_9 
REMARK    7  A    between atoms: O1_9  and  C8_10 
REMARK    8  A    between atoms: C10_12  and  N2_13 
REMARK    9  A    between atoms: N2_13  and  C11_15 
REMARK   10  A    between atoms: C11_15  and  C12_16 
REMARK   11  A    between atoms: C12_16  and  C13_17 
REMARK   12  A    between atoms: C13_17  and  N3_18 
REMARK   13  A    between atoms: C15_25  and  N7_26 
REMARK   14  A    between atoms: N7_26  and  C16_28 
REMARK   15  A    between atoms: C16_28  and  C17_29 
REMARK   16  A    between atoms: C17_29  and  C18_30 
REMARK   17  A    between atoms: C18_30  and  C19_31 
REMARK   18  A    between atoms: C19_31  and  N8_32 
ROOT
HETATM    1  C8  UNL     1      -0.191   0.865   0.906  1.00  0.00     0.161 A 
HETATM    2  C9  UNL     1       0.733  -0.026   0.434  1.00  0.00     0.105 A 
HETATM    3  C10 UNL     1       2.076   0.324   0.224  1.00  0.00     0.120 A 
HETATM    4  N6  UNL     1       2.425   1.583   0.508  1.00  0.00    -0.177 N 
ATOM      5  H6  UNL     1       3.395   1.865   0.365  1.00  0.00     0.185 HD
HETATM    6  C15 UNL     1       1.543   2.502   0.979  1.00  0.00     0.681 A 
HETATM    7  N9  UNL     1       0.279   2.123   1.163  1.00  0.00    -0.171 N 
ATOM      8  H9  UNL     1      -0.380   2.816   1.518  1.00  0.00     0.186 HD
ENDROOT
BRANCH   3   9
HETATM    9  N2  UNL     1       2.957  -0.502  -0.216  1.00  0.00    -0.376 N 
ATOM     10  H2  UNL     1       3.921  -0.199  -0.353  1.00  0.00     0.161 HD
BRANCH   9  11
HETATM   11  C11 UNL     1       2.573  -1.863  -0.515  1.00  0.00     0.123 C 
BRANCH  11  12
HETATM   12  C12 UNL     1       3.728  -2.650  -1.103  1.00  0.00     0.039 C 
BRANCH  12  13
HETATM   13  C13 UNL     1       4.869  -2.654  -0.094  1.00  0.00     0.123 C 
BRANCH  13  14
HETATM   14  N3  UNL     1       6.021  -3.370  -0.547  1.00  0.00    -0.367 N 
HETATM   15  C14 UNL     1       6.128  -4.623  -0.253  1.00  0.00     0.196 C 
HETATM   16  N4  UNL     1       5.186  -5.354   0.490  1.00  0.00    -0.067 NA
HETATM   17  N5  UNL     1       7.310  -5.262  -0.744  1.00  0.00    -0.067 NA
ATOM     18  H3  UNL     1       6.744  -2.900  -1.092  1.00  0.00     0.161 HD
ENDBRANCH  13  14
ENDBRANCH  12  13
ENDBRANCH  11  12
ENDBRANCH   9  11
ENDBRANCH   3   9
BRANCH   1  19
HETATM   19  O1  UNL     1      -1.491   0.568   1.116  1.00  0.00    -0.335 OA
BRANCH  19  20
HETATM   20  C7  UNL     1      -2.270  -0.548   0.944  1.00  0.00     0.177 C 
BRANCH  20  21
HETATM   21  C6  UNL     1      -2.373  -0.923  -0.493  1.00  0.00     0.027 C 
BRANCH  21  22
HETATM   22  C5  UNL     1      -3.214  -2.151  -0.768  1.00  0.00     0.004 C 
BRANCH  22  23
HETATM   23  C4  UNL     1      -4.615  -1.884  -0.280  1.00  0.00     0.030 C 
BRANCH  23  24
HETATM   24  C3  UNL     1      -5.456  -3.115  -0.568  1.00  0.00     0.271 C 
BRANCH  24  25
HETATM   25  N1  UNL     1      -6.833  -2.912  -0.119  1.00  0.00     0.080 N 
HETATM   26  C1  UNL     1      -7.464  -1.906  -0.955  1.00  0.00     0.309 C 
HETATM   27  C2  UNL     1      -6.865  -2.520   1.282  1.00  0.00     0.309 C 
ENDBRANCH  24  25
ENDBRANCH  23  24
ENDBRANCH  22  23
ENDBRANCH  21  22
ENDBRANCH  20  21
ENDBRANCH  19  20
ENDBRANCH   1  19
BRANCH   6  28
HETATM   28  N7  UNL     1       1.944   3.704   1.235  1.00  0.00    -0.226 N 
ATOM     29  H7  UNL     1       2.930   3.900   1.063  1.00  0.00     0.177 HD
BRANCH  28  30
HETATM   30  C16 UNL     1       1.162   4.781   1.729  1.00  0.00     0.138 C 
BRANCH  30  31
HETATM   31  C17 UNL     1       0.344   5.486   0.706  1.00  0.00     0.022 C 
BRANCH  31  32
HETATM   32  C18 UNL     1       1.230   6.052  -0.367  1.00  0.00     0.029 C 
BRANCH  32  33
HETATM   33  C19 UNL     1       2.231   7.041   0.125  1.00  0.00     0.229 C 
BRANCH  33  34
HETATM   34  N8  UNL     1       3.055   7.566  -0.957  1.00  0.00    -0.079 N 
ATOM     35  H83 UNL     1       3.503   6.814  -1.480  1.00  0.00     0.274 HD
ATOM     36  H82 UNL     1       2.481   7.960  -1.703  1.00  0.00     0.274 HD
ATOM     37  H81 UNL     1       3.740   8.243  -0.620  1.00  0.00     0.274 HD
ENDBRANCH  33  34
ENDBRANCH  32  33
ENDBRANCH  31  32
ENDBRANCH  30  31
ENDBRANCH  28  30
ENDBRANCH   6  28
TORSDOF 18
