REMARK  5 active torsions:
REMARK  status: ('A' for Active; 'I' for Inactive)
REMARK    1  A    between atoms: C5_6  and  C6_7 
REMARK    2  A    between atoms: C7_10  and  N2_11 
REMARK    3  A    between atoms: N2_11  and  C8_12 
REMARK    4  A    between atoms: C8_12  and  C9_13 
REMARK    5  A    between atoms: C9_13  and  N3_14 
ROOT
HETATM    1  C6  UNL     1      -2.491   0.809   0.118  1.00  0.00     0.066 A 
HETATM    2  N1  UNL     1      -1.229   0.556   0.448  1.00  0.00    -0.314 N 
ATOM      3  H1  UNL     1      -0.987  -0.402   0.701  1.00  0.00     0.170 HD
HETATM    4  C7  UNL     1      -0.230   1.495   0.471  1.00  0.00     0.259 A 
HETATM    5  N4  UNL     1      -0.592   2.767   0.127  1.00  0.00    -0.315 N 
ATOM      6  H4  UNL     1       0.112   3.505   0.129  1.00  0.00     0.170 HD
HETATM    7  C15 UNL     1      -1.845   3.063  -0.210  1.00  0.00     0.054 A 
HETATM    8  C16 UNL     1      -2.201   4.377  -0.561  1.00  0.00     0.092 A 
HETATM    9  C17 UNL     1      -3.506   4.643  -0.903  1.00  0.00     0.190 A 
HETATM   10  F2  UNL     1      -3.874   5.910  -1.245  1.00  0.00    -0.186 F 
HETATM   11  N5  UNL     1      -4.431   3.669  -0.904  1.00  0.00    -0.342 N 
ATOM     12  H5  UNL     1      -5.389   3.905  -1.164  1.00  0.00     0.167 HD
HETATM   13  C18 UNL     1      -4.149   2.403  -0.578  1.00  0.00     0.106 A 
HETATM   14  C19 UNL     1      -2.828   2.108  -0.227  1.00  0.00     0.034 A 
ENDROOT
BRANCH   1  15
HETATM   15  C5  UNL     1      -3.519  -0.220   0.119  1.00  0.00     0.072 A 
HETATM   16  C4  UNL     1      -3.677  -0.996  -1.000  1.00  0.00     0.132 A 
HETATM   17  C3  UNL     1      -4.620  -2.005  -1.114  1.00  0.00     0.053 A 
HETATM   18  F1  UNL     1      -2.886  -0.822  -2.112  1.00  0.00    -0.205 F 
HETATM   19  C2  UNL     1      -5.430  -2.194   0.012  1.00  0.00    -0.017 A 
HETATM   20  C1  UNL     1      -6.469  -3.249  -0.023  1.00  0.00     0.052 C 
HETATM   21  C21 UNL     1      -5.283  -1.423   1.137  1.00  0.00     0.161 A 
HETATM   22  C20 UNL     1      -4.331  -0.430   1.211  1.00  0.00     0.171 A 
HETATM   23  F4  UNL     1      -6.082  -1.608   2.241  1.00  0.00    -0.202 F 
HETATM   24  F3  UNL     1      -4.204   0.332   2.345  1.00  0.00    -0.202 F 
ENDBRANCH   1  15
BRANCH   4  25
HETATM   25  N2  UNL     1       0.870   1.166   0.773  1.00  0.00    -0.386 NA
BRANCH  25  26
HETATM   26  C8  UNL     1       2.106   0.798   1.112  1.00  0.00     0.189 C 
BRANCH  26  27
HETATM   27  C9  UNL     1       2.670  -0.441   0.418  1.00  0.00     0.331 C 
BRANCH  27  28
HETATM   28  N3  UNL     1       4.001  -0.766   0.837  1.00  0.00     0.094 N 
HETATM   29  C10 UNL     1       4.411  -1.976   0.147  1.00  0.00     0.273 C 
HETATM   30  C11 UNL     1       5.667  -2.476   0.824  1.00  0.00     0.030 C 
HETATM   31  C12 UNL     1       6.769  -1.498   0.431  1.00  0.00     0.003 C 
HETATM   32  C13 UNL     1       6.213  -0.236  -0.144  1.00  0.00     0.030 C 
HETATM   33  C14 UNL     1       4.974   0.260   0.554  1.00  0.00     0.273 C 
ENDBRANCH  27  28
ENDBRANCH  26  27
ENDBRANCH  25  26
ENDBRANCH   4  25
TORSDOF 5
