REMARK  4 active torsions:
REMARK  status: ('A' for Active; 'I' for Inactive)
REMARK    1  A    between atoms: N2_4  and  C3_5 
REMARK    2  A    between atoms: C5_7  and  C6_8 
REMARK    3  A    between atoms: C6_8  and  C7_9 
REMARK    4  A    between atoms: C11_21  and  C12_22 
ROOT
HETATM    1  C3  UNL     1       0.931   0.301   0.218  1.00  0.00     0.071 A 
HETATM    2  C4  UNL     1      -0.226  -0.046  -0.462  1.00  0.00     0.043 A 
HETATM    3  C5  UNL     1      -1.478   0.051   0.091  1.00  0.00    -0.009 A 
HETATM    4  C11 UNL     1      -1.521   0.523   1.397  1.00  0.00    -0.036 A 
HETATM    5  C15 UNL     1      -0.369   0.878   2.099  1.00  0.00     0.053 A 
HETATM    6  C16 UNL     1       0.875   0.763   1.493  1.00  0.00     0.143 A 
HETATM    7  F5  UNL     1       1.984   1.120   2.212  1.00  0.00    -0.204 F 
ENDROOT
BRANCH   3   8
HETATM    8  C6  UNL     1      -2.631  -0.315  -0.685  1.00  0.00     0.163 C 
HETATM    9  C8  UNL     1      -3.470  -1.470  -0.367  1.00  0.00     0.214 C 
HETATM   10  O1  UNL     1      -4.794  -1.300  -0.125  1.00  0.00    -0.381 OA
HETATM   11  C9  UNL     1      -5.515  -0.362  -0.696  1.00  0.00     0.243 C 
HETATM   12  C10 UNL     1      -4.776   0.832  -1.161  1.00  0.00     0.096 C 
HETATM   13  N3  UNL     1      -5.355   1.752  -1.886  1.00  0.00    -0.387 N 
HETATM   14  N4  UNL     1      -3.438   0.914  -0.773  1.00  0.00    -0.355 N 
ATOM     15  H32 UNL     1      -6.333   1.692  -2.170  1.00  0.00     0.157 HD
ATOM     16  H31 UNL     1      -4.845   2.575  -2.207  1.00  0.00     0.157 HD
ATOM     17  H4  UNL     1      -3.022   1.819  -0.552  1.00  0.00     0.162 HD
BRANCH   8  18
HETATM   18  C7  UNL     1      -2.220  -0.499  -2.164  1.00  0.00     0.279 C 
HETATM   19  F1  UNL     1      -1.693   0.600  -2.743  1.00  0.00    -0.175 F 
HETATM   20  F2  UNL     1      -1.691  -1.712  -2.447  1.00  0.00    -0.175 F 
ENDBRANCH   8  18
ENDBRANCH   3   8
BRANCH   4  21
HETATM   21  C12 UNL     1      -2.797   0.638   2.078  1.00  0.00     0.097 A 
HETATM   22  C13 UNL     1      -2.794   0.869   3.601  1.00  0.00     0.095 A 
HETATM   23  C14 UNL     1      -3.226  -0.444   3.091  1.00  0.00     0.252 A 
HETATM   24  F3  UNL     1      -4.555  -0.746   3.213  1.00  0.00    -0.206 F 
HETATM   25  F4  UNL     1      -2.376  -1.533   3.151  1.00  0.00    -0.206 F 
ENDBRANCH   4  21
BRANCH   1  26
HETATM   26  N2  UNL     1       2.230   0.190  -0.376  1.00  0.00    -0.350 N 
HETATM   27  C2  UNL     1       3.110   1.301  -0.595  1.00  0.00     0.398 C 
HETATM   28  N1  UNL     1       4.410   0.723  -0.444  1.00  0.00     0.112 N 
HETATM   29  C1  UNL     1       5.458   1.463  -1.064  1.00  0.00     0.313 C 
HETATM   30  C18 UNL     1       4.368  -0.669  -0.721  1.00  0.00     0.170 C 
HETATM   31  C17 UNL     1       2.886  -0.998  -0.844  1.00  0.00     0.166 C 
HETATM   32  C19 UNL     1       5.070  -1.099  -1.966  1.00  0.00     0.050 C 
HETATM   33  C20 UNL     1       4.988  -1.411   0.449  1.00  0.00     0.050 C 
ENDBRANCH   1  26
TORSDOF 4
