REMARK  4 active torsions:
REMARK  status: ('A' for Active; 'I' for Inactive)
REMARK    1  A    between atoms: O1_2  and  C2_3 
REMARK    2  A    between atoms: N1_6  and  C5_7 
REMARK    3  A    between atoms: C9_12  and  C10_13 
REMARK    4  A    between atoms: C10_13  and  C11_14 
ROOT
HETATM    1  C5  UNL     1       0.230   0.152   0.717  1.00  0.00     0.031 A 
HETATM    2  C6  UNL     1       0.203   0.038   2.074  1.00  0.00     0.032 A 
HETATM    3  C7  UNL     1      -1.020  -0.032   2.717  1.00  0.00     0.045 A 
HETATM    4  C8  UNL     1      -2.190   0.013   2.009  1.00  0.00     0.125 A 
HETATM    5  F1  UNL     1      -3.411  -0.054   2.630  1.00  0.00    -0.205 F 
HETATM    6  C9  UNL     1      -2.210   0.130   0.611  1.00  0.00     0.017 A 
HETATM    7  C16 UNL     1      -0.974   0.195   0.026  1.00  0.00     0.042 A 
ENDROOT
BRANCH   6   8
HETATM    8  C10 UNL     1      -3.525   0.163  -0.081  1.00  0.00     0.128 C 
HETATM    9  N2  UNL     1      -4.225   1.315   0.462  1.00  0.00    -0.337 N 
HETATM   10  C12 UNL     1      -5.591   1.313   0.774  1.00  0.00     0.214 C 
ATOM     11  H2  UNL     1      -3.694   2.170   0.625  1.00  0.00     0.164 HD
HETATM   12  N3  UNL     1      -6.254   2.364   1.067  1.00  0.00    -0.365 N 
HETATM   13  O2  UNL     1      -6.262   0.103   0.765  1.00  0.00    -0.317 OA
ATOM     14  H32 UNL     1      -5.759   3.256   1.074  1.00  0.00     0.159 HD
ATOM     15  H31 UNL     1      -7.248   2.363   1.294  1.00  0.00     0.159 HD
HETATM   16  C13 UNL     1      -5.633  -1.122   0.487  1.00  0.00     0.139 A 
HETATM   17  C14 UNL     1      -5.291  -1.475  -0.918  1.00  0.00     0.043 A 
HETATM   18  C15 UNL     1      -4.254  -1.119   0.075  1.00  0.00     0.056 A 
BRANCH   8  19
HETATM   19  C11 UNL     1      -3.361   0.446  -1.554  1.00  0.00     0.386 C 
HETATM   20  F2  UNL     1      -2.744   1.662  -1.814  1.00  0.00    -0.211 F 
HETATM   21  F3  UNL     1      -2.834  -0.607  -2.263  1.00  0.00    -0.211 F 
ENDBRANCH   8  19
ENDBRANCH   6   8
BRANCH   1  22
HETATM   22  N1  UNL     1       1.427   0.247   0.012  1.00  0.00    -0.373 N 
HETATM   23  C4  UNL     1       1.557  -0.385  -1.322  1.00  0.00     0.126 C 
HETATM   24  C3  UNL     1       2.597  -1.465  -1.156  1.00  0.00     0.055 C 
HETATM   25  C2  UNL     1       3.861  -1.078  -0.511  1.00  0.00     0.163 C 
HETATM   26  C19 UNL     1       3.823   0.007   0.493  1.00  0.00     0.145 C 
HETATM   27  C17 UNL     1       2.638   0.932   0.389  1.00  0.00     0.122 C 
HETATM   28  C20 UNL     1       5.101   0.854   0.461  1.00  0.00     0.057 C 
HETATM   29  F4  UNL     1       3.794  -0.556   1.755  1.00  0.00    -0.238 F 
HETATM   30  C18 UNL     1       2.531   1.861   1.545  1.00  0.00     0.036 C 
BRANCH  25  31
HETATM   31  O1  UNL     1       4.768  -0.702  -1.514  1.00  0.00    -0.387 OA
HETATM   32  C1  UNL     1       5.851  -1.550  -1.602  1.00  0.00     0.202 C 
ENDBRANCH  25  31
ENDBRANCH   1  22
TORSDOF 4
