REMARK  10 active torsions:
REMARK  status: ('A' for Active; 'I' for Inactive)
REMARK    1  A    between atoms: C2_2  and  C3_3 
REMARK    2  A    between atoms: C2_2  and  C14_16 
REMARK    3  A    between atoms: C3_3  and  C4_4 
REMARK    4  A    between atoms: C4_4  and  C5_5 
REMARK    5  A    between atoms: C5_5  and  C6_6 
REMARK    6  A    between atoms: C7_7  and  C8_8 
REMARK    7  A    between atoms: C7_7  and  C10_12 
REMARK    8  A    between atoms: C8_8  and  C9_9 
REMARK    9  A    between atoms: C9_9  and  O1_10 
REMARK   10  A    between atoms: C14_16  and  C15_17 
ROOT
HETATM    1  C5  UNL     1      -0.818  -0.285   0.625  1.00  0.00    -0.026 C 
ENDROOT
BRANCH   1   2
HETATM    2  C4  UNL     1       0.002   0.737  -0.009  1.00  0.00     0.027 C 
BRANCH   2   3
HETATM    3  C3  UNL     1       1.357   1.027   0.519  1.00  0.00     0.008 C 
BRANCH   3   4
HETATM    4  C2  UNL     1       2.420  -0.010   0.549  1.00  0.00    -0.018 C 
HETATM    5  C1  UNL     1       2.139  -1.154   1.408  1.00  0.00     0.010 C 
BRANCH   4   6
HETATM    6  C14 UNL     1       3.730   0.690   0.650  1.00  0.00     0.012 C 
BRANCH   6   7
HETATM    7  C15 UNL     1       4.984   0.018   0.383  1.00  0.00    -0.051 C 
HETATM    8  C16 UNL     1       5.144  -0.580  -0.990  1.00  0.00     0.014 C 
HETATM    9  C17 UNL     1       6.073   1.142   0.414  1.00  0.00     0.014 C 
HETATM   10  C18 UNL     1       5.434  -0.936   1.451  1.00  0.00     0.014 C 
ENDBRANCH   6   7
ENDBRANCH   4   6
ENDBRANCH   3   4
ENDBRANCH   2   3
ENDBRANCH   1   2
BRANCH   1  11
HETATM   11  C6  UNL     1      -2.203  -0.553   0.227  1.00  0.00    -0.001 C 
HETATM   12  C7  UNL     1      -3.070  -0.085  -0.612  1.00  0.00    -0.071 C 
BRANCH  12  13
HETATM   13  C8  UNL     1      -2.826   1.029  -1.529  1.00  0.00     0.061 C 
BRANCH  13  14
HETATM   14  C9  UNL     1      -3.557   2.308  -1.337  1.00  0.00     0.168 C 
BRANCH  14  15
HETATM   15  O1  UNL     1      -4.895   2.365  -1.442  1.00  0.00    -0.401 OA
ATOM     16  H1  UNL     1      -5.362   3.183  -1.319  1.00  0.00     0.209 HD
ENDBRANCH  14  15
ENDBRANCH  13  14
ENDBRANCH  12  13
BRANCH  12  17
HETATM   17  C10 UNL     1      -4.418  -0.775  -0.711  1.00  0.00    -0.028 C 
HETATM   18  C11 UNL     1      -4.807  -0.935  -2.150  1.00  0.00     0.019 C 
HETATM   19  C12 UNL     1      -4.184  -2.240  -0.252  1.00  0.00     0.019 C 
HETATM   20  C13 UNL     1      -5.442  -0.153   0.122  1.00  0.00     0.019 C 
ENDBRANCH  12  17
ENDBRANCH   1  11
TORSDOF 10
