REMARK  9 active torsions:
REMARK  status: ('A' for Active; 'I' for Inactive)
REMARK    1  A    between atoms: C2_2  and  C3_3 
REMARK    2  A    between atoms: C3_3  and  C5_5 
REMARK    3  A    between atoms: C3_3  and  C13_14 
REMARK    4  A    between atoms: C5_5  and  C6_6 
REMARK    5  A    between atoms: C6_6  and  O1_7 
REMARK    6  A    between atoms: O1_7  and  C7_8 
REMARK    7  A    between atoms: C13_14  and  C14_15 
REMARK    8  A    between atoms: C14_15  and  O2_16 
REMARK    9  A    between atoms: C14_15  and  C15_18 
ROOT
HETATM    1  C3  UNL     1      -0.962  -0.095  -0.936  1.00  0.00    -0.040 C 
HETATM    2  C4  UNL     1      -0.728   1.166  -1.741  1.00  0.00     0.015 C 
ENDROOT
BRANCH   1   3
HETATM    3  C2  UNL     1      -0.601  -1.242  -1.858  1.00  0.00     0.005 C 
HETATM    4  C1  UNL     1      -0.755  -2.594  -1.263  1.00  0.00     0.006 C 
ENDBRANCH   1   3
BRANCH   1   5
HETATM    5  C5  UNL     1      -0.091  -0.158   0.270  1.00  0.00     0.035 C 
BRANCH   5   6
HETATM    6  C6  UNL     1       1.359  -0.047  -0.102  1.00  0.00     0.169 C 
BRANCH   6   7
HETATM    7  O1  UNL     1       2.185  -0.099   1.042  1.00  0.00    -0.386 OA
BRANCH   7   8
HETATM    8  C7  UNL     1       3.479   0.009   0.603  1.00  0.00     0.121 C 
HETATM    9  C8  UNL     1       4.183   1.239   1.160  1.00  0.00     0.032 C 
HETATM   10  C9  UNL     1       5.428   1.433   0.286  1.00  0.00     0.002 C 
HETATM   11  C10 UNL     1       6.336   0.249   0.537  1.00  0.00     0.000 C 
HETATM   12  C11 UNL     1       5.635  -1.040   0.192  1.00  0.00     0.002 C 
HETATM   13  C12 UNL     1       4.338  -1.178   0.972  1.00  0.00     0.032 C 
ENDBRANCH   7   8
ENDBRANCH   6   7
ENDBRANCH   5   6
ENDBRANCH   1   5
BRANCH   1  14
HETATM   14  C13 UNL     1      -2.409  -0.292  -0.581  1.00  0.00     0.041 C 
BRANCH  14  15
HETATM   15  C14 UNL     1      -2.984   0.735   0.329  1.00  0.00     0.126 C 
BRANCH  15  16
HETATM   16  O2  UNL     1      -2.950   2.023  -0.148  1.00  0.00    -0.395 OA
ATOM     17  H2  UNL     1      -3.317   2.679   0.433  1.00  0.00     0.210 HD
ENDBRANCH  15  16
BRANCH  15  18
HETATM   18  C15 UNL     1      -4.440   0.384   0.564  1.00  0.00    -0.025 C 
HETATM   19  C16 UNL     1      -5.022   1.417   1.481  1.00  0.00     0.017 C 
HETATM   20  C17 UNL     1      -5.221   0.439  -0.751  1.00  0.00     0.017 C 
HETATM   21  C18 UNL     1      -4.587  -0.993   1.189  1.00  0.00     0.017 C 
ENDBRANCH  15  18
ENDBRANCH  14  15
ENDBRANCH   1  14
TORSDOF 9
