REMARK  10 active torsions:
REMARK  status: ('A' for Active; 'I' for Inactive)
REMARK    1  A    between atoms: C2_2  and  C3_3 
REMARK    2  A    between atoms: C3_3  and  C4_4 
REMARK    3  A    between atoms: C4_4  and  C5_5 
REMARK    4  A    between atoms: C5_5  and  C6_6 
REMARK    5  A    between atoms: C8_8  and  C9_9 
REMARK    6  A    between atoms: C13_13  and  O1_14 
REMARK    7  A    between atoms: O1_14  and  C14_15 
REMARK    8  A    between atoms: C14_15  and  C15_16 
REMARK    9  A    between atoms: C15_16  and  C16_17 
REMARK   10  A    between atoms: C16_17  and  O2_19 
ROOT
HETATM    1  C6  UNL     1       1.203  -1.497  -0.349  1.00  0.00    -0.055 A 
HETATM    2  C7  UNL     1       1.119  -2.081   0.895  1.00  0.00     0.015 A 
HETATM    3  C8  UNL     1      -0.036  -2.011   1.646  1.00  0.00    -0.049 A 
HETATM    4  C11 UNL     1      -1.148  -1.359   1.186  1.00  0.00    -0.022 A 
HETATM    5  C12 UNL     1      -2.412  -1.280   2.004  1.00  0.00     0.052 C 
HETATM    6  C13 UNL     1      -1.084  -0.768  -0.059  1.00  0.00     0.075 A 
HETATM    7  C18 UNL     1       0.084  -0.842  -0.812  1.00  0.00     0.044 A 
ENDROOT
BRANCH   6   8
HETATM    8  O1  UNL     1      -2.222  -0.106  -0.521  1.00  0.00    -0.350 OA
BRANCH   8   9
HETATM    9  C14 UNL     1      -2.155   0.490  -1.780  1.00  0.00     0.178 C 
BRANCH   9  10
HETATM   10  C15 UNL     1      -3.416   1.174  -2.197  1.00  0.00     0.058 C 
BRANCH  10  11
HETATM   11  C16 UNL     1      -3.829   2.281  -1.270  1.00  0.00     0.116 C 
HETATM   12  C17 UNL     1      -4.058   1.729   0.128  1.00  0.00     0.039 C 
BRANCH  11  13
HETATM   13  O2  UNL     1      -5.013   2.887  -1.657  1.00  0.00    -0.396 OA
ATOM     14  H2  UNL     1      -5.274   3.587  -1.071  1.00  0.00     0.210 HD
ENDBRANCH  11  13
ENDBRANCH  10  11
ENDBRANCH   9  10
ENDBRANCH   8   9
ENDBRANCH   6   8
BRANCH   3  15
HETATM   15  C9  UNL     1      -0.089  -2.650   2.977  1.00  0.00     0.035 C 
HETATM   16  C10 UNL     1       0.011  -1.617   4.066  1.00  0.00     0.010 C 
ENDBRANCH   3  15
BRANCH   1  17
HETATM   17  C5  UNL     1       2.447  -1.598  -1.108  1.00  0.00     0.038 C 
BRANCH  17  18
HETATM   18  C4  UNL     1       3.429  -0.488  -0.863  1.00  0.00     0.005 C 
BRANCH  18  19
HETATM   19  C3  UNL     1       2.912   0.870  -1.201  1.00  0.00    -0.000 C 
BRANCH  19  20
HETATM   20  C2  UNL     1       3.986   1.893  -0.906  1.00  0.00    -0.005 C 
HETATM   21  C1  UNL     1       5.244   1.666  -1.694  1.00  0.00     0.005 C 
ENDBRANCH  19  20
ENDBRANCH  18  19
ENDBRANCH  17  18
ENDBRANCH   1  17
TORSDOF 10
