REMARK  9 active torsions:
REMARK  status: ('A' for Active; 'I' for Inactive)
REMARK    1  A    between atoms: C2_2  and  C4_4 
REMARK    2  A    between atoms: C4_4  and  O1_5 
REMARK    3  A    between atoms: O1_5  and  C5_6 
REMARK    4  A    between atoms: C6_7  and  C7_8 
REMARK    5  A    between atoms: C7_8  and  O2_9 
REMARK    6  A    between atoms: C9_12  and  C10_13 
REMARK    7  A    between atoms: C14_17  and  C15_18 
REMARK    8  A    between atoms: C15_18  and  C16_19 
REMARK    9  A    between atoms: C16_19  and  C17_20 
ROOT
HETATM    1  C5  UNL     1       0.504  -0.516  -0.021  1.00  0.00     0.084 A 
HETATM    2  C6  UNL     1      -0.010  -1.782  -0.416  1.00  0.00    -0.000 A 
HETATM    3  C8  UNL     1      -1.348  -2.023  -0.212  1.00  0.00     0.019 A 
HETATM    4  C9  UNL     1      -2.168  -1.084   0.344  1.00  0.00    -0.053 A 
HETATM    5  C13 UNL     1      -1.659   0.117   0.712  1.00  0.00     0.017 A 
HETATM    6  C14 UNL     1      -0.248   0.409   0.511  1.00  0.00    -0.024 A 
ENDROOT
BRANCH   1   7
HETATM    7  O1  UNL     1       1.868  -0.455  -0.315  1.00  0.00    -0.346 OA
BRANCH   7   8
HETATM    8  C4  UNL     1       2.737  -1.013   0.695  1.00  0.00     0.209 C 
BRANCH   8   9
HETATM    9  C2  UNL     1       4.131  -1.165   0.209  1.00  0.00    -0.069 C 
HETATM   10  C1  UNL     1       4.709  -2.353   0.153  1.00  0.00     0.016 C 
HETATM   11  C3  UNL     1       4.898   0.014  -0.248  1.00  0.00     0.044 C 
ENDBRANCH   8   9
ENDBRANCH   7   8
ENDBRANCH   1   7
BRANCH   2  12
HETATM   12  C7  UNL     1       0.856  -2.874  -0.907  1.00  0.00     0.205 C 
BRANCH  12  13
HETATM   13  O2  UNL     1       0.609  -3.054  -2.309  1.00  0.00    -0.396 OA
ATOM     14  H2  UNL     1       1.166  -3.756  -2.625  1.00  0.00     0.209 HD
ENDBRANCH  12  13
ENDBRANCH   2  12
BRANCH   6  15
HETATM   15  C15 UNL     1      -0.006   1.894   0.734  1.00  0.00     0.041 C 
BRANCH  15  16
HETATM   16  C16 UNL     1      -0.323   2.616  -0.568  1.00  0.00     0.004 C 
BRANCH  16  17
HETATM   17  C17 UNL     1      -0.630   4.048  -0.459  1.00  0.00    -0.004 C 
HETATM   18  C18 UNL     1       0.349   5.002   0.116  1.00  0.00     0.005 C 
ENDBRANCH  16  17
ENDBRANCH  15  16
ENDBRANCH   6  15
BRANCH   4  19
HETATM   19  C10 UNL     1      -3.637  -1.402   0.556  1.00  0.00     0.010 C 
HETATM   20  C11 UNL     1      -4.087  -2.346  -0.531  1.00  0.00     0.015 C 
HETATM   21  C12 UNL     1      -4.437  -0.134   0.353  1.00  0.00     0.015 C 
ENDBRANCH   4  19
TORSDOF 9
