REMARK  9 active torsions:
REMARK  status: ('A' for Active; 'I' for Inactive)
REMARK    1  A    between atoms: C2_2  and  C3_3 
REMARK    2  A    between atoms: C3_3  and  C4_4 
REMARK    3  A    between atoms: C4_4  and  O1_5 
REMARK    4  A    between atoms: O1_5  and  C5_6 
REMARK    5  A    between atoms: C5_6  and  C6_7 
REMARK    6  A    between atoms: C6_7  and  C7_8 
REMARK    7  A    between atoms: C7_8  and  C8_9 
REMARK    8  A    between atoms: C8_9  and  C10_11 
REMARK    9  A    between atoms: C10_11  and  C11_12 
ROOT
HETATM    1  C5  UNL     1      -1.258  -0.847  -1.190  1.00  0.00     0.168 C 
ENDROOT
BRANCH   1   2
HETATM    2  O1  UNL     1      -1.806   0.237  -0.606  1.00  0.00    -0.380 OA
BRANCH   2   3
HETATM    3  C4  UNL     1      -3.148   0.173  -0.238  1.00  0.00     0.061 C 
HETATM    4  C15 UNL     1      -3.331  -0.719   0.942  1.00  0.00     0.038 C 
HETATM    5  C16 UNL     1      -2.351  -0.072   1.934  1.00  0.00     0.003 C 
HETATM    6  C17 UNL     1      -2.408   1.387   1.601  1.00  0.00     0.003 C 
HETATM    7  C18 UNL     1      -3.399   1.519   0.437  1.00  0.00     0.038 C 
BRANCH   3   8
HETATM    8  C3  UNL     1      -3.965  -0.060  -1.424  1.00  0.00     0.038 C 
BRANCH   8   9
HETATM    9  C2  UNL     1      -5.427  -0.156  -1.348  1.00  0.00    -0.002 C 
HETATM   10  C1  UNL     1      -5.973  -1.278  -0.522  1.00  0.00     0.005 C 
ENDBRANCH   8   9
ENDBRANCH   3   8
ENDBRANCH   2   3
ENDBRANCH   1   2
BRANCH   1  11
HETATM   11  C6  UNL     1       0.226  -0.616  -1.543  1.00  0.00     0.027 C 
BRANCH  11  12
HETATM   12  C7  UNL     1       1.011  -0.315  -0.320  1.00  0.00     0.006 C 
BRANCH  12  13
HETATM   13  C8  UNL     1       2.499  -0.132  -0.642  1.00  0.00    -0.018 C 
HETATM   14  C9  UNL     1       2.669   0.997  -1.584  1.00  0.00     0.010 C 
BRANCH  13  15
HETATM   15  C10 UNL     1       3.177  -0.058   0.675  1.00  0.00     0.012 C 
BRANCH  15  16
HETATM   16  C11 UNL     1       4.634   0.110   0.762  1.00  0.00    -0.051 C 
HETATM   17  C12 UNL     1       5.132   1.371   0.163  1.00  0.00     0.014 C 
HETATM   18  C13 UNL     1       5.392  -1.100   0.218  1.00  0.00     0.014 C 
HETATM   19  C14 UNL     1       5.004   0.139   2.262  1.00  0.00     0.014 C 
ENDBRANCH  15  16
ENDBRANCH  13  15
ENDBRANCH  12  13
ENDBRANCH  11  12
ENDBRANCH   1  11
TORSDOF 9
