REMARK  4 active torsions:
REMARK  status: ('A' for Active; 'I' for Inactive)
REMARK    1  A    between atoms: C2_2  and  C3_8 
REMARK    2  A    between atoms: N1_3  and  N2_5 
REMARK    3  A    between atoms: N5_13  and  C4_14 
REMARK    4  A    between atoms: C8_22  and  N9_23 
ROOT
HETATM    1  C4  UNL     1       1.231   0.465  -0.256  1.00  0.00     0.708 A 
HETATM    2  N6  UNL     1       1.925  -0.667  -0.411  1.00  0.00    -0.175 N 
ATOM      3  H6  UNL     1       1.418  -1.489  -0.739  1.00  0.00     0.185 HD
HETATM    4  C5  UNL     1       3.242  -0.805  -0.167  1.00  0.00     0.156 A 
HETATM    5  N7  UNL     1       3.942  -2.015  -0.341  1.00  0.00    -0.080 NA
HETATM    6  C6  UNL     1       3.923   0.330   0.282  1.00  0.00     0.130 A 
HETATM    7  C7  UNL     1       5.329   0.198   0.546  1.00  0.00     0.106 C 
HETATM    8  N8  UNL     1       6.457   0.111   0.759  1.00  0.00    -0.191 NA
HETATM    9  C8  UNL     1       3.237   1.513   0.452  1.00  0.00     0.139 A 
HETATM   10  N10 UNL     1       1.931   1.552   0.184  1.00  0.00    -0.173 N 
ATOM     11  H10 UNL     1       1.433   2.433   0.313  1.00  0.00     0.186 HD
ENDROOT
BRANCH   9  12
HETATM   12  N9  UNL     1       3.899   2.541   0.867  1.00  0.00    -0.384 N 
ATOM     13  H92 UNL     1       4.898   2.511   1.072  1.00  0.00     0.157 HD
ATOM     14  H91 UNL     1       3.391   3.417   0.993  1.00  0.00     0.157 HD
ENDBRANCH   9  12
BRANCH   1  15
HETATM   15  N5  UNL     1      -0.145   0.590  -0.515  1.00  0.00    -0.074 N 
HETATM   16  N4  UNL     1      -0.711   1.503  -1.264  1.00  0.00    -0.221 N 
HETATM   17  N3  UNL     1      -2.023   1.334  -1.297  1.00  0.00    -0.282 N 
ATOM     18  H4  UNL     1      -0.209   2.243  -1.755  1.00  0.00     0.209 HD
HETATM   19  C3  UNL     1      -2.331   0.251  -0.527  1.00  0.00     0.098 A 
ATOM     20  H3  UNL     1      -2.688   1.913  -1.809  1.00  0.00     0.188 HD
HETATM   21  C9  UNL     1      -1.129  -0.196  -0.048  1.00  0.00     0.080 A 
HETATM   22  C10 UNL     1      -0.929  -1.364   0.847  1.00  0.00     0.074 C 
BRANCH  19  23
HETATM   23  C2  UNL     1      -3.678  -0.257  -0.313  1.00  0.00     0.051 C 
HETATM   24  C1  UNL     1      -4.015  -1.425   0.513  1.00  0.00     0.072 C 
HETATM   25  N1  UNL     1      -4.701   0.344  -0.882  1.00  0.00    -0.309 N 
ATOM     26  H1  UNL     1      -5.637  -0.027  -0.720  1.00  0.00     0.186 HD
BRANCH  25  27
HETATM   27  N2  UNL     1      -4.560   1.458  -1.691  1.00  0.00    -0.345 N 
ATOM     28  H22 UNL     1      -3.617   1.815  -1.842  1.00  0.00     0.176 HD
ATOM     29  H21 UNL     1      -5.353   1.924  -2.132  1.00  0.00     0.176 HD
ENDBRANCH  25  27
ENDBRANCH  19  23
ENDBRANCH   1  15
TORSDOF 4
