REMARK  5 active torsions:
REMARK  status: ('A' for Active; 'I' for Inactive)
REMARK    1  A    between atoms: N1_4  and  C4_5 
REMARK    2  A    between atoms: C4_5  and  C5_6 
REMARK    3  A    between atoms: C5_6  and  C6_7 
REMARK    4  A    between atoms: C6_7  and  C7_8 
REMARK    5  A    between atoms: C7_8  and  N2_9 
ROOT
HETATM    1  C5  UNL     1       0.381  -0.135   0.220  1.00  0.00     0.022 C 
ENDROOT
BRANCH   1   2
HETATM    2  C4  UNL     1       1.320   0.465  -0.778  1.00  0.00     0.128 C 
BRANCH   2   3
HETATM    3  N1  UNL     1       2.691   0.242  -0.368  1.00  0.00    -0.366 N 
HETATM    4  C3  UNL     1       3.359   1.108   0.410  1.00  0.00     0.090 A 
HETATM    5  C2  UNL     1       4.658   0.909   0.805  1.00  0.00     0.017 A 
HETATM    6  C1  UNL     1       5.302  -0.231   0.384  1.00  0.00     0.003 A 
HETATM    7  C12 UNL     1       4.613  -1.124  -0.417  1.00  0.00     0.017 A 
HETATM    8  C11 UNL     1       3.313  -0.867  -0.779  1.00  0.00     0.090 A 
ENDBRANCH   2   3
ENDBRANCH   1   2
BRANCH   1   9
HETATM    9  C6  UNL     1      -1.056   0.090  -0.195  1.00  0.00     0.023 C 
BRANCH   9  10
HETATM   10  C7  UNL     1      -2.028  -0.496   0.780  1.00  0.00     0.148 C 
BRANCH  10  11
HETATM   11  N2  UNL     1      -3.371  -0.212   0.266  1.00  0.00    -0.304 N 
HETATM   12  C8  UNL     1      -4.118   0.884   0.538  1.00  0.00     0.111 A 
HETATM   13  C9  UNL     1      -5.323   0.801  -0.123  1.00  0.00     0.037 A 
HETATM   14  C10 UNL     1      -5.284  -0.392  -0.812  1.00  0.00     0.108 A 
HETATM   15  N3  UNL     1      -4.094  -0.963  -0.547  1.00  0.00    -0.310 N 
ATOM     16  H3  UNL     1      -3.789  -1.860  -0.925  1.00  0.00     0.186 HD
ENDBRANCH  10  11
ENDBRANCH   9  10
ENDBRANCH   1   9
TORSDOF 5
