REMARK  5 active torsions:
REMARK  status: ('A' for Active; 'I' for Inactive)
REMARK    1  A    between atoms: N1_4  and  C4_5 
REMARK    2  A    between atoms: C4_5  and  C5_6 
REMARK    3  A    between atoms: C5_6  and  C6_7 
REMARK    4  A    between atoms: C6_7  and  C7_8 
REMARK    5  A    between atoms: C7_8  and  N2_9 
ROOT
HETATM    1  C5  UNL     1      -0.381  -0.038   0.148  1.00  0.00     0.022 C 
ENDROOT
BRANCH   1   2
HETATM    2  C4  UNL     1      -1.375   0.028  -0.992  1.00  0.00     0.128 C 
BRANCH   2   3
HETATM    3  N1  UNL     1      -2.713  -0.175  -0.507  1.00  0.00    -0.366 N 
HETATM    4  C3  UNL     1      -3.436   0.890  -0.120  1.00  0.00     0.090 A 
HETATM    5  C2  UNL     1      -4.721   0.763   0.353  1.00  0.00     0.017 A 
HETATM    6  C1  UNL     1      -5.325  -0.470   0.451  1.00  0.00     0.003 A 
HETATM    7  C14 UNL     1      -4.577  -1.563   0.052  1.00  0.00     0.017 A 
HETATM    8  C13 UNL     1      -3.293  -1.400  -0.417  1.00  0.00     0.090 A 
ENDBRANCH   2   3
ENDBRANCH   1   2
BRANCH   1   9
HETATM    9  C6  UNL     1       1.021   0.183  -0.422  1.00  0.00     0.021 C 
BRANCH   9  10
HETATM   10  C7  UNL     1       1.970   0.107   0.761  1.00  0.00     0.122 C 
BRANCH  10  11
HETATM   11  N2  UNL     1       3.341   0.296   0.389  1.00  0.00    -0.385 N 
HETATM   12  C8  UNL     1       3.980   1.494   0.344  1.00  0.00     0.082 A 
HETATM   13  C9  UNL     1       5.274   1.300  -0.049  1.00  0.00    -0.003 A 
HETATM   14  C10 UNL     1       5.493  -0.057  -0.268  1.00  0.00     0.034 A 
HETATM   15  C11 UNL     1       5.326  -1.428  -0.378  1.00  0.00     0.036 A 
HETATM   16  C12 UNL     1       4.193  -0.690   0.032  1.00  0.00     0.092 A 
ENDBRANCH  10  11
ENDBRANCH   9  10
ENDBRANCH   1   9
TORSDOF 5
