REMARK  4 active torsions:
REMARK  status: ('A' for Active; 'I' for Inactive)
REMARK    1  A    between atoms: C2_2  and  C3_3 
REMARK    2  A    between atoms: C3_3  and  C4_4 
REMARK    3  A    between atoms: C4_4  and  C5_5 
REMARK    4  A    between atoms: C4_4  and  N1_11 
ROOT
HETATM    1  C4  UNL     1      -0.512   0.078  -0.479  1.00  0.00     0.126 C 
ENDROOT
BRANCH   1   2
HETATM    2  C3  UNL     1      -1.294   1.199   0.147  1.00  0.00     0.056 C 
BRANCH   2   3
HETATM    3  C2  UNL     1      -0.892   2.532  -0.294  1.00  0.00    -0.035 C 
HETATM    4  C1  UNL     1      -1.757   3.332  -0.896  1.00  0.00     0.007 C 
ENDBRANCH   2   3
ENDBRANCH   1   2
BRANCH   1   5
HETATM    5  C5  UNL     1       0.924   0.138  -0.206  1.00  0.00    -0.035 A 
HETATM    6  C6  UNL     1       1.464   0.661   0.959  1.00  0.00     0.009 A 
HETATM    7  C7  UNL     1       2.834   0.684   1.148  1.00  0.00     0.001 A 
HETATM    8  C8  UNL     1       3.695   0.193   0.191  1.00  0.00     0.000 A 
HETATM    9  C9  UNL     1       3.175  -0.325  -0.963  1.00  0.00     0.001 A 
HETATM   10  C10 UNL     1       1.806  -0.349  -1.152  1.00  0.00     0.009 A 
ENDBRANCH   1   5
BRANCH   1  11
HETATM   11  N1  UNL     1      -1.106  -1.179   0.001  1.00  0.00    -0.342 N 
HETATM   12  C11 UNL     1      -1.062  -1.668   1.254  1.00  0.00     0.109 A 
HETATM   13  C12 UNL     1      -1.735  -2.874   1.314  1.00  0.00     0.106 A 
HETATM   14  N2  UNL     1      -2.178  -3.084   0.061  1.00  0.00    -0.361 N 
HETATM   15  C13 UNL     1      -1.803  -2.071  -0.726  1.00  0.00     0.183 A 
ATOM     16  H2  UNL     1      -2.718  -3.894  -0.242  1.00  0.00     0.166 HD
ENDBRANCH   1  11
TORSDOF 4
