REMARK  5 active torsions:
REMARK  status: ('A' for Active; 'I' for Inactive)
REMARK    1  A    between atoms: N1_1  and  C1_5 
REMARK    2  A    between atoms: C1_5  and  C2_6 
REMARK    3  A    between atoms: C2_6  and  C3_7 
REMARK    4  A    between atoms: N2_12  and  C8_13 
REMARK    5  A    between atoms: C8_13  and  C9_14 
ROOT
HETATM    1  C3  UNL     1      -1.309   0.694   0.139  1.00  0.00     0.013 A 
HETATM    2  C4  UNL     1      -2.005   1.907   0.325  1.00  0.00     0.025 A 
HETATM    3  C5  UNL     1      -1.785   2.979  -0.500  1.00  0.00     0.003 A 
HETATM    4  C6  UNL     1      -0.857   2.796  -1.502  1.00  0.00     0.017 A 
HETATM    5  C7  UNL     1      -0.198   1.596  -1.651  1.00  0.00     0.091 A 
HETATM    6  N2  UNL     1      -0.422   0.537  -0.827  1.00  0.00    -0.356 N 
ENDROOT
BRANCH   6   7
HETATM    7  C8  UNL     1       0.337  -0.674  -1.014  1.00  0.00     0.166 C 
BRANCH   7   8
HETATM    8  C9  UNL     1       1.683  -0.673  -0.416  1.00  0.00    -0.040 A 
HETATM    9  C10 UNL     1       2.746  -0.033  -1.073  1.00  0.00     0.009 A 
HETATM   10  C11 UNL     1       4.014  -0.045  -0.532  1.00  0.00     0.001 A 
HETATM   11  C12 UNL     1       4.292  -0.680   0.667  1.00  0.00     0.000 A 
HETATM   12  C13 UNL     1       3.274  -1.303   1.311  1.00  0.00     0.001 A 
HETATM   13  C14 UNL     1       1.994  -1.288   0.759  1.00  0.00     0.009 A 
ENDBRANCH   7   8
ENDBRANCH   6   7
BRANCH   1  14
HETATM   14  C2  UNL     1      -1.695  -0.379   1.055  1.00  0.00     0.084 C 
BRANCH  14  15
HETATM   15  C1  UNL     1      -2.839  -1.144   0.403  1.00  0.00     0.235 C 
BRANCH  15  16
HETATM   16  N1  UNL     1      -3.258  -2.216   1.267  1.00  0.00    -0.079 N 
ATOM     17  H13 UNL     1      -2.483  -2.828   1.524  1.00  0.00     0.274 HD
ATOM     18  H12 UNL     1      -3.500  -1.885   2.201  1.00  0.00     0.274 HD
ATOM     19  H11 UNL     1      -4.024  -2.728   0.830  1.00  0.00     0.274 HD
ENDBRANCH  15  16
ENDBRANCH  14  15
ENDBRANCH   1  14
TORSDOF 5
