REMARK  5 active torsions:
REMARK  status: ('A' for Active; 'I' for Inactive)
REMARK    1  A    between atoms: O1_1  and  C1_3 
REMARK    2  A    between atoms: C1_3  and  C2_4 
REMARK    3  A    between atoms: C2_4  and  C3_5 
REMARK    4  A    between atoms: C6_8  and  C7_9 
REMARK    5  A    between atoms: C7_9  and  N1_10 
ROOT
HETATM    1  C3  UNL     1       2.355  -0.706  -0.017  1.00  0.00    -0.056 A 
HETATM    2  C4  UNL     1       1.824  -0.190  -1.179  1.00  0.00     0.008 A 
HETATM    3  C5  UNL     1       0.503  -0.396  -1.446  1.00  0.00     0.009 A 
HETATM    4  C6  UNL     1      -0.336  -1.098  -0.606  1.00  0.00    -0.040 A 
HETATM    5  C13 UNL     1       0.187  -1.616   0.556  1.00  0.00     0.009 A 
HETATM    6  C14 UNL     1       1.517  -1.415   0.835  1.00  0.00     0.008 A 
ENDROOT
BRANCH   4   7
HETATM    7  C7  UNL     1      -1.745  -1.252  -1.005  1.00  0.00     0.166 C 
BRANCH   7   8
HETATM    8  N1  UNL     1      -2.602  -0.204  -0.535  1.00  0.00    -0.362 N 
HETATM    9  C8  UNL     1      -3.236  -0.269   0.647  1.00  0.00     0.090 A 
HETATM   10  C9  UNL     1      -4.068   0.765   1.088  1.00  0.00     0.017 A 
HETATM   11  C10 UNL     1      -4.246   1.870   0.303  1.00  0.00     0.003 A 
HETATM   12  C11 UNL     1      -3.589   1.927  -0.911  1.00  0.00     0.017 A 
HETATM   13  C12 UNL     1      -2.787   0.887  -1.294  1.00  0.00     0.090 A 
ENDBRANCH   7   8
ENDBRANCH   4   7
BRANCH   1  14
HETATM   14  C2  UNL     1       3.793  -0.512   0.326  1.00  0.00     0.064 C 
BRANCH  14  15
HETATM   15  C1  UNL     1       3.981   0.769   1.136  1.00  0.00     0.168 C 
BRANCH  15  16
HETATM   16  O1  UNL     1       5.360   0.849   1.401  1.00  0.00    -0.401 OA
ATOM     17  H1  UNL     1       5.477   1.646   1.905  1.00  0.00     0.209 HD
ENDBRANCH  15  16
ENDBRANCH  14  15
ENDBRANCH   1  14
TORSDOF 5
