REMARK  5 active torsions:
REMARK  status: ('A' for Active; 'I' for Inactive)
REMARK    1  A    between atoms: N1_2  and  C2_3 
REMARK    2  A    between atoms: N1_2  and  C7_8 
REMARK    3  A    between atoms: C7_8  and  N2_9 
REMARK    4  A    between atoms: C7_8  and  C8_13 
REMARK    5  A    between atoms: C8_13  and  O1_17 
ROOT
HETATM    1  C7  UNL     1       1.351   0.129   0.653  1.00  0.00     0.354 C 
ENDROOT
BRANCH   1   2
HETATM    2  N1  UNL     1       0.534  -0.467  -0.308  1.00  0.00    -0.380 N 
HETATM    3  C1  UNL     1       1.046  -1.404  -1.211  1.00  0.00     0.146 C 
BRANCH   2   4
HETATM    4  C2  UNL     1      -0.824  -0.195  -0.418  1.00  0.00     0.081 C 
HETATM    5  C3  UNL     1      -1.287   1.204  -0.137  1.00  0.00     0.025 C 
HETATM    6  C4  UNL     1      -2.797   1.047  -0.117  1.00  0.00     0.002 C 
HETATM    7  C5  UNL     1      -3.073  -0.412   0.149  1.00  0.00     0.002 C 
HETATM    8  C6  UNL     1      -1.724  -1.015   0.482  1.00  0.00     0.025 C 
ENDBRANCH   2   4
ENDBRANCH   1   2
BRANCH   1   9
HETATM    9  N2  UNL     1       2.066  -0.851   1.485  1.00  0.00    -0.051 N 
ATOM     10  H23 UNL     1       1.415  -1.507   1.916  1.00  0.00     0.277 HD
ATOM     11  H22 UNL     1       2.598  -1.501   0.906  1.00  0.00     0.277 HD
ATOM     12  H21 UNL     1       2.663  -0.415   2.188  1.00  0.00     0.277 HD
ENDBRANCH   1   9
BRANCH   1  13
HETATM   13  C8  UNL     1       2.410   0.927  -0.032  1.00  0.00     0.160 C 
HETATM   14  N3  UNL     1       2.071   2.091  -0.460  1.00  0.00    -0.380 N 
ATOM     15  H32 UNL     1       1.113   2.411  -0.314  1.00  0.00     0.158 HD
ATOM     16  H31 UNL     1       2.795   2.636  -0.928  1.00  0.00     0.158 HD
BRANCH  13  17
HETATM   17  O1  UNL     1       3.706   0.494  -0.229  1.00  0.00    -0.347 OA
ATOM     18  H1  UNL     1       4.380   1.002  -0.665  1.00  0.00     0.219 HD
ENDBRANCH  13  17
ENDBRANCH   1  13
TORSDOF 5
