REMARK  3 active torsions:
REMARK  status: ('A' for Active; 'I' for Inactive)
REMARK    1  A    between atoms: C2_2  and  C3_3 
REMARK    2  A    between atoms: C3_3  and  C4_4 
REMARK    3  A    between atoms: C9_12  and  O1_13 
ROOT
HETATM    1  C4  UNL     1       0.403  -0.473  -0.422  1.00  0.00     0.226 C 
HETATM    2  N1  UNL     1       0.539   0.755  -1.229  1.00  0.00    -0.060 N 
ATOM      3  H11 UNL     1       0.736   0.724  -2.229  1.00  0.00     0.278 HD
ATOM      4  H12 UNL     1       1.340   1.378  -1.132  1.00  0.00     0.278 HD
HETATM    5  C5  UNL     1      -0.784   1.108  -0.711  1.00  0.00     0.222 C 
HETATM    6  C6  UNL     1      -1.839   0.469  -1.555  1.00  0.00     0.036 C 
HETATM    7  C7  UNL     1      -2.697  -0.298  -0.592  1.00  0.00     0.005 C 
HETATM    8  C8  UNL     1      -1.889  -0.553   0.647  1.00  0.00     0.042 C 
HETATM    9  C9  UNL     1      -0.560   0.159   0.481  1.00  0.00     0.114 C 
ENDROOT
BRANCH   1  10
HETATM   10  C3  UNL     1       1.734  -0.940   0.014  1.00  0.00     0.062 C 
BRANCH  10  11
HETATM   11  C2  UNL     1       2.529  -0.007   0.838  1.00  0.00    -0.035 C 
HETATM   12  C1  UNL     1       3.698   0.487   0.473  1.00  0.00     0.007 C 
ENDBRANCH  10  11
ENDBRANCH   1  10
BRANCH   9  13
HETATM   13  O1  UNL     1      -0.182   0.812   1.614  1.00  0.00    -0.386 OA
ATOM     14  H1  UNL     1      -0.807   1.222   2.200  1.00  0.00     0.210 HD
ENDBRANCH   9  13
TORSDOF 3
