REMARK  5 active torsions:
REMARK  status: ('A' for Active; 'I' for Inactive)
REMARK    1  A    between atoms: C2_2  and  C4_4 
REMARK    2  A    between atoms: C4_4  and  O1_5 
REMARK    3  A    between atoms: C4_4  and  C5_7 
REMARK    4  A    between atoms: C5_7  and  O2_8 
REMARK    5  A    between atoms: C5_7  and  C6_10 
ROOT
HETATM    1  C4  UNL     1      -0.335  -0.089  -0.685  1.00  0.00     0.150 C 
ENDROOT
BRANCH   1   2
HETATM    2  C2  UNL     1      -1.152   0.613   0.337  1.00  0.00     0.009 C 
HETATM    3  C1  UNL     1      -1.921   1.727  -0.391  1.00  0.00     0.012 C 
HETATM    4  C3  UNL     1      -2.155  -0.230   1.035  1.00  0.00     0.012 C 
ENDBRANCH   1   2
BRANCH   1   5
HETATM    5  O1  UNL     1      -1.151  -0.623  -1.655  1.00  0.00    -0.393 OA
ATOM      6  H1  UNL     1      -0.628  -1.072  -2.309  1.00  0.00     0.210 HD
ENDBRANCH   1   5
BRANCH   1   7
HETATM    7  C5  UNL     1       0.638  -1.085  -0.107  1.00  0.00     0.151 C 
BRANCH   7   8
HETATM    8  O2  UNL     1      -0.057  -2.145   0.474  1.00  0.00    -0.393 OA
ATOM      9  H2  UNL     1       0.556  -2.773   0.838  1.00  0.00     0.210 HD
ENDBRANCH   7   8
BRANCH   7  10
HETATM   10  C6  UNL     1       1.483  -0.478   0.980  1.00  0.00     0.017 A 
HETATM   11  C7  UNL     1       2.364   0.678   0.717  1.00  0.00     0.007 A 
HETATM   12  C8  UNL     1       2.952  -0.710   0.852  1.00  0.00     0.007 A 
ENDBRANCH   7  10
ENDBRANCH   1   7
TORSDOF 5
