REMARK  2 active torsions:
REMARK  status: ('A' for Active; 'I' for Inactive)
REMARK    1  A    between atoms: O1_2  and  C2_3 
REMARK    2  A    between atoms: C7_8  and  C8_9 
ROOT
HETATM    1  C2  UNL     1      -0.866  -0.365   0.166  1.00  0.00     0.132 C 
HETATM    2  C3  UNL     1      -1.392   0.881   0.902  1.00  0.00     0.033 C 
HETATM    3  C4  UNL     1      -0.970   2.141   0.205  1.00  0.00     0.002 C 
HETATM    4  C5  UNL     1       0.462   2.188  -0.189  1.00  0.00     0.001 C 
HETATM    5  C6  UNL     1       0.876   0.918  -0.902  1.00  0.00     0.015 C 
HETATM    6  C7  UNL     1       0.603  -0.202   0.113  1.00  0.00     0.084 C 
ENDROOT
BRANCH   6   7
HETATM    7  C8  UNL     1       1.418  -1.381  -0.127  1.00  0.00     0.129 C 
HETATM    8  C9  UNL     1       2.909  -1.187  -0.183  1.00  0.00     0.091 C 
HETATM    9  O2  UNL     1       1.027  -2.500  -0.286  1.00  0.00    -0.298 OA
ENDBRANCH   6   7
BRANCH   1  10
HETATM   10  O1  UNL     1      -1.354  -1.451   0.837  1.00  0.00    -0.390 OA
HETATM   11  C1  UNL     1      -2.236  -2.204   0.103  1.00  0.00     0.202 C 
ENDBRANCH   1  10
TORSDOF 2
