REMARK  2 active torsions:
REMARK  status: ('A' for Active; 'I' for Inactive)
REMARK    1  A    between atoms: O1_2  and  C2_3 
REMARK    2  A    between atoms: C2_3  and  C4_6 
ROOT
HETATM    1  C2  UNL     1       1.300  -0.170   0.378  1.00  0.00     0.235 C 
HETATM    2  C3  UNL     1       1.595  -1.108   1.477  1.00  0.00     0.092 C 
HETATM    3  N1  UNL     1       1.837  -1.835   2.351  1.00  0.00    -0.194 NA
ENDROOT
BRANCH   1   4
HETATM    4  O1  UNL     1       2.045  -0.618  -0.719  1.00  0.00    -0.376 OA
HETATM    5  C1  UNL     1       2.993   0.315  -1.079  1.00  0.00     0.203 C 
ENDBRANCH   1   4
BRANCH   1   6
HETATM    6  C4  UNL     1      -0.177  -0.240   0.127  1.00  0.00    -0.005 C 
HETATM    7  C5  UNL     1      -0.569  -1.652  -0.152  1.00  0.00     0.019 C 
HETATM    8  C6  UNL     1      -0.884   0.360   1.318  1.00  0.00     0.012 C 
HETATM    9  C7  UNL     1      -2.263   0.724   0.802  1.00  0.00     0.001 C 
HETATM   10  C8  UNL     1      -2.095   0.885  -0.701  1.00  0.00     0.001 C 
HETATM   11  C9  UNL     1      -0.636   0.649  -0.993  1.00  0.00     0.012 C 
ENDBRANCH   1   6
TORSDOF 2
