REMARK  4 active torsions:
REMARK  status: ('A' for Active; 'I' for Inactive)
REMARK    1  A    between atoms: C2_2  and  O2_4 
REMARK    2  A    between atoms: O2_4  and  C3_5 
REMARK    3  A    between atoms: C3_5  and  C5_7 
REMARK       I    between atoms: C5_7  and  N1_9 
REMARK    4  A    between atoms: N1_9  and  C6_11 
ROOT
HETATM    1  C6  UNL     1      -0.394   0.535  -0.013  1.00  0.00     0.098 C 
HETATM    2  C7  UNL     1      -1.372  -0.532   0.389  1.00  0.00     0.033 C 
HETATM    3  C8  UNL     1      -2.657  -0.493  -0.409  1.00  0.00     0.021 C 
HETATM    4  C9  UNL     1      -3.536  -1.560   0.170  1.00  0.00     0.146 C 
HETATM    5  S1  UNL     1      -5.177  -0.911  -0.009  1.00  0.00     0.146 S 
HETATM    6  O4  UNL     1      -6.046  -1.248   1.174  1.00  0.00    -0.228 OA
HETATM    7  O5  UNL     1      -5.802  -1.253  -1.306  1.00  0.00    -0.228 OA
HETATM    8  C10 UNL     1      -4.686   0.817   0.065  1.00  0.00     0.160 C 
HETATM    9  C11 UNL     1      -3.304   0.791  -0.532  1.00  0.00     0.127 C 
HETATM   10  S2  UNL     1      -2.437   2.181   0.138  1.00  0.00     0.151 S 
HETATM   11  O6  UNL     1      -3.207   2.827   1.282  1.00  0.00    -0.227 OA
HETATM   12  O7  UNL     1      -2.269   3.296  -0.886  1.00  0.00    -0.227 OA
HETATM   13  C12 UNL     1      -0.830   1.794   0.736  1.00  0.00     0.166 C 
ENDROOT
BRANCH   1  14
HETATM   14  N1  UNL     1       0.905   0.168   0.500  1.00  0.00    -0.353 N 
HETATM   15  C5  UNL     1       2.074   0.121  -0.284  1.00  0.00     0.247 C 
HETATM   16  O3  UNL     1       2.016   0.407  -1.497  1.00  0.00    -0.271 OA
ATOM     17  H1  UNL     1       0.980  -0.071   1.489  1.00  0.00     0.163 HD
BRANCH  15  18
HETATM   18  C3  UNL     1       3.369  -0.261   0.300  1.00  0.00     0.219 C 
HETATM   19  C4  UNL     1       3.778   0.636   1.446  1.00  0.00     0.050 C 
BRANCH  18  20
HETATM   20  O2  UNL     1       4.411  -0.249  -0.641  1.00  0.00    -0.307 OA
BRANCH  20  21
HETATM   21  C2  UNL     1       5.118  -1.418  -0.914  1.00  0.00     0.255 C 
HETATM   22  C1  UNL     1       6.229  -1.446  -1.905  1.00  0.00     0.126 C 
HETATM   23  O1  UNL     1       4.774  -2.455  -0.283  1.00  0.00    -0.266 OA
ENDBRANCH  20  21
ENDBRANCH  18  20
ENDBRANCH  15  18
ENDBRANCH   1  14
TORSDOF 4
