REMARK  3 active torsions:
REMARK  status: ('A' for Active; 'I' for Inactive)
REMARK       I    between atoms: C1_2  and  N1_3 
REMARK    1  A    between atoms: C1_2  and  C6_14 
REMARK    2  A    between atoms: C4_9  and  C5_10 
REMARK    3  A    between atoms: C5_10  and  S3_11 
ROOT
HETATM    1  O1  UNL     1       0.769  -2.529   1.082  1.00  0.00    -0.271 OA
HETATM    2  C1  UNL     1       0.462  -1.341   0.725  1.00  0.00     0.245 C 
HETATM    3  N1  UNL     1      -0.826  -0.896   1.069  1.00  0.00    -0.331 N 
ATOM      4  H1  UNL     1      -0.999  -0.588   2.026  1.00  0.00     0.168 HD
HETATM    5  C2  UNL     1      -1.808  -0.862   0.214  1.00  0.00     0.015 C 
HETATM    6  C3  UNL     1      -1.697  -1.280  -1.206  1.00  0.00     0.140 C 
HETATM    7  S1  UNL     1      -2.988  -2.577  -1.432  1.00  0.00    -0.091 SA
HETATM    8  S2  UNL     1      -4.156  -1.949   0.282  1.00  0.00    -0.086 SA
HETATM    9  C4  UNL     1      -3.183  -0.402   0.524  1.00  0.00     0.119 C 
ENDROOT
BRANCH   2  10
HETATM   10  C6  UNL     1       1.445  -0.499  -0.016  1.00  0.00     0.185 C 
HETATM   11  C7  UNL     1       1.607   0.782   0.748  1.00  0.00     0.036 C 
HETATM   12  C8  UNL     1       2.577   1.667  -0.018  1.00  0.00     0.019 C 
HETATM   13  C9  UNL     1       3.972   1.254   0.457  1.00  0.00     0.163 C 
HETATM   14  S4  UNL     1       4.045  -0.509   0.443  1.00  0.00     0.227 S 
HETATM   15  O4  UNL     1       4.265  -1.025   1.849  1.00  0.00    -0.206 OA
HETATM   16  O5  UNL     1       5.241  -0.926  -0.366  1.00  0.00    -0.206 OA
HETATM   17  N2  UNL     1       2.642  -1.238  -0.205  1.00  0.00    -0.306 N 
ATOM     18  H2  UNL     1       2.663  -2.135  -0.690  1.00  0.00     0.173 HD
ENDBRANCH   2  10
BRANCH   9  19
HETATM   19  C5  UNL     1      -3.633   0.541  -0.549  1.00  0.00     0.178 C 
BRANCH  19  20
HETATM   20  S3  UNL     1      -5.293   1.125  -0.212  1.00  0.00     0.252 S 
HETATM   21  O2  UNL     1      -5.764   2.178  -1.433  1.00  0.00    -0.212 OA
HETATM   22  O3  UNL     1      -5.386   1.825   1.300  1.00  0.00    -0.212 OA
ENDBRANCH  19  20
ENDBRANCH   9  19
TORSDOF 3
