REMARK  4 active torsions:
REMARK  status: ('A' for Active; 'I' for Inactive)
REMARK    1  A    between atoms: C2_2  and  C3_4 
REMARK    2  A    between atoms: C3_4  and  C5_6 
REMARK    3  A    between atoms: C5_6  and  C6_8 
REMARK       I    between atoms: C6_8  and  N1_10 
REMARK    4  A    between atoms: C10_15  and  S1_16 
ROOT
HETATM    1  C6  UNL     1      -1.139  -0.195  -1.483  1.00  0.00     0.292 C 
HETATM    2  O3  UNL     1      -1.661   0.764  -2.143  1.00  0.00    -0.264 OA
HETATM    3  N1  UNL     1       0.187  -0.576  -1.668  1.00  0.00    -0.323 N 
ATOM      4  H1  UNL     1       0.366  -1.161  -2.484  1.00  0.00     0.169 HD
HETATM    5  C7  UNL     1       1.193  -0.300  -0.970  1.00  0.00     0.026 C 
HETATM    6  C8  UNL     1       1.063   0.521   0.215  1.00  0.00     0.024 C 
HETATM    7  C9  UNL     1       2.045   1.222   0.704  1.00  0.00     0.013 C 
HETATM    8  C10 UNL     1       3.412   1.308   0.167  1.00  0.00     0.275 C 
HETATM    9  S2  UNL     1       3.594   0.599  -1.434  1.00  0.00     0.173 S 
HETATM   10  O7  UNL     1       3.037   1.568  -2.439  1.00  0.00    -0.226 OA
HETATM   11  O8  UNL     1       4.993   0.219  -1.733  1.00  0.00    -0.226 OA
HETATM   12  C11 UNL     1       2.525  -0.847  -1.401  1.00  0.00     0.199 C 
ENDROOT
BRANCH   1  13
HETATM   13  C5  UNL     1      -1.981  -0.891  -0.517  1.00  0.00     0.227 C 
HETATM   14  O2  UNL     1      -1.489  -1.831   0.137  1.00  0.00    -0.286 OA
BRANCH  13  15
HETATM   15  C3  UNL     1      -3.388  -0.517  -0.293  1.00  0.00     0.130 C 
HETATM   16  C4  UNL     1      -3.366   0.949   0.138  1.00  0.00     0.026 C 
BRANCH  15  17
HETATM   17  C2  UNL     1      -4.036  -1.361   0.727  1.00  0.00     0.134 C 
HETATM   18  C1  UNL     1      -5.469  -1.059   1.086  1.00  0.00     0.091 C 
HETATM   19  O1  UNL     1      -3.435  -2.267   1.258  1.00  0.00    -0.298 OA
ENDBRANCH  15  17
ENDBRANCH  13  15
ENDBRANCH   1  13
BRANCH   8  20
HETATM   20  S1  UNL     1       4.587   0.630   1.316  1.00  0.00     0.124 S 
HETATM   21  O4  UNL     1       5.982   0.915   0.839  1.00  0.00    -0.594 OA
HETATM   22  O5  UNL     1       4.365   1.341   2.635  1.00  0.00    -0.594 OA
HETATM   23  O6  UNL     1       4.358  -0.994   1.571  1.00  0.00    -0.594 OA
ENDBRANCH   8  20
TORSDOF 4
