REMARK  5 active torsions:
REMARK  status: ('A' for Active; 'I' for Inactive)
REMARK    1  A    between atoms: C2_2  and  N1_3 
REMARK       I    between atoms: N1_3  and  C4_5 
REMARK    2  A    between atoms: C4_5  and  C5_7 
REMARK    3  A    between atoms: C10_14  and  C11_15 
REMARK       I    between atoms: C11_15  and  N3_17 
REMARK    4  A    between atoms: N3_17  and  C12_19 
REMARK    5  A    between atoms: C13_22  and  N5_24 
ROOT
HETATM    1  C5  UNL     1       1.122   0.130  -0.965  1.00  0.00     0.346 C 
HETATM    2  C6  UNL     1      -0.023   0.941  -1.456  1.00  0.00     0.180 C 
HETATM    3  O2  UNL     1      -0.521   0.094  -2.460  1.00  0.00    -0.353 OA
HETATM    4  C7  UNL     1      -0.176  -1.220  -2.078  1.00  0.00     0.442 C 
HETATM    5  N2  UNL     1       0.412  -1.146  -0.786  1.00  0.00     0.135 N 
HETATM    6  C8  UNL     1      -0.393  -1.117   0.347  1.00  0.00     0.268 A 
HETATM    7  C9  UNL     1      -1.130   0.151   0.657  1.00  0.00     0.074 A 
HETATM    8  C10 UNL     1      -1.026   1.213  -0.374  1.00  0.00     0.119 C 
HETATM    9  C13 UNL     1      -1.839  -1.114   0.547  1.00  0.00     0.131 A 
HETATM   10  C14 UNL     1      -2.851  -1.490  -0.490  1.00  0.00     0.048 C 
ENDROOT
BRANCH   8  11
HETATM   11  C11 UNL     1      -2.329   1.676  -0.909  1.00  0.00     0.230 C 
HETATM   12  O3  UNL     1      -2.472   1.834  -2.140  1.00  0.00    -0.273 OA
HETATM   13  N3  UNL     1      -3.433   1.951  -0.067  1.00  0.00    -0.306 N 
ATOM     14  H3  UNL     1      -3.315   1.822   0.938  1.00  0.00     0.170 HD
BRANCH  13  15
HETATM   15  C12 UNL     1      -4.685   2.393  -0.538  1.00  0.00     0.187 C 
HETATM   16  N4  UNL     1      -4.889   2.585  -1.933  1.00  0.00    -0.070 NA
HETATM   17  S1  UNL     1      -5.869   2.672   0.548  1.00  0.00    -0.044 SA
ENDBRANCH  13  15
ENDBRANCH   8  11
BRANCH   1  18
HETATM   18  C4  UNL     1       1.901   0.604   0.138  1.00  0.00     0.256 C 
HETATM   19  N1  UNL     1       2.809  -0.202   0.839  1.00  0.00    -0.355 N 
HETATM   20  C3  UNL     1       3.114  -1.561   0.458  1.00  0.00     0.152 C 
HETATM   21  O1  UNL     1       1.778   1.811   0.508  1.00  0.00    -0.271 OA
BRANCH  19  22
HETATM   22  C2  UNL     1       3.546   0.307   1.991  1.00  0.00     0.120 C 
HETATM   23  C1  UNL     1       4.837   0.896   1.427  1.00  0.00     0.026 C 
ENDBRANCH  19  22
ENDBRANCH   1  18
BRANCH   9  24
HETATM   24  N5  UNL     1      -2.302  -1.673   1.822  1.00  0.00    -0.143 N 
HETATM   25  O4  UNL     1      -2.940  -0.918   2.553  1.00  0.00    -0.536 OA
HETATM   26  O5  UNL     1      -2.053  -2.950   2.197  1.00  0.00    -0.536 OA
ENDBRANCH   9  24
TORSDOF 5
