REMARK  4 active torsions:
REMARK  status: ('A' for Active; 'I' for Inactive)
REMARK    1  A    between atoms: N3_4  and  C2_6 
REMARK    2  A    between atoms: C2_6  and  C3_7 
REMARK    3  A    between atoms: C3_7  and  N4_8 
REMARK    4  A    between atoms: N4_8  and  C4_10 
ROOT
HETATM    1  N4  UNL     1       0.794   1.339   1.370  1.00  0.00    -0.375 N 
ATOM      2  H4  UNL     1       1.062   2.140   1.942  1.00  0.00     0.160 HD
ENDROOT
BRANCH   1   3
HETATM    3  C3  UNL     1      -0.596   1.076   1.181  1.00  0.00     0.140 C 
BRANCH   3   4
HETATM    4  C2  UNL     1      -1.078   1.294  -0.224  1.00  0.00     0.141 C 
BRANCH   4   5
HETATM    5  N3  UNL     1      -2.495   1.002  -0.297  1.00  0.00    -0.365 N 
HETATM    6  C1  UNL     1      -2.980  -0.190  -0.323  1.00  0.00     0.197 C 
HETATM    7  N1  UNL     1      -2.188  -1.353  -0.284  1.00  0.00    -0.067 NA
HETATM    8  N2  UNL     1      -4.410  -0.325  -0.396  1.00  0.00    -0.067 NA
ATOM      9  H3  UNL     1      -3.146   1.786  -0.330  1.00  0.00     0.161 HD
ENDBRANCH   4   5
ENDBRANCH   3   4
ENDBRANCH   1   3
BRANCH   1  10
HETATM   10  C4  UNL     1       1.832   0.535   0.798  1.00  0.00     0.125 C 
HETATM   11  N5  UNL     1       2.855   1.021   0.282  1.00  0.00    -0.345 N 
HETATM   12  C5  UNL     1       3.854   0.206  -0.269  1.00  0.00     0.172 C 
ATOM     13  H5  UNL     1       2.969   2.034   0.259  1.00  0.00     0.167 HD
HETATM   14  S1  UNL     1       2.995  -1.345  -0.434  1.00  0.00     0.097 S 
HETATM   15  O1  UNL     1       3.916  -2.639   0.032  1.00  0.00    -0.249 OA
HETATM   16  C6  UNL     1       1.731  -0.947   0.791  1.00  0.00     0.335 C 
HETATM   17  F1  UNL     1       2.140  -1.439   2.025  1.00  0.00    -0.227 F 
ENDBRANCH   1  10
TORSDOF 4
