REMARK  5 active torsions:
REMARK  status: ('A' for Active; 'I' for Inactive)
REMARK    1  A    between atoms: N1_2  and  N2_3 
REMARK    2  A    between atoms: N1_2  and  S1_6 
REMARK    3  A    between atoms: S1_6  and  N3_9 
REMARK    4  A    between atoms: N3_9  and  S2_11 
REMARK    5  A    between atoms: S2_11  and  N4_12 
ROOT
HETATM    1  S1  UNL     1      -0.059   0.830   0.944  1.00  0.00     0.329 S 
HETATM    2  O1  UNL     1       0.706   0.335   2.131  1.00  0.00    -0.186 OA
HETATM    3  O2  UNL     1      -0.192   2.321   1.082  1.00  0.00    -0.186 OA
ENDROOT
BRANCH   1   4
HETATM    4  N1  UNL     1      -1.576   0.044   0.912  1.00  0.00    -0.113 NA
HETATM    5  C1  UNL     1      -2.613   0.870   0.305  1.00  0.00     0.157 C 
BRANCH   4   6
HETATM    6  N2  UNL     1      -1.557  -1.146   0.145  1.00  0.00    -0.349 NA
ATOM      7  H22 UNL     1      -2.462  -1.615   0.126  1.00  0.00     0.172 HD
ATOM      8  H21 UNL     1      -0.832  -1.724   0.570  1.00  0.00     0.172 HD
ENDBRANCH   4   6
ENDBRANCH   1   4
BRANCH   1   9
HETATM    9  N3  UNL     1       0.788   0.467  -0.478  1.00  0.00    -0.180 N 
ATOM     10  H3  UNL     1       0.695   1.022  -1.329  1.00  0.00     0.194 HD
BRANCH   9  11
HETATM   11  S2  UNL     1       1.808  -0.898  -0.378  1.00  0.00     0.326 S 
HETATM   12  O3  UNL     1       1.989  -1.456  -1.762  1.00  0.00    -0.182 OA
HETATM   13  O4  UNL     1       1.318  -1.945   0.540  1.00  0.00    -0.182 OA
BRANCH  11  14
HETATM   14  N4  UNL     1       3.377  -0.329   0.130  1.00  0.00    -0.311 N 
ATOM     15  H42 UNL     1       3.623   0.641   0.327  1.00  0.00     0.170 HD
ATOM     16  H41 UNL     1       3.987  -1.145   0.190  1.00  0.00     0.170 HD
ENDBRANCH  11  14
ENDBRANCH   9  11
ENDBRANCH   1   9
TORSDOF 5
