REMARK  18 active torsions:
REMARK  status: ('A' for Active; 'I' for Inactive)
REMARK    1  A    between atoms: C3_6  and  N3_7 
REMARK    2  A    between atoms: C4_8  and  C5_9 
REMARK    3  A    between atoms: C5_9  and  O1_10 
REMARK    4  A    between atoms: N4_13  and  C7_14 
REMARK    5  A    between atoms: C7_14  and  C8_15 
REMARK    6  A    between atoms: C8_15  and  C9_16 
REMARK    7  A    between atoms: C9_16  and  O2_17 
REMARK    8  A    between atoms: C9_16  and  C10_19 
REMARK    9  A    between atoms: C10_19  and  O3_20 
REMARK   10  A    between atoms: O3_20  and  C11_21 
REMARK   11  A    between atoms: C12_24  and  C13_25 
REMARK   12  A    between atoms: C13_25  and  O4_26 
REMARK   13  A    between atoms: C14_28  and  O5_29 
REMARK   14  A    between atoms: C16_35  and  N7_36 
REMARK   15  A    between atoms: C17_39  and  N8_40 
REMARK   16  A    between atoms: N8_40  and  N9_42 
REMARK   17  A    between atoms: C20_50  and  N11_51 
REMARK   18  A    between atoms: N12_54  and  N13_55 
ROOT
HETATM    1  N3  UNL     1      -2.384  -0.055   0.310  1.00  0.00    -0.127 N 
HETATM    2  C4  UNL     1      -1.719  -1.215   0.245  1.00  0.00     0.075 A 
HETATM    3  C6  UNL     1      -0.561  -1.354   0.961  1.00  0.00     0.121 A 
HETATM    4  N4  UNL     1      -0.031  -0.359   1.753  1.00  0.00    -0.339 N 
HETATM    5  C16 UNL     1      -0.715   0.781   1.799  1.00  0.00     0.148 A 
HETATM    6  C17 UNL     1      -1.907   0.943   1.070  1.00  0.00     0.187 A 
ENDROOT
BRANCH   4   7
HETATM    7  C7  UNL     1       1.233  -0.612   2.419  1.00  0.00     0.133 C 
BRANCH   7   8
HETATM    8  C8  UNL     1       2.444  -0.448   1.589  1.00  0.00     0.054 C 
BRANCH   8   9
HETATM    9  C9  UNL     1       2.779   0.865   1.009  1.00  0.00     0.144 C 
BRANCH   9  10
HETATM   10  O2  UNL     1       3.022   1.878   1.899  1.00  0.00    -0.393 OA
ATOM     11  H2  UNL     1       3.238   2.724   1.525  1.00  0.00     0.210 HD
ENDBRANCH   9  10
BRANCH   9  12
HETATM   12  C10 UNL     1       4.035   0.671   0.150  1.00  0.00     0.209 C 
BRANCH  12  13
HETATM   13  O3  UNL     1       5.139   0.335   0.968  1.00  0.00    -0.329 OA
BRANCH  13  14
HETATM   14  C11 UNL     1       6.405   0.103   0.452  1.00  0.00     0.213 A 
HETATM   15  N5  UNL     1       6.633   0.190  -0.868  1.00  0.00    -0.330 N 
HETATM   16  C12 UNL     1       7.832  -0.025  -1.400  1.00  0.00     0.086 A 
ATOM     17  H5  UNL     1       5.858   0.430  -1.486  1.00  0.00     0.168 HD
HETATM   18  C14 UNL     1       8.855  -0.348  -0.532  1.00  0.00     0.168 A 
HETATM   19  N6  UNL     1       8.663  -0.445   0.797  1.00  0.00    -0.299 N 
HETATM   20  C15 UNL     1       7.439  -0.221   1.302  1.00  0.00     0.298 A 
ATOM     21  H6  UNL     1       9.439  -0.686   1.414  1.00  0.00     0.171 HD
HETATM   22  O6  UNL     1       7.262  -0.312   2.548  1.00  0.00    -0.263 OA
BRANCH  16  23
HETATM   23  C13 UNL     1       8.104   0.069  -2.874  1.00  0.00     0.225 C 
BRANCH  23  24
HETATM   24  O4  UNL     1       6.947   0.403  -3.552  1.00  0.00    -0.395 OA
ATOM     25  H4  UNL     1       7.119   0.462  -4.484  1.00  0.00     0.209 HD
ENDBRANCH  23  24
ENDBRANCH  16  23
BRANCH  18  26
HETATM   26  O5  UNL     1      10.119  -0.579  -1.058  1.00  0.00    -0.344 OA
ATOM     27  H5  UNL     1      10.823  -0.801  -0.460  1.00  0.00     0.219 HD
ENDBRANCH  18  26
ENDBRANCH  13  14
ENDBRANCH  12  13
ENDBRANCH   9  12
ENDBRANCH   8   9
ENDBRANCH   7   8
ENDBRANCH   4   7
BRANCH   5  28
HETATM   28  N7  UNL     1      -0.328   1.742   2.547  1.00  0.00    -0.382 N 
ATOM     29  H72 UNL     1       0.536   1.625   3.076  1.00  0.00     0.157 HD
ATOM     30  H71 UNL     1      -0.852   2.616   2.582  1.00  0.00     0.157 HD
ENDBRANCH   5  28
BRANCH   2  31
HETATM   31  C5  UNL     1      -2.212  -2.359  -0.588  1.00  0.00     0.223 C 
BRANCH  31  32
HETATM   32  O1  UNL     1      -3.057  -3.184   0.157  1.00  0.00    -0.395 OA
ATOM     33  H1  UNL     1      -3.370  -3.909  -0.371  1.00  0.00     0.209 HD
ENDBRANCH  31  32
ENDBRANCH   2  31
BRANCH   6  34
HETATM   34  N8  UNL     1      -2.514   2.061   1.154  1.00  0.00    -0.288 N 
ATOM     35  H8  UNL     1      -3.379   2.184   0.627  1.00  0.00     0.188 HD
BRANCH  34  36
HETATM   36  N9  UNL     1      -2.065   3.102   1.914  1.00  0.00    -0.344 N 
ATOM     37  H92 UNL     1      -1.199   2.962   2.434  1.00  0.00     0.176 HD
ATOM     38  H91 UNL     1      -2.551   3.996   1.981  1.00  0.00     0.176 HD
ENDBRANCH  34  36
ENDBRANCH   6  34
BRANCH   1  39
HETATM   39  C3  UNL     1      -3.594   0.171  -0.402  1.00  0.00     0.695 A 
HETATM   40  N2  UNL     1      -4.780  -0.298   0.024  1.00  0.00    -0.173 N 
HETATM   41  C2  UNL     1      -5.949  -0.111  -0.613  1.00  0.00     0.158 A 
ATOM     42  H2  UNL     1      -4.794  -0.834   0.892  1.00  0.00     0.186 HD
HETATM   43  N1  UNL     1      -7.228  -0.470  -0.394  1.00  0.00    -0.257 N 
HETATM   44  C19 UNL     1      -5.962   0.612  -1.794  1.00  0.00     0.125 A 
HETATM   45  C1  UNL     1      -7.632  -1.255   0.768  1.00  0.00     0.182 C 
HETATM   46  N12 UNL     1      -8.034  -0.032  -1.334  1.00  0.00    -0.182 N 
HETATM   47  C20 UNL     1      -7.253   0.645  -2.214  1.00  0.00     0.158 A 
HETATM   48  C18 UNL     1      -4.744   1.096  -2.234  1.00  0.00     0.277 A 
HETATM   49  N10 UNL     1      -3.602   0.883  -1.562  1.00  0.00    -0.154 N 
HETATM   50  O7  UNL     1      -4.765   1.760  -3.319  1.00  0.00    -0.266 OA
ATOM     51  H10 UNL     1      -2.727   1.260  -1.926  1.00  0.00     0.187 HD
BRANCH  46  52
HETATM   52  N13 UNL     1      -9.424  -0.211  -1.439  1.00  0.00    -0.322 N 
ATOM     53 2H13 UNL     1     -10.011  -0.720  -0.778  1.00  0.00     0.179 HD
ATOM     54 1H13 UNL     1     -10.050   0.129  -2.169  1.00  0.00     0.179 HD
ENDBRANCH  46  52
BRANCH  47  55
HETATM   55  N11 UNL     1      -7.706   1.217  -3.273  1.00  0.00    -0.382 N 
ATOM     56 2H11 UNL     1      -7.119   1.726  -3.934  1.00  0.00     0.157 HD
ATOM     57 1H11 UNL     1      -8.676   1.242  -3.588  1.00  0.00     0.157 HD
ENDBRANCH  47  55
ENDBRANCH   1  39
TORSDOF 18
