REMARK  17 active torsions:
REMARK  status: ('A' for Active; 'I' for Inactive)
REMARK    1  A    between atoms: O1_2  and  C2_3 
REMARK    2  A    between atoms: C2_3  and  C3_5 
REMARK    3  A    between atoms: C3_5  and  C4_6 
REMARK    4  A    between atoms: C3_5  and  N15_54 
REMARK    5  A    between atoms: C4_6  and  S1_7 
REMARK    6  A    between atoms: S1_7  and  C5_8 
REMARK    7  A    between atoms: C6_11  and  N2_12 
REMARK    8  A    between atoms: N2_12  and  C7_14 
REMARK    9  A    between atoms: C8_19  and  S2_20 
REMARK   10  A    between atoms: S2_20  and  C9_21 
REMARK   11  A    between atoms: C9_21  and  C10_22 
REMARK   12  A    between atoms: C10_22  and  N5_23 
REMARK   13  A    between atoms: N5_23  and  C11_25 
REMARK   14  A    between atoms: C17_35  and  N8_36 
REMARK   15  A    between atoms: N9_39  and  O3_40 
REMARK   16  A    between atoms: C18_48  and  N13_49 
REMARK   17  A    between atoms: N15_54  and  O4_55 
ROOT
HETATM    1  C7  UNL     1      -0.646   1.372   1.411  1.00  0.00     0.726 A 
HETATM    2  N3  UNL     1      -0.636   2.695   1.174  1.00  0.00    -0.128 N 
ATOM      3  H3  UNL     1      -1.517   3.151   0.936  1.00  0.00     0.205 HD
HETATM    4  N4  UNL     1       0.462   3.437   1.234  1.00  0.00    -0.264 N 
ATOM      5  H4  UNL     1       0.413   4.438   1.046  1.00  0.00     0.189 HD
HETATM    6  C8  UNL     1       1.640   2.866   1.544  1.00  0.00     0.174 A 
HETATM    7  N10 UNL     1       1.650   1.548   1.784  1.00  0.00    -0.264 N 
ATOM      8  H10 UNL     1       2.534   1.097   2.021  1.00  0.00     0.189 HD
HETATM    9  N11 UNL     1       0.554   0.811   1.724  1.00  0.00    -0.128 N 
ATOM     10  H11 UNL     1       0.608  -0.190   1.914  1.00  0.00     0.205 HD
ENDROOT
BRANCH   1  11
HETATM   11  N2  UNL     1      -1.722   0.655   1.350  1.00  0.00    -0.019 N 
ATOM     12  H2  UNL     1      -1.700  -0.348   1.534  1.00  0.00     0.203 HD
BRANCH  11  13
HETATM   13  C6  UNL     1      -2.936   1.317   1.017  1.00  0.00     0.713 A 
HETATM   14  N1  UNL     1      -3.630   0.844  -0.044  1.00  0.00    -0.169 N 
HETATM   15  C5  UNL     1      -4.783   1.426  -0.410  1.00  0.00     0.174 A 
ATOM     16  H1  UNL     1      -3.276   0.043  -0.567  1.00  0.00     0.186 HD
HETATM   17  N14 UNL     1      -5.249   2.492   0.291  1.00  0.00    -0.170 N 
HETATM   18  C18 UNL     1      -4.575   2.973   1.345  1.00  0.00     0.692 A 
ATOM     19  H14 UNL     1      -6.125   2.933   0.011  1.00  0.00     0.186 HD
HETATM   20  N12 UNL     1      -3.420   2.373   1.693  1.00  0.00    -0.022 N 
ATOM     21  H12 UNL     1      -2.898   2.731   2.493  1.00  0.00     0.203 HD
BRANCH  15  22
HETATM   22  S1  UNL     1      -5.773   0.880  -1.792  1.00  0.00    -0.091 SA
BRANCH  22  23
HETATM   23  C4  UNL     1      -6.939  -0.362  -1.169  1.00  0.00     0.116 C 
BRANCH  23  24
HETATM   24  C3  UNL     1      -7.798  -0.841  -2.327  1.00  0.00     0.215 C 
BRANCH  24  25
HETATM   25  C2  UNL     1      -8.742  -1.856  -1.794  1.00  0.00     0.281 C 
HETATM   26  O2  UNL     1      -9.993  -1.628  -1.853  1.00  0.00    -0.263 OA
BRANCH  25  27
HETATM   27  O1  UNL     1      -8.343  -3.043  -1.232  1.00  0.00    -0.325 OA
HETATM   28  C1  UNL     1      -9.296  -3.953  -0.749  1.00  0.00     0.213 C 
ENDBRANCH  25  27
ENDBRANCH  24  25
BRANCH  24  29
HETATM   29  N15 UNL     1      -8.524   0.287  -2.847  1.00  0.00    -0.088 NA
BRANCH  29  30
HETATM   30  O4  UNL     1      -9.248   0.829  -1.866  1.00  0.00    -0.295 OA
ATOM     31  H4  UNL     1      -9.727   1.574  -2.209  1.00  0.00     0.238 HD
ENDBRANCH  29  30
ENDBRANCH  24  29
ENDBRANCH  23  24
ENDBRANCH  22  23
ENDBRANCH  15  22
BRANCH  18  32
HETATM   32  N13 UNL     1      -4.973   3.982   2.044  1.00  0.00    -0.234 N 
ATOM     33 2H13 UNL     1      -4.460   4.348   2.846  1.00  0.00     0.174 HD
ATOM     34 1H13 UNL     1      -5.847   4.436   1.781  1.00  0.00     0.174 HD
ENDBRANCH  18  32
ENDBRANCH  11  13
ENDBRANCH   1  11
BRANCH   6  35
HETATM   35  S2  UNL     1       3.115   3.814   1.641  1.00  0.00    -0.090 SA
BRANCH  35  36
HETATM   36  C9  UNL     1       4.501   2.757   2.057  1.00  0.00     0.102 C 
BRANCH  36  37
HETATM   37  C10 UNL     1       4.845   1.767   0.943  1.00  0.00     0.148 C 
BRANCH  37  38
HETATM   38  N5  UNL     1       5.964   0.971   1.372  1.00  0.00    -0.223 N 
ATOM     39  H5  UNL     1       6.344   1.139   2.303  1.00  0.00     0.177 HD
BRANCH  38  40
HETATM   40  C11 UNL     1       6.576  -0.046   0.565  1.00  0.00     0.708 A 
HETATM   41  N6  UNL     1       7.625  -0.756   1.052  1.00  0.00    -0.174 N 
HETATM   42  C12 UNL     1       8.252  -1.722   0.359  1.00  0.00     0.135 A 
ATOM     43  H6  UNL     1       7.955  -0.545   1.994  1.00  0.00     0.186 HD
HETATM   44  N7  UNL     1       9.291  -2.412   0.868  1.00  0.00    -0.351 N 
HETATM   45  C16 UNL     1       7.834  -2.034  -0.915  1.00  0.00     0.055 A 
HETATM   46  C13 UNL     1       9.921  -3.382   0.176  1.00  0.00     0.090 A 
ATOM     47  H7  UNL     1       9.612  -2.193   1.811  1.00  0.00     0.166 HD
HETATM   48  C14 UNL     1       9.528  -3.719  -1.103  1.00  0.00     0.018 A 
HETATM   49  C15 UNL     1       8.461  -3.024  -1.649  1.00  0.00     0.020 A 
HETATM   50  C17 UNL     1       6.770  -1.318  -1.415  1.00  0.00     0.159 A 
HETATM   51  N9  UNL     1       6.163  -0.344  -0.675  1.00  0.00    -0.035 N 
BRANCH  50  52
HETATM   52  N8  UNL     1       6.356  -1.592  -2.615  1.00  0.00    -0.382 N 
ATOM     53  H82 UNL     1       6.809  -2.320  -3.168  1.00  0.00     0.157 HD
ATOM     54  H81 UNL     1       5.568  -1.061  -2.986  1.00  0.00     0.157 HD
ENDBRANCH  50  52
BRANCH  51  55
HETATM   55  O3  UNL     1       5.118   0.328  -1.231  1.00  0.00    -0.268 OA
ATOM     56  H3  UNL     1       4.825   0.117  -2.110  1.00  0.00     0.246 HD
ENDBRANCH  51  55
ENDBRANCH  38  40
ENDBRANCH  37  38
ENDBRANCH  36  37
ENDBRANCH  35  36
ENDBRANCH   6  35
TORSDOF 17
