REMARK  17 active torsions:
REMARK  status: ('A' for Active; 'I' for Inactive)
REMARK    1  A    between atoms: C3_4  and  C4_5 
REMARK    2  A    between atoms: N2_7  and  C6_8 
REMARK    3  A    between atoms: C7_12  and  C8_13 
REMARK    4  A    between atoms: C8_13  and  N5_14 
REMARK    5  A    between atoms: C8_13  and  C15_29 
REMARK    6  A    between atoms: N5_14  and  C9_16 
REMARK    7  A    between atoms: C9_16  and  C10_17 
REMARK    8  A    between atoms: C10_17  and  C11_18 
REMARK    9  A    between atoms: C11_18  and  N6_19 
REMARK   10  A    between atoms: C12_21  and  C13_22 
REMARK   11  A    between atoms: C13_22  and  N7_23 
REMARK   12  A    between atoms: N7_23  and  C14_26 
REMARK   13  A    between atoms: C14_26  and  O1_27 
REMARK   14  A    between atoms: C15_29  and  O2_30 
REMARK   15  A    between atoms: N8_32  and  O3_34 
REMARK   16  A    between atoms: C19_44  and  N11_45 
REMARK   17  A    between atoms: C21_49  and  N12_50 
ROOT
HETATM    1  C4  UNL     1      -3.615  -0.993   0.675  1.00  0.00     0.026 A 
HETATM    2  C5  UNL     1      -2.340  -0.404   0.599  1.00  0.00     0.116 A 
HETATM    3  N2  UNL     1      -2.200   0.350  -0.510  1.00  0.00    -0.282 N 
HETATM    4  C16 UNL     1      -3.375   0.239  -1.142  1.00  0.00     0.101 A 
HETATM    5  C17 UNL     1      -3.612   0.957  -2.256  1.00  0.00     0.136 C 
HETATM    6  N9  UNL     1      -4.600   0.545  -3.212  1.00  0.00    -0.324 N 
ATOM      7  H9  UNL     1      -4.503   0.133  -4.140  1.00  0.00     0.169 HD
HETATM    8  C18 UNL     1      -5.774   0.897  -2.448  1.00  0.00     0.153 C 
HETATM    9  N10 UNL     1      -6.380   0.028  -1.663  1.00  0.00    -0.325 N 
ATOM     10  H10 UNL     1      -7.399  -0.010  -1.624  1.00  0.00     0.169 HD
HETATM   11  C19 UNL     1      -5.579  -0.874  -0.854  1.00  0.00     0.114 C 
HETATM   12  C20 UNL     1      -4.283  -0.601  -0.421  1.00  0.00     0.053 A 
HETATM   13  C21 UNL     1      -6.160   2.262  -2.327  1.00  0.00     0.145 C 
HETATM   14  N13 UNL     1      -5.257   3.435  -2.442  1.00  0.00    -0.336 N 
ATOM     15  H13 UNL     1      -5.682   4.353  -2.574  1.00  0.00     0.168 HD
HETATM   16  C22 UNL     1      -3.819   3.360  -2.379  1.00  0.00     0.183 C 
HETATM   17  N14 UNL     1      -3.039   2.228  -2.292  1.00  0.00    -0.337 N 
ATOM     18  H14 UNL     1      -2.024   2.321  -2.253  1.00  0.00     0.168 HD
ENDROOT
BRANCH   3  19
HETATM   19  C6  UNL     1      -1.131   1.167  -0.970  1.00  0.00     0.244 C 
HETATM   20  N3  UNL     1      -0.652   2.197  -0.362  1.00  0.00    -0.266 N 
HETATM   21  N4  UNL     1       0.404   2.736  -1.142  1.00  0.00    -0.103 NA
ATOM     22  H3  UNL     1      -0.978   2.564   0.532  1.00  0.00     0.186 HD
HETATM   23  C7  UNL     1       0.817   1.710  -2.017  1.00  0.00     0.275 C 
HETATM   24  O4  UNL     1      -0.433   0.976  -2.145  1.00  0.00    -0.294 OA
BRANCH  23  25
HETATM   25  C8  UNL     1       1.845   0.745  -1.564  1.00  0.00     0.201 C 
BRANCH  25  26
HETATM   26  N5  UNL     1       3.166   1.205  -1.374  1.00  0.00    -0.407 N 
ATOM     27  H5  UNL     1       3.928   0.851  -1.953  1.00  0.00     0.154 HD
BRANCH  26  28
HETATM   28  C9  UNL     1       3.414   2.165  -0.366  1.00  0.00     0.116 C 
BRANCH  28  29
HETATM   29  C10 UNL     1       3.224   1.618   1.040  1.00  0.00     0.039 C 
BRANCH  29  30
HETATM   30  C11 UNL     1       4.180   0.451   1.279  1.00  0.00     0.120 C 
BRANCH  30  31
HETATM   31  N6  UNL     1       5.526   0.890   1.125  1.00  0.00    -0.401 N 
HETATM   32  C12 UNL     1       6.520   0.112   0.989  1.00  0.00     0.082 C 
ATOM     33  H6  UNL     1       5.703   1.895   1.124  1.00  0.00     0.158 HD
BRANCH  32  34
HETATM   34  C13 UNL     1       6.366  -1.365   0.979  1.00  0.00     0.278 C 
BRANCH  34  35
HETATM   35  N7  UNL     1       7.682  -1.971   1.202  1.00  0.00    -0.050 N 
ATOM     36  H72 UNL     1       7.703  -2.970   0.997  1.00  0.00     0.280 HD
ATOM     37  H71 UNL     1       8.378  -1.682   0.515  1.00  0.00     0.280 HD
BRANCH  35  38
HETATM   38  C14 UNL     1       8.067  -1.659   2.574  1.00  0.00     0.396 C 
BRANCH  38  39
HETATM   39  O1  UNL     1       9.321  -2.207   2.876  1.00  0.00    -0.375 OA
ATOM     40  H1  UNL     1       9.572  -2.004   3.770  1.00  0.00     0.211 HD
ENDBRANCH  38  39
ENDBRANCH  35  38
ENDBRANCH  34  35
ENDBRANCH  32  34
ENDBRANCH  30  31
ENDBRANCH  29  30
ENDBRANCH  28  29
ENDBRANCH  26  28
ENDBRANCH  25  26
BRANCH  25  41
HETATM   41  C15 UNL     1       1.802  -0.409  -2.517  1.00  0.00     0.162 C 
HETATM   42  N8  UNL     1       2.844  -0.700  -3.184  1.00  0.00    -0.249 N 
ATOM     43  H8  UNL     1       3.679  -0.131  -3.044  1.00  0.00     0.196 HD
BRANCH  41  44
HETATM   44  O2  UNL     1       0.648  -1.130  -2.656  1.00  0.00    -0.346 OA
ATOM     45  H2  UNL     1       0.621  -1.862  -3.261  1.00  0.00     0.219 HD
ENDBRANCH  41  44
BRANCH  42  46
HETATM   46  O3  UNL     1       2.911  -1.740  -4.086  1.00  0.00    -0.288 OA
ATOM     47  H3  UNL     1       3.690  -1.958  -4.585  1.00  0.00     0.244 HD
ENDBRANCH  42  46
ENDBRANCH  25  41
ENDBRANCH  23  25
ENDBRANCH   3  19
BRANCH   1  48
HETATM   48  C3  UNL     1      -4.069  -1.858   1.761  1.00  0.00     0.079 A 
HETATM   49  C2  UNL     1      -5.233  -1.840   2.516  1.00  0.00     0.143 A 
HETATM   50  N1  UNL     1      -5.151  -2.743   3.508  1.00  0.00    -0.291 N 
HETATM   51  C1  UNL     1      -6.183  -3.003   4.498  1.00  0.00     0.178 C 
HETATM   52  N16 UNL     1      -3.987  -3.304   3.382  1.00  0.00    -0.241 N 
HETATM   53  N15 UNL     1      -3.309  -2.818   2.368  1.00  0.00    -0.284 N 
ATOM     54  H16 UNL     1      -3.639  -4.038   3.999  1.00  0.00     0.208 HD
ATOM     55  H15 UNL     1      -2.374  -3.108   2.082  1.00  0.00     0.188 HD
ENDBRANCH   1  48
BRANCH  11  56
HETATM   56  N11 UNL     1      -6.080  -1.948  -0.548  1.00  0.00    -0.385 N 
ATOM     57 2H11 UNL     1      -7.029  -2.148  -0.865  1.00  0.00     0.157 HD
ATOM     58 1H11 UNL     1      -5.517  -2.581   0.020  1.00  0.00     0.157 HD
ENDBRANCH  11  56
BRANCH  13  59
HETATM   59  N12 UNL     1      -7.382   2.404  -2.031  1.00  0.00    -0.382 N 
ATOM     60 2H12 UNL     1      -8.002   1.598  -1.952  1.00  0.00     0.157 HD
ATOM     61 1H12 UNL     1      -7.659   3.382  -1.944  1.00  0.00     0.157 HD
ENDBRANCH  13  59
TORSDOF 17
