REMARK  20 active torsions:
REMARK  status: ('A' for Active; 'I' for Inactive)
REMARK    1  A    between atoms: N2_4  and  C1_6 
REMARK    2  A    between atoms: C1_6  and  O2_11 
REMARK    3  A    between atoms: N3_7  and  O1_9 
REMARK    4  A    between atoms: O2_11  and  N4_12 
REMARK    5  A    between atoms: C2_14  and  N5_15 
REMARK    6  A    between atoms: C2_14  and  O6_29 
REMARK    7  A    between atoms: N5_15  and  N6_17 
REMARK       I    between atoms: N6_17  and  C3_19 
REMARK    8  A    between atoms: C3_19  and  C4_21 
REMARK    9  A    between atoms: C4_21  and  N7_22 
REMARK   10  A    between atoms: C5_24  and  C6_25 
REMARK   11  A    between atoms: C6_25  and  C7_26 
REMARK   12  A    between atoms: O6_29  and  C8_30 
REMARK   13  A    between atoms: C8_30  and  C9_31 
REMARK   14  A    between atoms: C10_32  and  C11_33 
REMARK   15  A    between atoms: C11_33  and  N8_34 
REMARK   16  A    between atoms: N8_34  and  C12_35 
REMARK   17  A    between atoms: N8_34  and  N9_39 
REMARK   18  A    between atoms: C12_35  and  C13_36 
REMARK   19  A    between atoms: C13_36  and  O7_37 
REMARK   20  A    between atoms: C18_51  and  N14_52 
ROOT
HETATM    1  O6  UNL     1      -1.301  -0.617  -1.193  1.00  0.00    -0.316 OA
ENDROOT
BRANCH   1   2
HETATM    2  C2  UNL     1      -2.319  -1.554  -1.416  1.00  0.00     0.259 C 
HETATM    3  N4  UNL     1      -1.926  -2.733  -1.870  1.00  0.00    -0.219 N 
ATOM      4  H4  UNL     1      -0.932  -2.897  -2.032  1.00  0.00     0.198 HD
BRANCH   3   5
HETATM    5  O2  UNL     1      -2.806  -3.726  -2.125  1.00  0.00    -0.194 OA
BRANCH   5   6
HETATM    6  C1  UNL     1      -2.392  -5.037  -2.293  1.00  0.00     0.281 C 
HETATM    7  N3  UNL     1      -1.132  -5.296  -2.272  1.00  0.00    -0.230 N 
ATOM      8  H3  UNL     1      -0.808  -6.256  -2.393  1.00  0.00     0.198 HD
BRANCH   6   9
HETATM    9  N2  UNL     1      -3.399  -6.020  -2.479  1.00  0.00    -0.269 N 
HETATM   10  N1  UNL     1      -4.217  -6.233  -1.522  1.00  0.00    -0.342 N 
ATOM     11  H12 UNL     1      -4.135  -5.703  -0.654  1.00  0.00     0.176 HD
ATOM     12  H11 UNL     1      -4.941  -6.939  -1.656  1.00  0.00     0.176 HD
ATOM     13  H2  UNL     1      -3.467  -6.542  -3.353  1.00  0.00     0.190 HD
ENDBRANCH   6   9
BRANCH   7  14
HETATM   14  O1  UNL     1      -0.223  -4.287  -2.088  1.00  0.00    -0.287 OA
ATOM     15  H1  UNL     1       0.707  -4.478  -2.072  1.00  0.00     0.244 HD
ENDBRANCH   7  14
ENDBRANCH   5   6
ENDBRANCH   3   5
BRANCH   2  16
HETATM   16  N5  UNL     1      -3.685  -1.399  -1.219  1.00  0.00    -0.261 N 
ATOM     17  H5  UNL     1      -4.296  -1.479  -2.032  1.00  0.00     0.190 HD
BRANCH  16  18
HETATM   18  N6  UNL     1      -4.265  -1.146  -0.003  1.00  0.00    -0.266 N 
HETATM   19  C3  UNL     1      -5.353  -0.198   0.082  1.00  0.00     0.253 C 
HETATM   20  O3  UNL     1      -5.672   0.335  -1.042  1.00  0.00    -0.270 OA
ATOM     21  H6  UNL     1      -3.932  -1.623   0.835  1.00  0.00     0.190 HD
BRANCH  19  22
HETATM   22  C4  UNL     1      -6.054   0.148   1.319  1.00  0.00     0.223 C 
BRANCH  22  23
HETATM   23  N7  UNL     1      -7.078   1.117   1.039  1.00  0.00    -0.393 N 
HETATM   24  C5  UNL     1      -8.313   0.877   1.210  1.00  0.00     0.066 C 
ATOM     25  H7  UNL     1      -6.801   2.034   0.689  1.00  0.00     0.159 HD
BRANCH  24  26
HETATM   26  C6  UNL     1      -9.374   1.873   0.923  1.00  0.00     0.157 C 
BRANCH  26  27
HETATM   27  C7  UNL     1     -10.352   1.851   2.031  1.00  0.00     0.177 C 
HETATM   28  O4  UNL     1     -10.215   1.014   2.950  1.00  0.00    -0.648 OA
HETATM   29  O5  UNL     1     -11.394   2.735   2.051  1.00  0.00    -0.648 OA
ENDBRANCH  26  27
ENDBRANCH  24  26
ENDBRANCH  22  23
ENDBRANCH  19  22
ENDBRANCH  16  18
ENDBRANCH   2  16
ENDBRANCH   1   2
BRANCH   1  30
HETATM   30  C8  UNL     1      -0.390  -0.367  -2.212  1.00  0.00     0.206 C 
BRANCH  30  31
HETATM   31  C9  UNL     1       0.709   0.577  -1.853  1.00  0.00    -0.003 C 
HETATM   32  C10 UNL     1       1.947   0.130  -1.935  1.00  0.00    -0.008 C 
BRANCH  32  33
HETATM   33  C11 UNL     1       3.174   0.905  -1.623  1.00  0.00     0.170 C 
BRANCH  33  34
HETATM   34  N8  UNL     1       3.899   0.221  -0.580  1.00  0.00    -0.313 N 
BRANCH  34  35
HETATM   35  C12 UNL     1       4.474  -1.074  -0.900  1.00  0.00     0.169 C 
BRANCH  35  36
HETATM   36  C13 UNL     1       5.610  -0.981  -1.902  1.00  0.00     0.185 C 
BRANCH  36  37
HETATM   37  O7  UNL     1       6.050  -2.289  -2.102  1.00  0.00    -0.399 OA
ATOM     38  H7  UNL     1       6.761  -2.231  -2.729  1.00  0.00     0.209 HD
ENDBRANCH  36  37
ENDBRANCH  35  36
ENDBRANCH  34  35
BRANCH  34  39
HETATM   39  N9  UNL     1       4.092   0.737   0.705  1.00  0.00    -0.235 N 
HETATM   40  C14 UNL     1       3.322   0.629   1.798  1.00  0.00     0.209 A 
HETATM   41  N10 UNL     1       3.894   1.266   2.853  1.00  0.00    -0.345 N 
HETATM   42  C15 UNL     1       5.058   1.801   2.450  1.00  0.00     0.126 A 
ATOM     43  H10 UNL     1       3.505   1.328   3.794  1.00  0.00     0.167 HD
HETATM   44  C16 UNL     1       5.172   1.470   1.121  1.00  0.00     0.159 A 
HETATM   45  C19 UNL     1       6.025   2.539   3.116  1.00  0.00     0.174 A 
HETATM   46  N11 UNL     1       6.262   1.885   0.465  1.00  0.00    -0.334 N 
HETATM   47  C17 UNL     1       7.218   2.613   1.117  1.00  0.00     0.211 A 
ATOM     48  H11 UNL     1       6.380   1.658  -0.522  1.00  0.00     0.168 HD
HETATM   49  N12 UNL     1       7.105   2.935   2.418  1.00  0.00    -0.218 N 
HETATM   50  N13 UNL     1       7.913   3.623   3.226  1.00  0.00    -0.123 N 
HETATM   51  C18 UNL     1       7.363   3.678   4.455  1.00  0.00     0.692 A 
ATOM     52  H13 UNL     1       8.804   4.040   2.957  1.00  0.00     0.206 HD
HETATM   53  N15 UNL     1       6.197   3.002   4.363  1.00  0.00    -0.171 N 
ATOM     54  H15 UNL     1       5.541   2.864   5.132  1.00  0.00     0.186 HD
BRANCH  51  55
HETATM   55  N14 UNL     1       7.892   4.272   5.470  1.00  0.00    -0.233 N 
ATOM     56 2H14 UNL     1       8.772   4.782   5.539  1.00  0.00     0.174 HD
ATOM     57 1H14 UNL     1       7.476   4.314   6.400  1.00  0.00     0.174 HD
ENDBRANCH  51  55
ENDBRANCH  34  39
ENDBRANCH  33  34
ENDBRANCH  32  33
ENDBRANCH  30  31
ENDBRANCH   1  30
TORSDOF 20
