REMARK  7 active torsions:
REMARK  status: ('A' for Active; 'I' for Inactive)
REMARK    1  A    between atoms: C1_2  and  C2_4 
REMARK    2  A    between atoms: N2_7  and  C5_8 
REMARK    3  A    between atoms: C5_8  and  C6_9 
REMARK    4  A    between atoms: C9_12  and  C10_13 
REMARK    5  A    between atoms: C10_13  and  C11_14 
REMARK    6  A    between atoms: C11_14  and  N3_15 
REMARK    7  A    between atoms: N3_15  and  C12_17 
ROOT
HETATM    1  C6  UNL     1      -1.831   0.385  -0.696  1.00  0.00     0.014 C 
HETATM    2  C7  UNL     1      -0.870  -0.626  -1.286  1.00  0.00     0.007 C 
HETATM    3  C8  UNL     1       0.177  -1.033  -0.292  1.00  0.00     0.005 C 
HETATM    4  C9  UNL     1       1.084   0.130   0.062  1.00  0.00    -0.013 C 
HETATM    5  C19 UNL     1       0.349   1.442   0.017  1.00  0.00     0.005 C 
HETATM    6  C20 UNL     1      -1.124   1.348   0.229  1.00  0.00     0.007 C 
ENDROOT
BRANCH   4   7
HETATM    7  C10 UNL     1       2.128   0.199  -1.058  1.00  0.00     0.024 C 
BRANCH   7   8
HETATM    8  C11 UNL     1       3.073   1.330  -0.762  1.00  0.00     0.122 C 
BRANCH   8   9
HETATM    9  N3  UNL     1       3.726   1.036   0.516  1.00  0.00    -0.370 N 
ATOM     10  H3  UNL     1       3.231   1.060   1.407  1.00  0.00     0.161 HD
BRANCH   9  11
HETATM   11  C12 UNL     1       5.002   0.739   0.420  1.00  0.00     0.145 A 
HETATM   12  N4  UNL     1       5.846   0.430   1.404  1.00  0.00    -0.336 N 
HETATM   13  C13 UNL     1       7.090   0.162   1.112  1.00  0.00     0.054 A 
ATOM     14  H4  UNL     1       5.525   0.403   2.372  1.00  0.00     0.168 HD
HETATM   15  C14 UNL     1       8.119  -0.186   2.016  1.00  0.00     0.073 A 
HETATM   16  C18 UNL     1       7.459   0.214  -0.210  1.00  0.00     0.035 A 
HETATM   17  C15 UNL     1       9.383  -0.442   1.549  1.00  0.00     0.118 A 
HETATM   18  F1  UNL     1      10.361  -0.781   2.452  1.00  0.00    -0.206 F 
HETATM   19  C16 UNL     1       9.764  -0.392   0.229  1.00  0.00     0.044 A 
HETATM   20  C17 UNL     1       8.765  -0.054  -0.657  1.00  0.00     0.024 A 
HETATM   21  S1  UNL     1       5.987   0.650  -0.968  1.00  0.00    -0.052 SA
ENDBRANCH   9  11
ENDBRANCH   8   9
ENDBRANCH   7   8
ENDBRANCH   4   7
BRANCH   1  22
HETATM   22  C5  UNL     1      -2.795  -0.402   0.184  1.00  0.00     0.277 C 
BRANCH  22  23
HETATM   23  N2  UNL     1      -3.741   0.494   0.771  1.00  0.00     0.088 N 
HETATM   24  C4  UNL     1      -4.658   1.050  -0.207  1.00  0.00     0.273 C 
HETATM   25  C3  UNL     1      -5.455  -0.067  -0.891  1.00  0.00     0.044 C 
HETATM   26  C2  UNL     1      -5.972  -0.966   0.197  1.00  0.00     0.078 C 
HETATM   27  C22 UNL     1      -5.890  -0.372   1.570  1.00  0.00     0.044 C 
HETATM   28  C21 UNL     1      -4.441  -0.039   1.909  1.00  0.00     0.273 C 
BRANCH  26  29
HETATM   29  C1  UNL     1      -7.387  -1.304  -0.108  1.00  0.00     0.235 C 
HETATM   30  N1  UNL     1      -7.623  -2.029  -1.305  1.00  0.00    -0.062 NA
HETATM   31  O1  UNL     1      -8.305  -0.946   0.686  1.00  0.00    -0.277 OA
ENDBRANCH  26  29
ENDBRANCH  22  23
ENDBRANCH   1  22
TORSDOF 7
