REMARK  4 active torsions:
REMARK  status: ('A' for Active; 'I' for Inactive)
REMARK    1  A    between atoms: N1_2  and  C3_4 
REMARK    2  A    between atoms: C3_4  and  C4_5 
REMARK    3  A    between atoms: C4_5  and  N2_6 
REMARK    4  A    between atoms: C6_9  and  C7_10 
ROOT
HETATM    1  N2  UNL     1      -0.113  -0.120   0.186  1.00  0.00    -0.312 N 
HETATM    2  C5  UNL     1      -1.116   0.755  -0.362  1.00  0.00     0.237 C 
HETATM    3  O1  UNL     1      -0.597   1.857  -0.763  1.00  0.00    -0.272 OA
HETATM    4  C6  UNL     1      -2.551   0.728  -0.583  1.00  0.00     0.170 C 
HETATM    5  C9  UNL     1      -3.255  -0.524  -0.362  1.00  0.00     0.235 C 
HETATM    6  O2  UNL     1      -4.497  -0.422  -0.059  1.00  0.00    -0.272 OA
HETATM    7  N3  UNL     1      -2.747  -1.840  -0.439  1.00  0.00    -0.324 N 
ATOM      8  H3  UNL     1      -3.363  -2.542  -0.849  1.00  0.00     0.169 HD
HETATM    9  C10 UNL     1      -1.475  -2.290  -0.009  1.00  0.00     0.068 A 
HETATM   10  C11 UNL     1      -1.431  -3.659   0.142  1.00  0.00     0.106 A 
HETATM   11  C12 UNL     1      -0.281  -4.299   0.564  1.00  0.00     0.247 A 
HETATM   12  O3  UNL     1      -0.185  -5.549   0.718  1.00  0.00    -0.268 OA
HETATM   13  N4  UNL     1       0.796  -3.514   0.821  1.00  0.00    -0.331 N 
ATOM     14  H4  UNL     1       1.654  -3.969   1.133  1.00  0.00     0.168 HD
HETATM   15  C13 UNL     1       0.805  -2.192   0.692  1.00  0.00     0.123 A 
HETATM   16  C14 UNL     1      -0.321  -1.533   0.274  1.00  0.00     0.080 A 
ENDROOT
BRANCH   1  17
HETATM   17  C4  UNL     1       1.109   0.453   0.647  1.00  0.00     0.152 C 
BRANCH  17  18
HETATM   18  C3  UNL     1       2.213   0.576  -0.354  1.00  0.00     0.141 C 
BRANCH  18  19
HETATM   19  N1  UNL     1       3.401   1.165   0.194  1.00  0.00    -0.402 N 
HETATM   20  C1  UNL     1       3.490   1.685   1.332  1.00  0.00     0.114 C 
HETATM   21  C2  UNL     1       4.598   1.184  -0.634  1.00  0.00     0.148 C 
ENDBRANCH  18  19
ENDBRANCH  17  18
ENDBRANCH   1  17
BRANCH   4  22
HETATM   22  C7  UNL     1      -3.202   1.775   0.336  1.00  0.00     0.019 C 
HETATM   23  C8  UNL     1      -2.707   3.163   0.066  1.00  0.00     0.006 C 
ENDBRANCH   4  22
TORSDOF 4
