REMARK  4 active torsions:
REMARK  status: ('A' for Active; 'I' for Inactive)
REMARK    1  A    between atoms: C3_3  and  C4_4 
REMARK    2  A    between atoms: C4_4  and  N1_5 
REMARK    3  A    between atoms: N1_5  and  S1_7 
REMARK    4  A    between atoms: S1_7  and  C5_10 
ROOT
HETATM    1  N1  UNL     1       1.479  -1.605   0.763  1.00  0.00    -0.310 N 
ATOM      2  H1  UNL     1       0.852  -2.404   0.673  1.00  0.00     0.172 HD
ENDROOT
BRANCH   1   3
HETATM    3  C4  UNL     1       1.057  -0.223   0.648  1.00  0.00     0.171 C 
BRANCH   3   4
HETATM    4  C3  UNL     1      -0.400  -0.118   0.383  1.00  0.00    -0.030 A 
HETATM    5  C2  UNL     1      -0.972   1.128   0.245  1.00  0.00    -0.032 A 
HETATM    6  C1  UNL     1      -0.157   2.341   0.356  1.00  0.00     0.050 C 
HETATM    7  C12 UNL     1      -2.326   1.290  -0.004  1.00  0.00     0.014 A 
HETATM    8  N4  UNL     1      -3.134   0.224  -0.118  1.00  0.00    -0.358 N 
HETATM    9  C13 UNL     1      -2.913   2.640  -0.147  1.00  0.00     0.069 C 
HETATM   10  C9  UNL     1      -2.592  -1.020   0.015  1.00  0.00     0.008 A 
HETATM   11  C11 UNL     1      -4.538   0.308  -0.373  1.00  0.00     0.156 C 
HETATM   12  C8  UNL     1      -1.244  -1.202   0.262  1.00  0.00     0.034 A 
HETATM   13  C10 UNL     1      -3.452  -2.224  -0.105  1.00  0.00     0.068 C 
ENDBRANCH   3   4
ENDBRANCH   1   3
BRANCH   1  14
HETATM   14  S1  UNL     1       3.161  -1.733   1.069  1.00  0.00     0.276 S 
HETATM   15  O1  UNL     1       3.480  -1.048   2.361  1.00  0.00    -0.199 OA
HETATM   16  O2  UNL     1       3.525  -3.178   1.212  1.00  0.00    -0.199 OA
BRANCH  14  17
HETATM   17  C5  UNL     1       4.125  -1.059  -0.213  1.00  0.00     0.165 A 
HETATM   18  C6  UNL     1       5.011  -0.020  -0.050  1.00  0.00     0.132 A 
HETATM   19  N2  UNL     1       5.579   0.240  -1.245  1.00  0.00    -0.359 N 
HETATM   20  C7  UNL     1       5.058  -0.621  -2.144  1.00  0.00     0.181 A 
ATOM     21  H2  UNL     1       6.277   0.959  -1.435  1.00  0.00     0.166 HD
HETATM   22  N3  UNL     1       4.168  -1.415  -1.509  1.00  0.00    -0.341 N 
ATOM     23  H3  UNL     1       3.621  -2.160  -1.940  1.00  0.00     0.167 HD
ENDBRANCH  14  17
ENDBRANCH   1  14
TORSDOF 4
