REMARK  4 active torsions:
REMARK  status: ('A' for Active; 'I' for Inactive)
REMARK    1  A    between atoms: N1_2  and  C2_5 
REMARK    2  A    between atoms: C2_5  and  C3_6 
REMARK    3  A    between atoms: C3_6  and  C4_7 
REMARK    4  A    between atoms: C4_7  and  N2_8 
ROOT
HETATM    1  N2  UNL     1       1.031   1.071  -0.026  1.00  0.00    -0.351 N 
HETATM    2  C5  UNL     1       0.334   1.927  -0.950  1.00  0.00     0.127 C 
HETATM    3  C6  UNL     1      -1.121   1.859  -0.623  1.00  0.00     0.048 C 
HETATM    4  C7  UNL     1      -1.236   0.787   0.447  1.00  0.00     0.113 C 
HETATM    5  C8  UNL     1      -2.157   1.375   1.525  1.00  0.00     0.130 C 
HETATM    6  C9  UNL     1      -3.482   1.520   0.880  1.00  0.00     0.220 C 
HETATM    7  O1  UNL     1      -4.254   2.440   1.236  1.00  0.00    -0.274 OA
HETATM    8  N3  UNL     1      -3.919   0.641  -0.143  1.00  0.00    -0.345 N 
ATOM      9  H3  UNL     1      -4.661   0.912  -0.789  1.00  0.00     0.163 HD
HETATM   10  C10 UNL     1      -3.277  -0.655  -0.241  1.00  0.00     0.087 C 
HETATM   11  C11 UNL     1      -3.632  -1.270  -1.576  1.00  0.00     0.046 C 
HETATM   12  C12 UNL     1      -3.856  -1.553   0.833  1.00  0.00     0.046 C 
HETATM   13  C13 UNL     1      -1.820  -0.459  -0.075  1.00  0.00     0.172 C 
HETATM   14  O2  UNL     1      -1.072  -1.371  -0.385  1.00  0.00    -0.294 OA
HETATM   15  C14 UNL     1       0.126   0.629   0.962  1.00  0.00     0.236 C 
HETATM   16  O3  UNL     1       0.393   0.168   2.111  1.00  0.00    -0.272 OA
ENDROOT
BRANCH   1  17
HETATM   17  C4  UNL     1       2.422   0.728  -0.103  1.00  0.00     0.127 C 
BRANCH  17  18
HETATM   18  C3  UNL     1       2.614  -0.526  -0.932  1.00  0.00     0.047 C 
BRANCH  18  19
HETATM   19  C2  UNL     1       4.090  -0.858  -0.992  1.00  0.00     0.233 C 
BRANCH  19  20
HETATM   20  N1  UNL     1       4.600  -1.080   0.349  1.00  0.00    -0.079 N 
HETATM   21  C1  UNL     1       5.994  -1.399   0.364  1.00  0.00     0.266 C 
ATOM     22  H12 UNL     1       4.056  -1.794   0.834  1.00  0.00     0.276 HD
ATOM     23  H11 UNL     1       4.401  -0.282   0.953  1.00  0.00     0.276 HD
ENDBRANCH  19  20
ENDBRANCH  18  19
ENDBRANCH  17  18
ENDBRANCH   1  17
TORSDOF 4
