REMARK  6 active torsions:
REMARK  status: ('A' for Active; 'I' for Inactive)
REMARK    1  A    between atoms: C2_2  and  N1_3 
REMARK    2  A    between atoms: N2_6  and  C4_7 
REMARK    3  A    between atoms: C4_7  and  N3_9 
REMARK    4  A    between atoms: C6_12  and  C8_14 
REMARK    5  A    between atoms: C8_14  and  C9_15 
REMARK    6  A    between atoms: C9_15  and  C10_16 
ROOT
HETATM    1  N1  UNL     1       2.306   0.181   0.235  1.00  0.00    -0.268 N 
HETATM    2  C3  UNL     1       1.757   1.223  -0.549  1.00  0.00     0.334 C 
HETATM    3  O1  UNL     1       2.415   1.906  -1.373  1.00  0.00    -0.246 OA
HETATM    4  N2  UNL     1       0.352   1.381  -0.266  1.00  0.00    -0.257 N 
HETATM    5  C6  UNL     1      -0.060   0.272   0.565  1.00  0.00     0.122 C 
HETATM    6  C7  UNL     1      -0.760   0.690   1.824  1.00  0.00     0.049 C 
HETATM    7  C11 UNL     1       1.256  -0.320   1.012  1.00  0.00     0.256 C 
HETATM    8  O3  UNL     1       1.366  -1.141   1.949  1.00  0.00    -0.270 OA
ENDROOT
BRANCH   5   9
HETATM    9  C8  UNL     1      -0.838  -0.754  -0.233  1.00  0.00     0.050 C 
BRANCH   9  10
HETATM   10  C9  UNL     1      -1.280  -1.912   0.600  1.00  0.00     0.102 C 
BRANCH  10  11
HETATM   11  C10 UNL     1      -2.034  -2.848  -0.292  1.00  0.00     0.231 C 
HETATM   12  N4  UNL     1      -2.593  -4.063   0.204  1.00  0.00    -0.062 NA
HETATM   13  O2  UNL     1      -2.207  -2.608  -1.513  1.00  0.00    -0.277 OA
ENDBRANCH  10  11
ENDBRANCH   9  10
ENDBRANCH   5   9
BRANCH   4  14
HETATM   14  C4  UNL     1      -0.406   2.467  -0.761  1.00  0.00     0.178 C 
HETATM   15  S1  UNL     1       0.284   3.630  -1.696  1.00  0.00    -0.041 SA
BRANCH  14  16
HETATM   16  N3  UNL     1      -1.788   2.606  -0.482  1.00  0.00    -0.371 N 
HETATM   17  C5  UNL     1      -2.566   3.729  -0.994  1.00  0.00     0.148 C 
ATOM     18  H3  UNL     1      -2.252   1.902   0.092  1.00  0.00     0.161 HD
ENDBRANCH  14  16
ENDBRANCH   4  14
BRANCH   1  19
HETATM   19  C2  UNL     1       3.707  -0.242   0.195  1.00  0.00     0.132 C 
HETATM   20  C1  UNL     1       3.939  -1.317  -0.819  1.00  0.00     0.027 C 
ENDBRANCH   1  19
TORSDOF 6
