REMARK  13 active torsions:
REMARK  status: ('A' for Active; 'I' for Inactive)
REMARK    1  A    between atoms: C2_2  and  C4_4 
REMARK    2  A    between atoms: C4_4  and  C5_5 
REMARK    3  A    between atoms: C7_10  and  C8_11 
REMARK    4  A    between atoms: C8_11  and  C9_12 
REMARK    5  A    between atoms: C9_12  and  N2_13 
REMARK    6  A    between atoms: C16_24  and  O2_25 
REMARK    7  A    between atoms: C17_27  and  C18_28 
REMARK    8  A    between atoms: C21_33  and  C22_34 
REMARK    9  A    between atoms: C22_34  and  C23_35 
REMARK   10  A    between atoms: C23_35  and  C25_37 
REMARK   11  A    between atoms: C25_37  and  N7_38 
REMARK   12  A    between atoms: N7_38  and  C28_41 
REMARK   13  A    between atoms: C28_41  and  C29_42 
ROOT
HETATM    1  C5  UNL     1       0.835   2.284  -0.146  1.00  0.00     0.177 C 
HETATM    2  N1  UNL     1       2.073   2.211   0.607  1.00  0.00    -0.344 N 
ATOM      3  H1  UNL     1       2.090   2.677   1.514  1.00  0.00     0.163 HD
HETATM    4  C6  UNL     1       3.257   1.555   0.201  1.00  0.00     0.248 C 
HETATM    5  O1  UNL     1       4.324   2.269   0.282  1.00  0.00    -0.268 OA
HETATM    6  C7  UNL     1       3.421   0.210  -0.283  1.00  0.00     0.009 C 
HETATM    7  C11 UNL     1       2.974  -0.888   0.337  1.00  0.00     0.011 C 
HETATM    8  C12 UNL     1       2.239  -0.874   1.630  1.00  0.00     0.109 C 
HETATM    9  C13 UNL     1       3.285  -0.959   2.772  1.00  0.00     0.031 C 
HETATM   10  C14 UNL     1       3.831  -2.341   2.487  1.00  0.00     0.022 C 
HETATM   11  C15 UNL     1       2.712  -3.125   1.839  1.00  0.00     0.125 C 
HETATM   12  N5  UNL     1       1.604  -2.153   1.826  1.00  0.00    -0.356 N 
HETATM   13  C16 UNL     1       0.223  -2.402   1.996  1.00  0.00     0.137 C 
HETATM   14  C17 UNL     1      -0.882  -2.062   1.086  1.00  0.00     0.156 C 
HETATM   15  N6  UNL     1      -0.798  -0.914   0.311  1.00  0.00    -0.390 N 
ATOM     16  H6  UNL     1      -0.105  -0.863  -0.436  1.00  0.00     0.156 HD
HETATM   17  C21 UNL     1      -1.660   0.192   0.540  1.00  0.00     0.180 C 
HETATM   18  N9  UNL     1      -1.047   1.270   1.316  1.00  0.00    -0.339 N 
ATOM     19  H9  UNL     1      -1.199   1.247   2.324  1.00  0.00     0.164 HD
HETATM   20  C30 UNL     1      -0.282   2.320   0.831  1.00  0.00     0.242 C 
HETATM   21  O4  UNL     1      -0.551   3.499   1.268  1.00  0.00    -0.271 OA
ENDROOT
BRANCH  17  22
HETATM   22  C22 UNL     1      -2.377   0.728  -0.669  1.00  0.00     0.052 C 
BRANCH  22  23
HETATM   23  C23 UNL     1      -3.315  -0.211  -1.362  1.00  0.00     0.011 C 
HETATM   24  C24 UNL     1      -3.839   0.554  -2.568  1.00  0.00     0.012 C 
BRANCH  23  25
HETATM   25  C25 UNL     1      -4.332  -0.868  -0.570  1.00  0.00     0.246 C 
BRANCH  25  26
HETATM   26  N7  UNL     1      -5.386  -0.233   0.138  1.00  0.00    -0.050 N 
HETATM   27  C26 UNL     1      -5.220   1.143   0.472  1.00  0.00     0.278 C 
HETATM   28  C27 UNL     1      -6.678  -0.459  -0.540  1.00  0.00     0.278 C 
BRANCH  26  29
HETATM   29  C28 UNL     1      -5.530  -0.971   1.372  1.00  0.00     0.272 C 
BRANCH  29  30
HETATM   30  C29 UNL     1      -6.721  -0.803   2.160  1.00  0.00     0.278 C 
HETATM   31  N8  UNL     1      -7.856  -0.007   1.962  1.00  0.00    -0.057 NA
HETATM   32  O3  UNL     1      -6.770  -1.506   3.249  1.00  0.00    -0.270 OA
ENDBRANCH  29  30
ENDBRANCH  26  29
ENDBRANCH  25  26
ENDBRANCH  23  25
ENDBRANCH  22  23
ENDBRANCH  17  22
BRANCH  14  33
HETATM   33  C18 UNL     1      -1.216  -3.287   0.223  1.00  0.00     0.008 C 
HETATM   34  C19 UNL     1      -0.002  -3.656  -0.561  1.00  0.00     0.012 C 
HETATM   35  C20 UNL     1      -1.632  -4.424   1.102  1.00  0.00     0.012 C 
ENDBRANCH  14  33
BRANCH  13  36
HETATM   36  O2  UNL     1      -0.148  -3.011   3.086  1.00  0.00    -0.348 OA
ATOM     37  H2  UNL     1      -1.076  -3.178   3.200  1.00  0.00     0.219 HD
ENDBRANCH  13  36
BRANCH   1  38
HETATM   38  C4  UNL     1       0.721   3.508  -0.989  1.00  0.00     0.038 C 
BRANCH  38  39
HETATM   39  C2  UNL     1       1.748   3.717  -2.030  1.00  0.00    -0.020 C 
HETATM   40  C1  UNL     1       1.413   5.036  -2.747  1.00  0.00     0.009 C 
HETATM   41  C3  UNL     1       1.546   2.656  -3.120  1.00  0.00     0.009 C 
ENDBRANCH  38  39
ENDBRANCH   1  38
BRANCH   6  42
HETATM   42  C8  UNL     1       4.169  -0.005  -1.575  1.00  0.00     0.063 C 
BRANCH  42  43
HETATM   43  C9  UNL     1       5.571   0.508  -1.557  1.00  0.00     0.126 C 
BRANCH  43  44
HETATM   44  N2  UNL     1       6.399  -0.096  -0.544  1.00  0.00    -0.367 N 
HETATM   45  C10 UNL     1       7.465   0.472  -0.155  1.00  0.00     0.196 C 
HETATM   46  N3  UNL     1       7.954   1.714  -0.642  1.00  0.00    -0.067 NA
HETATM   47  N4  UNL     1       8.243  -0.183   0.853  1.00  0.00    -0.067 NA
ATOM     48  H2  UNL     1       6.125  -0.990  -0.135  1.00  0.00     0.161 HD
ENDBRANCH  43  44
ENDBRANCH  42  43
ENDBRANCH   6  42
TORSDOF 13
