REMARK  13 active torsions:
REMARK  status: ('A' for Active; 'I' for Inactive)
REMARK    1  A    between atoms: C2_2  and  C3_3 
REMARK    2  A    between atoms: C3_3  and  C5_5 
REMARK    3  A    between atoms: C7_10  and  C8_11 
REMARK    4  A    between atoms: C8_11  and  C9_12 
REMARK    5  A    between atoms: C11_19  and  C12_20 
REMARK    6  A    between atoms: C12_20  and  C13_21 
REMARK    7  A    between atoms: C17_28  and  C18_29 
REMARK    8  A    between atoms: C18_29  and  C19_30 
REMARK    9  A    between atoms: C19_30  and  C20_31 
REMARK   10  A    between atoms: C20_31  and  N5_32 
REMARK   11  A    between atoms: C26_40  and  O5_41 
REMARK   12  A    between atoms: C27_43  and  C28_44 
REMARK   13  A    between atoms: C31_49  and  O6_50 
ROOT
HETATM    1  C5  UNL     1      -3.200  -1.114  -0.290  1.00  0.00     0.162 C 
HETATM    2  N1  UNL     1      -3.628   0.279  -0.111  1.00  0.00    -0.347 N 
ATOM      3  H1  UNL     1      -4.411   0.579  -0.692  1.00  0.00     0.163 HD
HETATM    4  C6  UNL     1      -3.107   1.245   0.747  1.00  0.00     0.241 C 
HETATM    5  O1  UNL     1      -3.507   2.444   0.465  1.00  0.00    -0.271 OA
HETATM    6  C7  UNL     1      -2.211   1.173   1.885  1.00  0.00     0.185 C 
HETATM    7  N3  UNL     1      -0.807   1.141   1.645  1.00  0.00    -0.346 N 
ATOM      8  H3  UNL     1      -0.373   0.236   1.826  1.00  0.00     0.163 HD
HETATM    9  C10 UNL     1       0.086   2.126   1.206  1.00  0.00     0.241 C 
HETATM   10  O3  UNL     1       1.096   2.366   1.909  1.00  0.00    -0.271 OA
HETATM   11  C11 UNL     1      -0.006   2.958  -0.038  1.00  0.00     0.177 C 
HETATM   12  N4  UNL     1       1.153   2.721  -0.878  1.00  0.00    -0.346 N 
ATOM     13  H4  UNL     1       1.920   3.380  -0.747  1.00  0.00     0.163 HD
HETATM   14  C16 UNL     1       1.382   1.740  -1.831  1.00  0.00     0.241 C 
HETATM   15  O4  UNL     1       1.645   2.053  -3.023  1.00  0.00    -0.271 OA
HETATM   16  C17 UNL     1       1.347   0.231  -1.561  1.00  0.00     0.175 C 
HETATM   17  N6  UNL     1       1.162  -0.461  -2.816  1.00  0.00    -0.359 N 
ATOM     18  H6  UNL     1       1.548   0.038  -3.618  1.00  0.00     0.162 HD
HETATM   19  C26 UNL     1       0.571  -1.655  -3.145  1.00  0.00     0.135 C 
HETATM   20  C27 UNL     1      -0.705  -2.324  -2.695  1.00  0.00     0.161 C 
HETATM   21  N7  UNL     1      -1.738  -1.382  -2.452  1.00  0.00    -0.360 N 
ATOM     22  H7  UNL     1      -1.558  -0.512  -2.953  1.00  0.00     0.162 HD
HETATM   23  C31 UNL     1      -2.925  -1.298  -1.730  1.00  0.00     0.135 C 
ENDROOT
BRANCH  16  24
HETATM   24  C18 UNL     1       2.766  -0.151  -1.091  1.00  0.00     0.036 C 
BRANCH  24  25
HETATM   25  C19 UNL     1       2.943  -1.577  -0.746  1.00  0.00     0.030 C 
BRANCH  25  26
HETATM   26  C20 UNL     1       4.334  -1.897  -0.314  1.00  0.00     0.237 C 
BRANCH  26  27
HETATM   27  N5  UNL     1       4.873  -1.225   0.800  1.00  0.00    -0.071 N 
HETATM   28  C21 UNL     1       3.893  -0.880   1.804  1.00  0.00     0.272 C 
HETATM   29  C22 UNL     1       5.616  -0.029   0.484  1.00  0.00     0.237 C 
HETATM   30  C23 UNL     1       7.084  -0.329   0.653  1.00  0.00     0.029 C 
HETATM   31  C24 UNL     1       7.037  -1.309   1.813  1.00  0.00     0.029 C 
HETATM   32  C25 UNL     1       5.840  -2.141   1.434  1.00  0.00     0.237 C 
ENDBRANCH  26  27
ENDBRANCH  25  26
ENDBRANCH  24  25
ENDBRANCH  16  24
BRANCH  19  33
HETATM   33  O5  UNL     1       1.212  -2.380  -4.019  1.00  0.00    -0.348 OA
ATOM     34  H5  UNL     1       0.803  -3.207  -4.247  1.00  0.00     0.219 HD
ENDBRANCH  19  33
BRANCH  11  35
HETATM   35  C12 UNL     1      -0.007   4.413   0.375  1.00  0.00     0.038 C 
BRANCH  35  36
HETATM   36  C13 UNL     1      -0.126   5.410  -0.714  1.00  0.00    -0.020 C 
HETATM   37  C14 UNL     1      -1.394   5.253  -1.537  1.00  0.00     0.009 C 
HETATM   38  C15 UNL     1       1.022   5.586  -1.638  1.00  0.00     0.009 C 
ENDBRANCH  35  36
ENDBRANCH  11  35
BRANCH  20  39
HETATM   39  C28 UNL     1      -0.408  -3.393  -1.716  1.00  0.00     0.008 C 
HETATM   40  C29 UNL     1      -1.632  -4.138  -1.299  1.00  0.00     0.012 C 
HETATM   41  C30 UNL     1       0.504  -4.409  -2.398  1.00  0.00     0.012 C 
ENDBRANCH  20  39
BRANCH  23  42
HETATM   42  O6  UNL     1      -4.024  -1.387  -2.420  1.00  0.00    -0.348 OA
ATOM     43  H6  UNL     1      -3.847  -1.505  -3.346  1.00  0.00     0.219 HD
ENDBRANCH  23  42
BRANCH   6  44
HETATM   44  C8  UNL     1      -2.489   2.313   2.891  1.00  0.00     0.134 C 
BRANCH  44  45
HETATM   45  C9  UNL     1      -3.831   2.283   3.459  1.00  0.00     0.233 C 
HETATM   46  N2  UNL     1      -4.131   1.623   4.709  1.00  0.00    -0.062 NA
HETATM   47  O2  UNL     1      -4.814   2.824   2.908  1.00  0.00    -0.277 OA
ENDBRANCH  44  45
ENDBRANCH   6  44
BRANCH   1  48
HETATM   48  C3  UNL     1      -4.350  -1.955   0.190  1.00  0.00     0.012 C 
HETATM   49  C4  UNL     1      -5.630  -1.867  -0.538  1.00  0.00     0.012 C 
BRANCH  48  50
HETATM   50  C2  UNL     1      -4.655  -1.669   1.669  1.00  0.00     0.002 C 
HETATM   51  C1  UNL     1      -5.632  -2.691   2.172  1.00  0.00     0.005 C 
ENDBRANCH  48  50
ENDBRANCH   1  48
TORSDOF 13
