REMARK  12 active torsions:
REMARK  status: ('A' for Active; 'I' for Inactive)
REMARK    1  A    between atoms: C3_3  and  N1_4 
REMARK       I    between atoms: N1_4  and  C4_6 
REMARK       I    between atoms: C4_6  and  N3_10 
REMARK    2  A    between atoms: N4_18  and  C13_20 
REMARK    3  A    between atoms: C13_20  and  C14_21 
REMARK    4  A    between atoms: C17_26  and  C18_27 
REMARK    5  A    between atoms: C18_27  and  C19_28 
REMARK    6  A    between atoms: C21_35  and  C22_36 
REMARK    7  A    between atoms: C22_36  and  C23_37 
REMARK    8  A    between atoms: C23_37  and  C24_38 
REMARK    9  A    between atoms: C24_38  and  C25_39 
REMARK   10  A    between atoms: C25_39  and  C26_40 
REMARK   11  A    between atoms: C26_40  and  C27_41 
REMARK   12  A    between atoms: C27_41  and  C28_42 
ROOT
HETATM    1  C1  UNL     1      -4.212   7.894  -2.502  1.00  0.00     0.014 C 
HETATM    2  C2  UNL     1      -3.684   6.806  -2.447  1.00  0.00    -0.097 C 
HETATM    3  C3  UNL     1      -3.034   5.497  -2.380  1.00  0.00     0.231 C 
ENDROOT
BRANCH   3   4
HETATM    4  N1  UNL     1      -4.006   4.439  -2.563  1.00  0.00    -0.216 N 
HETATM    5  C4  UNL     1      -3.675   3.068  -2.545  1.00  0.00     0.670 C 
HETATM    6  N2  UNL     1      -3.785   2.424  -3.666  1.00  0.00    -0.235 N 
HETATM    7  N3  UNL     1      -3.241   2.369  -1.395  1.00  0.00    -0.217 N 
ATOM      8  H22 UNL     1      -4.098   2.928  -4.496  1.00  0.00     0.174 HD
ATOM      9  H21 UNL     1      -3.546   1.433  -3.653  1.00  0.00     0.174 HD
HETATM   10  C5  UNL     1      -3.679   2.804  -0.100  1.00  0.00     0.141 C 
HETATM   11  C31 UNL     1      -2.367   1.235  -1.580  1.00  0.00     0.161 C 
HETATM   12  C6  UNL     1      -4.967   2.176   0.367  1.00  0.00     0.020 C 
HETATM   13  C7  UNL     1      -5.026   2.072   1.851  1.00  0.00     0.002 C 
HETATM   14  C8  UNL     1      -3.901   1.321   2.497  1.00  0.00     0.000 C 
HETATM   15  C9  UNL     1      -3.883  -0.062   1.952  1.00  0.00     0.002 C 
HETATM   16  C10 UNL     1      -2.687  -0.900   2.373  1.00  0.00     0.028 C 
HETATM   17  C11 UNL     1      -1.458  -0.691   1.567  1.00  0.00     0.241 C 
HETATM   18  N4  UNL     1      -1.169  -1.612   0.498  1.00  0.00    -0.033 N 
HETATM   19  C12 UNL     1      -0.162  -2.512   1.089  1.00  0.00     0.277 C 
HETATM   20  C16 UNL     1      -0.583  -0.953  -0.684  1.00  0.00     0.394 C 
HETATM   21  N5  UNL     1       0.431  -1.788  -1.227  1.00  0.00    -0.366 N 
HETATM   22  N9  UNL     1      -0.212   0.407  -0.588  1.00  0.00    -0.301 N 
HETATM   23  C17 UNL     1       1.062  -1.328  -2.442  1.00  0.00     0.181 C 
ATOM     24  H5  UNL     1       0.699  -2.666  -0.782  1.00  0.00     0.157 HD
HETATM   25  C20 UNL     1       2.395  -0.765  -2.049  1.00  0.00     0.245 C 
HETATM   26  O2  UNL     1       3.270  -1.137  -2.875  1.00  0.00    -0.271 OA
HETATM   27  N7  UNL     1       2.963   0.055  -1.036  1.00  0.00    -0.324 N 
HETATM   28  C21 UNL     1       2.443   1.037  -0.129  1.00  0.00     0.080 C 
ATOM     29  H7  UNL     1       3.967  -0.087  -0.930  1.00  0.00     0.169 HD
HETATM   30  C29 UNL     1       0.960   1.113  -0.139  1.00  0.00     0.269 C 
HETATM   31  O4  UNL     1       0.604   2.168   0.452  1.00  0.00    -0.266 OA
HETATM   32  C30 UNL     1      -1.053   1.539  -1.021  1.00  0.00     0.150 C 
ATOM     33  H1  UNL     1      -4.981   4.699  -2.713  1.00  0.00     0.178 HD
BRANCH  18  34
HETATM   34  C13 UNL     1      -2.243  -2.411   0.041  1.00  0.00     0.241 C 
BRANCH  34  35
HETATM   35  C14 UNL     1      -2.175  -3.876  -0.046  1.00  0.00     0.024 C 
HETATM   36  C15 UNL     1      -2.015  -4.657   1.226  1.00  0.00     0.007 C 
ENDBRANCH  34  35
ENDBRANCH  18  34
BRANCH  23  37
HETATM   37  C18 UNL     1       1.376  -2.546  -3.283  1.00  0.00     0.134 C 
BRANCH  37  38
HETATM   38  C19 UNL     1       0.222  -3.351  -3.678  1.00  0.00     0.233 C 
HETATM   39  N6  UNL     1       0.406  -4.539  -4.420  1.00  0.00    -0.062 NA
HETATM   40  O1  UNL     1      -0.934  -3.008  -3.371  1.00  0.00    -0.277 OA
ENDBRANCH  37  38
ENDBRANCH  23  37
BRANCH  28  41
HETATM   41  C22 UNL     1       3.062   1.135   1.210  1.00  0.00     0.063 C 
BRANCH  41  42
HETATM   42  C23 UNL     1       3.069   0.005   2.127  1.00  0.00     0.006 C 
BRANCH  42  43
HETATM   43  C24 UNL     1       3.738  -1.254   1.813  1.00  0.00     0.000 C 
BRANCH  43  44
HETATM   44  C25 UNL     1       5.222  -1.234   1.601  1.00  0.00     0.000 C 
BRANCH  44  45
HETATM   45  C26 UNL     1       5.970  -0.745   2.817  1.00  0.00     0.009 C 
BRANCH  45  46
HETATM   46  C27 UNL     1       7.462  -0.715   2.628  1.00  0.00     0.099 C 
BRANCH  46  47
HETATM   47  C28 UNL     1       7.939   0.164   1.560  1.00  0.00     0.231 C 
HETATM   48  N8  UNL     1       9.304   0.168   1.202  1.00  0.00    -0.062 NA
HETATM   49  O3  UNL     1       7.191   0.945   0.918  1.00  0.00    -0.277 OA
ENDBRANCH  46  47
ENDBRANCH  45  46
ENDBRANCH  44  45
ENDBRANCH  43  44
ENDBRANCH  42  43
ENDBRANCH  41  42
ENDBRANCH  28  41
ENDBRANCH   3   4
TORSDOF 12
