REMARK  15 active torsions:
REMARK  status: ('A' for Active; 'I' for Inactive)
REMARK    1  A    between atoms: N1_2  and  C3_4 
REMARK    2  A    between atoms: C3_4  and  O1_5 
REMARK    3  A    between atoms: C3_4  and  C4_7 
REMARK    4  A    between atoms: C10_13  and  C11_14 
REMARK       I    between atoms: C11_14  and  N2_16 
REMARK       I    between atoms: N2_16  and  C12_18 
REMARK    5  A    between atoms: C12_18  and  C13_20 
REMARK    6  A    between atoms: C13_20  and  C14_21 
REMARK    7  A    between atoms: C14_21  and  C15_22 
REMARK    8  A    between atoms: C15_22  and  C16_23 
REMARK    9  A    between atoms: C16_23  and  C17_24 
REMARK   10  A    between atoms: C17_24  and  C18_25 
REMARK   11  A    between atoms: C18_25  and  C19_26 
REMARK   12  A    between atoms: C19_26  and  N3_27 
REMARK       I    between atoms: N3_27  and  C20_29 
REMARK   13  A    between atoms: C21_35  and  O4_36 
REMARK   14  A    between atoms: C21_35  and  N7_38 
REMARK   15  A    between atoms: C27_44  and  C28_45 
REMARK       I    between atoms: C28_45  and  N8_47 
ROOT
HETATM    1  C4  UNL     1      -4.026   0.654  -1.932  1.00  0.00     0.043 C 
HETATM    2  C5  UNL     1      -3.730   1.751  -2.739  1.00  0.00    -0.008 C 
HETATM    3  C6  UNL     1      -2.516   2.516  -2.928  1.00  0.00     0.036 C 
HETATM    4  C7  UNL     1      -1.209   1.873  -2.553  1.00  0.00     0.027 C 
HETATM    5  C8  UNL     1      -0.166   3.021  -2.486  1.00  0.00     0.011 C 
HETATM    6  C9  UNL     1      -0.659   3.163  -1.024  1.00  0.00     0.042 C 
HETATM    7  C10 UNL     1      -0.997   1.739  -1.089  1.00  0.00     0.126 C 
HETATM    8  N6  UNL     1      -2.269   1.272  -0.435  1.00  0.00    -0.288 N 
HETATM    9  C21 UNL     1      -2.627   1.886   0.729  1.00  0.00     0.223 C 
HETATM   10  C27 UNL     1      -2.919   0.148  -1.135  1.00  0.00     0.121 C 
ENDROOT
BRANCH   7  11
HETATM   11  C11 UNL     1       0.104   0.825  -0.718  1.00  0.00     0.253 C 
HETATM   12  O2  UNL     1       0.284   0.661   0.539  1.00  0.00    -0.270 OA
HETATM   13  N2  UNL     1       0.934   0.147  -1.625  1.00  0.00    -0.295 N 
HETATM   14  C12 UNL     1       1.983  -0.708  -1.228  1.00  0.00     0.224 C 
ATOM     15  H2  UNL     1       0.770   0.280  -2.623  1.00  0.00     0.171 HD
HETATM   16  O3  UNL     1       2.601  -1.330  -2.172  1.00  0.00    -0.273 OA
BRANCH  14  17
HETATM   17  C13 UNL     1       2.361  -0.884   0.175  1.00  0.00     0.103 C 
BRANCH  17  18
HETATM   18  C14 UNL     1       3.566  -1.762   0.389  1.00  0.00     0.009 C 
BRANCH  18  19
HETATM   19  C15 UNL     1       4.811  -1.262  -0.245  1.00  0.00     0.000 C 
BRANCH  19  20
HETATM   20  C16 UNL     1       6.002  -2.177   0.041  1.00  0.00     0.000 C 
BRANCH  20  21
HETATM   21  C17 UNL     1       7.194  -1.604  -0.676  1.00  0.00     0.002 C 
BRANCH  21  22
HETATM   22  C18 UNL     1       8.442  -2.424  -0.473  1.00  0.00     0.020 C 
BRANCH  22  23
HETATM   23  C19 UNL     1       9.566  -1.786  -1.231  1.00  0.00     0.122 C 
BRANCH  23  24
HETATM   24  N3  UNL     1       9.845  -0.448  -0.784  1.00  0.00    -0.365 N 
HETATM   25  C20 UNL     1      10.411  -0.195   0.483  1.00  0.00     0.181 C 
HETATM   26  N4  UNL     1      11.630   0.188   0.632  1.00  0.00    -0.374 N 
HETATM   27  N5  UNL     1       9.660  -0.359   1.691  1.00  0.00    -0.064 NA
ATOM     28  H42 UNL     1      12.165   0.305  -0.229  1.00  0.00     0.158 HD
ATOM     29  H41 UNL     1      12.039   0.371   1.548  1.00  0.00     0.158 HD
ATOM     30  H3  UNL     1       9.628   0.337  -1.398  1.00  0.00     0.162 HD
ENDBRANCH  23  24
ENDBRANCH  22  23
ENDBRANCH  21  22
ENDBRANCH  20  21
ENDBRANCH  19  20
ENDBRANCH  18  19
ENDBRANCH  17  18
ENDBRANCH  14  17
ENDBRANCH   7  11
BRANCH   9  31
HETATM   31  O4  UNL     1      -1.642   2.706   1.156  1.00  0.00    -0.332 OA
ATOM     32  H4  UNL     1      -1.891   3.134   1.967  1.00  0.00     0.221 HD
ENDBRANCH   9  31
BRANCH   9  33
HETATM   33  N7  UNL     1      -3.696   1.929   1.608  1.00  0.00    -0.347 N 
HETATM   34  C22 UNL     1      -3.528   2.766   2.840  1.00  0.00     0.126 C 
HETATM   35  C23 UNL     1      -3.894   1.861   3.994  1.00  0.00     0.020 C 
HETATM   36  C24 UNL     1      -5.393   1.657   4.027  1.00  0.00     0.003 C 
HETATM   37  C25 UNL     1      -5.924   1.895   2.657  1.00  0.00     0.020 C 
HETATM   38  C26 UNL     1      -5.003   1.343   1.571  1.00  0.00     0.126 C 
ENDBRANCH   9  33
BRANCH  10  39
HETATM   39  C28 UNL     1      -2.818  -1.131  -0.522  1.00  0.00     0.275 C 
HETATM   40  O5  UNL     1      -2.923  -2.183  -1.239  1.00  0.00    -0.266 OA
HETATM   41  N8  UNL     1      -2.602  -1.331   0.852  1.00  0.00    -0.298 N 
HETATM   42  C29 UNL     1      -2.779  -2.451   1.438  1.00  0.00     0.203 C 
ATOM     43  H8  UNL     1      -2.287  -0.538   1.411  1.00  0.00     0.171 HD
HETATM   44  N9  UNL     1      -3.219  -3.645   0.773  1.00  0.00    -0.066 NA
HETATM   45  N10 UNL     1      -2.516  -2.500   2.845  1.00  0.00    -0.066 NA
ENDBRANCH  10  39
BRANCH   1  46
HETATM   46  C3  UNL     1      -5.364   0.227  -2.073  1.00  0.00     0.149 C 
BRANCH  46  47
HETATM   47  N1  UNL     1      -6.256  -0.709  -1.584  1.00  0.00    -0.370 N 
HETATM   48  C1  UNL     1      -6.195  -1.746  -0.607  1.00  0.00     0.151 C 
HETATM   49  C2  UNL     1      -7.633  -0.641  -2.234  1.00  0.00     0.151 C 
ENDBRANCH  46  47
BRANCH  46  50
HETATM   50  O1  UNL     1      -6.021   0.980  -2.999  1.00  0.00    -0.346 OA
ATOM     51  H1  UNL     1      -5.408   1.623  -3.335  1.00  0.00     0.219 HD
ENDBRANCH  46  50
ENDBRANCH   1  46
TORSDOF 15
