REMARK  13 active torsions:
REMARK  status: ('A' for Active; 'I' for Inactive)
REMARK    1  A    between atoms: C2_2  and  C3_3 
REMARK    2  A    between atoms: C4_6  and  C5_7 
REMARK    3  A    between atoms: C5_7  and  C6_8 
REMARK    4  A    between atoms: C8_12  and  C9_13 
REMARK       I    between atoms: C9_13  and  N3_15 
REMARK    5  A    between atoms: C16_26  and  C17_27 
REMARK    6  A    between atoms: C21_32  and  C22_33 
REMARK    7  A    between atoms: C23_34  and  C24_35 
REMARK    8  A    between atoms: C23_34  and  C26_37 
REMARK       I    between atoms: C26_37  and  N7_39 
REMARK    9  A    between atoms: N7_39  and  C27_41 
REMARK   10  A    between atoms: C27_41  and  C28_42 
REMARK   11  A    between atoms: C28_42  and  C29_43 
REMARK   12  A    between atoms: C29_43  and  C30_44 
REMARK   13  A    between atoms: C30_44  and  N8_45 
ROOT
HETATM    1  C17 UNL     1       3.312  -2.264   4.680  1.00  0.00     0.163 C 
HETATM    2  C18 UNL     1       3.946  -3.538   4.341  1.00  0.00     0.063 C 
HETATM    3  N6  UNL     1       4.468  -4.555   4.079  1.00  0.00    -0.197 NA
ENDROOT
BRANCH   1   4
HETATM    4  C16 UNL     1       3.456  -1.367   3.477  1.00  0.00    -0.027 A 
HETATM    5  C15 UNL     1       4.515  -0.517   3.250  1.00  0.00     0.106 A 
HETATM    6  N5  UNL     1       4.312   0.124   2.088  1.00  0.00    -0.313 N 
HETATM    7  C14 UNL     1       4.985   1.046   1.370  1.00  0.00     0.136 A 
HETATM    8  C20 UNL     1       3.064  -0.331   1.534  1.00  0.00     0.066 A 
HETATM    9  C7  UNL     1       4.518   1.548   0.155  1.00  0.00     0.083 A 
HETATM   10  C13 UNL     1       6.186   1.537   1.824  1.00  0.00     0.275 A 
HETATM   11  N2  UNL     1       3.351   1.101  -0.329  1.00  0.00    -0.351 N 
HETATM   12  C8  UNL     1       5.269   2.494  -0.520  1.00  0.00     0.076 A 
HETATM   13  C6  UNL     1       2.618   0.186   0.318  1.00  0.00     0.062 A 
ATOM     14  H2  UNL     1       3.011   1.469  -1.217  1.00  0.00     0.166 HD
HETATM   15  C12 UNL     1       6.464   2.955  -0.028  1.00  0.00     0.111 A 
HETATM   16  N4  UNL     1       6.906   2.472   1.134  1.00  0.00    -0.331 N 
ATOM     17  H4  UNL     1       7.793   2.805   1.513  1.00  0.00     0.168 HD
HETATM   18  O2  UNL     1       6.641   1.108   2.917  1.00  0.00    -0.266 OA
HETATM   19  C19 UNL     1       2.578  -1.246   2.426  1.00  0.00     0.041 A 
BRANCH  13  20
HETATM   20  C5  UNL     1       1.372  -0.267  -0.231  1.00  0.00     0.062 C 
BRANCH  20  21
HETATM   21  C4  UNL     1       1.259  -1.472  -0.800  1.00  0.00     0.045 A 
HETATM   22  N1  UNL     1       2.200  -2.383  -0.944  1.00  0.00    -0.355 N 
HETATM   23  C3  UNL     1       1.729  -3.476  -1.562  1.00  0.00     0.035 A 
ATOM     24  H1  UNL     1       3.163  -2.271  -0.626  1.00  0.00     0.166 HD
HETATM   25  C32 UNL     1       0.377  -3.225  -1.826  1.00  0.00    -0.023 A 
HETATM   26  C21 UNL     1       0.071  -1.974  -1.352  1.00  0.00    -0.001 A 
HETATM   27  C33 UNL     1      -0.511  -4.196  -2.550  1.00  0.00     0.051 C 
BRANCH  23  28
HETATM   28  C2  UNL     1       2.393  -4.591  -1.873  1.00  0.00    -0.001 C 
HETATM   29  C1  UNL     1       3.812  -4.741  -1.545  1.00  0.00     0.038 C 
ENDBRANCH  23  28
BRANCH  26  30
HETATM   30  C22 UNL     1      -1.160  -1.209  -1.411  1.00  0.00     0.027 C 
HETATM   31  C23 UNL     1      -2.324  -1.444  -0.924  1.00  0.00     0.010 C 
BRANCH  31  32
HETATM   32  C24 UNL     1      -2.655  -2.647  -0.139  1.00  0.00     0.040 C 
HETATM   33  C25 UNL     1      -3.734  -3.498  -0.728  1.00  0.00     0.010 C 
ENDBRANCH  31  32
BRANCH  31  34
HETATM   34  C26 UNL     1      -3.396  -0.475  -1.140  1.00  0.00     0.247 C 
HETATM   35  O3  UNL     1      -3.126   0.567  -1.830  1.00  0.00    -0.268 OA
HETATM   36  N7  UNL     1      -4.708  -0.594  -0.646  1.00  0.00    -0.357 N 
ATOM     37  H7  UNL     1      -4.973  -1.405  -0.087  1.00  0.00     0.162 HD
BRANCH  36  38
HETATM   38  C27 UNL     1      -5.684   0.441  -0.935  1.00  0.00     0.123 C 
BRANCH  38  39
HETATM   39  C28 UNL     1      -7.018   0.139  -0.322  1.00  0.00     0.021 C 
BRANCH  39  40
HETATM   40  C29 UNL     1      -6.931   0.027   1.173  1.00  0.00     0.021 C 
BRANCH  40  41
HETATM   41  C30 UNL     1      -6.426   1.325   1.785  1.00  0.00     0.122 C 
BRANCH  41  42
HETATM   42  N8  UNL     1      -7.287   2.430   1.490  1.00  0.00    -0.367 N 
HETATM   43  C31 UNL     1      -6.913   3.618   1.168  1.00  0.00     0.196 C 
HETATM   44  N9  UNL     1      -7.983   4.553   0.920  1.00  0.00    -0.067 NA
HETATM   45  N10 UNL     1      -5.557   4.031   1.052  1.00  0.00    -0.067 NA
ATOM     46  H8  UNL     1      -8.291   2.259   1.540  1.00  0.00     0.161 HD
ENDBRANCH  41  42
ENDBRANCH  40  41
ENDBRANCH  39  40
ENDBRANCH  38  39
ENDBRANCH  36  38
ENDBRANCH  31  34
ENDBRANCH  26  30
ENDBRANCH  20  21
ENDBRANCH  13  20
BRANCH  12  47
HETATM   47  C9  UNL     1       4.752   2.991  -1.778  1.00  0.00     0.256 C 
HETATM   48  O1  UNL     1       5.043   2.421  -2.880  1.00  0.00    -0.267 OA
HETATM   49  N3  UNL     1       3.911   4.131  -1.773  1.00  0.00    -0.357 N 
HETATM   50  C10 UNL     1       3.569   4.790  -0.548  1.00  0.00     0.152 C 
HETATM   51  C11 UNL     1       3.380   4.649  -3.018  1.00  0.00     0.152 C 
ENDBRANCH  12  47
ENDBRANCH   1   4
TORSDOF 13
