REMARK  4 active torsions:
REMARK  status: ('A' for Active; 'I' for Inactive)
REMARK    1  A    between atoms: N1_2  and  C3_4 
REMARK    2  A    between atoms: C3_4  and  C4_5 
REMARK    3  A    between atoms: C11_17  and  N4_18 
REMARK    4  A    between atoms: N4_18  and  C12_20 
ROOT
HETATM    1  C4  UNL     1      -2.075   0.674  -0.503  1.00  0.00     0.123 A 
HETATM    2  N2  UNL     1      -0.741   0.573  -0.418  1.00  0.00    -0.342 N 
ATOM      3  H2  UNL     1      -0.205   1.394  -0.136  1.00  0.00     0.167 HD
HETATM    4  C5  UNL     1      -0.067  -0.592  -0.695  1.00  0.00     0.045 A 
HETATM    5  C6  UNL     1      -0.799  -1.680  -1.071  1.00  0.00     0.035 A 
HETATM    6  C7  UNL     1      -2.182  -1.602  -1.167  1.00  0.00     0.255 A 
HETATM    7  O1  UNL     1      -2.826  -2.615  -1.514  1.00  0.00    -0.268 OA
HETATM    8  N3  UNL     1      -2.760  -0.422  -0.877  1.00  0.00    -0.308 N 
ATOM      9  H3  UNL     1      -3.776  -0.355  -0.945  1.00  0.00     0.170 HD
HETATM   10  C8  UNL     1      -0.132  -2.983  -1.376  1.00  0.00     0.046 C 
HETATM   11  C9  UNL     1       0.951  -3.110  -0.307  1.00  0.00     0.007 C 
HETATM   12  C10 UNL     1       1.938  -1.998  -0.400  1.00  0.00     0.032 C 
HETATM   13  C11 UNL     1       1.404  -0.633  -0.593  1.00  0.00     0.132 C 
ENDROOT
BRANCH  13  14
HETATM   14  N4  UNL     1       1.799   0.291   0.458  1.00  0.00    -0.377 N 
ATOM     15  H4  UNL     1       1.054   0.745   0.986  1.00  0.00     0.160 HD
BRANCH  14  16
HETATM   16  C12 UNL     1       3.126   0.612   0.808  1.00  0.00     0.074 A 
HETATM   17  C13 UNL     1       4.254   0.141   0.172  1.00  0.00     0.078 A 
HETATM   18  C14 UNL     1       5.530   0.506   0.565  1.00  0.00     0.160 A 
HETATM   19  F1  UNL     1       6.611   0.023  -0.084  1.00  0.00    -0.203 F 
HETATM   20  C15 UNL     1       5.729   1.365   1.620  1.00  0.00     0.196 A 
HETATM   21  F2  UNL     1       6.996   1.727   2.009  1.00  0.00    -0.199 F 
HETATM   22  C16 UNL     1       4.619   1.850   2.272  1.00  0.00     0.198 A 
HETATM   23  F3  UNL     1       4.825   2.703   3.318  1.00  0.00    -0.199 F 
HETATM   24  C17 UNL     1       3.363   1.477   1.868  1.00  0.00     0.184 A 
HETATM   25  F4  UNL     1       2.321   2.004   2.568  1.00  0.00    -0.200 F 
ENDBRANCH  14  16
ENDBRANCH  13  14
BRANCH   1  26
HETATM   26  C3  UNL     1      -2.778   1.949  -0.201  1.00  0.00     0.133 C 
BRANCH  26  27
HETATM   27  N1  UNL     1      -4.165   1.851   0.025  1.00  0.00    -0.395 N 
HETATM   28  C1  UNL     1      -4.613   1.049   1.105  1.00  0.00     0.148 C 
HETATM   29  C2  UNL     1      -5.030   1.968  -1.098  1.00  0.00     0.148 C 
ENDBRANCH  26  27
ENDBRANCH   1  26
TORSDOF 4
