REMARK  6 active torsions:
REMARK  status: ('A' for Active; 'I' for Inactive)
REMARK    1  A    between atoms: C2_2  and  N1_3 
REMARK    2  A    between atoms: N1_3  and  C3_5 
REMARK    3  A    between atoms: C4_8  and  N3_9 
REMARK    4  A    between atoms: N3_9  and  C5_11 
REMARK    5  A    between atoms: C8_14  and  O1_15 
REMARK    6  A    between atoms: O1_15  and  C9_16 
ROOT
HETATM    1  C3  UNL     1      -2.344   0.990   0.076  1.00  0.00     0.125 A 
HETATM    2  N2  UNL     1      -1.152   1.584  -0.094  1.00  0.00    -0.176 N 
ATOM      3  H2  UNL     1      -1.135   2.602  -0.162  1.00  0.00     0.186 HD
HETATM    4  C4  UNL     1       0.021   0.932  -0.181  1.00  0.00     0.684 A 
HETATM    5  N4  UNL     1      -0.022  -0.414  -0.089  1.00  0.00    -0.193 N 
ATOM      6  H4  UNL     1       0.850  -0.939  -0.152  1.00  0.00     0.184 HD
HETATM    7  C12 UNL     1      -1.171  -1.087   0.082  1.00  0.00     0.060 A 
HETATM    8  C13 UNL     1      -2.362  -0.397   0.169  1.00  0.00     0.013 A 
HETATM    9  C14 UNL     1      -3.646  -1.097   0.356  1.00  0.00     0.071 C 
HETATM   10  C15 UNL     1      -3.564  -2.568   0.106  1.00  0.00     0.173 C 
HETATM   11  O2  UNL     1      -2.382  -2.966  -0.507  1.00  0.00    -0.385 OA
HETATM   12  C16 UNL     1      -1.246  -2.563   0.186  1.00  0.00     0.225 C 
ENDROOT
BRANCH   4  13
HETATM   13  N3  UNL     1       1.140   1.584  -0.347  1.00  0.00    -0.188 N 
ATOM     14  H3  UNL     1       1.160   2.602  -0.415  1.00  0.00     0.184 HD
BRANCH  13  15
HETATM   15  C5  UNL     1       2.327   0.810  -0.428  1.00  0.00     0.091 A 
HETATM   16  C6  UNL     1       2.968   0.508   0.754  1.00  0.00     0.036 A 
HETATM   17  C7  UNL     1       4.144  -0.255   0.719  1.00  0.00     0.042 A 
HETATM   18  C8  UNL     1       4.667  -0.705  -0.460  1.00  0.00     0.116 A 
HETATM   19  C10 UNL     1       4.003  -0.388  -1.632  1.00  0.00     0.190 A 
HETATM   20  F3  UNL     1       4.538  -0.843  -2.790  1.00  0.00    -0.200 F 
HETATM   21  C11 UNL     1       2.838   0.367  -1.614  1.00  0.00     0.184 A 
HETATM   22  F4  UNL     1       2.226   0.652  -2.776  1.00  0.00    -0.200 F 
BRANCH  18  23
HETATM   23  O1  UNL     1       5.810  -1.448  -0.506  1.00  0.00    -0.287 OA
BRANCH  23  24
HETATM   24  C9  UNL     1       6.620  -1.872   0.536  1.00  0.00     0.505 C 
HETATM   25  F1  UNL     1       6.792  -3.245   0.512  1.00  0.00    -0.184 F 
HETATM   26  F2  UNL     1       7.870  -1.298   0.358  1.00  0.00    -0.184 F 
ENDBRANCH  23  24
ENDBRANCH  18  23
ENDBRANCH  13  15
ENDBRANCH   4  13
BRANCH   1  27
HETATM   27  N1  UNL     1      -3.469   1.612   0.160  1.00  0.00    -0.376 N 
ATOM     28  H1  UNL     1      -4.341   1.099   0.290  1.00  0.00     0.161 HD
BRANCH  27  29
HETATM   29  C2  UNL     1      -3.466   3.057   0.066  1.00  0.00     0.116 C 
HETATM   30  C1  UNL     1      -4.808   3.628   0.516  1.00  0.00     0.026 C 
ENDBRANCH  27  29
ENDBRANCH   1  27
TORSDOF 6
