REMARK  5 active torsions:
REMARK  status: ('A' for Active; 'I' for Inactive)
REMARK    1  A    between atoms: C2_2  and  C4_5 
REMARK    2  A    between atoms: C4_5  and  N2_6 
REMARK    3  A    between atoms: N2_6  and  C5_8 
REMARK    4  A    between atoms: C5_8  and  C6_9 
REMARK    5  A    between atoms: C6_9  and  N3_10 
ROOT
HETATM    1  C1  UNL     1       4.420   1.208   0.302  1.00  0.00     0.031 C 
HETATM    2  C2  UNL     1       4.172  -0.190  -0.195  1.00  0.00     0.127 C 
HETATM    3  C3  UNL     1       5.340  -1.064   0.104  1.00  0.00     0.069 C 
HETATM    4  N1  UNL     1       6.256  -1.727   0.329  1.00  0.00    -0.197 NA
ENDROOT
BRANCH   2   5
HETATM    5  C4  UNL     1       2.925  -0.848   0.281  1.00  0.00     0.079 C 
BRANCH   5   6
HETATM    6  N2  UNL     1       1.680  -0.301  -0.032  1.00  0.00    -0.376 N 
ATOM      7  H2  UNL     1       1.072  -0.803  -0.679  1.00  0.00     0.164 HD
BRANCH   6   8
HETATM    8  C5  UNL     1       1.233   0.915   0.510  1.00  0.00     0.104 C 
BRANCH   8   9
HETATM    9  C6  UNL     1      -0.188   1.231   0.146  1.00  0.00     0.107 C 
BRANCH   9  10
HETATM   10  N3  UNL     1      -1.181   0.364   0.583  1.00  0.00    -0.369 N 
HETATM   11  C7  UNL     1      -1.367  -0.922   0.084  1.00  0.00     0.063 C 
HETATM   12  C8  UNL     1      -2.186  -0.991  -1.195  1.00  0.00     0.044 C 
HETATM   13  C9  UNL     1      -3.563  -0.444  -1.035  1.00  0.00     0.005 C 
HETATM   14  C10 UNL     1      -4.069  -0.732   0.338  1.00  0.00     0.002 C 
HETATM   15  C11 UNL     1      -3.429   0.030   1.443  1.00  0.00     0.020 C 
HETATM   16  C12 UNL     1      -2.399   1.020   1.029  1.00  0.00     0.127 C 
ENDBRANCH   9  10
ENDBRANCH   8   9
ENDBRANCH   6   8
ENDBRANCH   5   6
ENDBRANCH   2   5
TORSDOF 5
