REMARK  5 active torsions:
REMARK  status: ('A' for Active; 'I' for Inactive)
REMARK    1  A    between atoms: S1_2  and  N1_4 
REMARK    2  A    between atoms: N1_4  and  C2_6 
REMARK    3  A    between atoms: C2_6  and  C3_7 
REMARK    4  A    between atoms: C3_7  and  C4_8 
REMARK    5  A    between atoms: C4_8  and  C5_9 
ROOT
HETATM    1  C3  UNL     1      -0.119  -1.278  -0.957  1.00  0.00     0.021 C 
ENDROOT
BRANCH   1   2
HETATM    2  C2  UNL     1       1.372  -1.358  -0.759  1.00  0.00     0.129 C 
BRANCH   2   3
HETATM    3  N1  UNL     1       2.024  -0.088  -0.638  1.00  0.00    -0.341 N 
ATOM      4  H1  UNL     1       1.550   0.815  -0.672  1.00  0.00     0.169 HD
BRANCH   3   5
HETATM    5  S1  UNL     1       3.733  -0.302  -0.425  1.00  0.00     0.105 S 
HETATM    6  C1  UNL     1       4.398   0.993   0.561  1.00  0.00     0.152 C 
HETATM    7  O1  UNL     1       4.494  -0.274  -1.927  1.00  0.00    -0.236 OA
ENDBRANCH   3   5
ENDBRANCH   2   3
ENDBRANCH   1   2
BRANCH   1   8
HETATM    8  C4  UNL     1      -0.777  -0.590   0.188  1.00  0.00     0.007 C 
BRANCH   8   9
HETATM    9  C5  UNL     1      -2.262  -0.474   0.073  1.00  0.00    -0.004 C 
HETATM   10  C6  UNL     1      -2.770   0.234   1.293  1.00  0.00     0.015 C 
HETATM   11  C7  UNL     1      -2.451   1.689   1.169  1.00  0.00     0.074 C 
HETATM   12  S2  UNL     1      -2.884   1.959  -0.598  1.00  0.00    -0.169 SA
HETATM   13  C8  UNL     1      -2.770   0.207  -1.138  1.00  0.00     0.078 C 
ENDBRANCH   8   9
ENDBRANCH   1   8
TORSDOF 5
