REMARK  8 active torsions:
REMARK  status: ('A' for Active; 'I' for Inactive)
REMARK    1  A    between atoms: C2_2  and  C3_3 
REMARK    2  A    between atoms: C3_3  and  C4_4 
REMARK    3  A    between atoms: C4_4  and  C5_5 
REMARK    4  A    between atoms: C5_5  and  C6_6 
REMARK    5  A    between atoms: C6_6  and  N1_7 
REMARK       I    between atoms: N1_7  and  C7_9 
REMARK    6  A    between atoms: C7_9  and  C8_11 
REMARK    7  A    between atoms: C9_13  and  C10_14 
REMARK    8  A    between atoms: C10_14  and  C11_15 
REMARK       I    between atoms: C11_15  and  N2_17 
ROOT
HETATM    1  C8  UNL     1       1.532   1.251  -1.008  1.00  0.00     0.247 C 
HETATM    2  O2  UNL     1       0.987   0.204  -0.314  1.00  0.00    -0.355 OA
HETATM    3  C9  UNL     1       0.328  -0.342  -1.347  1.00  0.00     0.117 C 
HETATM    4  C13 UNL     1      -1.107  -0.572  -1.384  1.00  0.00     0.021 C 
HETATM    5  C14 UNL     1      -2.107   0.426  -0.945  1.00  0.00    -0.033 C 
HETATM    6  C15 UNL     1      -3.156  -0.258  -0.043  1.00  0.00    -0.013 C 
HETATM    7  C16 UNL     1      -2.530  -1.160   0.987  1.00  0.00     0.020 C 
HETATM    8  C17 UNL     1      -3.914  -1.227  -0.977  1.00  0.00     0.014 C 
HETATM    9  C18 UNL     1      -5.126  -0.541  -1.570  1.00  0.00     0.002 C 
HETATM   10  C19 UNL     1      -6.102  -0.504  -0.390  1.00  0.00     0.009 C 
HETATM   11  C20 UNL     1      -5.523   0.424   0.609  1.00  0.00    -0.043 C 
HETATM   12  C21 UNL     1      -5.918  -0.104   1.999  1.00  0.00     0.015 C 
HETATM   13  C22 UNL     1      -6.327   1.735   0.491  1.00  0.00     0.015 C 
HETATM   14  C23 UNL     1      -4.095   0.763   0.501  1.00  0.00     0.006 C 
HETATM   15  C24 UNL     1      -3.682   1.299   1.850  1.00  0.00     0.007 C 
HETATM   16  C25 UNL     1      -2.260   1.716   1.939  1.00  0.00     0.008 C 
HETATM   17  C26 UNL     1      -1.662   2.346   0.745  1.00  0.00     0.026 C 
HETATM   18  C27 UNL     1      -2.088   3.832   0.797  1.00  0.00     0.013 C 
HETATM   19  C28 UNL     1      -1.726   1.771  -0.575  1.00  0.00     0.141 A 
HETATM   20  O4  UNL     1      -2.144   2.847  -1.566  1.00  0.00    -0.337 OA
HETATM   21  C29 UNL     1      -0.860   2.392  -1.606  1.00  0.00     0.301 A 
HETATM   22  O5  UNL     1      -0.379   1.530  -2.557  1.00  0.00    -0.346 OA
HETATM   23  C30 UNL     1       0.741   0.857  -2.200  1.00  0.00     0.202 C 
ENDROOT
BRANCH   1  24
HETATM   24  C7  UNL     1       3.022   1.223  -1.155  1.00  0.00     0.249 C 
HETATM   25  N1  UNL     1       3.845   0.220  -0.633  1.00  0.00    -0.359 N 
ATOM     26  H1  UNL     1       3.436  -0.557  -0.113  1.00  0.00     0.162 HD
HETATM   27  O1  UNL     1       3.534   2.174  -1.793  1.00  0.00    -0.271 OA
BRANCH  25  28
HETATM   28  C6  UNL     1       5.275   0.284  -0.830  1.00  0.00     0.122 C 
BRANCH  28  29
HETATM   29  C5  UNL     1       5.994  -0.878  -0.199  1.00  0.00     0.020 C 
BRANCH  29  30
HETATM   30  C4  UNL     1       5.765  -0.939   1.290  1.00  0.00     0.002 C 
BRANCH  30  31
HETATM   31  C3  UNL     1       6.242   0.295   2.016  1.00  0.00    -0.000 C 
BRANCH  31  32
HETATM   32  C2  UNL     1       7.730   0.513   1.819  1.00  0.00    -0.005 C 
HETATM   33  C1  UNL     1       8.512  -0.683   2.349  1.00  0.00     0.005 C 
ENDBRANCH  31  32
ENDBRANCH  30  31
ENDBRANCH  29  30
ENDBRANCH  28  29
ENDBRANCH  25  28
ENDBRANCH   1  24
BRANCH   3  34
HETATM   34  C10 UNL     1       1.032  -1.584  -1.932  1.00  0.00     0.148 C 
BRANCH  34  35
HETATM   35  C11 UNL     1       1.203  -2.654  -0.952  1.00  0.00     0.220 C 
HETATM   36  O3  UNL     1       0.810  -2.480   0.226  1.00  0.00    -0.274 OA
HETATM   37  N2  UNL     1       1.794  -3.911  -1.238  1.00  0.00    -0.365 N 
HETATM   38  C12 UNL     1       1.954  -4.959  -0.252  1.00  0.00     0.149 C 
ATOM     39  H2  UNL     1       2.123  -4.086  -2.187  1.00  0.00     0.161 HD
ENDBRANCH  34  35
ENDBRANCH   3  34
TORSDOF 8
