REMARK  10 active torsions:
REMARK  status: ('A' for Active; 'I' for Inactive)
REMARK    1  A    between atoms: S1_2  and  C2_3 
REMARK    2  A    between atoms: C2_3  and  C3_4 
REMARK    3  A    between atoms: C3_4  and  C4_5 
REMARK    4  A    between atoms: C4_5  and  N1_6 
REMARK    5  A    between atoms: C4_5  and  C29_35 
REMARK       I    between atoms: N1_6  and  C5_7 
REMARK    6  A    between atoms: C5_7  and  C6_9 
REMARK    7  A    between atoms: C6_9  and  C7_11 
REMARK    8  A    between atoms: C7_11  and  C9_13 
REMARK    9  A    between atoms: C19_23  and  O3_24 
REMARK   10  A    between atoms: C29_35  and  O4_37 
ROOT
HETATM    1  C9  UNL     1       0.513  -0.120   0.826  1.00  0.00     0.005 C 
HETATM    2  C10 UNL     1       0.550   1.055   1.763  1.00  0.00     0.006 C 
HETATM    3  C11 UNL     1      -0.828   1.512   2.081  1.00  0.00     0.006 C 
HETATM    4  C12 UNL     1      -1.695   0.590   1.301  1.00  0.00    -0.002 C 
HETATM    5  C13 UNL     1      -3.069   1.131   0.932  1.00  0.00    -0.004 C 
HETATM    6  C14 UNL     1      -3.896   1.004   2.143  1.00  0.00     0.009 C 
HETATM    7  C15 UNL     1      -5.016   1.985   2.237  1.00  0.00     0.028 C 
HETATM    8  C16 UNL     1      -5.844   2.078   0.970  1.00  0.00    -0.023 C 
HETATM    9  C17 UNL     1      -5.792   1.554  -0.159  1.00  0.00    -0.072 C 
HETATM   10  C18 UNL     1      -6.912   2.038  -1.084  1.00  0.00     0.066 C 
HETATM   11  C19 UNL     1      -7.336   0.745  -1.648  1.00  0.00     0.122 C 
HETATM   12  C20 UNL     1      -6.992  -0.631  -1.348  1.00  0.00     0.033 C 
HETATM   13  C21 UNL     1      -5.692  -0.742  -0.530  1.00  0.00     0.016 C 
HETATM   14  C22 UNL     1      -4.931   0.582  -0.774  1.00  0.00    -0.017 C 
HETATM   15  C23 UNL     1      -4.850   0.651  -2.309  1.00  0.00     0.020 C 
HETATM   16  C24 UNL     1      -3.513   0.530  -0.334  1.00  0.00     0.002 C 
HETATM   17  C25 UNL     1      -2.954  -0.918  -0.404  1.00  0.00     0.007 C 
HETATM   18  C26 UNL     1      -1.429  -0.784  -0.643  1.00  0.00     0.010 C 
HETATM   19  C27 UNL     1      -0.830   0.299   0.115  1.00  0.00    -0.036 C 
HETATM   20  C28 UNL     1      -0.528   1.554  -0.591  1.00  0.00     0.016 C 
ENDROOT
BRANCH   1  21
HETATM   21  C7  UNL     1       1.576  -0.132  -0.177  1.00  0.00     0.067 C 
HETATM   22  C8  UNL     1       1.499  -1.659  -0.759  1.00  0.00     0.019 C 
BRANCH  21  23
HETATM   23  C6  UNL     1       2.953  -0.003   0.092  1.00  0.00     0.235 C 
HETATM   24  O2  UNL     1       3.719   0.759  -0.081  1.00  0.00    -0.286 OA
BRANCH  23  25
HETATM   25  C5  UNL     1       3.598  -1.419   0.888  1.00  0.00     0.362 C 
HETATM   26  N1  UNL     1       4.802  -1.498   0.280  1.00  0.00    -0.370 NA
HETATM   27  O1  UNL     1       2.639  -1.546   1.527  1.00  0.00    -0.248 OA
BRANCH  26  28
HETATM   28  C4  UNL     1       6.041  -1.592  -0.337  1.00  0.00     0.095 C 
BRANCH  28  29
HETATM   29  C3  UNL     1       7.177  -0.705   0.036  1.00  0.00     0.081 C 
BRANCH  29  30
HETATM   30  C2  UNL     1       7.046   0.748  -0.278  1.00  0.00     0.080 C 
BRANCH  30  31
HETATM   31  S1  UNL     1       8.391   1.824   0.316  1.00  0.00    -0.173 SA
HETATM   32  C1  UNL     1       8.227   2.230   2.070  1.00  0.00     0.089 C 
ENDBRANCH  30  31
ENDBRANCH  29  30
ENDBRANCH  28  29
BRANCH  28  33
HETATM   33  C29 UNL     1       6.534  -2.948  -0.764  1.00  0.00     0.174 C 
HETATM   34  C30 UNL     1       5.458  -3.613  -1.636  1.00  0.00     0.046 C 
BRANCH  33  35
HETATM   35  O4  UNL     1       6.722  -3.821   0.290  1.00  0.00    -0.389 OA
ATOM     36  H4  UNL     1       7.033  -4.677   0.020  1.00  0.00     0.210 HD
ENDBRANCH  33  35
ENDBRANCH  28  33
ENDBRANCH  26  28
ENDBRANCH  23  25
ENDBRANCH  21  23
ENDBRANCH   1  21
BRANCH  11  37
HETATM   37  O3  UNL     1      -8.222   0.857  -2.661  1.00  0.00    -0.395 OA
ATOM     38  H3  UNL     1      -8.495   0.023  -3.025  1.00  0.00     0.210 HD
ENDBRANCH  11  37
TORSDOF 10
