REMARK  8 active torsions:
REMARK  status: ('A' for Active; 'I' for Inactive)
REMARK    1  A    between atoms: C2_2  and  C3_3 
REMARK    2  A    between atoms: C3_3  and  C4_4 
REMARK    3  A    between atoms: C9_10  and  C11_12 
REMARK    4  A    between atoms: C11_12  and  C12_13 
REMARK       I    between atoms: C12_13  and  N1_15 
REMARK    5  A    between atoms: N1_15  and  C13_17 
REMARK    6  A    between atoms: C22_28  and  C23_29 
REMARK    7  A    between atoms: C26_32  and  C27_33 
REMARK    8  A    between atoms: C27_33  and  C28_34 
ROOT
HETATM    1  C3  UNL     1      -3.253  -1.359  -0.722  1.00  0.00     0.038 C 
HETATM    2  C6  UNL     1      -3.194  -2.086   0.573  1.00  0.00    -0.006 C 
HETATM    3  C7  UNL     1      -2.260  -2.520   1.317  1.00  0.00     0.050 C 
HETATM    4  C8  UNL     1      -0.819  -2.532   1.306  1.00  0.00     0.184 C 
HETATM    5  O1  UNL     1      -0.206  -3.599   0.929  1.00  0.00    -0.290 OA
HETATM    6  C9  UNL     1       0.116  -1.426   1.694  1.00  0.00     0.139 C 
HETATM    7  C10 UNL     1       0.647  -1.808   3.106  1.00  0.00     0.056 C 
HETATM    8  O3  UNL     1      -0.570  -0.292   1.707  1.00  0.00    -0.301 OA
HETATM    9  C21 UNL     1      -1.552   0.521   1.894  1.00  0.00     0.265 C 
HETATM   10  O4  UNL     1      -2.263   0.465   2.971  1.00  0.00    -0.265 OA
HETATM   11  C22 UNL     1      -1.999   1.587   0.969  1.00  0.00     0.100 C 
HETATM   12  C26 UNL     1      -2.582   1.196  -0.321  1.00  0.00     0.080 C 
HETATM   13  C29 UNL     1      -2.353  -0.173  -0.816  1.00  0.00     0.144 C 
HETATM   14  O7  UNL     1      -1.283  -0.435  -1.407  1.00  0.00    -0.296 OA
ENDROOT
BRANCH   6  15
HETATM   15  C11 UNL     1       1.334  -1.538   0.798  1.00  0.00     0.149 C 
BRANCH  15  16
HETATM   16  C12 UNL     1       2.336  -0.513   1.064  1.00  0.00     0.221 C 
HETATM   17  O2  UNL     1       2.178   0.346   1.966  1.00  0.00    -0.273 OA
HETATM   18  N1  UNL     1       3.524  -0.466   0.298  1.00  0.00    -0.356 N 
ATOM     19  H1  UNL     1       3.655  -1.162  -0.436  1.00  0.00     0.162 HD
BRANCH  18  20
HETATM   20  C13 UNL     1       4.573   0.531   0.506  1.00  0.00     0.085 C 
HETATM   21  C14 UNL     1       5.842  -0.099   0.924  1.00  0.00     0.029 C 
HETATM   22  C15 UNL     1       6.886  -0.125  -0.141  1.00  0.00    -0.012 C 
HETATM   23  C16 UNL     1       6.458  -0.955  -1.335  1.00  0.00     0.005 C 
HETATM   24  C19 UNL     1       7.061   1.246  -0.791  1.00  0.00     0.009 C 
HETATM   25  C17 UNL     1       5.719   0.009  -2.248  1.00  0.00     0.005 C 
HETATM   26  C18 UNL     1       5.765   1.347  -1.550  1.00  0.00    -0.012 C 
HETATM   27  C20 UNL     1       4.604   1.481  -0.629  1.00  0.00     0.029 C 
ENDBRANCH  18  20
ENDBRANCH  15  16
ENDBRANCH   6  15
BRANCH  11  28
HETATM   28  C23 UNL     1      -2.902   2.568   1.718  1.00  0.00    -0.008 C 
HETATM   29  C24 UNL     1      -2.149   3.189   2.876  1.00  0.00     0.010 C 
HETATM   30  C25 UNL     1      -4.160   1.957   2.241  1.00  0.00     0.010 C 
ENDBRANCH  11  28
BRANCH   1  31
HETATM   31  C2  UNL     1      -2.891  -2.335  -1.849  1.00  0.00     0.017 C 
HETATM   32  C1  UNL     1      -3.721  -3.555  -1.955  1.00  0.00     0.006 C 
ENDBRANCH   1  31
BRANCH   1  33
HETATM   33  C4  UNL     1      -4.633  -0.844  -0.961  1.00  0.00     0.017 C 
HETATM   34  C5  UNL     1      -5.782  -1.766  -0.990  1.00  0.00     0.006 C 
ENDBRANCH   1  33
BRANCH  12  35
HETATM   35  C27 UNL     1      -1.996   2.054  -1.481  1.00  0.00     0.126 C 
BRANCH  35  36
HETATM   36  C28 UNL     1      -2.198   3.467  -1.381  1.00  0.00     0.173 C 
HETATM   37  O5  UNL     1      -1.273   4.188  -0.867  1.00  0.00    -0.648 OA
HETATM   38  O6  UNL     1      -3.331   4.122  -1.803  1.00  0.00    -0.648 OA
ENDBRANCH  35  36
ENDBRANCH  12  35
TORSDOF 8
