REMARK  8 active torsions:
REMARK  status: ('A' for Active; 'I' for Inactive)
REMARK    1  A    between atoms: C2_2  and  C3_3 
REMARK    2  A    between atoms: C3_3  and  C4_4 
REMARK    3  A    between atoms: C4_4  and  C5_5 
REMARK    4  A    between atoms: C5_5  and  C6_6 
REMARK    5  A    between atoms: C6_6  and  C7_7 
REMARK       I    between atoms: N1_9  and  C9_10 
REMARK    6  A    between atoms: C16_20  and  C17_21 
REMARK    7  A    between atoms: C17_21  and  O4_22 
REMARK    8  A    between atoms: O4_22  and  C18_23 
ROOT
HETATM    1  C7  UNL     1      -1.905   0.563   0.107  1.00  0.00     0.040 C 
HETATM    2  C8  UNL     1      -2.495   1.593   1.117  1.00  0.00     0.133 C 
HETATM    3  N1  UNL     1      -2.033   1.096   2.401  1.00  0.00    -0.352 N 
HETATM    4  C9  UNL     1      -2.685   1.386   3.608  1.00  0.00     0.215 C 
HETATM    5  C10 UNL     1      -2.233   0.890   4.932  1.00  0.00     0.117 C 
HETATM    6  O1  UNL     1      -3.716   2.109   3.563  1.00  0.00    -0.274 OA
HETATM    7  C11 UNL     1      -0.844   0.267   2.412  1.00  0.00     0.129 C 
HETATM    8  C12 UNL     1       0.141   0.720   1.354  1.00  0.00     0.059 C 
HETATM    9  C13 UNL     1      -0.483   0.980  -0.004  1.00  0.00     0.086 C 
HETATM   10  O2  UNL     1      -0.397   2.374  -0.129  1.00  0.00    -0.326 OA
HETATM   11  C14 UNL     1       0.843   2.886  -0.123  1.00  0.00     0.419 C 
HETATM   12  O3  UNL     1       1.926   2.036  -0.194  1.00  0.00    -0.300 OA
HETATM   13  C15 UNL     1       1.781   0.714  -0.586  1.00  0.00     0.061 C 
HETATM   14  C16 UNL     1       2.780  -0.148  -0.553  1.00  0.00     0.033 C 
HETATM   15  C24 UNL     1       0.390   0.411  -1.038  1.00  0.00     0.037 C 
HETATM   16  C25 UNL     1       0.357  -1.128  -1.058  1.00  0.00     0.025 C 
HETATM   17  C26 UNL     1       0.364   0.918  -2.425  1.00  0.00     0.022 C 
HETATM   18  C27 UNL     1       0.057   2.298  -2.769  1.00  0.00     0.038 C 
HETATM   19  C28 UNL     1       1.008   3.392  -2.402  1.00  0.00     0.059 C 
HETATM   20  C29 UNL     1       2.359   3.156  -2.973  1.00  0.00     0.045 C 
HETATM   21  C30 UNL     1       0.431   4.609  -3.180  1.00  0.00     0.045 C 
HETATM   22  O5  UNL     1       0.964   3.828  -1.108  1.00  0.00    -0.328 OA
ENDROOT
BRANCH   1  23
HETATM   23  C6  UNL     1      -2.755   0.537  -1.118  1.00  0.00     0.009 C 
BRANCH  23  24
HETATM   24  C5  UNL     1      -4.198   0.170  -0.848  1.00  0.00     0.001 C 
BRANCH  24  25
HETATM   25  C4  UNL     1      -4.401  -1.186  -0.239  1.00  0.00     0.000 C 
BRANCH  25  26
HETATM   26  C3  UNL     1      -3.900  -2.232  -1.208  1.00  0.00    -0.000 C 
BRANCH  26  27
HETATM   27  C2  UNL     1      -4.077  -3.627  -0.639  1.00  0.00    -0.005 C 
HETATM   28  C1  UNL     1      -3.296  -3.736   0.647  1.00  0.00     0.005 C 
ENDBRANCH  26  27
ENDBRANCH  25  26
ENDBRANCH  24  25
ENDBRANCH  23  24
ENDBRANCH   1  23
BRANCH  14  29
HETATM   29  C17 UNL     1       4.135   0.220  -0.094  1.00  0.00     0.206 C 
BRANCH  29  30
HETATM   30  O4  UNL     1       4.622  -0.470   0.988  1.00  0.00    -0.344 OA
BRANCH  30  31
HETATM   31  C18 UNL     1       4.903  -1.774   1.206  1.00  0.00     0.111 A 
HETATM   32  C19 UNL     1       4.752  -2.776   0.284  1.00  0.00     0.043 A 
HETATM   33  C20 UNL     1       5.064  -4.108   0.575  1.00  0.00     0.048 A 
HETATM   34  C21 UNL     1       5.534  -4.413   1.821  1.00  0.00     0.158 A 
HETATM   35  F1  UNL     1       5.846  -5.699   2.137  1.00  0.00    -0.203 F 
HETATM   36  C22 UNL     1       5.705  -3.444   2.787  1.00  0.00     0.196 A 
HETATM   37  F2  UNL     1       6.178  -3.763   4.036  1.00  0.00    -0.199 F 
HETATM   38  C23 UNL     1       5.386  -2.148   2.458  1.00  0.00     0.191 A 
HETATM   39  F3  UNL     1       5.553  -1.205   3.401  1.00  0.00    -0.200 F 
ENDBRANCH  30  31
ENDBRANCH  29  30
ENDBRANCH  14  29
TORSDOF 8
