REMARK  9 active torsions:
REMARK  status: ('A' for Active; 'I' for Inactive)
REMARK    1  A    between atoms: C2_2  and  O1_3 
REMARK    2  A    between atoms: O1_3  and  C3_4 
REMARK    3  A    between atoms: C3_4  and  C4_6 
REMARK    4  A    between atoms: N1_8  and  C6_9 
REMARK    5  A    between atoms: C6_9  and  C7_10 
REMARK    6  A    between atoms: C6_9  and  C11_14 
REMARK    7  A    between atoms: C7_10  and  C8_11 
REMARK    8  A    between atoms: N2_16  and  C13_17 
REMARK    9  A    between atoms: C22_31  and  C23_32 
ROOT
HETATM    1  C6  UNL     1       0.470  -0.463  -1.857  1.00  0.00     0.260 C 
ENDROOT
BRANCH   1   2
HETATM    2  N1  UNL     1      -0.789   0.136  -1.471  1.00  0.00     0.098 N 
HETATM    3  C5  UNL     1      -1.125   0.037  -0.115  1.00  0.00     0.288 C 
HETATM    4  C4  UNL     1      -2.485  -0.544   0.158  1.00  0.00     0.118 C 
HETATM    5  C22 UNL     1      -3.601  -0.064  -0.672  1.00  0.00     0.002 C 
HETATM    6  C21 UNL     1      -3.179   0.246  -2.101  1.00  0.00     0.036 C 
HETATM    7  C20 UNL     1      -1.800  -0.206  -2.420  1.00  0.00     0.273 C 
BRANCH   4   8
HETATM    8  C3  UNL     1      -2.757  -0.484   1.602  1.00  0.00     0.265 C 
HETATM    9  O2  UNL     1      -3.082  -1.524   2.274  1.00  0.00    -0.265 OA
BRANCH   8  10
HETATM   10  O1  UNL     1      -2.683   0.676   2.311  1.00  0.00    -0.322 OA
BRANCH  10  11
HETATM   11  C2  UNL     1      -2.937   0.792   3.697  1.00  0.00     0.174 C 
HETATM   12  C1  UNL     1      -4.342   0.377   4.076  1.00  0.00     0.034 C 
ENDBRANCH  10  11
ENDBRANCH   8  10
ENDBRANCH   4   8
BRANCH   5  13
HETATM   13  C23 UNL     1      -4.439   1.060  -0.194  1.00  0.00     0.001 C 
HETATM   14  C24 UNL     1      -3.815   2.376   0.034  1.00  0.00     0.005 C 
ENDBRANCH   5  13
ENDBRANCH   1   2
BRANCH   1  15
HETATM   15  C7  UNL     1       0.532  -1.925  -1.639  1.00  0.00     0.044 C 
BRANCH  15  16
HETATM   16  C8  UNL     1       1.833  -2.555  -2.088  1.00  0.00    -0.020 C 
HETATM   17  C9  UNL     1       2.045  -2.329  -3.581  1.00  0.00     0.009 C 
HETATM   18  C10 UNL     1       1.809  -4.060  -1.879  1.00  0.00     0.009 C 
ENDBRANCH  15  16
ENDBRANCH   1  15
BRANCH   1  19
HETATM   19  C11 UNL     1       1.509   0.336  -1.170  1.00  0.00     0.028 A 
HETATM   20  C12 UNL     1       2.386   0.082  -0.170  1.00  0.00     0.129 A 
HETATM   21  N2  UNL     1       3.123   1.176   0.104  1.00  0.00    -0.266 N 
HETATM   22  N3  UNL     1       2.692   2.110  -0.735  1.00  0.00    -0.286 N 
HETATM   23  C19 UNL     1       1.721   1.670  -1.530  1.00  0.00     0.104 A 
ATOM     24  H3  UNL     1       3.064   3.059  -0.766  1.00  0.00     0.188 HD
HETATM   25 BR1  UNL     1       0.794   2.652  -2.904  1.00  0.00    -0.029 Br
BRANCH  21  26
HETATM   26  C13 UNL     1       4.156   1.339   1.060  1.00  0.00     0.057 A 
HETATM   27  C14 UNL     1       5.218   0.466   1.113  1.00  0.00     0.033 A 
HETATM   28  C15 UNL     1       6.241   0.604   2.024  1.00  0.00     0.028 A 
HETATM   29  C16 UNL     1       6.207   1.661   2.926  1.00  0.00     0.055 A 
HETATM   30 CL1  UNL     1       7.514   1.848   4.101  1.00  0.00    -0.083 Cl
HETATM   31  C17 UNL     1       5.160   2.542   2.895  1.00  0.00     0.058 A 
HETATM   32 CL2  UNL     1       5.138   3.863   4.038  1.00  0.00    -0.082 Cl
HETATM   33  C18 UNL     1       4.132   2.380   1.958  1.00  0.00     0.057 A 
ENDBRANCH  21  26
ENDBRANCH   1  19
TORSDOF 9
