REMARK  8 active torsions:
REMARK  status: ('A' for Active; 'I' for Inactive)
REMARK    1  A    between atoms: O1_2  and  C2_3 
REMARK    2  A    between atoms: C6_8  and  C7_9 
REMARK    3  A    between atoms: C7_9  and  C8_10 
REMARK    4  A    between atoms: C8_10  and  C9_11 
REMARK    5  A    between atoms: C9_11  and  C10_12 
REMARK    6  A    between atoms: C15_19  and  O2_20 
REMARK    7  A    between atoms: O2_20  and  C16_21 
REMARK    8  A    between atoms: C25_32  and  C26_33 
ROOT
HETATM    1  C7  UNL     1       1.159  -0.424   0.073  1.00  0.00     0.028 C 
HETATM    2  C21 UNL     1       0.474  -0.777   1.390  1.00  0.00     0.098 C 
HETATM    3  C22 UNL     1       1.325  -1.583   2.283  1.00  0.00     0.135 C 
HETATM    4  O3  UNL     1       1.614  -1.250   3.436  1.00  0.00    -0.298 OA
HETATM    5  C23 UNL     1       1.850  -2.851   1.733  1.00  0.00     0.162 C 
HETATM    6  C24 UNL     1       2.386  -2.578   0.388  1.00  0.00     0.167 C 
HETATM    7  O4  UNL     1       3.335  -3.237   0.020  1.00  0.00    -0.292 OA
HETATM    8  C25 UNL     1       1.844  -1.560  -0.543  1.00  0.00     0.047 C 
ENDROOT
BRANCH   1   9
HETATM    9  C6  UNL     1       2.112   0.668   0.440  1.00  0.00    -0.040 A 
HETATM   10  C5  UNL     1       1.749   2.010   0.353  1.00  0.00     0.032 A 
HETATM   11  C4  UNL     1       2.615   3.044   0.674  1.00  0.00     0.037 A 
HETATM   12  C3  UNL     1       3.893   2.760   1.101  1.00  0.00     0.060 A 
HETATM   13 CL1  UNL     1       2.051   4.705   0.537  1.00  0.00    -0.084 Cl
HETATM   14  C2  UNL     1       4.286   1.445   1.198  1.00  0.00     0.070 A 
HETATM   15  C28 UNL     1       3.406   0.438   0.872  1.00  0.00     0.045 A 
BRANCH  14  16
HETATM   16  O1  UNL     1       5.585   1.202   1.630  1.00  0.00    -0.356 OA
HETATM   17  C1  UNL     1       6.481   2.231   1.960  1.00  0.00     0.210 C 
ENDBRANCH  14  16
ENDBRANCH   1   9
BRANCH   1  18
HETATM   18  C8  UNL     1       0.086   0.210  -0.779  1.00  0.00     0.025 C 
BRANCH  18  19
HETATM   19  C9  UNL     1      -0.961  -0.714  -1.312  1.00  0.00     0.043 C 
BRANCH  19  20
HETATM   20  C10 UNL     1      -1.889   0.166  -2.126  1.00  0.00    -0.021 A 
HETATM   21  C11 UNL     1      -1.725   0.214  -3.496  1.00  0.00     0.033 A 
HETATM   22  C12 UNL     1      -2.520   1.042  -4.255  1.00  0.00     0.036 A 
HETATM   23 CL2  UNL     1      -2.342   1.139  -6.011  1.00  0.00    -0.084 Cl
HETATM   24  C13 UNL     1      -3.477   1.823  -3.657  1.00  0.00     0.050 A 
HETATM   25  C14 UNL     1      -3.621   1.756  -2.293  1.00  0.00     0.069 A 
HETATM   26 CL3  UNL     1      -4.802   2.808  -1.564  1.00  0.00    -0.081 Cl
HETATM   27  C15 UNL     1      -2.827   0.918  -1.487  1.00  0.00     0.097 A 
BRANCH  27  28
HETATM   28  O2  UNL     1      -3.041   0.906  -0.118  1.00  0.00    -0.344 OA
BRANCH  28  29
HETATM   29  C16 UNL     1      -3.890  -0.065   0.447  1.00  0.00     0.129 C 
HETATM   30  C17 UNL     1      -5.299   0.382   0.706  1.00  0.00     0.032 C 
HETATM   31  C18 UNL     1      -5.815  -0.731   1.643  1.00  0.00     0.002 C 
HETATM   32  C19 UNL     1      -4.646  -0.945   2.543  1.00  0.00     0.002 C 
HETATM   33  C20 UNL     1      -3.422  -0.557   1.774  1.00  0.00     0.032 C 
ENDBRANCH  28  29
ENDBRANCH  27  28
ENDBRANCH  19  20
ENDBRANCH  18  19
ENDBRANCH   1  18
BRANCH   8  34
HETATM   34  C26 UNL     1       2.757  -1.251  -1.647  1.00  0.00     0.156 C 
HETATM   35  C27 UNL     1       3.560  -2.300  -2.341  1.00  0.00     0.096 C 
HETATM   36  O5  UNL     1       2.888  -0.112  -2.041  1.00  0.00    -0.293 OA
ENDBRANCH   8  34
TORSDOF 8
