REMARK  6 active torsions:
REMARK  status: ('A' for Active; 'I' for Inactive)
REMARK    1  A    between atoms: C2_2  and  C3_3 
REMARK    2  A    between atoms: C3_3  and  N1_4 
REMARK    3  A    between atoms: C6_10  and  C7_11 
REMARK    4  A    between atoms: N3_16  and  C10_17 
REMARK    5  A    between atoms: C10_17  and  C11_18 
REMARK    6  A    between atoms: C11_18  and  O1_19 
ROOT
HETATM    1  C3  UNL     1      -3.090  -0.305  -0.098  1.00  0.00     0.123 C 
HETATM    2  C4  UNL     1      -2.400  -1.408   0.686  1.00  0.00     0.039 C 
HETATM    3  C5  UNL     1      -0.986  -0.973   0.955  1.00  0.00     0.015 C 
HETATM    4  C6  UNL     1      -0.291  -0.892  -0.411  1.00  0.00     0.055 C 
HETATM    5  C12 UNL     1      -0.905   0.292  -1.121  1.00  0.00     0.015 C 
HETATM    6  C13 UNL     1      -2.151   0.800  -0.468  1.00  0.00     0.039 C 
ENDROOT
BRANCH   4   7
HETATM    7  C7  UNL     1       1.143  -0.709  -0.139  1.00  0.00     0.101 A 
HETATM    8  N2  UNL     1       2.101  -1.562  -0.541  1.00  0.00    -0.333 N 
HETATM    9  C8  UNL     1       3.289  -1.126  -0.146  1.00  0.00     0.095 A 
ATOM     10  H2  UNL     1       1.938  -2.418  -1.071  1.00  0.00     0.168 HD
HETATM   11  C9  UNL     1       4.578  -1.783  -0.392  1.00  0.00     0.091 C 
HETATM   12  N3  UNL     1       3.082   0.021   0.518  1.00  0.00    -0.277 N 
HETATM   13  N4  UNL     1       1.778   0.267   0.518  1.00  0.00    -0.285 N 
ATOM     14  H4  UNL     1       1.330   1.074   0.951  1.00  0.00     0.188 HD
BRANCH  12  15
HETATM   15  C10 UNL     1       4.162   0.793   1.103  1.00  0.00     0.176 C 
BRANCH  15  16
HETATM   16  C11 UNL     1       4.698   1.799   0.114  1.00  0.00     0.185 C 
BRANCH  16  17
HETATM   17  O1  UNL     1       5.728   2.493   0.758  1.00  0.00    -0.399 OA
ATOM     18  H1  UNL     1       6.065   3.126   0.135  1.00  0.00     0.209 HD
ENDBRANCH  16  17
ENDBRANCH  15  16
ENDBRANCH  12  15
ENDBRANCH   4   7
BRANCH   1  19
HETATM   19  C2  UNL     1      -4.227   0.192   0.746  1.00  0.00     0.034 C 
HETATM   20  C1  UNL     1      -5.076   1.223   0.089  1.00  0.00     0.007 C 
ENDBRANCH   1  19
BRANCH   1  21
HETATM   21  N1  UNL     1      -3.610  -0.900  -1.313  1.00  0.00    -0.070 N 
ATOM     22  H13 UNL     1      -4.295  -1.631  -1.121  1.00  0.00     0.275 HD
ATOM     23  H12 UNL     1      -4.218  -0.261  -1.825  1.00  0.00     0.275 HD
ATOM     24  H11 UNL     1      -2.837  -1.238  -1.887  1.00  0.00     0.275 HD
ENDBRANCH   1  21
TORSDOF 6
