REMARK  13 active torsions:
REMARK  status: ('A' for Active; 'I' for Inactive)
REMARK    1  A    between atoms: C2_2  and  C3_3 
REMARK    2  A    between atoms: C3_3  and  C4_4 
REMARK    3  A    between atoms: C3_3  and  C30_40 
REMARK    4  A    between atoms: C4_4  and  O1_5 
REMARK    5  A    between atoms: C4_4  and  C5_7 
REMARK    6  A    between atoms: C5_7  and  C6_8 
REMARK    7  A    between atoms: C6_8  and  C8_10 
REMARK    8  A    between atoms: C17_19  and  O2_20 
REMARK    9  A    between atoms: O2_20  and  C18_21 
REMARK   10  A    between atoms: C21_25  and  N1_26 
REMARK   11  A    between atoms: C22_28  and  O4_29 
REMARK   12  A    between atoms: C22_28  and  C23_31 
REMARK   13  A    between atoms: C30_40  and  O7_43 
ROOT
HETATM    1  C8  UNL     1       1.021  -0.518  -1.002  1.00  0.00     0.129 C 
HETATM    2  C9  UNL     1       1.343  -1.879  -0.369  1.00  0.00     0.038 C 
HETATM    3  C10 UNL     1       0.027  -2.591  -0.315  1.00  0.00     0.005 C 
HETATM    4  C11 UNL     1       0.092  -4.029   0.016  1.00  0.00    -0.014 C 
HETATM    5  C12 UNL     1       1.323  -4.251   0.912  1.00  0.00     0.010 C 
HETATM    6  C13 UNL     1      -1.089  -4.631   0.655  1.00  0.00     0.005 C 
HETATM    7  C14 UNL     1      -2.343  -3.871   0.691  1.00  0.00     0.006 C 
HETATM    8  C15 UNL     1      -2.280  -2.448   0.241  1.00  0.00     0.001 C 
HETATM    9  C16 UNL     1      -3.440  -1.632   0.703  1.00  0.00     0.038 C 
HETATM   10  C17 UNL     1      -4.196  -1.019  -0.417  1.00  0.00     0.141 C 
HETATM   11  C20 UNL     1      -4.133   0.455  -0.522  1.00  0.00     0.071 A 
HETATM   12  C21 UNL     1      -3.423   1.353   0.364  1.00  0.00     0.122 A 
HETATM   13  C26 UNL     1      -2.667   0.889  -0.789  1.00  0.00     0.156 A 
HETATM   14  O5  UNL     1      -1.880  -0.220  -0.844  1.00  0.00    -0.353 OA
HETATM   15  C27 UNL     1      -0.957  -0.361   0.160  1.00  0.00     0.269 C 
HETATM   16  O6  UNL     1       0.275   0.178  -0.083  1.00  0.00    -0.355 OA
HETATM   17  C28 UNL     1      -0.935  -1.813   0.572  1.00  0.00     0.014 C 
HETATM   18  C29 UNL     1      -0.596  -1.884   2.020  1.00  0.00     0.021 C 
ENDROOT
BRANCH   1  19
HETATM   19  C6  UNL     1       2.260   0.195  -1.440  1.00  0.00     0.013 C 
HETATM   20  C7  UNL     1       2.964  -0.576  -2.511  1.00  0.00     0.012 C 
BRANCH  19  21
HETATM   21  C5  UNL     1       3.210   0.456  -0.262  1.00  0.00     0.039 C 
BRANCH  21  22
HETATM   22  C4  UNL     1       4.356   1.248  -0.833  1.00  0.00     0.125 C 
BRANCH  22  23
HETATM   23  C3  UNL     1       5.418   1.629   0.127  1.00  0.00     0.048 C 
BRANCH  23  24
HETATM   24  C2  UNL     1       6.489   2.403  -0.605  1.00  0.00     0.006 C 
HETATM   25  C1  UNL     1       6.028   3.662  -1.251  1.00  0.00     0.006 C 
ENDBRANCH  23  24
BRANCH  23  26
HETATM   26  C30 UNL     1       6.079   0.483   0.846  1.00  0.00     0.057 C 
HETATM   27  C31 UNL     1       6.793  -0.465  -0.072  1.00  0.00     0.045 C 
HETATM   28  C32 UNL     1       7.177   1.117   1.718  1.00  0.00     0.045 C 
BRANCH  26  29
HETATM   29  O7  UNL     1       5.229  -0.143   1.755  1.00  0.00    -0.390 OA
ATOM     30  H7  UNL     1       5.646  -0.866   2.209  1.00  0.00     0.210 HD
ENDBRANCH  26  29
ENDBRANCH  23  26
ENDBRANCH  22  23
BRANCH  22  31
HETATM   31  O1  UNL     1       3.805   2.400  -1.386  1.00  0.00    -0.395 OA
ATOM     32  H1  UNL     1       3.124   2.156  -2.002  1.00  0.00     0.210 HD
ENDBRANCH  22  31
ENDBRANCH  21  22
ENDBRANCH  19  21
ENDBRANCH   1  19
BRANCH  12  33
HETATM   33  N1  UNL     1      -3.834   2.767   0.312  1.00  0.00    -0.366 N 
HETATM   34  C22 UNL     1      -5.037   3.136   0.458  1.00  0.00     0.115 C 
ATOM     35  H1  UNL     1      -3.120   3.478   0.152  1.00  0.00     0.161 HD
BRANCH  34  36
HETATM   36  O4  UNL     1      -6.045   2.221   0.678  1.00  0.00    -0.349 OA
ATOM     37  H4  UNL     1      -6.947   2.498   0.787  1.00  0.00     0.219 HD
ENDBRANCH  34  36
BRANCH  34  38
HETATM   38  C23 UNL     1      -5.341   4.587   0.387  1.00  0.00     0.052 C 
HETATM   39  C24 UNL     1      -4.113   5.412   0.142  1.00  0.00     0.018 C 
HETATM   40  C25 UNL     1      -5.948   5.037   1.695  1.00  0.00     0.018 C 
ENDBRANCH  34  38
ENDBRANCH  12  33
BRANCH  10  41
HETATM   41  O2  UNL     1      -5.570  -1.411  -0.431  1.00  0.00    -0.316 OA
BRANCH  41  42
HETATM   42  C18 UNL     1      -6.155  -2.138  -1.427  1.00  0.00     0.255 C 
HETATM   43  C19 UNL     1      -7.603  -2.493  -1.341  1.00  0.00     0.126 C 
HETATM   44  O3  UNL     1      -5.481  -2.500  -2.400  1.00  0.00    -0.266 OA
ENDBRANCH  41  42
ENDBRANCH  10  41
TORSDOF 13
