REMARK  13 active torsions:
REMARK  status: ('A' for Active; 'I' for Inactive)
REMARK    1  A    between atoms: C2_2  and  O2_4 
REMARK    2  A    between atoms: O2_4  and  C3_5 
REMARK    3  A    between atoms: C3_5  and  C4_6 
REMARK    4  A    between atoms: C3_5  and  C20_24 
REMARK    5  A    between atoms: C4_6  and  C6_8 
REMARK    6  A    between atoms: C6_8  and  C7_9 
REMARK    7  A    between atoms: C7_9  and  C9_11 
REMARK    8  A    between atoms: C13_16  and  C14_17 
REMARK    9  A    between atoms: C20_24  and  C22_26 
REMARK   10  A    between atoms: C22_26  and  C23_27 
REMARK   11  A    between atoms: C30_35  and  O6_36 
REMARK   12  A    between atoms: C31_38  and  O7_39 
REMARK   13  A    between atoms: C32_41  and  O8_42 
ROOT
HETATM    1  C3  UNL     1      -0.335   1.381   0.135  1.00  0.00     0.143 C 
ENDROOT
BRANCH   1   2
HETATM    2  O2  UNL     1      -0.196   2.837   0.334  1.00  0.00    -0.315 OA
BRANCH   2   3
HETATM    3  C2  UNL     1       0.308   3.652  -0.656  1.00  0.00     0.255 C 
HETATM    4  C1  UNL     1       0.419   5.118  -0.391  1.00  0.00     0.126 C 
HETATM    5  O1  UNL     1       0.654   3.137  -1.736  1.00  0.00    -0.266 OA
ENDBRANCH   2   3
ENDBRANCH   1   2
BRANCH   1   6
HETATM    6  C4  UNL     1       0.518   0.700   1.074  1.00  0.00     0.012 C 
HETATM    7  C5  UNL     1       0.250   0.876   2.543  1.00  0.00     0.012 C 
BRANCH   6   8
HETATM    8  C6  UNL     1       1.091  -0.635   0.827  1.00  0.00     0.014 C 
BRANCH   8   9
HETATM    9  C7  UNL     1       2.020  -0.877  -0.303  1.00  0.00     0.018 C 
HETATM   10  C8  UNL     1       1.516  -0.635  -1.687  1.00  0.00     0.013 C 
BRANCH   9  11
HETATM   11  C9  UNL     1       3.357  -0.185  -0.142  1.00  0.00     0.195 C 
HETATM   12  O3  UNL     1       4.032  -0.560   0.985  1.00  0.00    -0.367 OA
HETATM   13  C10 UNL     1       5.101  -1.373   0.919  1.00  0.00     0.062 C 
HETATM   14  C11 UNL     1       5.921  -1.200   2.205  1.00  0.00     0.046 C 
HETATM   15  C12 UNL     1       4.524  -2.813   1.128  1.00  0.00     0.046 C 
HETATM   16  C13 UNL     1       5.909  -1.428  -0.271  1.00  0.00     0.049 C 
HETATM   17  C18 UNL     1       4.992  -1.562  -1.514  1.00  0.00     0.092 C 
HETATM   18  C19 UNL     1       4.117  -0.357  -1.402  1.00  0.00     0.156 C 
HETATM   19  O4  UNL     1       4.083   0.414  -2.354  1.00  0.00    -0.295 OA
BRANCH  16  20
HETATM   20  C14 UNL     1       6.937  -0.503  -0.666  1.00  0.00    -0.017 C 
HETATM   21  C15 UNL     1       7.408   0.639  -0.371  1.00  0.00    -0.091 C 
HETATM   22  C16 UNL     1       8.596   1.158  -1.187  1.00  0.00     0.042 C 
HETATM   23  C17 UNL     1       6.951   1.577   0.650  1.00  0.00     0.042 C 
ENDBRANCH  16  20
ENDBRANCH   9  11
ENDBRANCH   8   9
ENDBRANCH   6   8
ENDBRANCH   1   6
BRANCH   1  24
HETATM   24  C20 UNL     1      -1.854   1.146   0.172  1.00  0.00     0.034 C 
HETATM   25  C21 UNL     1      -2.376   1.964  -0.978  1.00  0.00     0.017 C 
BRANCH  24  26
HETATM   26  C22 UNL     1      -2.165  -0.251   0.260  1.00  0.00    -0.014 C 
BRANCH  26  27
HETATM   27  C23 UNL     1      -3.509  -0.851   0.292  1.00  0.00    -0.041 C 
HETATM   28  C24 UNL     1      -4.459  -0.506   1.379  1.00  0.00     0.083 C 
HETATM   29  C25 UNL     1      -3.929   0.386   2.467  1.00  0.00     0.023 C 
HETATM   30  C26 UNL     1      -5.770   0.009   0.922  1.00  0.00     0.145 C 
HETATM   31  O5  UNL     1      -6.053   1.059   1.464  1.00  0.00    -0.296 OA
HETATM   32  C27 UNL     1      -6.826  -0.404  -0.012  1.00  0.00     0.042 C 
HETATM   33  C28 UNL     1      -8.073  -0.807   0.800  1.00  0.00     0.026 C 
HETATM   34  C29 UNL     1      -7.272   0.868  -0.750  1.00  0.00     0.026 C 
HETATM   35  C30 UNL     1      -6.555  -1.519  -0.930  1.00  0.00     0.165 C 
HETATM   36  C31 UNL     1      -5.210  -2.152  -0.897  1.00  0.00     0.180 C 
HETATM   37  C32 UNL     1      -4.173  -1.063  -1.057  1.00  0.00     0.179 C 
BRANCH  35  38
HETATM   38  O6  UNL     1      -6.732  -1.034  -2.252  1.00  0.00    -0.392 OA
ATOM     39  H6  UNL     1      -6.557  -1.755  -2.845  1.00  0.00     0.210 HD
ENDBRANCH  35  38
BRANCH  36  40
HETATM   40  O7  UNL     1      -4.977  -3.024   0.132  1.00  0.00    -0.390 OA
ATOM     41  H7  UNL     1      -4.118  -3.428   0.153  1.00  0.00     0.210 HD
ENDBRANCH  36  40
BRANCH  37  42
HETATM   42  O8  UNL     1      -3.167  -1.532  -1.909  1.00  0.00    -0.389 OA
ATOM     43  H8  UNL     1      -3.582  -1.665  -2.753  1.00  0.00     0.210 HD
ENDBRANCH  37  42
ENDBRANCH  26  27
ENDBRANCH  24  26
ENDBRANCH   1  24
TORSDOF 13
