REMARK  2 active torsions:
REMARK  status: ('A' for Active; 'I' for Inactive)
REMARK    1  A    between atoms: C2_7  and  N3_8 
REMARK    2  A    between atoms: N3_8  and  C3_10 
ROOT
HETATM    1  N3  UNL     1      -0.374   1.022   0.354  1.00  0.00    -0.019 N 
ATOM      2  H3  UNL     1      -0.337   1.982   0.696  1.00  0.00     0.203 HD
ENDROOT
BRANCH   1   3
HETATM    3  C2  UNL     1      -1.630   0.366   0.248  1.00  0.00     0.715 A 
HETATM    4  N2  UNL     1      -1.909  -0.874  -0.170  1.00  0.00    -0.127 N 
HETATM    5  N1  UNL     1      -3.233  -1.090  -0.110  1.00  0.00    -0.237 N 
ATOM      6  H2  UNL     1      -1.218  -1.554  -0.487  1.00  0.00     0.205 HD
HETATM    7  C1  UNL     1      -3.817   0.025   0.353  1.00  0.00     0.353 A 
ATOM      8  H1  UNL     1      -3.711  -1.952  -0.371  1.00  0.00     0.192 HD
HETATM    9  O1  UNL     1      -5.049   0.242   0.559  1.00  0.00    -0.245 OA
HETATM   10  N8  UNL     1      -2.816   0.911   0.568  1.00  0.00    -0.138 N 
ATOM     11  H8  UNL     1      -2.944   1.859   0.923  1.00  0.00     0.189 HD
ENDBRANCH   1   3
BRANCH   1  12
HETATM   12  C3  UNL     1       0.851   0.353  -0.014  1.00  0.00     0.709 A 
HETATM   13  N4  UNL     1       0.945  -0.304  -1.118  1.00  0.00    -0.117 N 
HETATM   14  N5  UNL     1       2.138  -0.938  -1.448  1.00  0.00    -0.231 N 
ATOM     15  H4  UNL     1       0.146  -0.359  -1.749  1.00  0.00     0.207 HD
HETATM   16  N6  UNL     1       3.191  -0.940  -0.746  1.00  0.00    -0.303 N 
ATOM     17  H5  UNL     1       2.167  -1.445  -2.332  1.00  0.00     0.208 HD
HETATM   18  C4  UNL     1       3.250  -0.250   0.520  1.00  0.00     0.280 A 
ATOM     19  H6  UNL     1       4.015  -1.439  -1.082  1.00  0.00     0.183 HD
HETATM   20  N7  UNL     1       1.993   0.398   0.830  1.00  0.00    -0.207 N 
ATOM     21  H7  UNL     1       1.923   0.917   1.705  1.00  0.00     0.179 HD
ENDBRANCH   1  12
TORSDOF 2
