REMARK  3 active torsions:
REMARK  status: ('A' for Active; 'I' for Inactive)
REMARK    1  A    between atoms: N1_1  and  N2_4 
REMARK       I    between atoms: N2_4  and  C1_5 
REMARK    2  A    between atoms: C1_5  and  C2_7 
REMARK    3  A    between atoms: N3_11  and  N4_12 
ROOT
HETATM    1  C2  UNL     1      -0.196  -0.662   0.260  1.00  0.00     0.126 A 
HETATM    2  C3  UNL     1       1.003  -1.306   0.263  1.00  0.00     0.113 A 
HETATM    3  C4  UNL     1       2.184  -0.600   0.212  1.00  0.00     0.272 A 
HETATM    4  O2  UNL     1       3.302  -1.191   0.216  1.00  0.00    -0.266 OA
HETATM    5  N3  UNL     1       2.179   0.756   0.156  1.00  0.00    -0.175 N 
HETATM    6  C5  UNL     1       0.971   1.359   0.154  1.00  0.00     0.348 A 
HETATM    7  O3  UNL     1       0.915   2.614   0.103  1.00  0.00    -0.245 OA
HETATM    8  N5  UNL     1      -0.203   0.669   0.205  1.00  0.00    -0.301 N 
ATOM      9  H5  UNL     1      -1.090   1.173   0.201  1.00  0.00     0.171 HD
ENDROOT
BRANCH   1  10
HETATM   10  C1  UNL     1      -1.505  -1.354   0.326  1.00  0.00     0.361 C 
HETATM   11  N2  UNL     1      -2.680  -0.671   0.164  1.00  0.00    -0.287 NA
HETATM   12  O1  UNL     1      -1.370  -2.586   0.539  1.00  0.00    -0.247 OA
BRANCH  11  13
HETATM   13  N1  UNL     1      -3.801  -0.018   0.010  1.00  0.00    -0.276 N 
ATOM     14  H12 UNL     1      -2.906  -0.484   0.155  1.00  0.00     0.191 HD
ATOM     15  H11 UNL     1      -4.677   0.491  -0.111  1.00  0.00     0.191 HD
ENDBRANCH  11  13
ENDBRANCH   1  10
BRANCH   5  16
HETATM   16  N4  UNL     1       3.361   1.500   0.103  1.00  0.00    -0.332 N 
ATOM     17  H42 UNL     1       4.274   1.044   0.105  1.00  0.00     0.177 HD
ATOM     18  H41 UNL     1       3.357   2.519   0.061  1.00  0.00     0.177 HD
ENDBRANCH   5  16
TORSDOF 3
