REMARK  2 active torsions:
REMARK  status: ('A' for Active; 'I' for Inactive)
REMARK    1  A    between atoms: C3_5  and  N2_6 
REMARK    2  A    between atoms: N2_6  and  C4_8 
ROOT
HETATM    1  C1  UNL     1       3.928   0.217   0.282  1.00  0.00     0.037 C 
HETATM    2  C2  UNL     1       3.043  -0.600   0.163  1.00  0.00    -0.000 C 
HETATM    3  N1  UNL     1       2.024  -1.569   0.037  1.00  0.00    -0.312 N 
ATOM      4  H1  UNL     1       2.223  -2.471  -0.395  1.00  0.00     0.177 HD
HETATM    5  C3  UNL     1       0.841  -1.304   0.472  1.00  0.00     0.184 C 
ENDROOT
BRANCH   5   6
HETATM    6  N2  UNL     1       0.492  -0.076   1.082  1.00  0.00    -0.381 N 
ATOM      7  H2  UNL     1       1.147   0.322   1.755  1.00  0.00     0.160 HD
BRANCH   6   8
HETATM    8  C4  UNL     1      -0.712   0.644   0.822  1.00  0.00     0.082 C 
HETATM    9  C5  UNL     1      -0.891   1.071  -0.640  1.00  0.00     0.025 C 
HETATM   10  C6  UNL     1      -1.761  -0.123  -0.839  1.00  0.00     0.004 C 
HETATM   11  C7  UNL     1      -1.956  -0.203   0.660  1.00  0.00     0.025 C 
ENDBRANCH   6   8
ENDBRANCH   5   6
TORSDOF 2
