REMARK  2 active torsions:
REMARK  status: ('A' for Active; 'I' for Inactive)
REMARK    1  A    between atoms: C3_3  and  C4_4 
REMARK    2  A    between atoms: C4_4  and  N1_5 
ROOT
HETATM    1  C1  UNL     1       2.179   1.368   1.321  1.00  0.00     0.012 C 
HETATM    2  C2  UNL     1       1.942   0.314   0.774  1.00  0.00    -0.116 C 
HETATM    3  C3  UNL     1       1.667  -0.959   0.091  1.00  0.00     0.115 C 
ENDROOT
BRANCH   3   4
HETATM    4  C4  UNL     1       0.786  -0.634  -1.099  1.00  0.00     0.162 C 
BRANCH   4   5
HETATM    5  N1  UNL     1      -0.416  -0.028  -0.574  1.00  0.00    -0.286 N 
HETATM    6  C5  UNL     1      -1.510  -0.729  -0.227  1.00  0.00     0.201 A 
HETATM    7  N2  UNL     1      -2.451   0.103   0.222  1.00  0.00    -0.346 N 
HETATM    8  C6  UNL     1      -1.939   1.341   0.155  1.00  0.00     0.198 A 
ATOM      9  H2  UNL     1      -3.381  -0.153   0.553  1.00  0.00     0.167 HD
HETATM   10  N3  UNL     1      -0.685   1.246  -0.337  1.00  0.00    -0.293 N 
ATOM     11  H3  UNL     1      -0.050   2.027  -0.499  1.00  0.00     0.188 HD
ENDBRANCH   4   5
ENDBRANCH   3   4
TORSDOF 2
