REMARK  16 active torsions:
REMARK  status: ('A' for Active; 'I' for Inactive)
REMARK    1  A    between atoms: C2_2  and  N1_3 
REMARK    2  A    between atoms: C8_12  and  N2_13 
REMARK    3  A    between atoms: C9_15  and  N3_16 
REMARK    4  A    between atoms: C9_15  and  C21_44 
REMARK       I    between atoms: C10_18  and  N4_19 
REMARK       I    between atoms: C10_18  and  N8_27 
REMARK    5  A    between atoms: N4_19  and  C11_21 
REMARK    6  A    between atoms: C11_21  and  N5_22 
REMARK    7  A    between atoms: N8_27  and  C13_29 
REMARK    8  A    between atoms: C13_29  and  N9_31 
REMARK    9  A    between atoms: N9_31  and  C14_33 
REMARK   10  A    between atoms: C14_33  and  C15_34 
REMARK   11  A    between atoms: C15_34  and  C16_35 
REMARK   12  A    between atoms: C16_35  and  C17_36 
REMARK   13  A    between atoms: C17_36  and  C18_37 
REMARK   14  A    between atoms: C18_37  and  C19_38 
REMARK   15  A    between atoms: C19_38  and  C20_39 
REMARK   16  A    between atoms: C20_39  and  N10_40 
ROOT
HETATM    1  N3  UNL     1      -1.779   1.408  -1.973  1.00  0.00    -0.170 N 
ATOM      2  H3  UNL     1      -2.597   1.999  -2.120  1.00  0.00     0.186 HD
HETATM    3  C10 UNL     1      -0.709   1.972  -1.514  1.00  0.00     0.683 C 
HETATM    4  N4  UNL     1      -0.777   3.377  -1.259  1.00  0.00    -0.210 N 
ATOM      5  H4  UNL     1      -0.006   3.977  -1.554  1.00  0.00     0.179 HD
HETATM    6  N8  UNL     1       0.499   1.295  -1.254  1.00  0.00    -0.166 N 
ATOM      7  H8  UNL     1       0.818   0.621  -1.950  1.00  0.00     0.186 HD
ENDROOT
BRANCH   1   8
HETATM    8  C9  UNL     1      -1.899   0.037  -2.285  1.00  0.00     0.195 C 
HETATM    9  N2  UNL     1      -2.460  -0.840  -1.555  1.00  0.00    -0.358 N 
ATOM     10  H2  UNL     1      -2.440  -1.775  -1.962  1.00  0.00     0.162 HD
BRANCH   9  11
HETATM   11  C8  UNL     1      -3.092  -0.793  -0.325  1.00  0.00     0.072 C 
HETATM   12  C2  UNL     1      -2.357  -1.408   0.837  1.00  0.00     0.146 C 
HETATM   13  C1  UNL     1      -1.439  -2.522   0.485  1.00  0.00     0.049 C 
HETATM   14  C3  UNL     1      -3.473  -1.830   1.781  1.00  0.00     0.050 C 
HETATM   15  C4  UNL     1      -4.735  -1.294   1.158  1.00  0.00    -0.032 C 
HETATM   16  C5  UNL     1      -5.983  -1.882   1.651  1.00  0.00     0.016 C 
HETATM   17  C6  UNL     1      -4.657   0.212   1.203  1.00  0.00     0.012 C 
HETATM   18  C22 UNL     1      -4.441  -1.551  -0.306  1.00  0.00    -0.013 C 
HETATM   19  C7  UNL     1      -3.593   0.555   0.150  1.00  0.00     0.035 C 
HETATM   20  C23 UNL     1      -4.293  -2.978  -0.663  1.00  0.00     0.018 C 
HETATM   21  C24 UNL     1      -5.406  -0.899  -1.243  1.00  0.00     0.018 C 
BRANCH  12  22
HETATM   22  N1  UNL     1      -1.574  -0.373   1.499  1.00  0.00    -0.068 N 
ATOM     23  H13 UNL     1      -1.054  -0.725   2.303  1.00  0.00     0.275 HD
ATOM     24  H12 UNL     1      -0.775  -0.066   0.944  1.00  0.00     0.275 HD
ATOM     25  H11 UNL     1      -2.204   0.392   1.741  1.00  0.00     0.275 HD
ENDBRANCH  12  22
ENDBRANCH   9  11
BRANCH   8  26
HETATM   26  C21 UNL     1      -1.319  -0.365  -3.586  1.00  0.00     0.245 C 
HETATM   27  O1  UNL     1      -1.407  -1.562  -3.907  1.00  0.00    -0.642 OA
HETATM   28  O2  UNL     1      -0.701   0.538  -4.429  1.00  0.00    -0.642 OA
ENDBRANCH   8  26
ENDBRANCH   1   8
BRANCH   4  29
HETATM   29  C11 UNL     1      -1.902   3.957  -0.600  1.00  0.00     0.264 C 
BRANCH  29  30
HETATM   30  N5  UNL     1      -1.812   5.368  -0.572  1.00  0.00    -0.350 N 
HETATM   31  C12 UNL     1      -1.475   6.136   0.381  1.00  0.00     0.198 C 
HETATM   32  N6  UNL     1      -1.463   7.561   0.149  1.00  0.00    -0.067 NA
HETATM   33  N7  UNL     1      -1.098   5.722   1.695  1.00  0.00    -0.067 NA
ATOM     34  H5  UNL     1      -2.053   5.837  -1.445  1.00  0.00     0.163 HD
ENDBRANCH  29  30
ENDBRANCH   4  29
BRANCH   6  35
HETATM   35  C13 UNL     1       1.309   1.476  -0.101  1.00  0.00     0.186 C 
HETATM   36  S1  UNL     1       0.923   2.519   1.085  1.00  0.00    -0.040 SA
BRANCH  35  37
HETATM   37  N9  UNL     1       2.497   0.714   0.021  1.00  0.00    -0.367 N 
ATOM     38  H9  UNL     1       3.096   0.822   0.840  1.00  0.00     0.161 HD
BRANCH  37  39
HETATM   39  C14 UNL     1       2.849  -0.207  -1.012  1.00  0.00     0.122 C 
BRANCH  39  40
HETATM   40  C15 UNL     1       4.109  -0.997  -0.708  1.00  0.00     0.020 C 
BRANCH  40  41
HETATM   41  C16 UNL     1       3.981  -1.804   0.536  1.00  0.00     0.002 C 
BRANCH  41  42
HETATM   42  C17 UNL     1       5.231  -2.592   0.783  1.00  0.00     0.000 C 
BRANCH  42  43
HETATM   43  C18 UNL     1       6.408  -1.690   0.930  1.00  0.00     0.002 C 
BRANCH  43  44
HETATM   44  C19 UNL     1       7.664  -2.506   1.204  1.00  0.00     0.027 C 
BRANCH  44  45
HETATM   45  C20 UNL     1       8.859  -1.596   1.351  1.00  0.00     0.229 C 
BRANCH  45  46
HETATM   46  N10 UNL     1       9.021  -0.854   0.108  1.00  0.00    -0.079 N 
ATOM     47 3H10 UNL     1       9.088  -1.463  -0.708  1.00  0.00     0.274 HD
ATOM     48 2H10 UNL     1       8.176  -0.352  -0.164  1.00  0.00     0.274 HD
ATOM     49 1H10 UNL     1       9.829  -0.239   0.207  1.00  0.00     0.274 HD
ENDBRANCH  45  46
ENDBRANCH  44  45
ENDBRANCH  43  44
ENDBRANCH  42  43
ENDBRANCH  41  42
ENDBRANCH  40  41
ENDBRANCH  39  40
ENDBRANCH  37  39
ENDBRANCH  35  37
ENDBRANCH   6  35
TORSDOF 16
