REMARK  11 active torsions:
REMARK  status: ('A' for Active; 'I' for Inactive)
REMARK    1  A    between atoms: C2_2  and  N1_4 
REMARK    2  A    between atoms: C2_2  and  C4_8 
REMARK    3  A    between atoms: C4_8  and  C5_9 
REMARK       I    between atoms: C5_9  and  N2_11 
REMARK    4  A    between atoms: N2_11  and  C6_13 
REMARK    5  A    between atoms: C10_17  and  N3_18 
REMARK       I    between atoms: N3_18  and  C11_20 
REMARK       I    between atoms: C11_20  and  N5_24 
REMARK    6  A    between atoms: N5_24  and  C12_26 
REMARK    7  A    between atoms: C14_31  and  C15_32 
REMARK    8  A    between atoms: C15_32  and  N7_33 
REMARK    9  A    between atoms: N7_33  and  S1_35 
REMARK   10  A    between atoms: S1_35  and  C16_38 
REMARK   11  A    between atoms: C19_41  and  C20_42 
ROOT
HETATM    1  C12 UNL     1      -0.300   0.022   0.543  1.00  0.00     0.327 C 
HETATM    2  C13 UNL     1       0.423   0.793  -0.541  1.00  0.00     0.289 C 
HETATM    3  N6  UNL     1       1.834   0.769  -0.133  1.00  0.00    -0.041 N 
ATOM      4  H61 UNL     1       2.176   1.643   0.267  1.00  0.00     0.279 HD
ATOM      5  H62 UNL     1       2.500   0.741  -0.905  1.00  0.00     0.279 HD
HETATM    6  C14 UNL     1       1.896  -0.366   0.758  1.00  0.00     0.403 C 
HETATM    7  N8  UNL     1       0.723  -0.119   1.586  1.00  0.00    -0.021 N 
ATOM      8  H81 UNL     1       0.532  -0.816   2.305  1.00  0.00     0.282 HD
ATOM      9  H82 UNL     1       0.798   0.657   2.243  1.00  0.00     0.282 HD
ENDROOT
BRANCH   1  10
HETATM   10  N5  UNL     1      -0.683  -1.291   0.114  1.00  0.00    -0.196 N 
HETATM   11  C11 UNL     1      -1.679  -1.471  -0.916  1.00  0.00     0.669 C 
HETATM   12  N3  UNL     1      -2.436  -0.316  -1.179  1.00  0.00    -0.220 N 
HETATM   13  N4  UNL     1      -1.780  -2.599  -1.484  1.00  0.00    -0.235 N 
ATOM     14  H3  UNL     1      -2.095   0.331  -1.890  1.00  0.00     0.178 HD
ATOM     15  H42 UNL     1      -2.484  -2.726  -2.212  1.00  0.00     0.174 HD
ATOM     16  H41 UNL     1      -1.231  -3.437  -1.293  1.00  0.00     0.174 HD
ATOM     17  H5  UNL     1      -0.247  -2.108   0.541  1.00  0.00     0.180 HD
BRANCH  12  18
HETATM   18  C10 UNL     1      -3.709   0.016  -0.477  1.00  0.00     0.122 C 
HETATM   19  C6  UNL     1      -4.781  -0.768  -1.118  1.00  0.00     0.107 C 
HETATM   20  C7  UNL     1      -4.954  -0.029  -2.441  1.00  0.00     0.027 C 
HETATM   21  C8  UNL     1      -4.748   1.422  -2.060  1.00  0.00     0.004 C 
HETATM   22  C9  UNL     1      -3.958   1.472  -0.804  1.00  0.00     0.028 C 
BRANCH  19  23
HETATM   23  N2  UNL     1      -6.020  -0.999  -0.482  1.00  0.00    -0.354 N 
HETATM   24  C5  UNL     1      -6.928  -0.169   0.157  1.00  0.00     0.220 C 
HETATM   25  O1  UNL     1      -6.788   1.046   0.270  1.00  0.00    -0.274 OA
ATOM     26  H2  UNL     1      -6.306  -1.978  -0.495  1.00  0.00     0.162 HD
BRANCH  24  27
HETATM   27  C4  UNL     1      -8.184  -0.731   0.751  1.00  0.00     0.140 C 
BRANCH  27  28
HETATM   28  C2  UNL     1      -9.376   0.062   0.269  1.00  0.00     0.124 C 
HETATM   29  C1  UNL     1     -10.676  -0.405   0.843  1.00  0.00     0.046 C 
HETATM   30  C3  UNL     1      -9.284   1.533   0.296  1.00  0.00     0.046 C 
BRANCH  28  31
HETATM   31  N1  UNL     1      -9.500  -0.274  -1.210  1.00  0.00    -0.071 N 
ATOM     32  H13 UNL     1      -9.721  -1.251  -1.404  1.00  0.00     0.275 HD
ATOM     33  H12 UNL     1     -10.326   0.115  -1.664  1.00  0.00     0.275 HD
ATOM     34  H11 UNL     1      -8.614   0.044  -1.601  1.00  0.00     0.275 HD
ENDBRANCH  28  31
ENDBRANCH  27  28
ENDBRANCH  24  27
ENDBRANCH  19  23
ENDBRANCH  12  18
ENDBRANCH   1  10
BRANCH   6  35
HETATM   35  C15 UNL     1       3.118  -0.450   1.594  1.00  0.00     0.195 C 
BRANCH  35  36
HETATM   36  N7  UNL     1       3.332   0.673   2.478  1.00  0.00    -0.312 N 
ATOM     37  H7  UNL     1       2.741   1.499   2.570  1.00  0.00     0.172 HD
BRANCH  36  38
HETATM   38  S1  UNL     1       4.812   0.333   3.364  1.00  0.00     0.258 S 
HETATM   39  O2  UNL     1       5.028   1.456   4.302  1.00  0.00    -0.201 OA
HETATM   40  O3  UNL     1       4.609  -0.958   4.071  1.00  0.00    -0.201 OA
BRANCH  38  41
HETATM   41  C16 UNL     1       6.104   0.214   2.200  1.00  0.00     0.079 A 
HETATM   42  C17 UNL     1       6.370  -1.052   1.690  1.00  0.00     0.026 A 
HETATM   43  C18 UNL     1       7.364  -1.217   0.754  1.00  0.00     0.009 A 
HETATM   44  C19 UNL     1       8.123  -0.131   0.295  1.00  0.00    -0.051 A 
HETATM   45  C24 UNL     1       7.847   1.100   0.810  1.00  0.00     0.009 A 
HETATM   46  C25 UNL     1       6.841   1.299   1.763  1.00  0.00     0.026 A 
BRANCH  44  47
HETATM   47  C20 UNL     1       9.181  -0.299  -0.724  1.00  0.00    -0.024 C 
HETATM   48  C21 UNL     1       9.089   0.709  -1.843  1.00  0.00     0.019 C 
HETATM   49  C22 UNL     1      10.539  -0.216  -0.092  1.00  0.00     0.019 C 
HETATM   50  C23 UNL     1       9.073  -1.683  -1.361  1.00  0.00     0.019 C 
ENDBRANCH  44  47
ENDBRANCH  38  41
ENDBRANCH  36  38
ENDBRANCH  35  36
ENDBRANCH   6  35
TORSDOF 11
