REMARK  11 active torsions:
REMARK  status: ('A' for Active; 'I' for Inactive)
REMARK    1  A    between atoms: C2_2  and  O1_3 
REMARK    2  A    between atoms: C2_2  and  C3_5 
REMARK    3  A    between atoms: C4_8  and  O2_9 
REMARK    4  A    between atoms: C5_11  and  N2_12 
REMARK    5  A    between atoms: N2_12  and  C6_14 
REMARK    6  A    between atoms: C6_14  and  C7_18 
REMARK    7  A    between atoms: C7_18  and  C8_19 
REMARK    8  A    between atoms: C8_19  and  C9_20 
REMARK    9  A    between atoms: C9_20  and  C10_21 
REMARK   10  A    between atoms: C10_21  and  C11_22 
REMARK   11  A    between atoms: C11_22  and  N4_23 
ROOT
HETATM    1  C3  UNL     1      -0.342  -1.541  -0.698  1.00  0.00     0.204 C 
HETATM    2  N1  UNL     1      -0.324  -0.546   0.302  1.00  0.00    -0.354 N 
ATOM      3  H1  UNL     1      -1.185  -0.595   0.846  1.00  0.00     0.162 HD
HETATM    4  C4  UNL     1       0.471   0.472   0.789  1.00  0.00     0.159 C 
HETATM    5  C5  UNL     1       0.790   1.853   0.340  1.00  0.00     0.061 C 
HETATM    6  C13 UNL     1      -0.185   2.493  -0.580  1.00  0.00     0.061 C 
HETATM    7  C14 UNL     1      -1.432   2.874   0.234  1.00  0.00     0.006 C 
HETATM    8  C15 UNL     1      -2.212   3.956  -0.442  1.00  0.00     0.000 C 
HETATM    9  C16 UNL     1      -3.676   3.749  -0.224  1.00  0.00     0.000 C 
HETATM   10  C17 UNL     1      -3.990   3.506   1.221  1.00  0.00     0.004 C 
HETATM   11  C18 UNL     1      -5.024   2.380   1.345  1.00  0.00     0.027 C 
HETATM   12  C19 UNL     1      -4.657   1.565   2.515  1.00  0.00    -0.031 C 
HETATM   13  C20 UNL     1      -4.785   0.273   2.570  1.00  0.00    -0.030 C 
HETATM   14  C21 UNL     1      -5.310  -0.579   1.487  1.00  0.00     0.030 C 
HETATM   15  C22 UNL     1      -4.526  -1.857   1.384  1.00  0.00     0.054 C 
HETATM   16  C23 UNL     1      -3.781  -2.021   0.066  1.00  0.00     0.121 C 
HETATM   17  C24 UNL     1      -4.700  -2.935  -0.768  1.00  0.00     0.068 C 
HETATM   18  C25 UNL     1      -5.370  -2.010  -1.722  1.00  0.00     0.134 C 
HETATM   19  N7  UNL     1      -4.537  -0.825  -1.757  1.00  0.00    -0.146 NA
HETATM   20  N8  UNL     1      -3.812  -0.811  -0.614  1.00  0.00    -0.116 NA
HETATM   21  N9  UNL     1      -2.501  -2.657   0.283  1.00  0.00    -0.335 N 
ATOM     22  H9  UNL     1      -2.474  -3.227   1.129  1.00  0.00     0.164 HD
HETATM   23  C26 UNL     1      -1.314  -2.658  -0.406  1.00  0.00     0.244 C 
HETATM   24  O3  UNL     1      -0.936  -3.795  -0.898  1.00  0.00    -0.271 OA
ENDROOT
BRANCH   5  25
HETATM   25  N2  UNL     1       2.172   2.093   0.083  1.00  0.00    -0.346 N 
ATOM     26  H2  UNL     1       2.610   2.827   0.639  1.00  0.00     0.167 HD
BRANCH  25  27
HETATM   27  C6  UNL     1       3.020   1.428  -0.862  1.00  0.00     0.074 C 
HETATM   28  N3  UNL     1       3.192   1.873  -2.044  1.00  0.00    -0.389 N 
ATOM     29  H32 UNL     1       2.729   2.736  -2.329  1.00  0.00     0.157 HD
ATOM     30  H31 UNL     1       3.795   1.400  -2.717  1.00  0.00     0.157 HD
BRANCH  27  31
HETATM   31  C7  UNL     1       3.692   0.177  -0.448  1.00  0.00     0.076 C 
BRANCH  31  32
HETATM   32  C8  UNL     1       4.879  -0.240  -1.212  1.00  0.00     0.007 C 
BRANCH  32  33
HETATM   33  C9  UNL     1       6.059   0.638  -1.232  1.00  0.00     0.002 C 
BRANCH  33  34
HETATM   34  C10 UNL     1       6.741   0.966   0.036  1.00  0.00     0.020 C 
BRANCH  34  35
HETATM   35  C11 UNL     1       7.346  -0.169   0.799  1.00  0.00     0.122 C 
BRANCH  35  36
HETATM   36  N4  UNL     1       6.453  -1.183   1.235  1.00  0.00    -0.367 N 
HETATM   37  C12 UNL     1       6.844  -2.324   1.688  1.00  0.00     0.196 C 
HETATM   38  N5  UNL     1       8.249  -2.636   1.777  1.00  0.00    -0.067 NA
HETATM   39  N6  UNL     1       5.896  -3.296   2.108  1.00  0.00    -0.067 NA
ATOM     40  H4  UNL     1       5.451  -0.999   1.187  1.00  0.00     0.161 HD
ENDBRANCH  35  36
ENDBRANCH  34  35
ENDBRANCH  33  34
ENDBRANCH  32  33
ENDBRANCH  31  32
ENDBRANCH  27  31
ENDBRANCH  25  27
ENDBRANCH   5  25
BRANCH   4  41
HETATM   41  O2  UNL     1       1.134   0.244   1.921  1.00  0.00    -0.345 OA
ATOM     42  H2  UNL     1       1.681   0.945   2.256  1.00  0.00     0.219 HD
ENDBRANCH   4  41
BRANCH   1  43
HETATM   43  C2  UNL     1      -0.541  -1.175  -2.134  1.00  0.00     0.146 C 
HETATM   44  C1  UNL     1      -0.486  -2.402  -3.024  1.00  0.00     0.042 C 
BRANCH  43  45
HETATM   45  O1  UNL     1       0.515  -0.372  -2.628  1.00  0.00    -0.393 OA
ATOM     46  H1  UNL     1       0.481   0.396  -2.071  1.00  0.00     0.210 HD
ENDBRANCH  43  45
ENDBRANCH   1  43
TORSDOF 11
