REMARK  3 active torsions:
REMARK  status: ('A' for Active; 'I' for Inactive)
REMARK    1  A    between atoms: C2_2  and  N1_4 
REMARK    2  A    between atoms: N1_4  and  C3_6 
REMARK    3  A    between atoms: C7_10  and  C8_11 
ROOT
HETATM    1  C3  UNL     1       0.520  -0.285   0.336  1.00  0.00     0.032 A 
HETATM    2  C4  UNL     1      -0.339  -1.432   0.901  1.00  0.00     0.035 C 
HETATM    3  C5  UNL     1      -1.758  -1.351   0.504  1.00  0.00    -0.011 C 
HETATM    4  C6  UNL     1      -1.902  -0.699  -0.867  1.00  0.00     0.015 C 
HETATM    5  C7  UNL     1      -1.775   0.613  -0.091  1.00  0.00    -0.021 C 
HETATM    6  C9  UNL     1      -2.344  -0.078   1.083  1.00  0.00     0.015 C 
HETATM    7  C10 UNL     1      -0.265   0.860   0.000  1.00  0.00     0.025 A 
HETATM    8  C11 UNL     1       0.441   0.947   1.265  1.00  0.00     0.039 A 
ENDROOT
BRANCH   1   9
HETATM    9  N1  UNL     1       1.793  -0.704   0.065  1.00  0.00    -0.396 N 
ATOM     10  H1  UNL     1       2.116  -1.472   0.653  1.00  0.00     0.155 HD
BRANCH   9  11
HETATM   11  C2  UNL     1       2.701  -0.279  -0.846  1.00  0.00     0.170 C 
HETATM   12  C1  UNL     1       4.082  -0.232  -0.175  1.00  0.00     0.049 C 
HETATM   13 CL1  UNL     1       2.525   1.293  -1.618  1.00  0.00    -0.103 Cl
ENDBRANCH   9  11
ENDBRANCH   1   9
BRANCH   5  14
HETATM   14  C8  UNL     1      -2.554   1.746  -0.666  1.00  0.00     0.124 C 
HETATM   15 CL2  UNL     1      -4.273   1.335  -0.663  1.00  0.00    -0.130 Cl
ENDBRANCH   5  14
TORSDOF 3
