REMARK  4 active torsions:
REMARK  status: ('A' for Active; 'I' for Inactive)
REMARK    1  A    between atoms: C4_5  and  N1_6 
REMARK    2  A    between atoms: N1_6  and  N2_8 
REMARK    3  A    between atoms: C7_12  and  C8_13 
REMARK    4  A    between atoms: C15_20  and  C16_21 
ROOT
HETATM    1  N2  UNL     1       2.574  -0.043  -0.114  1.00  0.00    -0.289 N 
ATOM      2  H2  UNL     1       2.988  -0.934  -0.388  1.00  0.00     0.188 HD
HETATM    3  C5  UNL     1       1.310  -0.020  -0.026  1.00  0.00     0.092 C 
HETATM    4  C6  UNL     1       0.554  -1.275  -0.326  1.00  0.00     0.082 C 
HETATM    5  C7  UNL     1      -0.703  -1.229   0.484  1.00  0.00    -0.002 C 
HETATM    6  C14 UNL     1      -1.584  -0.091   0.103  1.00  0.00     0.031 C 
HETATM    7  C15 UNL     1      -0.802   1.194  -0.128  1.00  0.00     0.087 C 
HETATM    8  N3  UNL     1       0.542   1.125   0.344  1.00  0.00    -0.374 N 
ATOM      9  H3  UNL     1       0.939   1.865   0.923  1.00  0.00     0.161 HD
ENDROOT
BRANCH   1  10
HETATM   10  N1  UNL     1       3.455   0.988   0.115  1.00  0.00    -0.298 N 
ATOM     11  H1  UNL     1       3.130   1.952   0.193  1.00  0.00     0.187 HD
BRANCH  10  12
HETATM   12  C4  UNL     1       4.834   0.666   0.240  1.00  0.00     0.070 A 
HETATM   13  C3  UNL     1       5.638   0.621  -0.873  1.00  0.00     0.036 A 
HETATM   14  C2  UNL     1       6.981   0.308  -0.755  1.00  0.00     0.044 A 
HETATM   15  C1  UNL     1       7.484   0.044   0.501  1.00  0.00     0.118 A 
HETATM   16  F1  UNL     1       8.814  -0.264   0.602  1.00  0.00    -0.206 F 
HETATM   17  C23 UNL     1       6.689   0.087   1.612  1.00  0.00     0.068 A 
HETATM   18  C22 UNL     1       5.341   0.402   1.490  1.00  0.00     0.065 A 
HETATM   19 CL1  UNL     1       4.322   0.458   2.907  1.00  0.00    -0.082 Cl
ENDBRANCH  10  12
ENDBRANCH   1  10
BRANCH   5  20
HETATM   20  C8  UNL     1      -1.486  -2.513   0.465  1.00  0.00    -0.010 C 
HETATM   21  C9  UNL     1      -1.896  -2.950  -0.921  1.00  0.00     0.005 C 
HETATM   22  C10 UNL     1      -3.082  -3.905  -0.745  1.00  0.00     0.000 C 
HETATM   23  C11 UNL     1      -2.894  -4.751   0.471  1.00  0.00     0.000 C 
HETATM   24  C12 UNL     1      -1.443  -4.919   0.871  1.00  0.00     0.000 C 
HETATM   25  C13 UNL     1      -0.808  -3.604   1.245  1.00  0.00     0.005 C 
ENDBRANCH   5  20
BRANCH   7  26
HETATM   26  C16 UNL     1      -1.613   2.328   0.408  1.00  0.00     0.008 C 
HETATM   27  C17 UNL     1      -0.912   3.653   0.243  1.00  0.00     0.007 C 
HETATM   28  C18 UNL     1      -1.822   4.812   0.498  1.00  0.00     0.000 C 
HETATM   29  C19 UNL     1      -2.966   4.719  -0.497  1.00  0.00     0.000 C 
HETATM   30  C20 UNL     1      -3.786   3.504  -0.074  1.00  0.00     0.000 C 
HETATM   31  C21 UNL     1      -2.943   2.289  -0.307  1.00  0.00     0.007 C 
ENDBRANCH   7  26
TORSDOF 4
