REMARK  14 active torsions:
REMARK  status: ('A' for Active; 'I' for Inactive)
REMARK    1  A    between atoms: C3_3  and  O1_4 
REMARK    2  A    between atoms: C3_3  and  C4_6 
REMARK    3  A    between atoms: C3_3  and  C11_13 
REMARK    4  A    between atoms: C4_6  and  C5_7 
REMARK    5  A    between atoms: C5_7  and  C6_8 
REMARK    6  A    between atoms: C6_8  and  C7_9 
REMARK    7  A    between atoms: C7_9  and  C9_11 
REMARK    8  A    between atoms: C14_16  and  O2_17 
REMARK    9  A    between atoms: N1_22  and  O3_24 
REMARK   10  A    between atoms: O3_24  and  C18_25 
REMARK   11  A    between atoms: C22_30  and  C23_31 
REMARK   12  A    between atoms: C23_31  and  C25_33 
REMARK   13  A    between atoms: C25_33  and  O5_34 
REMARK   14  A    between atoms: C30_42  and  C31_43 
ROOT
HETATM    1  C1  UNL     1       4.808   3.074   0.920  1.00  0.00     0.015 C 
HETATM    2  C2  UNL     1       4.119   2.422   0.178  1.00  0.00    -0.079 C 
HETATM    3  C3  UNL     1       3.267   1.580  -0.788  1.00  0.00     0.124 C 
ENDROOT
BRANCH   3   4
HETATM    4  O1  UNL     1       3.011   2.457  -1.829  1.00  0.00    -0.377 OA
ATOM      5  H1  UNL     1       2.485   1.937  -2.425  1.00  0.00     0.211 HD
ENDBRANCH   3   4
BRANCH   3   6
HETATM    6  C4  UNL     1       4.197   0.520  -1.226  1.00  0.00     0.052 C 
BRANCH   6   7
HETATM    7  C5  UNL     1       4.727  -0.390  -0.189  1.00  0.00     0.004 C 
BRANCH   7   8
HETATM    8  C6  UNL     1       5.660  -1.414  -0.800  1.00  0.00     0.004 C 
BRANCH   8   9
HETATM    9  C7  UNL     1       6.222  -2.360   0.224  1.00  0.00    -0.019 C 
HETATM   10  C8  UNL     1       5.115  -3.121   0.920  1.00  0.00     0.010 C 
BRANCH   9  11
HETATM   11  C9  UNL     1       7.053  -1.679   1.267  1.00  0.00    -0.000 C 
HETATM   12  C10 UNL     1       8.242  -0.955   0.690  1.00  0.00     0.005 C 
ENDBRANCH   9  11
ENDBRANCH   8   9
ENDBRANCH   7   8
ENDBRANCH   6   7
ENDBRANCH   3   6
BRANCH   3  13
HETATM   13  C11 UNL     1       2.085   1.174   0.008  1.00  0.00     0.040 C 
HETATM   14  C12 UNL     1       1.510   2.590   0.419  1.00  0.00     0.012 C 
HETATM   15  C13 UNL     1       0.155   2.338   0.957  1.00  0.00     0.039 C 
HETATM   16  C14 UNL     1      -0.101   0.928   0.597  1.00  0.00     0.067 C 
HETATM   17  C15 UNL     1      -1.500   0.560   0.440  1.00  0.00     0.031 C 
HETATM   18  C33 UNL     1       0.853   0.619  -0.581  1.00  0.00     0.039 C 
HETATM   19  C16 UNL     1      -2.365   1.340  -0.465  1.00  0.00     0.063 C 
HETATM   20  C28 UNL     1      -1.546  -0.948   0.136  1.00  0.00     0.008 C 
HETATM   21  C17 UNL     1      -3.758   0.814  -0.454  1.00  0.00     0.023 C 
HETATM   22  N1  UNL     1      -4.709   1.664  -0.301  1.00  0.00    -0.265 N 
HETATM   23  C20 UNL     1      -3.929  -0.612  -0.647  1.00  0.00     0.037 C 
ATOM     24  H1  UNL     1      -5.674   1.333  -0.289  1.00  0.00     0.194 HD
HETATM   25  C21 UNL     1      -3.649  -0.992  -2.120  1.00  0.00     0.025 C 
HETATM   26  C22 UNL     1      -5.169  -1.293  -0.290  1.00  0.00     0.152 C 
HETATM   27  C27 UNL     1      -2.934  -1.335   0.245  1.00  0.00     0.106 C 
HETATM   28  O6  UNL     1      -4.735  -2.630   0.065  1.00  0.00    -0.314 OA
HETATM   29  C26 UNL     1      -3.354  -2.696  -0.030  1.00  0.00     0.265 C 
HETATM   30  O7  UNL     1      -2.687  -3.704  -0.291  1.00  0.00    -0.265 OA
HETATM   31  C29 UNL     1      -0.784  -1.128  -1.095  1.00  0.00     0.018 C 
HETATM   32  C30 UNL     1       0.717  -0.846  -0.775  1.00  0.00     0.063 C 
BRANCH  16  33
HETATM   33  O2  UNL     1       0.429   0.131   1.645  1.00  0.00    -0.389 OA
ATOM     34  H2  UNL     1       0.264  -0.776   1.414  1.00  0.00     0.210 HD
ENDBRANCH  16  33
BRANCH  22  35
HETATM   35  O3  UNL     1      -4.461   3.000  -0.154  1.00  0.00    -0.200 OA
BRANCH  35  36
HETATM   36  C18 UNL     1      -4.847   3.706   0.974  1.00  0.00     0.277 C 
HETATM   37  C19 UNL     1      -4.598   5.150   1.170  1.00  0.00     0.128 C 
HETATM   38  O4  UNL     1      -5.445   3.084   1.884  1.00  0.00    -0.264 OA
ENDBRANCH  35  36
ENDBRANCH  22  35
BRANCH  26  39
HETATM   39  C23 UNL     1      -6.125  -0.750   0.686  1.00  0.00     0.036 C 
HETATM   40  C24 UNL     1      -7.292  -1.786   0.753  1.00  0.00     0.015 C 
BRANCH  39  41
HETATM   41  C25 UNL     1      -5.691  -0.552   2.101  1.00  0.00     0.170 C 
BRANCH  41  42
HETATM   42  O5  UNL     1      -6.796  -0.038   2.863  1.00  0.00    -0.400 OA
ATOM     43  H5  UNL     1      -6.520   0.088   3.763  1.00  0.00     0.209 HD
ENDBRANCH  41  42
ENDBRANCH  39  41
ENDBRANCH  26  39
BRANCH  32  44
HETATM   44  C31 UNL     1       1.372  -1.458  -1.948  1.00  0.00     0.127 C 
HETATM   45  C32 UNL     1       1.163  -1.021  -3.346  1.00  0.00     0.091 C 
HETATM   46  O8  UNL     1       2.134  -2.383  -1.783  1.00  0.00    -0.298 OA
ENDBRANCH  32  44
ENDBRANCH   3  13
TORSDOF 14
