REMARK  14 active torsions:
REMARK  status: ('A' for Active; 'I' for Inactive)
REMARK    1  A    between atoms: C2_2  and  C4_4 
REMARK    2  A    between atoms: C5_5  and  C6_6 
REMARK    3  A    between atoms: C7_7  and  O1_8 
REMARK    4  A    between atoms: C7_7  and  C8_10 
REMARK    5  A    between atoms: C8_10  and  O2_11 
REMARK    6  A    between atoms: C8_10  and  C11_15 
REMARK    7  A    between atoms: O2_11  and  C9_12 
REMARK    8  A    between atoms: C11_15  and  C13_17 
REMARK    9  A    between atoms: C21_26  and  C23_28 
REMARK   10  A    between atoms: C29_35  and  O6_36 
REMARK   11  A    between atoms: C30_38  and  O7_39 
REMARK   12  A    between atoms: O7_39  and  C31_40 
REMARK   13  A    between atoms: C31_40  and  C32_42 
REMARK   14  A    between atoms: C32_42  and  N1_44 
ROOT
HETATM    1  C13 UNL     1       0.210  -1.469   0.389  1.00  0.00     0.095 C 
HETATM    2  C14 UNL     1      -0.844  -1.751   1.430  1.00  0.00     0.138 C 
HETATM    3  O4  UNL     1      -0.520  -1.831   2.636  1.00  0.00    -0.297 OA
HETATM    4  C15 UNL     1      -2.246  -1.937   1.105  1.00  0.00     0.059 C 
HETATM    5  C16 UNL     1      -2.520  -3.251   0.476  1.00  0.00     0.018 C 
HETATM    6  C17 UNL     1      -2.710  -0.698   0.360  1.00  0.00     0.034 C 
HETATM    7  C18 UNL     1      -3.817  -0.993  -0.567  1.00  0.00     0.009 C 
HETATM    8  C19 UNL     1      -4.041   0.197  -1.486  1.00  0.00     0.007 C 
HETATM    9  C20 UNL     1      -3.546   1.420  -0.785  1.00  0.00     0.012 C 
HETATM   10  C21 UNL     1      -4.348   2.608  -1.012  1.00  0.00     0.014 C 
HETATM   11  C22 UNL     1      -4.865   2.824  -2.405  1.00  0.00     0.023 C 
HETATM   12  C24 UNL     1      -3.760   3.880  -0.464  1.00  0.00     0.016 C 
HETATM   13  C25 UNL     1      -2.254   3.934  -0.515  1.00  0.00     0.002 C 
HETATM   14  C26 UNL     1      -1.592   2.672  -0.041  1.00  0.00     0.012 C 
HETATM   15  C27 UNL     1      -2.041   1.444  -0.789  1.00  0.00    -0.005 C 
HETATM   16  C28 UNL     1      -1.475   1.625  -2.169  1.00  0.00     0.019 C 
HETATM   17  C29 UNL     1      -1.589   0.218  -0.049  1.00  0.00     0.097 C 
HETATM   18  C30 UNL     1      -0.379  -0.463  -0.579  1.00  0.00     0.179 C 
ENDROOT
BRANCH   1  19
HETATM   19  C11 UNL     1       1.454  -1.255   1.069  1.00  0.00     0.031 C 
HETATM   20  C12 UNL     1       1.744  -2.662   1.763  1.00  0.00     0.014 C 
BRANCH  19  21
HETATM   21  C8  UNL     1       2.739  -0.848   0.543  1.00  0.00     0.192 C 
BRANCH  21  22
HETATM   22  C7  UNL     1       3.721  -0.739   1.706  1.00  0.00     0.073 C 
HETATM   23  C6  UNL     1       4.168   0.164   2.448  1.00  0.00     0.035 C 
BRANCH  23  24
HETATM   24  C5  UNL     1       3.885   1.622   2.466  1.00  0.00     0.003 C 
HETATM   25  C4  UNL     1       4.503   2.381   3.384  1.00  0.00     0.006 C 
BRANCH  25  26
HETATM   26  C2  UNL     1       5.452   1.785   4.361  1.00  0.00    -0.071 C 
HETATM   27  C1  UNL     1       5.718   3.101   5.131  1.00  0.00     0.047 C 
HETATM   28  C3  UNL     1       6.211   0.877   4.970  1.00  0.00     0.018 C 
ENDBRANCH  25  26
ENDBRANCH  23  24
BRANCH  22  29
HETATM   29  O1  UNL     1       4.293  -2.058   2.053  1.00  0.00    -0.362 OA
ATOM     30  H1  UNL     1       3.954  -2.744   1.490  1.00  0.00     0.217 HD
ENDBRANCH  22  29
ENDBRANCH  21  22
BRANCH  21  31
HETATM   31  O2  UNL     1       3.448  -1.678  -0.391  1.00  0.00    -0.309 OA
BRANCH  31  32
HETATM   32  C9  UNL     1       4.330  -1.110  -1.317  1.00  0.00     0.255 C 
HETATM   33  C10 UNL     1       5.077  -1.936  -2.268  1.00  0.00     0.126 C 
HETATM   34  O3  UNL     1       4.430   0.164  -1.262  1.00  0.00    -0.266 OA
ENDBRANCH  31  32
ENDBRANCH  21  31
ENDBRANCH  19  21
ENDBRANCH   1  19
BRANCH  18  35
HETATM   35  O7  UNL     1      -0.773  -1.265  -1.696  1.00  0.00    -0.310 OA
BRANCH  35  36
HETATM   36  C31 UNL     1      -0.026  -1.377  -2.828  1.00  0.00     0.289 C 
HETATM   37  O8  UNL     1       1.079  -0.770  -2.860  1.00  0.00    -0.263 OA
BRANCH  36  38
HETATM   38  C32 UNL     1      -0.501  -2.174  -3.977  1.00  0.00     0.278 C 
HETATM   39  C33 UNL     1      -1.419  -3.282  -3.585  1.00  0.00     0.050 C 
BRANCH  38  40
HETATM   40  N1  UNL     1       0.666  -2.688  -4.680  1.00  0.00    -0.066 N 
ATOM     41  H13 UNL     1       1.318  -1.953  -4.952  1.00  0.00     0.275 HD
ATOM     42  H12 UNL     1       1.296  -3.210  -4.071  1.00  0.00     0.275 HD
ATOM     43  H11 UNL     1       0.338  -3.238  -5.474  1.00  0.00     0.275 HD
ENDBRANCH  38  40
ENDBRANCH  36  38
ENDBRANCH  35  36
ENDBRANCH  18  35
BRANCH  17  44
HETATM   44  O6  UNL     1      -1.101   0.694   1.243  1.00  0.00    -0.386 OA
ATOM     45  H6  UNL     1      -0.393   1.272   0.985  1.00  0.00     0.210 HD
ENDBRANCH  17  44
BRANCH  10  46
HETATM   46  C23 UNL     1      -5.631   2.379  -0.205  1.00  0.00     0.240 C 
HETATM   47  O5  UNL     1      -5.944   3.336   0.571  1.00  0.00    -0.306 OA
ENDBRANCH  10  46
TORSDOF 14
