REMARK  7 active torsions:
REMARK  status: ('A' for Active; 'I' for Inactive)
REMARK    1  A    between atoms: C2_2  and  C4_4 
REMARK    2  A    between atoms: C4_4  and  C5_5 
REMARK    3  A    between atoms: C5_5  and  C11_16 
REMARK       I    between atoms: N1_6  and  C6_8 
REMARK       I    between atoms: C6_8  and  N2_10 
REMARK    4  A    between atoms: N2_10  and  C7_12 
REMARK       I    between atoms: C11_16  and  N3_18 
REMARK    5  A    between atoms: N3_18  and  N4_20 
REMARK    6  A    between atoms: C12_22  and  C13_23 
REMARK    7  A    between atoms: N5_29  and  O3_30 
ROOT
HETATM    1  C11 UNL     1       0.415   1.133  -0.185  1.00  0.00     0.282 C 
HETATM    2  O2  UNL     1       1.422   1.901   0.019  1.00  0.00    -0.265 OA
HETATM    3  N3  UNL     1       0.685  -0.245  -0.207  1.00  0.00    -0.265 N 
ATOM      4  H3  UNL     1      -0.073  -0.909  -0.365  1.00  0.00     0.190 HD
ENDROOT
BRANCH   1   5
HETATM    5  C5  UNL     1      -0.862   1.783  -0.365  1.00  0.00     0.083 C 
HETATM    6  N1  UNL     1      -1.986   1.240  -0.565  1.00  0.00    -0.307 N 
HETATM    7  C6  UNL     1      -2.460  -0.044  -0.669  1.00  0.00     0.321 C 
ATOM      8  H1  UNL     1      -2.728   1.931  -0.678  1.00  0.00     0.170 HD
HETATM    9  O1  UNL     1      -2.518  -0.689  -1.769  1.00  0.00    -0.247 OA
HETATM   10  N2  UNL     1      -2.934  -0.765   0.474  1.00  0.00    -0.335 N 
ATOM     11  H2  UNL     1      -2.911  -0.298   1.381  1.00  0.00     0.165 HD
BRANCH   5  12
HETATM   12  C4  UNL     1      -0.905   3.296  -0.344  1.00  0.00     0.067 C 
BRANCH  12  13
HETATM   13  C2  UNL     1      -0.175   3.865  -1.511  1.00  0.00    -0.017 C 
HETATM   14  C1  UNL     1      -0.251   5.398  -1.442  1.00  0.00     0.010 C 
HETATM   15  C3  UNL     1      -0.827   3.473  -2.836  1.00  0.00     0.010 C 
ENDBRANCH  12  13
ENDBRANCH   5  12
BRANCH  10  16
HETATM   16  C7  UNL     1      -3.442  -2.112   0.416  1.00  0.00     0.023 C 
HETATM   17  C8  UNL     1      -4.655  -2.195  -0.512  1.00  0.00     0.037 C 
HETATM   18  C9  UNL     1      -3.902  -2.528   1.795  1.00  0.00     0.037 C 
HETATM   19  C10 UNL     1      -2.422  -3.091  -0.125  1.00  0.00     0.037 C 
ENDBRANCH  10  16
ENDBRANCH   1   5
BRANCH   3  20
HETATM   20  N4  UNL     1       1.983  -0.707  -0.014  1.00  0.00    -0.307 N 
HETATM   21  C12 UNL     1       2.509  -0.835   1.147  1.00  0.00     0.139 C 
ATOM     22  H4  UNL     1       2.540  -0.954  -0.832  1.00  0.00     0.186 HD
BRANCH  21  23
HETATM   23  C13 UNL     1       3.873  -1.323   1.294  1.00  0.00     0.079 A 
HETATM   24  C14 UNL     1       4.475  -1.475   2.524  1.00  0.00     0.035 A 
HETATM   25  C15 UNL     1       5.773  -1.943   2.613  1.00  0.00     0.028 A 
HETATM   26  C16 UNL     1       6.478  -2.261   1.471  1.00  0.00     0.052 A 
HETATM   27 CL1  UNL     1       8.136  -2.861   1.535  1.00  0.00    -0.083 Cl
HETATM   28  C17 UNL     1       5.849  -2.098   0.258  1.00  0.00     0.147 A 
HETATM   29  N5  UNL     1       4.576  -1.638   0.205  1.00  0.00    -0.233 N 
BRANCH  29  30
HETATM   30  O3  UNL     1       4.034  -1.509  -1.054  1.00  0.00    -0.283 OA
ATOM     31  H3  UNL     1       4.535  -1.733  -1.830  1.00  0.00     0.245 HD
ENDBRANCH  29  30
ENDBRANCH  21  23
ENDBRANCH   3  20
TORSDOF 7
