REMARK  7 active torsions:
REMARK  status: ('A' for Active; 'I' for Inactive)
REMARK    1  A    between atoms: N1_1  and  C1_4 
REMARK    2  A    between atoms: C2_7  and  S1_8 
REMARK    3  A    between atoms: S1_8  and  N3_11 
REMARK    4  A    between atoms: N3_11  and  N4_13 
REMARK    5  A    between atoms: N4_13  and  C3_15 
REMARK    6  A    between atoms: N5_16  and  O3_18 
REMARK    7  A    between atoms: C4_22  and  N7_23 
ROOT
HETATM    1  C1  UNL     1      -1.965   1.571   0.175  1.00  0.00     0.692 A 
HETATM    2  N2  UNL     1      -0.885   0.813   0.359  1.00  0.00    -0.163 N 
ATOM      3  H2  UNL     1       0.012   1.254   0.562  1.00  0.00     0.186 HD
HETATM    4  C2  UNL     1      -0.964  -0.520   0.280  1.00  0.00     0.254 A 
HETATM    5  N6  UNL     1      -2.147  -1.084   0.013  1.00  0.00    -0.163 N 
ATOM      6  H6  UNL     1      -2.208  -2.100  -0.047  1.00  0.00     0.186 HD
HETATM    7  C4  UNL     1      -3.259  -0.351  -0.179  1.00  0.00     0.692 A 
HETATM    8  N8  UNL     1      -3.149   0.986  -0.093  1.00  0.00    -0.023 N 
ATOM      9  H8  UNL     1      -3.975   1.567  -0.233  1.00  0.00     0.203 HD
ENDROOT
BRANCH   4  10
HETATM   10  S1  UNL     1       0.443  -1.495   0.520  1.00  0.00     0.309 S 
HETATM   11  O1  UNL     1       1.057  -1.254   1.886  1.00  0.00    -0.196 OA
HETATM   12  O2  UNL     1       0.087  -2.937   0.339  1.00  0.00    -0.196 OA
BRANCH  10  13
HETATM   13  N3  UNL     1       1.651  -1.107  -0.640  1.00  0.00    -0.220 N 
ATOM     14  H3  UNL     1       1.729  -1.568  -1.546  1.00  0.00     0.200 HD
BRANCH  13  15
HETATM   15  N4  UNL     1       2.509  -0.101  -0.216  1.00  0.00    -0.285 N 
ATOM     16  H4  UNL     1       2.199   0.869  -0.164  1.00  0.00     0.188 HD
BRANCH  15  17
HETATM   17  C3  UNL     1       3.839  -0.471   0.144  1.00  0.00     0.221 C 
HETATM   18  N5  UNL     1       4.807   0.373   0.195  1.00  0.00    -0.264 N 
ATOM     19  H5  UNL     1       5.741   0.060   0.459  1.00  0.00     0.195 HD
BRANCH  18  20
HETATM   20  O3  UNL     1       4.587   1.689  -0.104  1.00  0.00    -0.289 OA
ATOM     21  H3  UNL     1       5.302   2.313  -0.066  1.00  0.00     0.244 HD
ENDBRANCH  18  20
ENDBRANCH  15  17
ENDBRANCH  13  15
ENDBRANCH  10  13
ENDBRANCH   4  10
BRANCH   1  22
HETATM   22  N1  UNL     1      -1.820   2.857   0.265  1.00  0.00    -0.234 N 
ATOM     23  H12 UNL     1      -0.924   3.300   0.468  1.00  0.00     0.174 HD
ATOM     24  H11 UNL     1      -2.647   3.437   0.124  1.00  0.00     0.174 HD
ENDBRANCH   1  22
BRANCH   7  25
HETATM   25  N7  UNL     1      -4.417  -0.874  -0.439  1.00  0.00    -0.234 N 
ATOM     26  H72 UNL     1      -4.500  -1.888  -0.504  1.00  0.00     0.174 HD
ATOM     27  H71 UNL     1      -5.260  -0.318  -0.585  1.00  0.00     0.174 HD
ENDBRANCH   7  25
TORSDOF 7
