REMARK  5 active torsions:
REMARK  status: ('A' for Active; 'I' for Inactive)
REMARK    1  A    between atoms: N1_1  and  C1_4 
REMARK    2  A    between atoms: N5_15  and  C5_16 
REMARK    3  A    between atoms: C5_16  and  C6_17 
REMARK    4  A    between atoms: C6_17  and  N6_18 
REMARK    5  A    between atoms: N6_18  and  N7_19 
REMARK       I    between atoms: N6_18  and  C7_22 
REMARK       I    between atoms: C7_22  and  N8_23 
REMARK       I    between atoms: C7_22  and  N9_27 
ROOT
HETATM    1  C1  UNL     1       3.379   0.352   1.100  1.00  0.00     0.679 A 
HETATM    2  N2  UNL     1       4.219   0.980   0.251  1.00  0.00    -0.175 N 
ATOM      3  H2  UNL     1       5.108   1.350   0.587  1.00  0.00     0.186 HD
HETATM    4  C2  UNL     1       3.874   1.114  -1.038  1.00  0.00     0.145 A 
HETATM    5  N3  UNL     1       4.646   1.707  -1.882  1.00  0.00    -0.383 N 
ATOM      6  H31 UNL     1       4.384   1.809  -2.862  1.00  0.00     0.157 HD
ATOM      7  H32 UNL     1       5.533   2.072  -1.534  1.00  0.00     0.157 HD
HETATM    8  C3  UNL     1       2.677   0.622  -1.507  1.00  0.00     0.123 A 
HETATM    9  N4  UNL     1       2.044   0.585  -2.689  1.00  0.00    -0.346 N 
ATOM     10  H4  UNL     1       2.395   0.972  -3.565  1.00  0.00     0.167 HD
HETATM   11  C4  UNL     1       0.869  -0.048  -2.526  1.00  0.00     0.185 A 
HETATM   12  N5  UNL     1       0.714  -0.431  -1.253  1.00  0.00    -0.325 N 
HETATM   13  C8  UNL     1       1.845  -0.013  -0.611  1.00  0.00     0.155 A 
HETATM   14  N10 UNL     1       2.217  -0.133   0.672  1.00  0.00    -0.174 N 
ATOM     15  H10 UNL     1       1.598  -0.605   1.331  1.00  0.00     0.186 HD
ENDROOT
BRANCH  12  16
HETATM   16  C5  UNL     1      -0.375  -1.137  -0.608  1.00  0.00     0.153 C 
BRANCH  16  17
HETATM   17  C6  UNL     1      -1.416  -0.145  -0.067  1.00  0.00     0.166 C 
BRANCH  17  18
HETATM   18  N6  UNL     1      -2.444  -0.900   0.546  1.00  0.00    -0.280 N 
HETATM   19  C7  UNL     1      -3.518  -0.180   1.116  1.00  0.00     0.496 C 
HETATM   20  N8  UNL     1      -4.197   0.621   0.106  1.00  0.00    -0.032 N 
HETATM   21  N9  UNL     1      -3.095   0.729   2.186  1.00  0.00    -0.032 N 
ATOM     22  H83 UNL     1      -3.549   1.236  -0.386  1.00  0.00     0.279 HD
ATOM     23  H82 UNL     1      -4.501   0.053  -0.685  1.00  0.00     0.279 HD
ATOM     24  H81 UNL     1      -4.972   1.141   0.517  1.00  0.00     0.279 HD
ATOM     25  H93 UNL     1      -2.571   0.228   2.904  1.00  0.00     0.279 HD
ATOM     26  H92 UNL     1      -2.365   1.362   1.859  1.00  0.00     0.279 HD
ATOM     27  H91 UNL     1      -3.870   1.249   2.597  1.00  0.00     0.279 HD
BRANCH  18  28
HETATM   28  N7  UNL     1      -2.714  -2.121   0.011  1.00  0.00    -0.344 N 
ATOM     29  H72 UNL     1      -1.939  -2.641  -0.400  1.00  0.00     0.176 HD
ATOM     30  H71 UNL     1      -3.455  -2.665   0.453  1.00  0.00     0.176 HD
ENDBRANCH  18  28
ENDBRANCH  17  18
ENDBRANCH  16  17
ENDBRANCH  12  16
BRANCH   1  31
HETATM   31  N1  UNL     1       3.708   0.222   2.335  1.00  0.00    -0.234 N 
ATOM     32  H12 UNL     1       4.599   0.594   2.663  1.00  0.00     0.174 HD
ATOM     33  H11 UNL     1       3.073  -0.253   2.977  1.00  0.00     0.174 HD
ENDBRANCH   1  31
TORSDOF 5
