REMARK  9 active torsions:
REMARK  status: ('A' for Active; 'I' for Inactive)
REMARK    1  A    between atoms: N1_1  and  C1_4 
REMARK    2  A    between atoms: N3_8  and  C3_9 
REMARK    3  A    between atoms: C3_9  and  C4_10 
REMARK    4  A    between atoms: C4_10  and  C5_11 
REMARK    5  A    between atoms: C5_11  and  C6_12 
REMARK    6  A    between atoms: C6_12  and  N4_13 
REMARK    7  A    between atoms: C7_17  and  N5_18 
REMARK    8  A    between atoms: N5_18  and  N6_20 
REMARK    9  A    between atoms: C8_26  and  N9_27 
ROOT
HETATM    1  C1  UNL     1      -2.360   2.613   0.121  1.00  0.00     0.705 A 
HETATM    2  N2  UNL     1      -1.326   1.868  -0.308  1.00  0.00    -0.019 N 
ATOM      3  H2  UNL     1      -0.500   2.342  -0.674  1.00  0.00     0.203 HD
HETATM    4  C2  UNL     1      -1.337   0.523  -0.274  1.00  0.00     0.750 A 
HETATM    5  N3  UNL     1      -0.452  -0.423  -0.634  1.00  0.00    -0.009 N 
HETATM    6  C7  UNL     1      -1.008  -1.616  -0.369  1.00  0.00     0.729 A 
HETATM    7  N7  UNL     1      -2.224  -1.372   0.148  1.00  0.00    -0.094 N 
ATOM      8  H7  UNL     1      -2.884  -2.090   0.447  1.00  0.00     0.207 HD
HETATM    9  N8  UNL     1      -2.447  -0.061   0.216  1.00  0.00     0.106 N 
HETATM   10  C8  UNL     1      -3.505   0.643   0.656  1.00  0.00     0.727 A 
HETATM   11  N10 UNL     1      -3.451   1.983   0.603  1.00  0.00    -0.020 N 
ATOM     12  H10 UNL     1      -4.245   2.532   0.931  1.00  0.00     0.203 HD
ENDROOT
BRANCH   5  13
HETATM   13  C3  UNL     1       0.867  -0.236  -1.205  1.00  0.00     0.167 C 
BRANCH  13  14
HETATM   14  C4  UNL     1       1.933  -0.135  -0.143  1.00  0.00     0.023 C 
BRANCH  14  15
HETATM   15  C5  UNL     1       3.259   0.057  -0.848  1.00  0.00     0.029 C 
BRANCH  15  16
HETATM   16  C6  UNL     1       4.404   0.170   0.131  1.00  0.00     0.229 C 
BRANCH  16  17
HETATM   17  N4  UNL     1       4.167   1.304   0.987  1.00  0.00    -0.079 N 
ATOM     18  H43 UNL     1       4.016   2.165   0.462  1.00  0.00     0.274 HD
ATOM     19  H42 UNL     1       3.259   1.261   1.451  1.00  0.00     0.274 HD
ATOM     20  H41 UNL     1       4.940   1.380   1.648  1.00  0.00     0.274 HD
ENDBRANCH  16  17
ENDBRANCH  15  16
ENDBRANCH  14  15
ENDBRANCH  13  14
ENDBRANCH   5  13
BRANCH   6  21
HETATM   21  N5  UNL     1      -0.500  -2.798  -0.562  1.00  0.00    -0.137 N 
ATOM     22  H5  UNL     1       0.435  -2.874  -0.962  1.00  0.00     0.205 HD
BRANCH  21  23
HETATM   23  N6  UNL     1      -1.187  -3.955  -0.242  1.00  0.00    -0.331 N 
ATOM     24  H62 UNL     1      -2.121  -3.861   0.157  1.00  0.00     0.177 HD
ATOM     25  H61 UNL     1      -0.789  -4.882  -0.393  1.00  0.00     0.177 HD
ENDBRANCH  21  23
ENDBRANCH   6  21
BRANCH   1  26
HETATM   26  N1  UNL     1      -2.264   3.883   0.052  1.00  0.00    -0.234 N 
ATOM     27  H12 UNL     1      -1.439   4.359  -0.312  1.00  0.00     0.174 HD
ATOM     28  H11 UNL     1      -3.048   4.448   0.377  1.00  0.00     0.174 HD
ENDBRANCH   1  26
BRANCH  10  29
HETATM   29  N9  UNL     1      -4.572   0.099   1.126  1.00  0.00    -0.232 N 
ATOM     30  H92 UNL     1      -4.613  -0.919   1.166  1.00  0.00     0.174 HD
ATOM     31  H91 UNL     1      -5.374   0.633   1.460  1.00  0.00     0.174 HD
ENDBRANCH  10  29
TORSDOF 9
