REMARK  10 active torsions:
REMARK  status: ('A' for Active; 'I' for Inactive)
REMARK    1  A    between atoms: N1_1  and  C1_4 
REMARK    2  A    between atoms: C2_7  and  N3_8 
REMARK    3  A    between atoms: N3_8  and  N4_10 
REMARK    4  A    between atoms: C3_15  and  N6_16 
REMARK    5  A    between atoms: N6_16  and  C4_18 
REMARK    6  A    between atoms: C4_18  and  C5_19 
REMARK    7  A    between atoms: C5_19  and  N7_20 
REMARK    8  A    between atoms: C5_19  and  C6_24 
REMARK    9  A    between atoms: C6_24  and  C7_25 
REMARK   10  A    between atoms: C7_25  and  O1_26 
ROOT
HETATM    1  C1  UNL     1      -2.291   0.783   1.169  1.00  0.00     0.705 A 
HETATM    2  N2  UNL     1      -3.372   0.338   0.501  1.00  0.00    -0.020 N 
ATOM      3  H2  UNL     1      -4.295   0.613   0.838  1.00  0.00     0.203 HD
HETATM    4  C2  UNL     1      -3.301  -0.444  -0.578  1.00  0.00     0.725 A 
HETATM    5  N5  UNL     1      -2.061  -0.800  -1.010  1.00  0.00    -0.020 N 
ATOM      6  H5  UNL     1      -1.974  -1.397  -1.832  1.00  0.00     0.203 HD
HETATM    7  C3  UNL     1      -0.947  -0.385  -0.381  1.00  0.00     0.707 A 
HETATM    8  N8  UNL     1      -1.085   0.398   0.696  1.00  0.00    -0.022 N 
ATOM      9  H8  UNL     1      -0.245   0.717   1.179  1.00  0.00     0.203 HD
ENDROOT
BRANCH   7  10
HETATM   10  N6  UNL     1       0.220  -0.740  -0.814  1.00  0.00    -0.223 N 
ATOM     11  H6  UNL     1       0.314  -1.337  -1.635  1.00  0.00     0.177 HD
BRANCH  10  12
HETATM   12  C4  UNL     1       1.403  -0.261  -0.093  1.00  0.00     0.171 C 
BRANCH  12  13
HETATM   13  C5  UNL     1       2.642  -0.600  -0.863  1.00  0.00     0.203 C 
BRANCH  13  14
HETATM   14  N7  UNL     1       2.636  -2.085  -1.002  1.00  0.00    -0.073 N 
ATOM     15  H73 UNL     1       2.559  -2.579  -0.113  1.00  0.00     0.274 HD
ATOM     16  H72 UNL     1       1.781  -2.453  -1.420  1.00  0.00     0.274 HD
ATOM     17  H71 UNL     1       3.480  -2.316  -1.526  1.00  0.00     0.274 HD
ENDBRANCH  13  14
BRANCH  13  18
HETATM   18  C6  UNL     1       3.933  -0.252  -0.178  1.00  0.00     0.060 C 
BRANCH  18  19
HETATM   19  C7  UNL     1       4.138   1.194   0.146  1.00  0.00     0.166 C 
BRANCH  19  20
HETATM   20  O1  UNL     1       3.216   1.736   1.017  1.00  0.00    -0.401 OA
ATOM     21  H1  UNL     1       3.346   2.654   1.223  1.00  0.00     0.209 HD
ENDBRANCH  19  20
ENDBRANCH  18  19
ENDBRANCH  13  18
ENDBRANCH  12  13
ENDBRANCH  10  12
ENDBRANCH   7  10
BRANCH   4  22
HETATM   22  N3  UNL     1      -4.441  -0.914  -1.283  1.00  0.00    -0.138 N 
ATOM     23  H3  UNL     1      -4.327  -1.511  -2.102  1.00  0.00     0.205 HD
BRANCH  22  24
HETATM   24  N4  UNL     1      -5.719  -0.554  -0.849  1.00  0.00    -0.331 N 
ATOM     25  H42 UNL     1      -5.816   0.044  -0.028  1.00  0.00     0.177 HD
ATOM     26  H41 UNL     1      -6.538  -0.892  -1.355  1.00  0.00     0.177 HD
ENDBRANCH  22  24
ENDBRANCH   4  22
BRANCH   1  27
HETATM   27  N1  UNL     1      -2.395   1.540   2.211  1.00  0.00    -0.234 N 
ATOM     28  H12 UNL     1      -3.305   1.831   2.568  1.00  0.00     0.174 HD
ATOM     29  H11 UNL     1      -1.576   1.877   2.717  1.00  0.00     0.174 HD
ENDBRANCH   1  27
TORSDOF 10
