REMARK  7 active torsions:
REMARK  status: ('A' for Active; 'I' for Inactive)
REMARK    1  A    between atoms: N1_2  and  C3_4 
REMARK    2  A    between atoms: C4_7  and  N3_8 
REMARK    3  A    between atoms: N5_14  and  N6_16 
REMARK    4  A    between atoms: N6_16  and  C6_18 
REMARK    5  A    between atoms: C6_18  and  C7_19 
REMARK    6  A    between atoms: C7_19  and  N7_20 
REMARK    7  A    between atoms: N7_20  and  N8_21 
ROOT
HETATM    1  C3  UNL     1      -2.553  -0.101   0.085  1.00  0.00     0.708 A 
HETATM    2  N2  UNL     1      -2.940  -1.151  -0.650  1.00  0.00    -0.022 N 
ATOM      3  H2  UNL     1      -3.930  -1.270  -0.865  1.00  0.00     0.203 HD
HETATM    4  C4  UNL     1      -2.062  -2.044  -1.107  1.00  0.00     0.705 A 
HETATM    5  N4  UNL     1      -0.743  -1.885  -0.820  1.00  0.00    -0.020 N 
ATOM      6  H4  UNL     1      -0.072  -2.570  -1.169  1.00  0.00     0.203 HD
HETATM    7  C5  UNL     1      -0.302  -0.851  -0.090  1.00  0.00     0.725 A 
HETATM    8  N5  UNL     1       0.930  -0.655   0.177  1.00  0.00    -0.135 N 
ATOM      9  H5  UNL     1       1.144   0.166   0.743  1.00  0.00     0.205 HD
HETATM   10  N9  UNL     1      -1.245   0.034   0.353  1.00  0.00    -0.020 N 
ATOM     11  H9  UNL     1      -0.941   0.832   0.912  1.00  0.00     0.203 HD
ENDROOT
BRANCH   8  12
HETATM   12  N6  UNL     1       2.005  -1.425  -0.211  1.00  0.00    -0.321 N 
ATOM     13  H6  UNL     1       1.843  -2.273  -0.753  1.00  0.00     0.180 HD
BRANCH  12  14
HETATM   14  C6  UNL     1       3.379  -1.048   0.141  1.00  0.00     0.157 C 
BRANCH  14  15
HETATM   15  C7  UNL     1       3.639   0.383  -0.303  1.00  0.00     0.155 C 
BRANCH  15  16
HETATM   16  N7  UNL     1       4.984   0.744   0.043  1.00  0.00    -0.147 NA
BRANCH  16  17
HETATM   17  N8  UNL     1       5.338   2.032  -0.289  1.00  0.00    -0.348 N 
ATOM     18  H82 UNL     1       4.684   2.668  -0.745  1.00  0.00     0.172 HD
ATOM     19  H81 UNL     1       6.294   2.289  -0.043  1.00  0.00     0.172 HD
ENDBRANCH  16  17
ENDBRANCH  15  16
ENDBRANCH  14  15
ENDBRANCH  12  14
ENDBRANCH   8  12
BRANCH   4  20
HETATM   20  N3  UNL     1      -2.408  -3.069  -1.843  1.00  0.00    -0.234 N 
ATOM     21  H32 UNL     1      -3.398  -3.188  -2.058  1.00  0.00     0.174 HD
ATOM     22  H31 UNL     1      -1.736  -3.752  -2.193  1.00  0.00     0.174 HD
ENDBRANCH   4  20
BRANCH   1  23
HETATM   23  N1  UNL     1      -3.502   0.872   0.588  1.00  0.00    -0.225 N 
HETATM   24  C1  UNL     1      -3.943   1.865  -0.363  1.00  0.00     0.168 C 
HETATM   25  C2  UNL     1      -3.898   0.758   1.950  1.00  0.00     0.168 C 
ENDBRANCH   1  23
TORSDOF 7
