REMARK  15 active torsions:
REMARK  status: ('A' for Active; 'I' for Inactive)
REMARK    1  A    between atoms: C2_2  and  O2_4 
REMARK    2  A    between atoms: O2_4  and  C3_5 
REMARK    3  A    between atoms: C4_6  and  C5_7 
REMARK    4  A    between atoms: C5_7  and  S1_8 
REMARK    5  A    between atoms: S1_8  and  C6_9 
REMARK    6  A    between atoms: C6_9  and  C7_10 
REMARK    7  A    between atoms: C7_10  and  C8_11 
REMARK    8  A    between atoms: C8_11  and  N1_12 
REMARK    9  A    between atoms: C8_11  and  N6_22 
REMARK   10  A    between atoms: N1_12  and  N2_14 
REMARK   11  A    between atoms: C11_29  and  O3_30 
REMARK   12  A    between atoms: C12_32  and  N10_33 
REMARK   13  A    between atoms: C13_40  and  N12_41 
REMARK   14  A    between atoms: C15_45  and  N14_46 
REMARK   15  A    between atoms: C16_51  and  N16_52 
ROOT
HETATM    1  C3  UNL     1      -2.215  -0.768  -0.525  1.00  0.00     0.192 A 
HETATM    2  C4  UNL     1      -0.856  -0.605   0.149  1.00  0.00     0.086 A 
HETATM    3  C12 UNL     1      -0.719   0.857   0.318  1.00  0.00     0.390 A 
HETATM    4  N11 UNL     1      -1.887   1.540  -0.169  1.00  0.00    -0.021 N 
ATOM      5 1H11 UNL     1      -1.659   2.267  -0.847  1.00  0.00     0.282 HD
ATOM      6 2H11 UNL     1      -2.313   2.137   0.540  1.00  0.00     0.282 HD
HETATM    7  C13 UNL     1      -2.799   0.576  -0.690  1.00  0.00     0.341 A 
ENDROOT
BRANCH   2   8
HETATM    8  C5  UNL     1       0.217  -1.283  -0.626  1.00  0.00     0.085 C 
BRANCH   8   9
HETATM    9  S1  UNL     1       1.816  -1.173   0.120  1.00  0.00    -0.168 SA
BRANCH   9  10
HETATM   10  C6  UNL     1       2.637   0.391   0.157  1.00  0.00     0.077 C 
BRANCH  10  11
HETATM   11  C7  UNL     1       4.074   0.244   0.707  1.00  0.00     0.060 C 
BRANCH  11  12
HETATM   12  C8  UNL     1       4.844  -0.690  -0.173  1.00  0.00     0.229 C 
BRANCH  12  13
HETATM   13  N1  UNL     1       4.886  -0.164  -1.516  1.00  0.00    -0.274 N 
ATOM     14  H1  UNL     1       4.370  -0.682  -2.227  1.00  0.00     0.186 HD
BRANCH  13  15
HETATM   15  N2  UNL     1       5.557   0.975  -1.938  1.00  0.00    -0.118 N 
HETATM   16  N3  UNL     1       5.531   1.451  -3.199  1.00  0.00    -0.258 N 
HETATM   17  C9  UNL     1       6.294   2.544  -3.266  1.00  0.00     0.219 A 
ATOM     18  H3  UNL     1       5.012   1.042  -3.976  1.00  0.00     0.191 HD
HETATM   19  N4  UNL     1       6.773   2.711  -2.029  1.00  0.00    -0.278 N 
HETATM   20  N5  UNL     1       6.325   1.751  -1.211  1.00  0.00    -0.205 N 
ATOM     21  H4  UNL     1       7.396   3.468  -1.747  1.00  0.00     0.189 HD
ATOM     22  H5  UNL     1       6.538   1.644  -0.219  1.00  0.00     0.212 HD
ENDBRANCH  13  15
ENDBRANCH  12  13
BRANCH  12  23
HETATM   23  N6  UNL     1       6.192  -0.931   0.274  1.00  0.00    -0.228 N 
HETATM   24  N7  UNL     1       7.165  -1.239  -0.600  1.00  0.00    -0.235 N 
HETATM   25  N8  UNL     1       8.303  -1.420   0.038  1.00  0.00    -0.269 N 
ATOM     26  H7  UNL     1       7.041  -1.321  -1.609  1.00  0.00     0.208 HD
HETATM   27  C10 UNL     1       8.108  -1.235   1.348  1.00  0.00     0.184 A 
ATOM     28  H8  UNL     1       9.192  -1.663  -0.398  1.00  0.00     0.190 HD
HETATM   29  N9  UNL     1       9.027  -1.321   2.416  1.00  0.00    -0.076 NA
HETATM   30  C11 UNL     1       6.760  -0.926   1.472  1.00  0.00     0.204 A 
BRANCH  30  31
HETATM   31  O3  UNL     1       6.098  -0.650   2.672  1.00  0.00    -0.342 OA
ATOM     32  H3  UNL     1       6.505  -0.646   3.530  1.00  0.00     0.219 HD
ENDBRANCH  30  31
ENDBRANCH  12  23
ENDBRANCH  11  12
ENDBRANCH  10  11
ENDBRANCH   9  10
ENDBRANCH   8   9
ENDBRANCH   2   8
BRANCH   1  33
HETATM   33  O2  UNL     1      -3.027  -1.703   0.151  1.00  0.00    -0.312 OA
BRANCH  33  34
HETATM   34  C2  UNL     1      -3.410  -2.927  -0.378  1.00  0.00     0.255 C 
HETATM   35  C1  UNL     1      -4.273  -3.893   0.373  1.00  0.00     0.126 C 
HETATM   36  O1  UNL     1      -2.985  -3.186  -1.542  1.00  0.00    -0.266 OA
ENDBRANCH  33  34
ENDBRANCH   1  33
BRANCH   3  37
HETATM   37  N10 UNL     1      -0.618   1.222   1.736  1.00  0.00    -0.050 N 
ATOM     38 3H10 UNL     1      -1.403   0.855   2.274  1.00  0.00     0.276 HD
ATOM     39 2H10 UNL     1       0.139   0.719   2.199  1.00  0.00     0.276 HD
ATOM     40 1H10 UNL     1      -0.523   2.231   1.853  1.00  0.00     0.276 HD
ENDBRANCH   3  37
BRANCH   7  41
HETATM   41  N12 UNL     1      -4.146   0.732  -0.162  1.00  0.00    -0.237 N 
HETATM   42  C14 UNL     1      -5.309   1.156  -0.685  1.00  0.00     0.172 A 
HETATM   43  N13 UNL     1      -6.097   1.630  -1.676  1.00  0.00    -0.173 N 
HETATM   44  C17 UNL     1      -5.896   0.936   0.529  1.00  0.00     0.141 A 
HETATM   45  C15 UNL     1      -7.405   1.881  -1.496  1.00  0.00     0.679 A 
ATOM     46  H13 UNL     1      -5.684   1.803  -2.593  1.00  0.00     0.186 HD
HETATM   47  N15 UNL     1      -7.997   1.663  -0.285  1.00  0.00    -0.175 N 
HETATM   48  C16 UNL     1      -7.244   1.193   0.719  1.00  0.00     0.147 A 
ATOM     49  H15 UNL     1      -8.990   1.854  -0.148  1.00  0.00     0.186 HD
HETATM   50  N17 UNL     1      -4.702   0.519   1.006  1.00  0.00    -0.284 N 
HETATM   51  C18 UNL     1      -4.352   0.049   2.332  1.00  0.00     0.178 C 
BRANCH  45  52
HETATM   52  N14 UNL     1      -8.132   2.332  -2.457  1.00  0.00    -0.234 N 
ATOM     53 2H14 UNL     1      -7.690   2.495  -3.362  1.00  0.00     0.174 HD
ATOM     54 1H14 UNL     1      -9.125   2.522  -2.320  1.00  0.00     0.174 HD
ENDBRANCH  45  52
BRANCH  48  55
HETATM   55  N16 UNL     1      -7.792   0.986   1.857  1.00  0.00    -0.383 N 
ATOM     56 2H16 UNL     1      -8.784   1.175   1.997  1.00  0.00     0.157 HD
ATOM     57 1H16 UNL     1      -7.219   0.628   2.621  1.00  0.00     0.157 HD
ENDBRANCH  48  55
ENDBRANCH   7  41
TORSDOF 15
