REMARK  14 active torsions:
REMARK  status: ('A' for Active; 'I' for Inactive)
REMARK    1  A    between atoms: C2_2  and  C14_39 
REMARK    2  A    between atoms: N1_3  and  N2_5 
REMARK       I    between atoms: N2_5  and  C3_7 
REMARK    3  A    between atoms: C3_7  and  C4_9 
REMARK    4  A    between atoms: N3_11  and  C6_12 
REMARK    5  A    between atoms: C6_12  and  C7_13 
REMARK    6  A    between atoms: C7_13  and  O2_14 
REMARK    7  A    between atoms: C7_13  and  C8_16 
REMARK    8  A    between atoms: C8_16  and  O3_17 
REMARK    9  A    between atoms: C8_16  and  C9_19 
REMARK   10  A    between atoms: C10_22  and  C11_23 
REMARK       I    between atoms: C11_23  and  N5_25 
REMARK   11  A    between atoms: N5_25  and  N6_27 
REMARK   12  A    between atoms: C13_31  and  O5_32 
REMARK   13  A    between atoms: C15_40  and  O7_41 
REMARK   14  A    between atoms: N10_43  and  C16_44 
ROOT
HETATM    1  N6  UNL     1      -9.813   0.998   2.935  1.00  0.00    -0.234 N 
ATOM      2  H6  UNL     1     -10.294   1.878   2.749  1.00  0.00     0.199 HD
HETATM    3  C12 UNL     1      -9.744   0.499   4.231  1.00  0.00     0.198 C 
HETATM    4  N7  UNL     1      -9.664   0.084   5.310  1.00  0.00    -0.170 NA
ENDROOT
BRANCH   1   5
HETATM    5  N5  UNL     1      -9.221   0.289   1.891  1.00  0.00    -0.255 N 
HETATM    6  C11 UNL     1      -7.910   0.588   1.493  1.00  0.00     0.292 C 
HETATM    7  O4  UNL     1      -7.299   1.519   2.120  1.00  0.00    -0.264 OA
ATOM      8  H5  UNL     1      -9.742  -0.448   1.416  1.00  0.00     0.191 HD
BRANCH   6   9
HETATM    9  C10 UNL     1      -7.193  -0.072   0.430  1.00  0.00     0.163 A 
HETATM   10  N4  UNL     1      -5.916   0.219   0.035  1.00  0.00    -0.329 N 
HETATM   11  C9  UNL     1      -5.607  -0.594  -0.969  1.00  0.00     0.159 A 
ATOM     12  H4  UNL     1      -5.310   0.933   0.439  1.00  0.00     0.168 HD
HETATM   13  O6  UNL     1      -6.633  -1.370  -1.211  1.00  0.00    -0.270 OA
HETATM   14  C13 UNL     1      -7.625  -1.082  -0.376  1.00  0.00     0.218 A 
BRANCH  11  15
HETATM   15  C8  UNL     1      -4.289  -0.607  -1.701  1.00  0.00     0.223 C 
BRANCH  15  16
HETATM   16  C7  UNL     1      -4.250   0.530  -2.681  1.00  0.00     0.174 C 
BRANCH  16  17
HETATM   17  C6  UNL     1      -3.114   0.523  -3.641  1.00  0.00     0.184 C 
BRANCH  17  18
HETATM   18  N3  UNL     1      -1.808   0.703  -3.094  1.00  0.00    -0.284 N 
HETATM   19  C5  UNL     1      -0.983  -0.268  -2.690  1.00  0.00     0.148 A 
HETATM   20  C4  UNL     1       0.171   0.334  -2.238  1.00  0.00     0.136 A 
HETATM   21  N9  UNL     1       0.025   1.670  -2.377  1.00  0.00    -0.280 N 
HETATM   22  N8  UNL     1      -1.169   1.865  -2.891  1.00  0.00    -0.240 N 
ATOM     23  H9  UNL     1       0.708   2.387  -2.131  1.00  0.00     0.189 HD
ATOM     24  H8  UNL     1      -1.560   2.782  -3.108  1.00  0.00     0.208 HD
BRANCH  20  25
HETATM   25  C3  UNL     1       1.325  -0.386  -1.715  1.00  0.00     0.289 C 
HETATM   26  N2  UNL     1       2.471   0.378  -1.303  1.00  0.00    -0.264 N 
ATOM     27  H2  UNL     1       2.453   1.395  -1.383  1.00  0.00     0.190 HD
HETATM   28  O1  UNL     1       1.305  -1.626  -1.634  1.00  0.00    -0.264 OA
BRANCH  26  29
HETATM   29  N1  UNL     1       3.586  -0.242  -0.805  1.00  0.00    -0.301 N 
HETATM   30  C2  UNL     1       4.419   0.315  -0.016  1.00  0.00     0.042 C 
HETATM   31  C1  UNL     1       4.215   1.713   0.421  1.00  0.00     0.071 C 
ATOM     32  H1  UNL     1       3.761  -1.208  -1.082  1.00  0.00     0.186 HD
BRANCH  30  33
HETATM   33  C14 UNL     1       5.601  -0.435   0.465  1.00  0.00     0.109 A 
HETATM   34  C15 UNL     1       6.612  -0.047   1.294  1.00  0.00     0.181 A 
HETATM   35  N10 UNL     1       7.502  -1.058   1.484  1.00  0.00    -0.208 N 
HETATM   36  N14 UNL     1       7.030  -2.071   0.767  1.00  0.00    -0.255 N 
HETATM   37  C18 UNL     1       5.889  -1.744   0.137  1.00  0.00     0.277 A 
ATOM     38  H14 UNL     1       7.478  -2.985   0.702  1.00  0.00     0.191 HD
HETATM   39  O9  UNL     1       5.175  -2.451  -0.620  1.00  0.00    -0.266 OA
BRANCH  34  40
HETATM   40  O7  UNL     1       6.755   1.199   1.885  1.00  0.00    -0.344 OA
ATOM     41  H7  UNL     1       7.459   1.469   2.462  1.00  0.00     0.219 HD
ENDBRANCH  34  40
BRANCH  35  42
HETATM   42  C16 UNL     1       8.677  -1.008   2.275  1.00  0.00     0.197 A 
HETATM   43  N11 UNL     1       9.061  -1.880   3.213  1.00  0.00    -0.220 N 
HETATM   44  O8  UNL     1      10.216  -1.483   3.715  1.00  0.00    -0.153 OA
ATOM     45  H11 UNL     1       8.546  -2.715   3.494  1.00  0.00     0.198 HD
HETATM   46  N12 UNL     1      10.619  -0.387   3.155  1.00  0.00    -0.222 N 
HETATM   47  C17 UNL     1       9.686  -0.052   2.246  1.00  0.00     0.169 A 
ATOM     48  H12 UNL     1      11.477   0.123   3.363  1.00  0.00     0.198 HD
HETATM   49  N13 UNL     1       9.729   0.962   1.502  1.00  0.00    -0.381 N 
ATOM     50 2H13 UNL     1       9.021   1.216   0.813  1.00  0.00     0.157 HD
ATOM     51 1H13 UNL     1      10.469   1.663   1.481  1.00  0.00     0.157 HD
ENDBRANCH  35  42
ENDBRANCH  30  33
ENDBRANCH  26  29
ENDBRANCH  20  25
ENDBRANCH  17  18
ENDBRANCH  16  17
BRANCH  16  52
HETATM   52  O2  UNL     1      -4.367   1.725  -1.953  1.00  0.00    -0.391 OA
ATOM     53  H2  UNL     1      -5.093   1.729  -1.340  1.00  0.00     0.210 HD
ENDBRANCH  16  52
ENDBRANCH  15  16
BRANCH  15  54
HETATM   54  O3  UNL     1      -3.298  -0.558  -0.732  1.00  0.00    -0.385 OA
ATOM     55  H3  UNL     1      -3.323  -1.277  -0.112  1.00  0.00     0.210 HD
ENDBRANCH  15  54
ENDBRANCH  11  15
BRANCH  14  56
HETATM   56  O5  UNL     1      -8.862  -1.737  -0.377  1.00  0.00    -0.339 OA
ATOM     57  H5  UNL     1      -9.163  -2.441  -0.939  1.00  0.00     0.220 HD
ENDBRANCH  14  56
ENDBRANCH   6   9
ENDBRANCH   1   5
TORSDOF 14
