REMARK  15 active torsions:
REMARK  status: ('A' for Active; 'I' for Inactive)
REMARK    1  A    between atoms: N1_1  and  C1_4 
REMARK       I    between atoms: N3_9  and  C3_10 
REMARK    2  A    between atoms: C3_10  and  C4_12 
REMARK    3  A    between atoms: C4_12  and  C5_13 
REMARK    4  A    between atoms: C6_14  and  N4_15 
REMARK    5  A    between atoms: N4_15  and  N5_17 
REMARK    6  A    between atoms: N5_17  and  C7_18 
REMARK    7  A    between atoms: C7_18  and  C8_19 
REMARK    8  A    between atoms: C8_19  and  C9_20 
REMARK    9  A    between atoms: C8_19  and  N8_30 
REMARK   10  A    between atoms: C9_20  and  C10_21 
REMARK   11  A    between atoms: C10_21  and  N6_22 
REMARK   12  A    between atoms: C10_21  and  N7_26 
REMARK   13  A    between atoms: N8_30  and  O3_32 
REMARK   14  A    between atoms: C15_42  and  N11_43 
REMARK   15  A    between atoms: C16_50  and  S1_51 
ROOT
HETATM    1  C5  UNL     1      -2.358  -1.334   0.604  1.00  0.00     0.068 A 
HETATM    2  C6  UNL     1      -1.318  -0.441   0.327  1.00  0.00     0.163 A 
HETATM    3  N9  UNL     1      -1.898   0.771   0.123  1.00  0.00    -0.230 N 
HETATM    4  N10 UNL     1      -3.205   0.660   0.261  1.00  0.00    -0.250 N 
HETATM    5  C11 UNL     1      -3.520  -0.619   0.555  1.00  0.00     0.272 A 
HETATM    6  O4  UNL     1      -4.670  -1.107   0.758  1.00  0.00    -0.266 OA
HETATM    7  C12 UNL     1      -3.889   1.938   0.052  1.00  0.00     0.158 C 
HETATM    8  C13 UNL     1      -2.765   2.924   0.206  1.00  0.00     0.088 C 
HETATM    9  C14 UNL     1      -1.570   2.148  -0.199  1.00  0.00     0.207 C 
HETATM   10  O5  UNL     1      -0.552   2.533   0.725  1.00  0.00    -0.302 OA
HETATM   11  C15 UNL     1      -0.147   3.723   0.120  1.00  0.00     0.525 C 
HETATM   12  N12 UNL     1      -0.022   3.416  -1.296  1.00  0.00     0.002 N 
ATOM     13 1H12 UNL     1       0.928   3.184  -1.587  1.00  0.00     0.284 HD
ATOM     14 2H12 UNL     1      -0.136   4.225  -1.907  1.00  0.00     0.284 HD
HETATM   15  C16 UNL     1      -1.000   2.343  -1.537  1.00  0.00     0.390 C 
ENDROOT
BRANCH   2  16
HETATM   16  N4  UNL     1       0.049  -0.841   0.299  1.00  0.00    -0.217 N 
ATOM     17  H4  UNL     1       0.198  -1.831   0.493  1.00  0.00     0.203 HD
BRANCH  16  18
HETATM   18  N5  UNL     1       1.127  -0.182   0.074  1.00  0.00    -0.335 NA
BRANCH  18  19
HETATM   19  C7  UNL     1       2.093   0.440  -0.220  1.00  0.00     0.236 C 
BRANCH  19  20
HETATM   20  C8  UNL     1       3.251   0.764   0.655  1.00  0.00     0.066 C 
BRANCH  20  21
HETATM   21  C9  UNL     1       4.396   1.546   0.178  1.00  0.00     0.123 C 
BRANCH  21  22
HETATM   22  C10 UNL     1       5.437   1.749   1.261  1.00  0.00     0.383 C 
BRANCH  22  23
HETATM   23  N6  UNL     1       6.529   2.522   0.714  1.00  0.00    -0.050 N 
ATOM     24  H63 UNL     1       6.920   2.103  -0.130  1.00  0.00     0.276 HD
ATOM     25  H62 UNL     1       6.217   3.402   0.303  1.00  0.00     0.276 HD
ATOM     26  H61 UNL     1       7.229   2.659   1.443  1.00  0.00     0.276 HD
ENDBRANCH  22  23
BRANCH  22  27
HETATM   27  N7  UNL     1       5.930   0.467   1.755  1.00  0.00    -0.050 N 
ATOM     28  H73 UNL     1       5.168  -0.133   2.072  1.00  0.00     0.276 HD
ATOM     29  H72 UNL     1       6.283  -0.118   0.998  1.00  0.00     0.276 HD
ATOM     30  H71 UNL     1       6.630   0.604   2.484  1.00  0.00     0.276 HD
ENDBRANCH  22  27
ENDBRANCH  21  22
ENDBRANCH  20  21
BRANCH  20  31
HETATM   31  N8  UNL     1       3.253   0.341   1.883  1.00  0.00    -0.271 N 
ATOM     32  H8  UNL     1       4.056   0.574   2.467  1.00  0.00     0.194 HD
BRANCH  31  33
HETATM   33  O3  UNL     1       2.255  -0.391   2.437  1.00  0.00    -0.290 OA
ATOM     34  H3  UNL     1       2.256  -0.700   3.335  1.00  0.00     0.244 HD
ENDBRANCH  31  33
ENDBRANCH  20  31
ENDBRANCH  19  20
ENDBRANCH  18  19
ENDBRANCH  16  18
ENDBRANCH   2  16
BRANCH   1  35
HETATM   35  C4  UNL     1      -2.235  -2.795   0.884  1.00  0.00     0.153 C 
BRANCH  35  36
HETATM   36  C3  UNL     1      -2.018  -3.549  -0.379  1.00  0.00     0.251 C 
HETATM   37  N3  UNL     1      -1.838  -4.955  -0.418  1.00  0.00    -0.157 N 
HETATM   38  C2  UNL     1      -1.646  -5.672  -1.529  1.00  0.00     0.363 A 
HETATM   39  N13 UNL     1      -1.825  -5.815   0.594  1.00  0.00    -0.119 N 
HETATM   40  N2  UNL     1      -1.518  -6.968  -1.188  1.00  0.00    -0.139 N 
HETATM   41  O1  UNL     1      -1.585  -5.265  -2.734  1.00  0.00    -0.244 OA
HETATM   42  C1  UNL     1      -1.631  -7.051   0.147  1.00  0.00     0.695 A 
ATOM     43  H2  UNL     1      -1.363  -7.747  -1.829  1.00  0.00     0.189 HD
ATOM     44  H13 UNL     1      -1.947  -5.563   1.575  1.00  0.00     0.206 HD
HETATM   45  O2  UNL     1      -1.995  -2.905  -1.451  1.00  0.00    -0.271 OA
BRANCH  42  46
HETATM   46  N1  UNL     1      -1.554  -8.146   0.781  1.00  0.00    -0.233 N 
ATOM     47  H12 UNL     1      -1.405  -9.095   0.438  1.00  0.00     0.174 HD
ATOM     48  H11 UNL     1      -1.640  -8.209   1.795  1.00  0.00     0.174 HD
ENDBRANCH  42  46
ENDBRANCH  35  36
ENDBRANCH   1  35
BRANCH  15  49
HETATM   49  S1  UNL     1      -2.019   2.839  -2.857  1.00  0.00     0.138 S 
HETATM   50  O6  UNL     1      -1.056   3.071  -4.049  1.00  0.00    -0.593 OA
HETATM   51  O7  UNL     1      -2.657   4.174  -2.659  1.00  0.00    -0.593 OA
HETATM   52  O8  UNL     1      -3.098   1.663  -3.376  1.00  0.00    -0.593 OA
ENDBRANCH  15  49
BRANCH  11  53
HETATM   53  N11 UNL     1       1.171   4.040   0.617  1.00  0.00    -0.027 N 
ATOM     54 3H11 UNL     1       1.212   4.079   1.635  1.00  0.00     0.279 HD
ATOM     55 2H11 UNL     1       1.838   3.280   0.484  1.00  0.00     0.279 HD
ATOM     56 1H11 UNL     1       1.467   4.910   0.175  1.00  0.00     0.279 HD
ENDBRANCH  11  53
TORSDOF 15
