REMARK  8 active torsions:
REMARK  status: ('A' for Active; 'I' for Inactive)
REMARK    1  A    between atoms: O1_2  and  C2_3 
REMARK    2  A    between atoms: C2_3  and  O2_5 
REMARK    3  A    between atoms: O2_5  and  C4_6 
REMARK    4  A    between atoms: C6_12  and  N3_13 
REMARK    5  A    between atoms: N3_13  and  N4_15 
REMARK    6  A    between atoms: N5_17  and  C7_19 
REMARK    7  A    between atoms: C9_23  and  N7_24 
REMARK    8  A    between atoms: C13_40  and  N12_41 
ROOT
HETATM    1  C7  UNL     1       2.208  -0.853   1.809  1.00  0.00     0.173 A 
HETATM    2  N6  UNL     1       2.410   0.332   1.163  1.00  0.00    -0.333 N 
ATOM      3  H6  UNL     1       1.649   1.005   1.075  1.00  0.00     0.168 HD
HETATM    4  C8  UNL     1       3.624   0.607   0.641  1.00  0.00     0.111 A 
HETATM    5  C9  UNL     1       3.628   1.847   0.031  1.00  0.00     0.144 C 
HETATM    6  N8  UNL     1       4.647   2.511  -0.574  1.00  0.00    -0.175 N 
ATOM      7  H8  UNL     1       4.451   3.478  -0.831  1.00  0.00     0.186 HD
HETATM    8  C10 UNL     1       5.879   2.068  -0.880  1.00  0.00     0.680 C 
HETATM    9  N9  UNL     1       6.679   2.860  -1.514  1.00  0.00    -0.234 N 
ATOM     10  H91 UNL     1       7.614   2.524  -1.746  1.00  0.00     0.174 HD
ATOM     11  H92 UNL     1       6.278   3.774  -1.724  1.00  0.00     0.174 HD
HETATM   12  N10 UNL     1       6.413   0.850  -0.600  1.00  0.00    -0.154 N 
ATOM     13  H10 UNL     1       7.272   0.626  -1.103  1.00  0.00     0.187 HD
HETATM   14  C11 UNL     1       5.976  -0.106   0.244  1.00  0.00     0.288 C 
HETATM   15  O3  UNL     1       6.805  -0.950   0.640  1.00  0.00    -0.265 OA
HETATM   16  C12 UNL     1       4.684  -0.267   0.734  1.00  0.00     0.134 A 
HETATM   17  N11 UNL     1       4.491  -1.434   1.369  1.00  0.00    -0.328 N 
ATOM     18  H11 UNL     1       5.257  -2.102   1.453  1.00  0.00     0.168 HD
HETATM   19  C13 UNL     1       3.268  -1.727   1.902  1.00  0.00     0.220 A 
ENDROOT
BRANCH   1  20
HETATM   20  N5  UNL     1       0.955  -1.190   2.373  1.00  0.00    -0.267 N 
HETATM   21  N4  UNL     1      -0.014  -1.481   1.624  1.00  0.00    -0.227 N 
ATOM     22  H4  UNL     1      -0.920  -1.724   2.025  1.00  0.00     0.209 HD
ATOM     23  H5  UNL     1       0.837  -1.197   3.386  1.00  0.00     0.190 HD
BRANCH  21  24
HETATM   24  N3  UNL     1       0.162  -1.468   0.245  1.00  0.00    -0.116 N 
ATOM     25  H3  UNL     1       1.098  -1.435  -0.158  1.00  0.00     0.207 HD
BRANCH  24  26
HETATM   26  C6  UNL     1      -0.983  -1.501  -0.591  1.00  0.00     0.710 C 
HETATM   27  N2  UNL     1      -0.886  -1.776  -1.846  1.00  0.00    -0.135 N 
HETATM   28  N1  UNL     1      -2.056  -1.792  -2.615  1.00  0.00    -0.318 N 
ATOM     29  H2  UNL     1       0.020  -1.977  -2.269  1.00  0.00     0.205 HD
HETATM   30  C5  UNL     1      -3.069  -0.823  -2.288  1.00  0.00     0.194 C 
ATOM     31  H1  UNL     1      -2.185  -2.461  -3.374  1.00  0.00     0.180 HD
HETATM   32  C4  UNL     1      -3.339  -0.729  -0.820  1.00  0.00     0.260 C 
HETATM   33  N13 UNL     1      -2.245  -1.230  -0.026  1.00  0.00    -0.195 N 
ATOM     34  H13 UNL     1      -2.388  -1.393   0.971  1.00  0.00     0.180 HD
BRANCH  32  35
HETATM   35  O2  UNL     1      -3.558   0.598  -0.463  1.00  0.00    -0.335 OA
BRANCH  35  36
HETATM   36  C2  UNL     1      -4.801   0.782   0.138  1.00  0.00     0.257 C 
HETATM   37  C3  UNL     1      -4.687   1.234   1.572  1.00  0.00     0.071 C 
BRANCH  36  38
HETATM   38  O1  UNL     1      -5.617   1.612  -0.616  1.00  0.00    -0.366 OA
HETATM   39  C1  UNL     1      -6.745   0.941  -1.082  1.00  0.00     0.204 C 
ENDBRANCH  36  38
ENDBRANCH  35  36
ENDBRANCH  32  35
ENDBRANCH  24  26
ENDBRANCH  21  24
ENDBRANCH   1  20
BRANCH  19  40
HETATM   40  N12 UNL     1       3.060  -2.965   2.579  1.00  0.00    -0.094 N 
HETATM   41  O4  UNL     1       4.030  -3.545   3.142  1.00  0.00    -0.530 OA
HETATM   42  O5  UNL     1       1.848  -3.597   2.671  1.00  0.00    -0.530 OA
ENDBRANCH  19  40
BRANCH   5  43
HETATM   43  N7  UNL     1       2.525   2.504   0.008  1.00  0.00    -0.383 N 
ATOM     44  H72 UNL     1       1.760   2.005   0.462  1.00  0.00     0.157 HD
ATOM     45  H71 UNL     1       2.528   3.419  -0.442  1.00  0.00     0.157 HD
ENDBRANCH   5  43
TORSDOF 8
