REMARK  11 active torsions:
REMARK  status: ('A' for Active; 'I' for Inactive)
REMARK    1  A    between atoms: N1_1  and  C1_5 
REMARK    2  A    between atoms: C1_5  and  O1_6 
REMARK    3  A    between atoms: C1_5  and  C2_8 
REMARK    4  A    between atoms: C4_10  and  O2_11 
REMARK    5  A    between atoms: C5_13  and  N2_14 
REMARK    6  A    between atoms: N3_16  and  N4_18 
REMARK       I    between atoms: N4_18  and  C6_20 
REMARK    7  A    between atoms: C6_20  and  C7_22 
REMARK    8  A    between atoms: N6_26  and  O5_27 
REMARK    9  A    between atoms: C8_29  and  O6_30 
REMARK   10  A    between atoms: O6_30  and  N7_31 
REMARK   11  A    between atoms: C9_38  and  N12_39 
ROOT
HETATM    1  N2  UNL     1      -0.938  -2.411   1.643  1.00  0.00    -0.280 N 
ATOM      2  H2  UNL     1      -1.264  -3.275   2.077  1.00  0.00     0.188 HD
HETATM    3  N3  UNL     1       0.207  -1.992   1.973  1.00  0.00    -0.239 N 
ATOM      4  H3  UNL     1       0.759  -2.520   2.649  1.00  0.00     0.208 HD
ENDROOT
BRANCH   3   5
HETATM    5  N4  UNL     1       0.738  -0.799   1.419  1.00  0.00    -0.250 N 
HETATM    6  C6  UNL     1       0.737   0.360   2.202  1.00  0.00     0.294 C 
HETATM    7  O3  UNL     1       0.253   0.298   3.386  1.00  0.00    -0.264 OA
ATOM      8  H4  UNL     1       1.112  -0.787   0.470  1.00  0.00     0.192 HD
BRANCH   6   9
HETATM    9  C7  UNL     1       1.250   1.626   1.755  1.00  0.00     0.183 A 
HETATM   10  N5  UNL     1       1.156   2.818   2.441  1.00  0.00    -0.229 N 
HETATM   11  O4  UNL     1       1.728   3.746   1.746  1.00  0.00    -0.125 OA
ATOM     12  H5  UNL     1       0.708   2.947   3.348  1.00  0.00     0.197 HD
HETATM   13  N6  UNL     1       2.193   3.247   0.644  1.00  0.00    -0.073 N 
HETATM   14  C8  UNL     1       1.920   1.906   0.596  1.00  0.00     0.261 A 
BRANCH  13  15
HETATM   15  O5  UNL     1       2.867   3.934  -0.351  1.00  0.00    -0.259 OA
ATOM     16  H5  UNL     1       3.208   3.568  -1.159  1.00  0.00     0.247 HD
ENDBRANCH  13  15
BRANCH  14  17
HETATM   17  O6  UNL     1       2.295   1.088  -0.459  1.00  0.00    -0.173 OA
BRANCH  17  18
HETATM   18  N7  UNL     1       3.579   0.544  -0.524  1.00  0.00    -0.059 N 
HETATM   19  N8  UNL     1       4.363   0.392  -1.570  1.00  0.00    -0.184 N 
HETATM   20  N9  UNL     1       5.493  -0.168  -1.178  1.00  0.00     0.012 NA
ATOM     21  H8  UNL     1       4.135   0.662  -2.527  1.00  0.00     0.209 HD
HETATM   22  N10 UNL     1       5.426  -0.375   0.143  1.00  0.00     0.012 NA
HETATM   23  N11 UNL     1       4.236   0.074   0.513  1.00  0.00    -0.184 N 
ATOM     24  H11 UNL     1       3.879   0.057   1.469  1.00  0.00     0.209 HD
ENDBRANCH  17  18
ENDBRANCH  14  17
ENDBRANCH   6   9
ENDBRANCH   3   5
BRANCH   1  25
HETATM   25  C5  UNL     1      -1.803  -1.782   0.724  1.00  0.00     0.133 A 
HETATM   26  C4  UNL     1      -2.778  -0.892   1.102  1.00  0.00     0.099 A 
HETATM   27  C3  UNL     1      -3.607  -0.296   0.176  1.00  0.00     0.068 A 
HETATM   28  C2  UNL     1      -3.449  -0.603  -1.150  1.00  0.00     0.069 A 
HETATM   29  N13 UNL     1      -2.495  -1.471  -1.496  1.00  0.00    -0.335 N 
HETATM   30  C9  UNL     1      -1.669  -2.070  -0.613  1.00  0.00     0.205 A 
ATOM     31  H13 UNL     1      -2.384  -1.694  -2.485  1.00  0.00     0.167 HD
BRANCH  26  32
HETATM   32  O2  UNL     1      -2.894  -0.614   2.476  1.00  0.00    -0.358 OA
ATOM     33  H2  UNL     1      -2.323  -1.025   3.114  1.00  0.00     0.217 HD
ENDBRANCH  26  32
BRANCH  28  34
HETATM   34  C1  UNL     1      -4.326   0.019  -2.194  1.00  0.00     0.367 C 
BRANCH  34  35
HETATM   35  N1  UNL     1      -4.412   1.435  -1.889  1.00  0.00    -0.047 N 
ATOM     36  H13 UNL     1      -3.515   1.909  -1.994  1.00  0.00     0.277 HD
ATOM     37  H12 UNL     1      -4.932   1.953  -2.597  1.00  0.00     0.277 HD
ATOM     38  H11 UNL     1      -4.806   1.552  -0.956  1.00  0.00     0.277 HD
ENDBRANCH  34  35
BRANCH  34  39
HETATM   39  O1  UNL     1      -3.795  -0.139  -3.452  1.00  0.00    -0.365 OA
ATOM     40  H1  UNL     1      -3.739  -1.066  -3.652  1.00  0.00     0.212 HD
ENDBRANCH  34  39
ENDBRANCH  28  34
BRANCH  30  41
HETATM   41  N12 UNL     1      -0.701  -2.970  -1.122  1.00  0.00    -0.095 N 
HETATM   42  O7  UNL     1      -0.288  -2.811  -2.278  1.00  0.00    -0.530 OA
HETATM   43  O8  UNL     1      -0.280  -3.974  -0.280  1.00  0.00    -0.530 OA
ENDBRANCH  30  41
ENDBRANCH   1  25
TORSDOF 11
