REMARK  9 active torsions:
REMARK  status: ('A' for Active; 'I' for Inactive)
REMARK    1  A    between atoms: C2_2  and  C3_4 
REMARK    2  A    between atoms: C3_4  and  C8_27 
REMARK    3  A    between atoms: N1_5  and  N2_7 
REMARK    4  A    between atoms: N2_7  and  C4_9 
REMARK    5  A    between atoms: C5_12  and  N4_13 
REMARK    6  A    between atoms: N4_13  and  N5_15 
REMARK       I    between atoms: N5_15  and  C6_17 
REMARK    7  A    between atoms: C9_30  and  C10_31 
REMARK    8  A    between atoms: C14_40  and  N13_41 
REMARK    9  A    between atoms: N14_44  and  N15_45 
ROOT
HETATM    1  C3  UNL     1      -0.590  -0.613  -0.354  1.00  0.00     0.139 C 
HETATM    2  N1  UNL     1       0.428  -0.151  -0.992  1.00  0.00    -0.295 N 
ATOM      3  H1  UNL     1       0.280   0.700  -1.534  1.00  0.00     0.187 HD
ENDROOT
BRANCH   1   4
HETATM    4  C2  UNL     1      -0.521  -1.810   0.451  1.00  0.00     0.177 C 
HETATM    5  C1  UNL     1      -1.709  -2.302   1.162  1.00  0.00     0.098 C 
HETATM    6  O1  UNL     1       0.584  -2.420   0.526  1.00  0.00    -0.291 OA
ENDBRANCH   1   4
BRANCH   1   7
HETATM    7  C8  UNL     1      -1.828   0.185  -0.517  1.00  0.00     0.161 A 
HETATM    8  N10 UNL     1      -2.985  -0.140   0.069  1.00  0.00    -0.335 N 
HETATM    9  C9  UNL     1      -4.118   0.549  -0.053  1.00  0.00     0.090 A 
ATOM     10  H10 UNL     1      -3.001  -0.977   0.652  1.00  0.00     0.168 HD
HETATM   11  C13 UNL     1      -4.140   1.686  -0.831  1.00  0.00     0.084 A 
HETATM   12  C14 UNL     1      -2.962   2.047  -1.448  1.00  0.00     0.124 A 
HETATM   13  N14 UNL     1      -1.852   1.301  -1.281  1.00  0.00    -0.228 N 
BRANCH   9  14
HETATM   14  C10 UNL     1      -5.343   0.105   0.638  1.00  0.00     0.191 A 
HETATM   15  N11 UNL     1      -5.439  -0.985   1.420  1.00  0.00    -0.276 N 
HETATM   16  N12 UNL     1      -6.707  -1.039   1.855  1.00  0.00    -0.281 N 
ATOM     17  H11 UNL     1      -4.692  -1.644   1.640  1.00  0.00     0.189 HD
HETATM   18  C11 UNL     1      -7.377   0.007   1.342  1.00  0.00     0.136 A 
ATOM     19  H12 UNL     1      -7.096  -1.753   2.471  1.00  0.00     0.189 HD
HETATM   20  C12 UNL     1      -8.811   0.332   1.567  1.00  0.00     0.099 C 
HETATM   21  O2  UNL     1      -6.522   0.666   0.619  1.00  0.00    -0.276 OA
ENDBRANCH   9  14
BRANCH  12  22
HETATM   22  N13 UNL     1      -2.879   3.100  -2.202  1.00  0.00    -0.384 N 
ATOM     23 2H13 UNL     1      -3.719   3.665  -2.328  1.00  0.00     0.157 HD
ATOM     24 1H13 UNL     1      -2.007   3.367  -2.659  1.00  0.00     0.157 HD
ENDBRANCH  12  22
BRANCH  13  25
HETATM   25  N15 UNL     1      -0.678   1.707  -1.928  1.00  0.00    -0.335 N 
ATOM     26 2H15 UNL     1       0.162   1.142  -1.802  1.00  0.00     0.177 HD
ATOM     27 1H15 UNL     1      -0.696   2.549  -2.504  1.00  0.00     0.177 HD
ENDBRANCH  13  25
ENDBRANCH   1   7
BRANCH   2  28
HETATM   28  N2  UNL     1       1.696  -0.686  -1.019  1.00  0.00    -0.294 N 
ATOM     29  H2  UNL     1       1.840  -1.636  -1.362  1.00  0.00     0.184 HD
BRANCH  28  30
HETATM   30  C4  UNL     1       2.840   0.105  -0.556  1.00  0.00     0.320 A 
HETATM   31  N3  UNL     1       4.066  -0.640  -0.645  1.00  0.00    -0.185 N 
HETATM   32  C5  UNL     1       4.838  -0.957   0.328  1.00  0.00     0.696 A 
ATOM     33  H3  UNL     1       4.350  -0.947  -1.575  1.00  0.00     0.181 HD
HETATM   34  N8  UNL     1       4.496  -0.557   1.642  1.00  0.00    -0.187 N 
HETATM   35  C7  UNL     1       3.431   0.117   1.886  1.00  0.00     0.196 A 
ATOM     36  H8  UNL     1       5.111  -0.811   2.415  1.00  0.00     0.185 HD
HETATM   37  N9  UNL     1       2.582   0.464   0.817  1.00  0.00    -0.347 N 
ATOM     38  H9  UNL     1       1.739   0.998   1.025  1.00  0.00     0.164 HD
BRANCH  32  39
HETATM   39  N4  UNL     1       6.043  -1.707   0.127  1.00  0.00    -0.130 N 
ATOM     40  H4  UNL     1       6.227  -2.511   0.727  1.00  0.00     0.205 HD
BRANCH  39  41
HETATM   41  N5  UNL     1       6.968  -1.380  -0.854  1.00  0.00    -0.260 N 
HETATM   42  C6  UNL     1       7.594  -0.093  -0.765  1.00  0.00     0.201 C 
HETATM   43  N6  UNL     1       8.721   0.169  -1.346  1.00  0.00    -0.372 N 
HETATM   44  N7  UNL     1       6.989   0.959  -0.024  1.00  0.00    -0.062 NA
ATOM     45  H62 UNL     1       9.155  -0.586  -1.878  1.00  0.00     0.158 HD
ATOM     46  H61 UNL     1       9.166   1.084  -1.283  1.00  0.00     0.158 HD
ATOM     47  H5  UNL     1       7.194  -2.029  -1.608  1.00  0.00     0.190 HD
ENDBRANCH  39  41
ENDBRANCH  32  39
ENDBRANCH  28  30
ENDBRANCH   2  28
TORSDOF 9
