REMARK  4 active torsions:
REMARK  status: ('A' for Active; 'I' for Inactive)
REMARK    1  A    between atoms: C2_2  and  C4_4 
REMARK    2  A    between atoms: C4_4  and  N1_5 
REMARK    3  A    between atoms: C8_12  and  O1_14 
REMARK    4  A    between atoms: N2_16  and  O2_17 
ROOT
HETATM    1  N1  UNL     1      -0.897   0.371   0.354  1.00  0.00    -0.368 N 
ATOM      2  H1  UNL     1      -1.147   0.880   1.202  1.00  0.00     0.161 HD
HETATM    3  C5  UNL     1       0.340   0.250   0.022  1.00  0.00     0.170 C 
HETATM    4  S1  UNL     1       1.003  -0.609  -1.436  1.00  0.00    -0.051 SA
HETATM    5  C6  UNL     1       2.722  -0.509  -0.933  1.00  0.00     0.054 C 
HETATM    6  C7  UNL     1       3.729  -0.705  -1.752  1.00  0.00     0.104 C 
HETATM    7 CL1  UNL     1       5.419  -0.597  -1.217  1.00  0.00    -0.096 Cl
HETATM    8  C8  UNL     1       2.615  -0.180   0.503  1.00  0.00     0.192 C 
HETATM    9  C9  UNL     1       3.871   0.372   1.107  1.00  0.00     0.080 C 
HETATM   10  N2  UNL     1       1.503   0.738   0.677  1.00  0.00    -0.198 N 
ENDROOT
BRANCH   1  11
HETATM   11  C4  UNL     1      -1.926  -0.205  -0.459  1.00  0.00     0.125 C 
BRANCH  11  12
HETATM   12  C2  UNL     1      -3.260  -0.245   0.229  1.00  0.00    -0.005 C 
HETATM   13  C1  UNL     1      -4.245  -0.881  -0.759  1.00  0.00     0.011 C 
HETATM   14  C3  UNL     1      -3.781   1.137   0.551  1.00  0.00     0.011 C 
ENDBRANCH  11  12
ENDBRANCH   1  11
BRANCH  10  15
HETATM   15  O2  UNL     1       1.518   1.928   1.375  1.00  0.00    -0.282 OA
ATOM     16  H2  UNL     1       2.295   2.254   1.813  1.00  0.00     0.245 HD
ENDBRANCH  10  15
BRANCH   8  17
HETATM   17  O1  UNL     1       2.295  -1.352   1.200  1.00  0.00    -0.365 OA
ATOM     18  H1  UNL     1       2.226  -1.140   2.124  1.00  0.00     0.213 HD
ENDBRANCH   8  17
TORSDOF 4
