REMARK  5 active torsions:
REMARK  status: ('A' for Active; 'I' for Inactive)
REMARK    1  A    between atoms: C2_2  and  N2_7 
REMARK    2  A    between atoms: N1_3  and  O1_5 
REMARK    3  A    between atoms: C7_12  and  C8_13 
REMARK    4  A    between atoms: C8_13  and  C9_15 
REMARK    5  A    between atoms: C11_18  and  O3_19 
ROOT
HETATM    1  N2  UNL     1      -1.403   0.070   0.207  1.00  0.00    -0.283 N 
HETATM    2  C3  UNL     1      -0.816  -1.109   0.081  1.00  0.00     0.023 A 
HETATM    3  C4  UNL     1      -1.486  -2.456   0.086  1.00  0.00     0.069 C 
HETATM    4  C5  UNL     1       0.562  -0.964  -0.062  1.00  0.00    -0.021 A 
HETATM    5  C6  UNL     1       1.486  -2.083  -0.225  1.00  0.00     0.051 C 
HETATM    6  C7  UNL     1       0.814   0.385  -0.019  1.00  0.00     0.072 A 
HETATM    7  C11 UNL     1      -0.450   0.993   0.151  1.00  0.00     0.163 A 
ENDROOT
BRANCH   1   8
HETATM    8  C2  UNL     1      -2.786   0.345   0.372  1.00  0.00     0.106 C 
HETATM    9  C1  UNL     1      -3.700   0.276  -0.792  1.00  0.00     0.091 C 
HETATM   10  N1  UNL     1      -3.222   0.651   1.532  1.00  0.00    -0.257 N 
ATOM     11  H1  UNL     1      -2.540   0.682   2.290  1.00  0.00     0.195 HD
BRANCH  10  12
HETATM   12  O1  UNL     1      -4.508   0.939   1.848  1.00  0.00    -0.288 OA
ATOM     13  H1  UNL     1      -4.832   1.167   2.711  1.00  0.00     0.244 HD
ENDBRANCH  10  12
ENDBRANCH   1   8
BRANCH   7  14
HETATM   14  O3  UNL     1      -0.664   2.377   0.246  1.00  0.00    -0.345 OA
ATOM     15  H3  UNL     1       0.018   3.037   0.206  1.00  0.00     0.219 HD
ENDBRANCH   7  14
BRANCH   6  16
HETATM   16  C8  UNL     1       2.073   1.091  -0.122  1.00  0.00     0.197 C 
HETATM   17  O2  UNL     1       2.021   2.370  -0.058  1.00  0.00    -0.289 OA
BRANCH  16  18
HETATM   18  C9  UNL     1       3.389   0.509  -0.290  1.00  0.00     0.240 C 
HETATM   19  C10 UNL     1       4.475   1.613  -0.382  1.00  0.00     0.053 C 
HETATM   20  F1  UNL     1       3.779  -0.244   0.823  1.00  0.00    -0.241 F 
ENDBRANCH  16  18
ENDBRANCH   6  16
TORSDOF 5
