REMARK  5 active torsions:
REMARK  status: ('A' for Active; 'I' for Inactive)
REMARK    1  A    between atoms: C2_2  and  C3_3 
REMARK    2  A    between atoms: C2_2  and  N1_5 
REMARK    3  A    between atoms: N1_5  and  N2_7 
REMARK    4  A    between atoms: N2_7  and  C4_9 
REMARK    5  A    between atoms: N4_13  and  C6_14 
ROOT
HETATM    1  C4  UNL     1       1.406   0.549  -1.417  1.00  0.00     0.134 A 
HETATM    2  C5  UNL     1       0.947   1.741  -0.873  1.00  0.00     0.144 A 
HETATM    3  N3  UNL     1      -0.143   1.451  -0.151  1.00  0.00    -0.304 N 
ATOM      4  H3  UNL     1      -0.690   2.141   0.364  1.00  0.00     0.186 HD
HETATM    5  N4  UNL     1      -0.421   0.163  -0.188  1.00  0.00    -0.251 N 
HETATM    6  C11 UNL     1       0.521  -0.407  -0.962  1.00  0.00     0.291 A 
HETATM    7  O1  UNL     1       0.568  -1.647  -1.222  1.00  0.00    -0.264 OA
ENDROOT
BRANCH   1   8
HETATM    8  N2  UNL     1       2.526   0.319  -2.255  1.00  0.00    -0.294 N 
ATOM      9  H2  UNL     1       2.407   0.283  -3.267  1.00  0.00     0.187 HD
BRANCH   8  10
HETATM   10  N1  UNL     1       3.673   0.158  -1.747  1.00  0.00    -0.304 N 
ATOM     11  H1  UNL     1       4.481  -0.007  -2.348  1.00  0.00     0.186 HD
BRANCH  10  12
HETATM   12  C2  UNL     1       3.831   0.207  -0.345  1.00  0.00     0.033 C 
HETATM   13  C1  UNL     1       3.747  -1.023   0.460  1.00  0.00     0.070 C 
BRANCH  12  14
HETATM   14  C3  UNL     1       4.055   1.379   0.221  1.00  0.00     0.110 C 
HETATM   15 CL1  UNL     1       4.253   1.466   1.939  1.00  0.00    -0.095 Cl
ENDBRANCH  12  14
ENDBRANCH  10  12
ENDBRANCH   8  10
ENDBRANCH   1   8
BRANCH   5  16
HETATM   16  C6  UNL     1      -1.529  -0.452   0.488  1.00  0.00     0.111 C 
HETATM   17  C7  UNL     1      -2.536   0.593   0.916  1.00  0.00     0.027 C 
HETATM   18  C8  UNL     1      -3.822  -0.242   0.937  1.00  0.00     0.002 C 
HETATM   19  C9  UNL     1      -3.725  -0.920  -0.424  1.00  0.00     0.002 C 
HETATM   20  C10 UNL     1      -2.286  -1.433  -0.370  1.00  0.00     0.027 C 
ENDBRANCH   5  16
TORSDOF 5
