REMARK  4 active torsions:
REMARK  status: ('A' for Active; 'I' for Inactive)
REMARK    1  A    between atoms: O1_1  and  N1_3 
REMARK    2  A    between atoms: C1_5  and  O2_6 
REMARK    3  A    between atoms: C1_5  and  C2_8 
REMARK    4  A    between atoms: C3_9  and  C4_10 
ROOT
HETATM    1  C2  UNL     1       0.940  -0.303  -0.783  1.00  0.00     0.059 C 
HETATM    2  C3  UNL     1       0.298   0.273   0.223  1.00  0.00     0.023 C 
ENDROOT
BRANCH   1   3
HETATM    3  C1  UNL     1       2.379  -0.133  -0.972  1.00  0.00     0.159 C 
HETATM    4  N1  UNL     1       3.075   0.603  -0.138  1.00  0.00    -0.248 N 
ATOM      5  H1  UNL     1       2.622   1.065   0.651  1.00  0.00     0.196 HD
BRANCH   4   6
HETATM    6  O1  UNL     1       4.405   0.737  -0.345  1.00  0.00    -0.288 OA
ATOM      7  H1  UNL     1       4.909   1.270   0.259  1.00  0.00     0.244 HD
ENDBRANCH   4   6
BRANCH   3   8
HETATM    8  O2  UNL     1       3.007  -0.756  -2.041  1.00  0.00    -0.345 OA
ATOM      9  H2  UNL     1       2.503  -1.289  -2.645  1.00  0.00     0.219 HD
ENDBRANCH   3   8
ENDBRANCH   1   3
BRANCH   2  10
HETATM   10  C4  UNL     1      -1.159   0.043   0.333  1.00  0.00     0.006 A 
HETATM   11  C5  UNL     1      -2.026   0.525   1.273  1.00  0.00     0.038 A 
HETATM   12  C6  UNL     1      -3.312   0.178   1.165  1.00  0.00     0.018 A 
HETATM   13 BR1  UNL     1      -4.695   0.758   2.399  1.00  0.00    -0.051 Br
HETATM   14  C7  UNL     1      -3.661  -0.635   0.120  1.00  0.00     0.069 A 
HETATM   15  S1  UNL     1      -2.174  -0.884  -0.677  1.00  0.00    -0.101 SA
ENDBRANCH   2  10
TORSDOF 4
