REMARK  11 active torsions:
REMARK  status: ('A' for Active; 'I' for Inactive)
REMARK    1  A    between atoms: N1_1  and  C1_5 
REMARK    2  A    between atoms: C1_5  and  C2_6 
REMARK    3  A    between atoms: C2_6  and  C3_7 
REMARK    4  A    between atoms: C3_7  and  C4_8 
REMARK    5  A    between atoms: C4_8  and  C5_9 
REMARK    6  A    between atoms: C5_9  and  C6_10 
REMARK    7  A    between atoms: C6_10  and  N2_11 
REMARK    8  A    between atoms: N2_11  and  N3_13 
REMARK    9  A    between atoms: N3_13  and  N4_14 
REMARK   10  A    between atoms: N3_13  and  C7_17 
REMARK   11  A    between atoms: C13_28  and  N7_29 
ROOT
HETATM    1  C7  UNL     1      -2.530   0.939   0.345  1.00  0.00     0.105 C 
HETATM    2  C8  UNL     1      -2.845  -0.216   0.843  1.00  0.00     0.061 C 
HETATM    3  C9  UNL     1      -2.307  -0.802   2.098  1.00  0.00     0.267 C 
HETATM    4  O1  UNL     1      -1.876  -0.191   3.081  1.00  0.00    -0.266 OA
HETATM    5  N5  UNL     1      -2.413  -2.225   1.883  1.00  0.00    -0.269 N 
ATOM      6  H5  UNL     1      -2.107  -2.944   2.539  1.00  0.00     0.185 HD
HETATM    7  N6  UNL     1      -3.003  -2.468   0.629  1.00  0.00    -0.128 NA
HETATM    8  C10 UNL     1      -3.765  -1.257   0.384  1.00  0.00     0.141 C 
HETATM    9  C11 UNL     1      -4.363  -1.165  -0.945  1.00  0.00     0.038 C 
HETATM   10  C12 UNL     1      -3.401  -1.159  -2.105  1.00  0.00     0.078 C 
HETATM   11  S1  UNL     1      -2.838   0.539  -2.371  1.00  0.00    -0.130 SA
HETATM   12  C13 UNL     1      -3.056   1.562  -0.913  1.00  0.00     0.298 C 
ENDROOT
BRANCH   1  13
HETATM   13  N3  UNL     1      -1.587   1.726   1.051  1.00  0.00    -0.208 N 
BRANCH  13  14
HETATM   14  N2  UNL     1      -0.284   1.849   0.632  1.00  0.00    -0.316 N 
ATOM     15  H2  UNL     1       0.118   2.757   0.398  1.00  0.00     0.182 HD
BRANCH  14  16
HETATM   16  C6  UNL     1       0.480   0.647   0.540  1.00  0.00     0.141 C 
BRANCH  16  17
HETATM   17  C5  UNL     1       1.896   0.927   0.022  1.00  0.00     0.021 C 
BRANCH  17  18
HETATM   18  C4  UNL     1       2.637  -0.396  -0.044  1.00  0.00     0.002 C 
BRANCH  18  19
HETATM   19  C3  UNL     1       4.045  -0.225  -0.543  1.00  0.00     0.002 C 
BRANCH  19  20
HETATM   20  C2  UNL     1       4.748  -1.562  -0.597  1.00  0.00     0.027 C 
BRANCH  20  21
HETATM   21  C1  UNL     1       6.173  -1.415  -1.097  1.00  0.00     0.229 C 
BRANCH  21  22
HETATM   22  N1  UNL     1       6.936  -0.544  -0.219  1.00  0.00    -0.079 N 
ATOM     23  H13 UNL     1       6.482   0.361  -0.097  1.00  0.00     0.274 HD
ATOM     24  H12 UNL     1       6.906  -0.862   0.750  1.00  0.00     0.274 HD
ATOM     25  H11 UNL     1       7.894  -0.445  -0.555  1.00  0.00     0.274 HD
ENDBRANCH  21  22
ENDBRANCH  20  21
ENDBRANCH  19  20
ENDBRANCH  18  19
ENDBRANCH  17  18
ENDBRANCH  16  17
ENDBRANCH  14  16
ENDBRANCH  13  14
BRANCH  13  26
HETATM   26  N4  UNL     1      -2.013   2.450   2.164  1.00  0.00    -0.324 N 
ATOM     27  H42 UNL     1      -1.334   3.017   2.672  1.00  0.00     0.178 HD
ATOM     28  H41 UNL     1      -2.980   2.359   2.475  1.00  0.00     0.178 HD
ENDBRANCH  13  26
ENDBRANCH   1  13
BRANCH  12  29
HETATM   29  N7  UNL     1      -4.376   2.117  -0.760  1.00  0.00    -0.061 N 
ATOM     30  H73 UNL     1      -5.025   1.417  -0.402  1.00  0.00     0.276 HD
ATOM     31  H72 UNL     1      -4.403   2.781   0.014  1.00  0.00     0.276 HD
ATOM     32  H71 UNL     1      -4.734   2.541  -1.616  1.00  0.00     0.276 HD
ENDBRANCH  12  29
TORSDOF 11
