REMARK  7 active torsions:
REMARK  status: ('A' for Active; 'I' for Inactive)
REMARK    1  A    between atoms: C2_2  and  C3_3 
REMARK    2  A    between atoms: C3_3  and  C4_4 
REMARK    3  A    between atoms: C4_4  and  N1_5 
REMARK    4  A    between atoms: N3_11  and  C6_12 
REMARK    5  A    between atoms: C6_12  and  C7_13 
REMARK    6  A    between atoms: C7_13  and  C8_14 
REMARK    7  A    between atoms: C8_14  and  N4_15 
ROOT
HETATM    1  C3  UNL     1      -1.538  -0.274   0.028  1.00  0.00     0.011 C 
HETATM    2  C5  UNL     1      -1.019  -1.109   1.180  1.00  0.00     0.141 C 
HETATM    3  N2  UNL     1       0.364  -1.421   0.917  1.00  0.00    -0.164 NA
HETATM    4  N3  UNL     1       0.838  -0.493  -0.009  1.00  0.00    -0.234 NA
HETATM    5  C9  UNL     1      -0.276  -0.049  -0.783  1.00  0.00     0.121 C 
ENDROOT
BRANCH   1   6
HETATM    6  C2  UNL     1      -2.081   0.994   0.587  1.00  0.00     0.009 C 
HETATM    7  C1  UNL     1      -2.577   2.050  -0.288  1.00  0.00     0.006 C 
ENDBRANCH   1   6
BRANCH   1   8
HETATM    8  C4  UNL     1      -2.461  -1.110  -0.774  1.00  0.00     0.241 C 
BRANCH   8   9
HETATM    9  N1  UNL     1      -3.023  -0.553  -1.951  1.00  0.00    -0.079 N 
ATOM     10  H13 UNL     1      -3.489   0.323  -1.714  1.00  0.00     0.274 HD
ATOM     11  H12 UNL     1      -2.270  -0.218  -2.552  1.00  0.00     0.274 HD
ATOM     12  H11 UNL     1      -3.659  -1.129  -2.503  1.00  0.00     0.274 HD
ENDBRANCH   8   9
ENDBRANCH   1   8
BRANCH   4  13
HETATM   13  C6  UNL     1       1.570   0.582   0.619  1.00  0.00     0.111 C 
BRANCH  13  14
HETATM   14  C7  UNL     1       2.838   0.029   1.280  1.00  0.00     0.043 C 
BRANCH  14  15
HETATM   15  C8  UNL     1       3.711  -0.619   0.201  1.00  0.00     0.231 C 
BRANCH  15  16
HETATM   16  N4  UNL     1       4.050   0.384  -0.802  1.00  0.00    -0.079 N 
ATOM     17  H43 UNL     1       3.224   0.838  -1.192  1.00  0.00     0.274 HD
ATOM     18  H42 UNL     1       4.487   1.210  -0.393  1.00  0.00     0.274 HD
ATOM     19  H41 UNL     1       4.631  -0.048  -1.521  1.00  0.00     0.274 HD
ENDBRANCH  15  16
ENDBRANCH  14  15
ENDBRANCH  13  14
ENDBRANCH   4  13
TORSDOF 7
