REMARK  7 active torsions:
REMARK  status: ('A' for Active; 'I' for Inactive)
REMARK    1  A    between atoms: C2_2  and  N1_3 
REMARK    2  A    between atoms: N1_3  and  C3_6 
REMARK    3  A    between atoms: C3_6  and  C4_7 
REMARK    4  A    between atoms: C7_14  and  N4_15 
REMARK    5  A    between atoms: N4_15  and  C8_17 
REMARK    6  A    between atoms: C8_17  and  C9_18 
REMARK    7  A    between atoms: C9_18  and  N5_19 
ROOT
HETATM    1  C4  UNL     1      -0.433  -0.603  -0.759  1.00  0.00     0.026 A 
HETATM    2  C5  UNL     1      -1.069  -1.609  -1.451  1.00  0.00     0.101 A 
HETATM    3  N2  UNL     1      -0.332  -2.535  -2.088  1.00  0.00    -0.361 N 
ATOM      4  H2  UNL     1      -0.800  -3.282  -2.602  1.00  0.00     0.166 HD
HETATM    5  C6  UNL     1       1.008  -2.493  -2.059  1.00  0.00     0.181 A 
HETATM    6  N3  UNL     1       1.614  -1.507  -1.380  1.00  0.00    -0.338 N 
ATOM      7  H3  UNL     1       2.634  -1.485  -1.364  1.00  0.00     0.168 HD
HETATM    8  C7  UNL     1       0.943  -0.545  -0.718  1.00  0.00     0.111 A 
ENDROOT
BRANCH   8   9
HETATM    9  N4  UNL     1       1.492   0.397  -0.070  1.00  0.00    -0.374 N 
ATOM     10  H4  UNL     1       0.862   1.058   0.384  1.00  0.00     0.161 HD
BRANCH   9  11
HETATM   11  C8  UNL     1       2.884   0.639   0.097  1.00  0.00     0.148 C 
BRANCH  11  12
HETATM   12  C9  UNL     1       3.289   0.051   1.455  1.00  0.00     0.249 C 
BRANCH  12  13
HETATM   13  N5  UNL     1       4.696   0.293   1.629  1.00  0.00    -0.078 N 
ATOM     14  H53 UNL     1       5.259  -0.064   0.857  1.00  0.00     0.274 HD
ATOM     15  H52 UNL     1       4.945   1.277   1.532  1.00  0.00     0.274 HD
ATOM     16  H51 UNL     1       4.965  -0.098   2.532  1.00  0.00     0.274 HD
ENDBRANCH  12  13
ENDBRANCH  11  12
ENDBRANCH   9  11
ENDBRANCH   8   9
BRANCH   1  17
HETATM   17  C3  UNL     1      -1.213   0.448  -0.035  1.00  0.00     0.276 C 
BRANCH  17  18
HETATM   18  N1  UNL     1      -2.640   0.232  -0.184  1.00  0.00    -0.071 N 
ATOM     19  H12 UNL     1      -2.937  -0.700   0.104  1.00  0.00     0.277 HD
ATOM     20  H11 UNL     1      -2.937   0.167  -1.158  1.00  0.00     0.277 HD
BRANCH  18  21
HETATM   21  C2  UNL     1      -3.310   1.302   0.551  1.00  0.00     0.228 C 
HETATM   22  C1  UNL     1      -4.797   1.195   0.477  1.00  0.00     0.034 C 
ENDBRANCH  18  21
ENDBRANCH  17  18
ENDBRANCH   1  17
TORSDOF 7
