REMARK  6 active torsions:
REMARK  status: ('A' for Active; 'I' for Inactive)
REMARK    1  A    between atoms: N1_1  and  C1_5 
REMARK    2  A    between atoms: C1_5  and  C2_6 
REMARK    3  A    between atoms: C2_6  and  C3_7 
REMARK    4  A    between atoms: C3_7  and  C4_8 
REMARK    5  A    between atoms: C4_8  and  N2_9 
REMARK    6  A    between atoms: N2_9  and  C5_12 
ROOT
HETATM    1  N2  UNL     1      -0.065   0.804  -0.261  1.00  0.00    -0.068 N 
ATOM      2  H21 UNL     1      -0.175   0.555  -1.244  1.00  0.00     0.277 HD
ATOM      3  H22 UNL     1       0.165   1.792  -0.366  1.00  0.00     0.277 HD
ENDROOT
BRANCH   1   4
HETATM    4  C4  UNL     1       1.021   0.083   0.335  1.00  0.00     0.233 C 
BRANCH   4   5
HETATM    5  C3  UNL     1       2.331   0.340  -0.425  1.00  0.00     0.029 C 
BRANCH   5   6
HETATM    6  C2  UNL     1       3.421  -0.458   0.276  1.00  0.00     0.029 C 
BRANCH   6   7
HETATM    7  C1  UNL     1       4.768  -0.298  -0.370  1.00  0.00     0.229 C 
BRANCH   7   8
HETATM    8  N1  UNL     1       5.745  -1.078   0.347  1.00  0.00    -0.079 N 
ATOM      9  H13 UNL     1       5.766  -0.849   1.341  1.00  0.00     0.274 HD
ATOM     10  H12 UNL     1       5.471  -2.057   0.428  1.00  0.00     0.274 HD
ATOM     11  H11 UNL     1       6.659  -0.969  -0.092  1.00  0.00     0.274 HD
ENDBRANCH   7   8
ENDBRANCH   6   7
ENDBRANCH   5   6
ENDBRANCH   4   5
ENDBRANCH   1   4
BRANCH   1  12
HETATM   12  C5  UNL     1      -1.282   0.636   0.446  1.00  0.00     0.220 C 
HETATM   13  C6  UNL     1      -1.831  -0.757   0.476  1.00  0.00     0.148 C 
HETATM   14  N3  UNL     1      -2.404  -1.022  -0.826  1.00  0.00    -0.418 N 
HETATM   15  C7  UNL     1      -3.732  -0.550  -1.013  1.00  0.00     0.133 C 
ATOM     16  H3  UNL     1      -1.891  -1.513  -1.558  1.00  0.00     0.153 HD
HETATM   17  C8  UNL     1      -4.318   0.169   0.168  1.00  0.00     0.133 C 
HETATM   18  N4  UNL     1      -3.580   1.291   0.610  1.00  0.00    -0.418 N 
HETATM   19  C9  UNL     1      -2.373   1.585  -0.077  1.00  0.00     0.148 C 
ATOM     20  H4  UNL     1      -3.901   1.865   1.390  1.00  0.00     0.153 HD
ENDBRANCH   1  12
TORSDOF 6
