REMARK  1 active torsions:
REMARK  status: ('A' for Active; 'I' for Inactive)
REMARK    1  A    between atoms: C5_10  and  N4_11 
REMARK       I    between atoms: N4_11  and  C6_13 
REMARK       I    between atoms: C6_13  and  N5_14 
REMARK       I    between atoms: C6_13  and  N6_18 
ROOT
HETATM    1  N1  UNL     1      -1.332   3.129  -2.008  1.00  0.00    -0.190 NA
HETATM    2  C1  UNL     1      -1.449   2.111  -1.471  1.00  0.00     0.121 C 
HETATM    3  C2  UNL     1      -1.584   0.836  -0.821  1.00  0.00     0.158 A 
HETATM    4  N2  UNL     1      -2.800   0.219  -0.794  1.00  0.00    -0.353 N 
ATOM      5  H2  UNL     1      -3.617   0.648  -1.228  1.00  0.00     0.166 HD
HETATM    6  C3  UNL     1      -2.889  -0.983  -0.172  1.00  0.00     0.106 A 
HETATM    7  C4  UNL     1      -1.792  -1.577   0.420  1.00  0.00     0.106 A 
HETATM    8  N3  UNL     1      -0.620  -0.920   0.361  1.00  0.00    -0.349 N 
ATOM      9  H3  UNL     1       0.198  -1.347   0.795  1.00  0.00     0.167 HD
HETATM   10  C5  UNL     1      -0.474   0.268  -0.240  1.00  0.00     0.142 A 
ENDROOT
BRANCH  10  11
HETATM   11  N4  UNL     1       0.626   0.880  -0.293  1.00  0.00    -0.325 N 
HETATM   12  C6  UNL     1       1.889   0.509   0.222  1.00  0.00     0.481 C 
HETATM   13  N5  UNL     1       2.374  -0.666  -0.445  1.00  0.00    -0.033 N 
HETATM   14  N6  UNL     1       1.928   0.334   1.657  1.00  0.00    -0.033 N 
ATOM     15  H53 UNL     1       1.704  -1.434  -0.398  1.00  0.00     0.278 HD
ATOM     16  H52 UNL     1       2.396  -0.546  -1.458  1.00  0.00     0.278 HD
ATOM     17  H51 UNL     1       3.285  -0.934  -0.073  1.00  0.00     0.278 HD
ATOM     18  H63 UNL     1       1.587   1.174   2.125  1.00  0.00     0.278 HD
ATOM     19  H62 UNL     1       1.215  -0.334   1.952  1.00  0.00     0.278 HD
ATOM     20  H61 UNL     1       2.839   0.066   2.029  1.00  0.00     0.278 HD
ATOM     21  H4  UNL     1       0.602   1.776  -0.780  1.00  0.00     0.165 HD
ENDBRANCH  10  11
TORSDOF 1
