REMARK  2 active torsions:
REMARK  status: ('A' for Active; 'I' for Inactive)
REMARK    1  A    between atoms: N1_1  and  C1_4 
REMARK    2  A    between atoms: N3_8  and  C4_9 
ROOT
HETATM    1  C1  UNL     1       1.844   0.288  -0.026  1.00  0.00     0.105 A 
HETATM    2  C2  UNL     1       0.768   1.125   0.179  1.00  0.00     0.094 A 
HETATM    3  C3  UNL     1      -0.520   0.618   0.140  1.00  0.00     0.132 A 
HETATM    4  N2  UNL     1      -1.629   1.462   0.347  1.00  0.00    -0.082 NA
HETATM    5  N3  UNL     1      -0.756  -0.687  -0.094  1.00  0.00    -0.228 N 
HETATM    6  C5  UNL     1       0.312  -1.497  -0.293  1.00  0.00     0.335 A 
HETATM    7  O2  UNL     1       0.091  -2.723  -0.513  1.00  0.00    -0.246 OA
HETATM    8  N4  UNL     1       1.571  -1.008  -0.257  1.00  0.00    -0.294 N 
ATOM      9  H4  UNL     1       2.348  -1.650  -0.412  1.00  0.00     0.172 HD
ENDROOT
BRANCH   1  10
HETATM   10  N1  UNL     1       3.070   0.715   0.000  1.00  0.00    -0.385 N 
ATOM     11  H12 UNL     1       3.277   1.698   0.175  1.00  0.00     0.157 HD
ATOM     12  H11 UNL     1       3.866   0.096  -0.152  1.00  0.00     0.157 HD
ENDBRANCH   1  10
BRANCH   5  13
HETATM   13  C4  UNL     1      -2.046  -1.248  -0.143  1.00  0.00     0.365 C 
HETATM   14  O1  UNL     1      -3.059  -0.527   0.037  1.00  0.00    -0.283 OA
ENDBRANCH   5  13
TORSDOF 2
