REMARK  7 active torsions:
REMARK  status: ('A' for Active; 'I' for Inactive)
REMARK    1  A    between atoms: C2_2  and  N1_3 
REMARK       I    between atoms: N1_3  and  C3_5 
REMARK    2  A    between atoms: C3_5  and  C4_7 
REMARK    3  A    between atoms: C4_7  and  N2_8 
REMARK    4  A    between atoms: N3_11  and  C7_12 
REMARK    5  A    between atoms: C7_12  and  C8_13 
REMARK       I    between atoms: C8_13  and  N4_15 
REMARK    6  A    between atoms: N4_15  and  C9_17 
REMARK    7  A    between atoms: C9_17  and  C10_18 
REMARK       I    between atoms: C10_18  and  N5_20 
ROOT
HETATM    1  N2  UNL     1       4.011  -1.812  -0.984  1.00  0.00    -0.014 N 
HETATM    2  C5  UNL     1       3.623  -0.911  -1.986  1.00  0.00     0.273 C 
HETATM    3  C6  UNL     1       2.104  -0.738  -1.765  1.00  0.00     0.273 C 
HETATM    4  N3  UNL     1       1.817  -1.825  -0.899  1.00  0.00    -0.014 N 
HETATM    5  C17 UNL     1       2.177  -3.048  -1.617  1.00  0.00     0.273 C 
HETATM    6  C18 UNL     1       3.681  -3.166  -1.499  1.00  0.00     0.273 C 
HETATM    7  C19 UNL     1       2.973  -1.745   0.028  1.00  0.00     0.484 C 
ENDROOT
BRANCH   4   8
HETATM    8  C7  UNL     1       0.595  -1.897  -0.230  1.00  0.00     0.278 C 
BRANCH   8   9
HETATM    9  C8  UNL     1      -0.519  -1.069  -0.629  1.00  0.00     0.265 C 
HETATM   10  O2  UNL     1      -0.445  -0.263  -1.573  1.00  0.00    -0.267 OA
HETATM   11  N4  UNL     1      -1.753  -1.156   0.062  1.00  0.00    -0.348 N 
ATOM     12  H4  UNL     1      -1.832  -1.812   0.839  1.00  0.00     0.163 HD
BRANCH  11  13
HETATM   13  C9  UNL     1      -2.905  -0.354  -0.288  1.00  0.00     0.225 C 
BRANCH  13  14
HETATM   14  C10 UNL     1      -4.062  -0.642   0.589  1.00  0.00     0.237 C 
HETATM   15  O3  UNL     1      -3.926  -1.500   1.488  1.00  0.00    -0.272 OA
HETATM   16  N5  UNL     1      -5.312   0.011   0.455  1.00  0.00    -0.348 N 
HETATM   17  C11 UNL     1      -5.554   1.018  -0.560  1.00  0.00     0.154 C 
HETATM   18  C16 UNL     1      -6.412  -0.309   1.341  1.00  0.00     0.154 C 
HETATM   19  C12 UNL     1      -7.001   0.938  -1.008  1.00  0.00     0.256 C 
HETATM   20  N6  UNL     1      -7.936   1.133   0.057  1.00  0.00    -0.072 N 
HETATM   21  C13 UNL     1      -9.069   0.233  -0.171  1.00  0.00     0.272 C 
HETATM   22  C14 UNL     1      -8.497   2.479   0.072  1.00  0.00     0.272 C 
HETATM   23  C15 UNL     1      -7.334   0.891   1.349  1.00  0.00     0.256 C 
ENDBRANCH  13  14
ENDBRANCH  11  13
ENDBRANCH   8   9
ENDBRANCH   4   8
BRANCH   1  24
HETATM   24  C4  UNL     1       5.314  -1.858  -0.530  1.00  0.00     0.278 C 
BRANCH  24  25
HETATM   25  C3  UNL     1       5.975  -0.732   0.084  1.00  0.00     0.265 C 
HETATM   26  N1  UNL     1       5.514   0.562   0.349  1.00  0.00    -0.348 N 
ATOM     27  H1  UNL     1       4.559   0.804   0.086  1.00  0.00     0.163 HD
HETATM   28  O1  UNL     1       7.187  -0.966   0.441  1.00  0.00    -0.267 OA
BRANCH  26  29
HETATM   29  C2  UNL     1       6.327   1.558   0.973  1.00  0.00     0.029 C 
HETATM   30  C1  UNL     1       6.818   1.178   2.366  1.00  0.00     0.038 C 
HETATM   31  C20 UNL     1       7.460   2.108   0.149  1.00  0.00     0.031 C 
HETATM   32  C21 UNL     1       6.648   3.374  -0.157  1.00  0.00     0.005 C 
HETATM   33  C22 UNL     1       5.745   2.953   1.000  1.00  0.00     0.031 C 
ENDBRANCH  26  29
ENDBRANCH  24  25
ENDBRANCH   1  24
TORSDOF 7
