REMARK  8 active torsions:
REMARK  status: ('A' for Active; 'I' for Inactive)
REMARK    1  A    between atoms: C6_7  and  C7_8 
REMARK    2  A    between atoms: C7_8  and  N2_9 
REMARK    3  A    between atoms: N5_19  and  C12_20 
REMARK    4  A    between atoms: C12_20  and  C13_21 
REMARK    5  A    between atoms: C13_21  and  C14_22 
REMARK    6  A    between atoms: N6_25  and  C17_26 
REMARK    7  A    between atoms: C17_26  and  C18_27 
REMARK    8  A    between atoms: C22_31  and  O1_32 
ROOT
HETATM    1  C1  UNL     1      -0.510  -3.181   1.022  1.00  0.00     0.068 C 
HETATM    2  C2  UNL     1      -1.720  -2.302   0.932  1.00  0.00     0.014 A 
HETATM    3  C3  UNL     1      -2.495  -2.231   2.094  1.00  0.00     0.042 A 
HETATM    4  C4  UNL     1      -3.641  -1.496   2.140  1.00  0.00     0.094 A 
HETATM    5  N1  UNL     1      -4.011  -0.823   1.000  1.00  0.00    -0.349 N 
HETATM    6  C5  UNL     1      -5.260  -0.067   1.143  1.00  0.00     0.156 C 
HETATM    7  C6  UNL     1      -3.285  -0.877  -0.115  1.00  0.00     0.108 A 
HETATM    8  N5  UNL     1      -2.106  -1.635  -0.160  1.00  0.00    -0.318 N 
ENDROOT
BRANCH   8   9
HETATM    9  C12 UNL     1      -1.361  -1.699  -1.356  1.00  0.00     0.077 C 
BRANCH   9  10
HETATM   10  C13 UNL     1      -0.302  -0.748  -1.696  1.00  0.00     0.102 C 
BRANCH  10  11
HETATM   11  C14 UNL     1       0.865  -0.591  -0.852  1.00  0.00     0.020 A 
HETATM   12  C15 UNL     1       0.817   0.334   0.186  1.00  0.00     0.043 A 
HETATM   13  C16 UNL     1       1.922   0.510   0.990  1.00  0.00     0.096 A 
HETATM   14  N6  UNL     1       3.069  -0.207   0.789  1.00  0.00    -0.322 N 
HETATM   15  C22 UNL     1       3.098  -1.087  -0.209  1.00  0.00     0.225 A 
HETATM   16  N7  UNL     1       2.020  -1.263  -0.998  1.00  0.00    -0.321 N 
HETATM   17  C23 UNL     1       2.097  -2.241  -2.093  1.00  0.00     0.160 C 
BRANCH  14  18
HETATM   18  C17 UNL     1       4.208   0.006   1.634  1.00  0.00     0.140 C 
BRANCH  18  19
HETATM   19  C18 UNL     1       5.131   1.092   1.211  1.00  0.00    -0.035 C 
HETATM   20  C19 UNL     1       5.752   0.928  -0.135  1.00  0.00     0.016 C 
HETATM   21  C20 UNL     1       4.457   2.456   1.231  1.00  0.00     0.016 C 
HETATM   22  C21 UNL     1       6.286   1.200   2.214  1.00  0.00     0.016 C 
ENDBRANCH  18  19
ENDBRANCH  14  18
BRANCH  15  23
HETATM   23  O1  UNL     1       4.226  -1.868  -0.491  1.00  0.00    -0.332 OA
ATOM     24  H1  UNL     1       4.247  -2.496  -1.203  1.00  0.00     0.221 HD
ENDBRANCH  15  23
ENDBRANCH  10  11
ENDBRANCH   9  10
ENDBRANCH   8   9
BRANCH   7  25
HETATM   25  C7  UNL     1      -3.682  -0.206  -1.345  1.00  0.00     0.224 C 
BRANCH  25  26
HETATM   26  N2  UNL     1      -3.998   1.201  -1.362  1.00  0.00    -0.187 N 
HETATM   27  C8  UNL     1      -3.008   2.015  -0.951  1.00  0.00     0.111 A 
HETATM   28  C9  UNL     1      -3.222   3.353  -0.834  1.00  0.00     0.035 A 
HETATM   29  C10 UNL     1      -4.482   3.857  -1.147  1.00  0.00     0.107 A 
HETATM   30  N3  UNL     1      -5.439   3.019  -1.552  1.00  0.00    -0.202 N 
HETATM   31  C11 UNL     1      -5.182   1.687  -1.658  1.00  0.00     0.678 A 
ATOM     32  H3  UNL     1      -6.365   3.378  -1.783  1.00  0.00     0.183 HD
HETATM   33  N4  UNL     1      -6.162   1.015  -2.139  1.00  0.00    -0.234 N 
ATOM     34  H42 UNL     1      -5.969   0.017  -2.218  1.00  0.00     0.174 HD
ATOM     35  H41 UNL     1      -7.081   1.392  -2.369  1.00  0.00     0.174 HD
ENDBRANCH  25  26
ENDBRANCH   7  25
TORSDOF 8
