REMARK  8 active torsions:
REMARK  status: ('A' for Active; 'I' for Inactive)
REMARK       I    between atoms: C2_2  and  N1_4 
REMARK    1  A    between atoms: N2_7  and  C5_8 
REMARK    2  A    between atoms: C5_8  and  O2_9 
REMARK    3  A    between atoms: C6_11  and  N3_12 
REMARK    4  A    between atoms: N3_12  and  N4_14 
REMARK    5  A    between atoms: N6_21  and  C9_22 
REMARK    6  A    between atoms: C9_22  and  C10_23 
REMARK    7  A    between atoms: C14_27  and  C15_28 
REMARK    8  A    between atoms: C15_28  and  N7_29 
ROOT
HETATM    1  C1  UNL     1      -1.649  -3.416  -0.346  1.00  0.00     0.117 C 
HETATM    2  C2  UNL     1      -2.372  -2.431   0.493  1.00  0.00     0.220 C 
HETATM    3  O1  UNL     1      -3.412  -2.807   1.121  1.00  0.00    -0.273 OA
HETATM    4  N1  UNL     1      -1.982  -1.082   0.648  1.00  0.00    -0.317 N 
HETATM    5  C3  UNL     1      -2.858  -0.356   1.514  1.00  0.00     0.152 C 
HETATM    6  C4  UNL     1      -4.072   0.264   0.876  1.00  0.00     0.145 C 
HETATM    7  N2  UNL     1      -3.815   1.069  -0.279  1.00  0.00    -0.358 N 
HETATM    8  C7  UNL     1      -2.652   0.917  -1.199  1.00  0.00     0.139 C 
HETATM    9  C8  UNL     1      -1.455   1.429  -0.496  1.00  0.00     0.116 C 
HETATM   10  N6  UNL     1      -0.406   0.477  -0.313  1.00  0.00    -0.273 NA
HETATM   11  C22 UNL     1      -0.786  -0.869  -0.139  1.00  0.00     0.157 C 
ENDROOT
BRANCH  10  12
HETATM   12  C9  UNL     1       0.680   0.620  -1.228  1.00  0.00     0.134 C 
BRANCH  12  13
HETATM   13  C10 UNL     1       1.698  -0.417  -0.944  1.00  0.00    -0.044 A 
HETATM   14  C11 UNL     1       1.778  -1.620  -1.612  1.00  0.00     0.008 A 
HETATM   15  C12 UNL     1       2.750  -2.544  -1.299  1.00  0.00     0.001 A 
HETATM   16  C13 UNL     1       3.673  -2.292  -0.306  1.00  0.00     0.009 A 
HETATM   17  C14 UNL     1       3.590  -1.078   0.366  1.00  0.00    -0.039 A 
HETATM   18  C21 UNL     1       2.619  -0.163   0.048  1.00  0.00     0.017 A 
BRANCH  17  19
HETATM   19  C15 UNL     1       4.581  -0.793   1.441  1.00  0.00     0.166 C 
BRANCH  19  20
HETATM   20  N7  UNL     1       5.719  -0.133   0.820  1.00  0.00    -0.362 N 
HETATM   21  C16 UNL     1       5.712   1.212   0.735  1.00  0.00     0.090 A 
HETATM   22  C17 UNL     1       6.779   1.872   0.151  1.00  0.00     0.017 A 
HETATM   23  C18 UNL     1       7.851   1.161  -0.346  1.00  0.00     0.003 A 
HETATM   24  C19 UNL     1       7.822  -0.212  -0.241  1.00  0.00     0.017 A 
HETATM   25  C20 UNL     1       6.745  -0.864   0.348  1.00  0.00     0.090 A 
ENDBRANCH  19  20
ENDBRANCH  17  19
ENDBRANCH  12  13
ENDBRANCH  10  12
BRANCH   7  26
HETATM   26  C5  UNL     1      -4.688   2.072  -0.669  1.00  0.00     0.155 C 
HETATM   27  C6  UNL     1      -5.988   2.494  -0.213  1.00  0.00     0.164 C 
BRANCH  26  28
HETATM   28  O2  UNL     1      -4.278   2.846  -1.689  1.00  0.00    -0.345 OA
ATOM     29  H2  UNL     1      -4.876   3.534  -1.956  1.00  0.00     0.219 HD
ENDBRANCH  26  28
BRANCH  27  30
HETATM   30  N3  UNL     1      -6.728   1.834   0.780  1.00  0.00    -0.294 N 
ATOM     31  H3  UNL     1      -6.456   0.898   1.080  1.00  0.00     0.187 HD
BRANCH  30  32
HETATM   32  N4  UNL     1      -7.861   2.470   1.372  1.00  0.00    -0.250 N 
HETATM   33  N5  UNL     1      -8.176   2.259   2.565  1.00  0.00    -0.331 N 
ATOM     34  H52 UNL     1      -7.601   1.617   3.111  1.00  0.00     0.178 HD
ATOM     35  H51 UNL     1      -8.985   2.713   2.988  1.00  0.00     0.178 HD
ATOM     36  H4  UNL     1      -8.425   3.109   0.812  1.00  0.00     0.207 HD
ENDBRANCH  30  32
ENDBRANCH  27  30
ENDBRANCH   7  26
TORSDOF 8
