REMARK  6 active torsions:
REMARK  status: ('A' for Active; 'I' for Inactive)
REMARK    1  A    between atoms: N1_7  and  C5_8 
REMARK    2  A    between atoms: C5_8  and  C6_9 
REMARK    3  A    between atoms: C6_9  and  C7_10 
REMARK    4  A    between atoms: C7_10  and  N2_11 
REMARK    5  A    between atoms: N2_11  and  C8_13 
REMARK    6  A    between atoms: C8_13  and  N3_15 
ROOT
HETATM    1  N2  UNL     1       0.644   0.523   0.709  1.00  0.00    -0.367 N 
ATOM      2  H2  UNL     1       0.239  -0.104   1.404  1.00  0.00     0.161 HD
ENDROOT
BRANCH   1   3
HETATM    3  C7  UNL     1       2.071   0.743   0.713  1.00  0.00     0.123 C 
BRANCH   3   4
HETATM    4  C6  UNL     1       2.686  -0.050   1.811  1.00  0.00     0.039 C 
BRANCH   4   5
HETATM    5  C5  UNL     1       4.159   0.063   1.962  1.00  0.00     0.129 C 
BRANCH   5   6
HETATM    6  N1  UNL     1       4.954  -0.326   0.858  1.00  0.00    -0.328 N 
HETATM    7  C1  UNL     1       5.411  -1.658   0.693  1.00  0.00     0.362 C 
HETATM    8  O1  UNL     1       5.343  -2.516   1.626  1.00  0.00    -0.238 OA
HETATM    9  O2  UNL     1       5.951  -2.052  -0.514  1.00  0.00    -0.304 OA
HETATM   10  C2  UNL     1       6.334  -1.159  -1.540  1.00  0.00     0.182 C 
HETATM   11  C3  UNL     1       5.416   0.035  -1.519  1.00  0.00     0.047 C 
HETATM   12  C4  UNL     1       5.324   0.651  -0.138  1.00  0.00     0.130 C 
ENDBRANCH   5   6
ENDBRANCH   4   5
ENDBRANCH   3   4
ENDBRANCH   1   3
BRANCH   1  13
HETATM   13  C8  UNL     1      -0.214   1.152  -0.233  1.00  0.00     0.169 C 
HETATM   14  S1  UNL     1       0.440   2.150  -1.337  1.00  0.00    -0.041 SA
BRANCH  13  15
HETATM   15  N3  UNL     1      -1.608   0.932  -0.229  1.00  0.00    -0.358 N 
HETATM   16  C9  UNL     1      -2.338   1.639  -1.243  1.00  0.00     0.125 C 
HETATM   17  C10 UNL     1      -3.085   0.713  -2.171  1.00  0.00     0.021 C 
HETATM   18  C11 UNL     1      -3.430  -0.598  -1.501  1.00  0.00     0.011 C 
HETATM   19  C12 UNL     1      -4.298  -0.391  -0.283  1.00  0.00    -0.039 C 
HETATM   20  C13 UNL     1      -5.233  -1.571  -0.121  1.00  0.00     0.010 C 
HETATM   21  C15 UNL     1      -5.524   0.464  -0.532  1.00  0.00     0.010 C 
HETATM   22  C16 UNL     1      -3.533  -0.086   0.950  1.00  0.00     0.029 C 
HETATM   23  C14 UNL     1      -6.445  -0.670  -0.130  1.00  0.00     0.002 C 
HETATM   24  C17 UNL     1      -2.053   0.019   0.813  1.00  0.00     0.126 C 
ENDBRANCH  13  15
ENDBRANCH   1  13
TORSDOF 6
