REMARK  4 active torsions:
REMARK  status: ('A' for Active; 'I' for Inactive)
REMARK    1  A    between atoms: C2_2  and  N1_3 
REMARK       I    between atoms: N1_3  and  C4_5 
REMARK    2  A    between atoms: C4_5  and  C5_7 
REMARK    3  A    between atoms: C7_9  and  C8_10 
REMARK       I    between atoms: C8_10  and  N2_12 
REMARK    4  A    between atoms: N2_12  and  C9_14 
ROOT
HETATM    1  C8  UNL     1       0.684  -1.282  -0.469  1.00  0.00     0.223 C 
HETATM    2  O2  UNL     1       0.405  -0.724  -1.537  1.00  0.00    -0.273 OA
HETATM    3  N2  UNL     1      -0.340  -1.379   0.503  1.00  0.00    -0.353 N 
ATOM      4  H2  UNL     1      -0.125  -1.837   1.389  1.00  0.00     0.163 HD
ENDROOT
BRANCH   3   5
HETATM    5  C9  UNL     1      -1.678  -0.860   0.303  1.00  0.00     0.119 C 
HETATM    6  C10 UNL     1      -2.731  -1.919   0.480  1.00  0.00     0.028 C 
HETATM    7  C11 UNL     1      -3.541  -1.964  -0.802  1.00  0.00     0.002 C 
HETATM    8  C12 UNL     1      -4.699  -0.957  -0.738  1.00  0.00     0.000 C 
HETATM    9  C13 UNL     1      -4.328   0.375  -1.282  1.00  0.00     0.000 C 
HETATM   10  C14 UNL     1      -3.519   1.261  -0.438  1.00  0.00     0.003 C 
HETATM   11  C15 UNL     1      -3.308   0.895   0.970  1.00  0.00     0.040 C 
HETATM   12  C16 UNL     1      -1.975   0.252   1.270  1.00  0.00     0.081 C 
HETATM   13  C17 UNL     1      -1.999  -0.206   2.698  1.00  0.00     0.042 C 
HETATM   14  O3  UNL     1      -0.990   1.231   1.230  1.00  0.00    -0.378 OA
HETATM   15  C18 UNL     1      -1.630   1.044   3.457  1.00  0.00     0.029 C 
HETATM   16  C19 UNL     1      -1.024   1.923   2.414  1.00  0.00     0.169 C 
ENDBRANCH   3   5
BRANCH   1  17
HETATM   17  C7  UNL     1       2.019  -1.823  -0.216  1.00  0.00     0.091 A 
HETATM   18  C5  UNL     1       3.295  -1.289  -0.666  1.00  0.00     0.092 A 
HETATM   19  C6  UNL     1       2.785  -2.609  -1.228  1.00  0.00     0.030 A 
BRANCH  18  20
HETATM   20  C4  UNL     1       3.573  -0.294  -1.675  1.00  0.00     0.224 C 
HETATM   21  N1  UNL     1       4.730   0.553  -1.610  1.00  0.00    -0.356 N 
HETATM   22  C3  UNL     1       5.673   0.427  -0.494  1.00  0.00     0.152 C 
HETATM   23  O1  UNL     1       2.834  -0.109  -2.658  1.00  0.00    -0.273 OA
BRANCH  21  24
HETATM   24  C2  UNL     1       5.038   1.555  -2.602  1.00  0.00     0.120 C 
HETATM   25  C1  UNL     1       4.431   2.896  -2.273  1.00  0.00     0.026 C 
ENDBRANCH  21  24
ENDBRANCH  18  20
ENDBRANCH   1  17
TORSDOF 4
