REMARK  16 active torsions:
REMARK  status: ('A' for Active; 'I' for Inactive)
REMARK    1  A    between atoms: C2_2  and  C3_3 
REMARK    2  A    between atoms: C3_3  and  C4_4 
REMARK    3  A    between atoms: C4_4  and  C5_5 
REMARK    4  A    between atoms: C7_10  and  C8_11 
REMARK    5  A    between atoms: C11_16  and  O2_17 
REMARK    6  A    between atoms: C12_19  and  C13_20 
REMARK    7  A    between atoms: C13_20  and  C14_21 
REMARK    8  A    between atoms: C17_26  and  O3_27 
REMARK    9  A    between atoms: C18_29  and  C19_30 
REMARK   10  A    between atoms: C22_35  and  O4_36 
REMARK   11  A    between atoms: N5_38  and  C23_39 
REMARK   12  A    between atoms: C23_39  and  C24_40 
REMARK   13  A    between atoms: C24_40  and  N6_41 
REMARK   14  A    between atoms: C26_47  and  C27_48 
REMARK   15  A    between atoms: C27_48  and  C28_49 
REMARK   16  A    between atoms: C32_54  and  O6_55 
ROOT
HETATM    1  C5  UNL     1      -1.738  -2.079   0.036  1.00  0.00     0.159 C 
HETATM    2  N1  UNL     1      -0.661  -1.279  -0.465  1.00  0.00    -0.347 N 
ATOM      3  H1  UNL     1      -0.567  -0.339  -0.081  1.00  0.00     0.163 HD
HETATM    4  C6  UNL     1       0.298  -1.674  -1.455  1.00  0.00     0.241 C 
HETATM    5  O1  UNL     1       0.603  -0.781  -2.285  1.00  0.00    -0.271 OA
HETATM    6  C7  UNL     1       0.906  -2.983  -1.548  1.00  0.00     0.179 C 
HETATM    7  N2  UNL     1       2.210  -3.187  -0.971  1.00  0.00    -0.359 N 
ATOM      8  H2  UNL     1       2.747  -3.884  -1.488  1.00  0.00     0.162 HD
HETATM    9  C11 UNL     1       2.912  -2.691   0.085  1.00  0.00     0.135 C 
HETATM   10  C12 UNL     1       3.541  -1.338   0.386  1.00  0.00     0.158 C 
HETATM   11  N3  UNL     1       2.582  -0.498   0.956  1.00  0.00    -0.357 N 
ATOM     12  H3  UNL     1       1.793  -1.080   1.237  1.00  0.00     0.162 HD
HETATM   13  C17 UNL     1       2.279   0.796   1.288  1.00  0.00     0.160 C 
HETATM   14  C18 UNL     1       2.090   2.085   0.617  1.00  0.00     0.066 C 
HETATM   15  N4  UNL     1       0.857   2.299  -0.088  1.00  0.00    -0.321 N 
ATOM     16  H4  UNL     1       0.791   1.752  -0.947  1.00  0.00     0.169 HD
HETATM   17  C22 UNL     1      -0.284   3.097   0.142  1.00  0.00     0.226 C 
HETATM   18  N5  UNL     1      -1.378   2.982   1.040  1.00  0.00    -0.277 N 
HETATM   19  C25 UNL     1      -2.274   1.862   1.167  1.00  0.00     0.273 C 
HETATM   20  O5  UNL     1      -2.389   1.386   2.324  1.00  0.00    -0.266 OA
HETATM   21  C26 UNL     1      -3.083   1.195   0.118  1.00  0.00     0.082 C 
HETATM   22  N7  UNL     1      -3.465  -0.134   0.456  1.00  0.00    -0.333 N 
HETATM   23  C31 UNL     1      -4.616  -0.190   1.447  1.00  0.00     0.158 C 
HETATM   24  C32 UNL     1      -3.041  -1.416   0.097  1.00  0.00     0.141 C 
ENDROOT
BRANCH  18  25
HETATM   25  C23 UNL     1      -1.632   4.157   1.917  1.00  0.00     0.163 C 
BRANCH  25  26
HETATM   26  C24 UNL     1      -2.601   5.123   1.276  1.00  0.00     0.250 C 
BRANCH  26  27
HETATM   27  N6  UNL     1      -2.821   6.255   2.182  1.00  0.00    -0.078 N 
ATOM     28  H63 UNL     1      -3.127   5.957   3.108  1.00  0.00     0.274 HD
ATOM     29  H62 UNL     1      -1.949   6.706   2.457  1.00  0.00     0.274 HD
ATOM     30  H61 UNL     1      -3.475   6.907   1.749  1.00  0.00     0.274 HD
ENDBRANCH  26  27
ENDBRANCH  25  26
ENDBRANCH  18  25
BRANCH  17  31
HETATM   31  O4  UNL     1      -0.418   4.186  -0.605  1.00  0.00    -0.332 OA
ATOM     32  H4  UNL     1      -1.186   4.723  -0.450  1.00  0.00     0.221 HD
ENDBRANCH  17  31
BRANCH  21  33
HETATM   33  C27 UNL     1      -2.687   1.522  -1.275  1.00  0.00     0.067 C 
BRANCH  33  34
HETATM   34  C28 UNL     1      -3.560   0.834  -2.300  1.00  0.00    -0.017 C 
HETATM   35  C29 UNL     1      -3.037   1.276  -3.666  1.00  0.00     0.010 C 
HETATM   36  C30 UNL     1      -4.980   1.379  -2.194  1.00  0.00     0.010 C 
ENDBRANCH  33  34
ENDBRANCH  21  33
BRANCH  14  37
HETATM   37  C19 UNL     1       2.622   3.251   1.411  1.00  0.00     0.032 C 
HETATM   38  C20 UNL     1       2.082   3.501   2.752  1.00  0.00     0.016 C 
HETATM   39  C21 UNL     1       4.142   3.212   1.528  1.00  0.00     0.016 C 
ENDBRANCH  14  37
BRANCH  13  40
HETATM   40  O3  UNL     1       2.092   0.974   2.589  1.00  0.00    -0.345 OA
ATOM     41  H3  UNL     1       1.882   1.871   2.819  1.00  0.00     0.219 HD
ENDBRANCH  13  40
BRANCH  24  42
HETATM   42  O6  UNL     1      -4.017  -2.219  -0.266  1.00  0.00    -0.348 OA
ATOM     43  H6  UNL     1      -4.863  -1.789  -0.226  1.00  0.00     0.219 HD
ENDBRANCH  24  42
BRANCH   1  44
HETATM   44  C4  UNL     1      -1.361  -2.777   1.335  1.00  0.00     0.033 C 
BRANCH  44  45
HETATM   45  C3  UNL     1      -2.530  -3.611   1.798  1.00  0.00     0.002 C 
BRANCH  45  46
HETATM   46  C2  UNL     1      -2.185  -4.332   3.103  1.00  0.00    -0.004 C 
HETATM   47  C1  UNL     1      -3.343  -5.156   3.554  1.00  0.00     0.005 C 
ENDBRANCH  45  46
ENDBRANCH  44  45
ENDBRANCH   1  44
BRANCH  10  48
HETATM   48  C13 UNL     1       4.443  -1.038  -0.716  1.00  0.00     0.037 C 
BRANCH  48  49
HETATM   49  C14 UNL     1       5.287   0.189  -0.718  1.00  0.00    -0.020 C 
HETATM   50  C15 UNL     1       6.097   0.122  -2.043  1.00  0.00     0.009 C 
HETATM   51  C16 UNL     1       6.341   0.120   0.361  1.00  0.00     0.009 C 
ENDBRANCH  48  49
ENDBRANCH  10  48
BRANCH   9  52
HETATM   52  O2  UNL     1       3.126  -3.514   1.093  1.00  0.00    -0.348 OA
ATOM     53  H2  UNL     1       3.616  -3.168   1.830  1.00  0.00     0.219 HD
ENDBRANCH   9  52
BRANCH   6  54
HETATM   54  C8  UNL     1       0.907  -3.420  -2.996  1.00  0.00     0.009 C 
HETATM   55  C9  UNL     1       1.683  -2.484  -3.860  1.00  0.00     0.012 C 
HETATM   56  C10 UNL     1      -0.496  -3.608  -3.528  1.00  0.00     0.012 C 
ENDBRANCH   6  54
TORSDOF 16
