REMARK  10 active torsions:
REMARK  status: ('A' for Active; 'I' for Inactive)
REMARK    1  A    between atoms: C2_2  and  C3_3 
REMARK    2  A    between atoms: C5_8  and  C6_9 
REMARK    3  A    between atoms: C6_9  and  C7_10 
REMARK    4  A    between atoms: C14_23  and  C15_24 
REMARK    5  A    between atoms: C15_24  and  C16_25 
REMARK    6  A    between atoms: C20_32  and  C21_33 
REMARK    7  A    between atoms: C21_33  and  C22_34 
REMARK    8  A    between atoms: C22_34  and  C23_35 
REMARK    9  A    between atoms: C23_35  and  N5_36 
REMARK       I    between atoms: C24_38  and  N7_40 
REMARK   10  A    between atoms: C28_46  and  C29_47 
ROOT
HETATM    1  C3  UNL     1      -1.657  -2.743  -0.365  1.00  0.00     0.102 C 
HETATM    2  C4  UNL     1      -2.681  -2.456  -1.378  1.00  0.00     0.224 C 
HETATM    3  O1  UNL     1      -2.818  -3.305  -2.321  1.00  0.00    -0.273 OA
HETATM    4  N1  UNL     1      -3.529  -1.328  -1.409  1.00  0.00    -0.347 N 
ATOM      5  H1  UNL     1      -3.728  -0.886  -2.306  1.00  0.00     0.163 HD
HETATM    6  C5  UNL     1      -4.138  -0.767  -0.187  1.00  0.00     0.177 C 
HETATM    7  C10 UNL     1      -4.167   0.700  -0.451  1.00  0.00     0.241 C 
HETATM    8  O2  UNL     1      -4.791   1.044  -1.505  1.00  0.00    -0.271 OA
HETATM    9  N2  UNL     1      -3.578   1.682   0.349  1.00  0.00    -0.346 N 
ATOM     10  H2  UNL     1      -4.110   2.540   0.495  1.00  0.00     0.163 HD
HETATM   11  C11 UNL     1      -2.282   1.597   0.991  1.00  0.00     0.172 C 
HETATM   12  C12 UNL     1      -2.400   0.979   2.394  1.00  0.00     0.042 C 
HETATM   13  C13 UNL     1      -1.783   2.974   1.221  1.00  0.00     0.240 C 
HETATM   14  O3  UNL     1      -2.653   3.854   1.458  1.00  0.00    -0.271 OA
HETATM   15  N3  UNL     1      -0.428   3.379   1.198  1.00  0.00    -0.346 N 
ATOM     16  H3  UNL     1      -0.130   4.046   1.910  1.00  0.00     0.163 HD
HETATM   17  C14 UNL     1       0.574   2.930   0.253  1.00  0.00     0.177 C 
HETATM   18  C19 UNL     1       1.467   1.991   0.995  1.00  0.00     0.241 C 
HETATM   19  O4  UNL     1       2.044   2.543   2.006  1.00  0.00    -0.271 OA
HETATM   20  N4  UNL     1       1.716   0.655   0.711  1.00  0.00    -0.346 N 
ATOM     21  H4  UNL     1       2.147   0.103   1.452  1.00  0.00     0.163 HD
HETATM   22  C20 UNL     1       1.434  -0.019  -0.498  1.00  0.00     0.176 C 
HETATM   23  C27 UNL     1       1.475  -1.538  -0.329  1.00  0.00     0.243 C 
HETATM   24  O5  UNL     1       2.312  -1.819   0.567  1.00  0.00    -0.271 OA
HETATM   25  N8  UNL     1       0.680  -2.389  -1.090  1.00  0.00    -0.336 N 
HETATM   26  C28 UNL     1       0.144  -3.074  -2.247  1.00  0.00     0.111 A 
HETATM   27  C31 UNL     1      -0.376  -3.295  -0.871  1.00  0.00     0.123 A 
ENDROOT
BRANCH  22  28
HETATM   28  C21 UNL     1       2.208   0.402  -1.680  1.00  0.00     0.036 C 
BRANCH  28  29
HETATM   29  C22 UNL     1       3.670   0.286  -1.689  1.00  0.00     0.022 C 
BRANCH  29  30
HETATM   30  C23 UNL     1       4.437   1.048  -0.650  1.00  0.00     0.122 C 
BRANCH  30  31
HETATM   31  N5  UNL     1       5.874   0.860  -0.797  1.00  0.00    -0.365 N 
HETATM   32  C24 UNL     1       6.608   0.231   0.050  1.00  0.00     0.185 C 
HETATM   33  N6  UNL     1       8.008   0.167  -0.301  1.00  0.00    -0.064 NA
HETATM   34  N7  UNL     1       6.169  -0.373   1.243  1.00  0.00    -0.364 N 
HETATM   35  C25 UNL     1       5.886  -1.793   1.247  1.00  0.00     0.151 C 
HETATM   36  C26 UNL     1       5.993   0.372   2.472  1.00  0.00     0.151 C 
ATOM     37  H5  UNL     1       6.326   1.252  -1.623  1.00  0.00     0.162 HD
ENDBRANCH  30  31
ENDBRANCH  29  30
ENDBRANCH  28  29
ENDBRANCH  22  28
BRANCH  17  38
HETATM   38  C15 UNL     1       1.473   4.051  -0.217  1.00  0.00     0.038 C 
BRANCH  38  39
HETATM   39  C16 UNL     1       0.818   5.173  -0.924  1.00  0.00    -0.020 C 
HETATM   40  C17 UNL     1       1.952   6.154  -1.298  1.00  0.00     0.009 C 
HETATM   41  C18 UNL     1      -0.170   5.981  -0.156  1.00  0.00     0.009 C 
ENDBRANCH  38  39
ENDBRANCH  17  38
BRANCH  26  42
HETATM   42  C29 UNL     1       1.019  -4.067  -2.931  1.00  0.00     0.023 C 
HETATM   43  C30 UNL     1       1.442  -5.203  -2.033  1.00  0.00     0.007 C 
ENDBRANCH  26  42
BRANCH   1  44
HETATM   44  C2  UNL     1      -2.308  -3.739   0.609  1.00  0.00     0.012 C 
HETATM   45  C1  UNL     1      -2.710  -5.005  -0.158  1.00  0.00     0.006 C 
ENDBRANCH   1  44
BRANCH   6  46
HETATM   46  C6  UNL     1      -5.496  -1.318  -0.070  1.00  0.00     0.038 C 
BRANCH  46  47
HETATM   47  C7  UNL     1      -6.352  -0.956   1.062  1.00  0.00    -0.020 C 
HETATM   48  C8  UNL     1      -6.719   0.449   1.299  1.00  0.00     0.009 C 
HETATM   49  C9  UNL     1      -5.832  -1.517   2.397  1.00  0.00     0.009 C 
ENDBRANCH  46  47
ENDBRANCH   6  46
TORSDOF 10
