REMARK  10 active torsions:
REMARK  status: ('A' for Active; 'I' for Inactive)
REMARK    1  A    between atoms: C2_2  and  C3_3 
REMARK    2  A    between atoms: C3_3  and  C4_4 
REMARK    3  A    between atoms: C4_4  and  C5_5 
REMARK    4  A    between atoms: C5_5  and  C6_6 
REMARK       I    between atoms: C6_6  and  N1_8 
REMARK    5  A    between atoms: N1_8  and  C7_9 
REMARK    6  A    between atoms: C7_9  and  C8_10 
REMARK    7  A    between atoms: C18_20  and  O2_21 
REMARK    8  A    between atoms: N2_24  and  C20_25 
REMARK    9  A    between atoms: C20_25  and  O3_26 
REMARK   10  A    between atoms: C20_25  and  N3_28 
ROOT
HETATM    1  C8  UNL     1       0.450  -0.719  -0.384  1.00  0.00     0.078 C 
HETATM    2  C9  UNL     1       1.068  -2.141  -0.505  1.00  0.00     0.046 C 
HETATM    3  C10 UNL     1       0.693  -0.260   1.014  1.00  0.00     0.044 C 
HETATM    4  C11 UNL     1      -0.615   0.244   1.531  1.00  0.00     0.013 C 
HETATM    5  C12 UNL     1      -0.542   1.745   1.746  1.00  0.00     0.012 C 
HETATM    6  C13 UNL     1      -1.659  -0.269   0.636  1.00  0.00     0.043 C 
HETATM    7  C14 UNL     1      -2.646   0.801   0.227  1.00  0.00     0.032 C 
HETATM    8  C15 UNL     1      -3.415   1.371   1.370  1.00  0.00     0.009 C 
HETATM    9  C16 UNL     1      -3.671   0.417   2.521  1.00  0.00     0.010 C 
HETATM   10  C17 UNL     1      -5.046   0.699   3.138  1.00  0.00     0.012 C 
HETATM   11  C18 UNL     1      -3.736  -0.957   1.940  1.00  0.00     0.124 C 
HETATM   12  C19 UNL     1      -2.424  -1.355   1.373  1.00  0.00     0.063 C 
HETATM   13  N2  UNL     1      -0.987  -0.860  -0.515  1.00  0.00    -0.323 N 
ENDROOT
BRANCH   1  14
HETATM   14  C7  UNL     1       1.136   0.117  -1.378  1.00  0.00     0.190 C 
BRANCH  14  15
HETATM   15  N1  UNL     1       2.502   0.412  -1.192  1.00  0.00    -0.385 NA
HETATM   16  C6  UNL     1       3.796   0.686  -1.015  1.00  0.00     0.290 C 
HETATM   17  O1  UNL     1       4.705  -0.088  -0.707  1.00  0.00    -0.257 OA
BRANCH  16  18
HETATM   18  C5  UNL     1       4.327   2.134  -1.220  1.00  0.00     0.119 C 
BRANCH  18  19
HETATM   19  C4  UNL     1       5.806   2.173  -1.187  1.00  0.00     0.014 C 
BRANCH  19  20
HETATM   20  C3  UNL     1       6.527   1.912   0.073  1.00  0.00     0.027 C 
BRANCH  20  21
HETATM   21  C2  UNL     1       8.036   1.880  -0.082  1.00  0.00    -0.037 C 
HETATM   22  C1  UNL     1       8.562   1.918  -1.264  1.00  0.00     0.007 C 
ENDBRANCH  20  21
ENDBRANCH  19  20
ENDBRANCH  18  19
ENDBRANCH  16  18
ENDBRANCH  14  15
ENDBRANCH   1  14
BRANCH  13  23
HETATM   23  C20 UNL     1      -1.605  -1.489  -1.616  1.00  0.00     0.218 C 
BRANCH  23  24
HETATM   24  O3  UNL     1      -0.667  -1.831  -2.519  1.00  0.00    -0.332 OA
ATOM     25  H3  UNL     1      -1.083  -2.255  -3.260  1.00  0.00     0.220 HD
ENDBRANCH  23  24
BRANCH  23  26
HETATM   26  N3  UNL     1      -2.898  -1.827  -1.982  1.00  0.00    -0.347 N 
HETATM   27  C21 UNL     1      -4.313  -1.937  -1.762  1.00  0.00     0.128 C 
HETATM   28  C22 UNL     1      -4.434  -3.028  -2.816  1.00  0.00     0.040 C 
HETATM   29  C23 UNL     1      -3.246  -2.343  -3.383  1.00  0.00     0.128 C 
ENDBRANCH  23  26
ENDBRANCH  13  23
BRANCH  11  30
HETATM   30  O2  UNL     1      -4.025  -1.879   2.984  1.00  0.00    -0.395 OA
ATOM     31  H2  UNL     1      -4.066  -2.753   2.614  1.00  0.00     0.210 HD
ENDBRANCH  11  30
TORSDOF 10
