REMARK  14 active torsions:
REMARK  status: ('A' for Active; 'I' for Inactive)
REMARK    1  A    between atoms: C2_2  and  C3_3 
REMARK    2  A    between atoms: C3_3  and  C4_4 
REMARK    3  A    between atoms: C4_4  and  C5_5 
REMARK    4  A    between atoms: C5_5  and  C6_6 
REMARK    5  A    between atoms: C6_6  and  C7_7 
REMARK    6  A    between atoms: C8_8  and  C9_9 
REMARK    7  A    between atoms: C17_23  and  C18_24 
REMARK    8  A    between atoms: C18_24  and  C19_25 
REMARK    9  A    between atoms: C19_25  and  C20_26 
REMARK   10  A    between atoms: C20_26  and  C21_27 
REMARK   11  A    between atoms: C21_27  and  N3_28 
REMARK   12  A    between atoms: C22_34  and  O3_35 
REMARK   13  A    between atoms: C23_37  and  C24_38 
REMARK   14  A    between atoms: C24_38  and  C25_39 
ROOT
HETATM    1  C9  UNL     1       3.198  -1.591   0.159  1.00  0.00     0.107 C 
HETATM    2  C10 UNL     1       1.953  -0.888   0.564  1.00  0.00     0.029 C 
HETATM    3  C11 UNL     1       2.142   0.461   1.199  1.00  0.00     0.004 C 
HETATM    4  C12 UNL     1       1.254   1.514   0.577  1.00  0.00     0.020 C 
HETATM    5  C13 UNL     1       0.230   1.992   1.576  1.00  0.00     0.122 C 
HETATM    6  N1  UNL     1      -0.699   0.917   1.891  1.00  0.00    -0.360 N 
ATOM      7  H1  UNL     1      -0.431  -0.034   1.639  1.00  0.00     0.162 HD
HETATM    8  C14 UNL     1      -1.944   1.104   2.521  1.00  0.00     0.235 C 
HETATM    9  O1  UNL     1      -2.223   0.352   3.504  1.00  0.00    -0.272 OA
HETATM   10  C15 UNL     1      -2.874   2.137   2.045  1.00  0.00     0.225 C 
HETATM   11  N2  UNL     1      -4.272   1.838   2.227  1.00  0.00    -0.347 N 
ATOM     12  H2  UNL     1      -4.801   2.535   2.752  1.00  0.00     0.163 HD
HETATM   13  C16 UNL     1      -5.008   0.739   1.792  1.00  0.00     0.264 C 
HETATM   14  O2  UNL     1      -5.610   0.056   2.703  1.00  0.00    -0.266 OA
HETATM   15  C17 UNL     1      -5.226   0.206   0.433  1.00  0.00     0.079 C 
HETATM   16  N4  UNL     1      -5.137  -1.221   0.301  1.00  0.00    -0.338 N 
ATOM     17  H4  UNL     1      -5.824  -1.713   0.873  1.00  0.00     0.167 HD
HETATM   18  C22 UNL     1      -4.335  -2.078  -0.422  1.00  0.00     0.139 C 
HETATM   19  C23 UNL     1      -2.898  -2.423  -0.342  1.00  0.00     0.161 C 
HETATM   20  N5  UNL     1      -2.023  -1.467  -0.975  1.00  0.00    -0.331 N 
ATOM     21  H5  UNL     1      -1.923  -0.560  -0.520  1.00  0.00     0.165 HD
HETATM   22  C27 UNL     1      -1.287  -1.671  -2.175  1.00  0.00     0.319 C 
HETATM   23  O4  UNL     1      -1.428  -0.841  -3.157  1.00  0.00    -0.247 OA
HETATM   24  N6  UNL     1      -0.377  -2.741  -2.407  1.00  0.00    -0.330 N 
HETATM   25  C28 UNL     1      -0.469  -3.513  -3.620  1.00  0.00     0.155 C 
HETATM   26  C29 UNL     1       0.695  -3.104  -1.451  1.00  0.00     0.229 C 
HETATM   27  C30 UNL     1       1.972  -2.495  -1.894  1.00  0.00     0.236 C 
HETATM   28  O5  UNL     1       2.025  -2.150  -3.128  1.00  0.00    -0.272 OA
HETATM   29  N7  UNL     1       3.113  -2.258  -1.123  1.00  0.00    -0.352 N 
ATOM     30  H7  UNL     1       3.994  -2.596  -1.511  1.00  0.00     0.163 HD
ENDROOT
BRANCH   1  31
HETATM   31  C8  UNL     1       4.318  -0.590   0.049  1.00  0.00    -0.006 C 
HETATM   32  C7  UNL     1       4.558  -0.062  -1.122  1.00  0.00    -0.029 C 
BRANCH  32  33
HETATM   33  C6  UNL     1       5.633   0.922  -1.315  1.00  0.00     0.027 C 
BRANCH  33  34
HETATM   34  C5  UNL     1       6.355   1.184  -0.012  1.00  0.00     0.004 C 
BRANCH  34  35
HETATM   35  C4  UNL     1       7.435   2.209  -0.299  1.00  0.00     0.000 C 
BRANCH  35  36
HETATM   36  C3  UNL     1       8.213   2.542   0.953  1.00  0.00    -0.000 C 
BRANCH  36  37
HETATM   37  C2  UNL     1       8.878   1.298   1.500  1.00  0.00    -0.005 C 
HETATM   38  C1  UNL     1       9.826   0.711   0.496  1.00  0.00     0.005 C 
ENDBRANCH  36  37
ENDBRANCH  35  36
ENDBRANCH  34  35
ENDBRANCH  33  34
ENDBRANCH  32  33
ENDBRANCH   1  31
BRANCH  19  39
HETATM   39  C24 UNL     1      -2.453  -2.758   1.093  1.00  0.00     0.033 C 
BRANCH  39  40
HETATM   40  C25 UNL     1      -3.266  -3.943   1.578  1.00  0.00    -0.002 C 
HETATM   41  C26 UNL     1      -2.868  -4.315   2.989  1.00  0.00     0.005 C 
ENDBRANCH  39  40
ENDBRANCH  19  39
BRANCH  18  42
HETATM   42  O3  UNL     1      -4.936  -2.736  -1.380  1.00  0.00    -0.348 OA
ATOM     43  H3  UNL     1      -4.383  -3.327  -1.878  1.00  0.00     0.219 HD
ENDBRANCH  18  42
BRANCH  15  44
HETATM   44  C18 UNL     1      -4.703   1.022  -0.694  1.00  0.00     0.063 C 
BRANCH  44  45
HETATM   45  C19 UNL     1      -5.276   2.401  -0.821  1.00  0.00     0.008 C 
BRANCH  45  46
HETATM   46  C20 UNL     1      -6.748   2.478  -1.029  1.00  0.00     0.027 C 
BRANCH  46  47
HETATM   47  C21 UNL     1      -7.112   3.966  -1.151  1.00  0.00     0.229 C 
BRANCH  47  48
HETATM   48  N3  UNL     1      -8.548   4.108  -1.356  1.00  0.00    -0.079 N 
ATOM     49  H33 UNL     1      -8.877   3.566  -2.155  1.00  0.00     0.274 HD
ATOM     50  H32 UNL     1      -9.087   3.640  -0.628  1.00  0.00     0.274 HD
ATOM     51  H31 UNL     1      -8.790   5.096  -1.437  1.00  0.00     0.274 HD
ENDBRANCH  47  48
ENDBRANCH  46  47
ENDBRANCH  45  46
ENDBRANCH  44  45
ENDBRANCH  15  44
TORSDOF 14
