REMARK  12 active torsions:
REMARK  status: ('A' for Active; 'I' for Inactive)
REMARK       I    between atoms: C2_2  and  N1_4 
REMARK    1  A    between atoms: N1_4  and  C3_6 
REMARK    2  A    between atoms: C3_6  and  C4_7 
REMARK       I    between atoms: C4_7  and  N2_9 
REMARK    3  A    between atoms: N2_9  and  C5_11 
REMARK    4  A    between atoms: C5_11  and  C6_12 
REMARK    5  A    between atoms: C5_11  and  C12_18 
REMARK    6  A    between atoms: C6_12  and  C7_13 
REMARK       I    between atoms: C12_18  and  N3_20 
REMARK    7  A    between atoms: C20_28  and  C21_29 
REMARK       I    between atoms: C21_29  and  N4_31 
REMARK    8  A    between atoms: N4_31  and  C22_33 
REMARK    9  A    between atoms: C27_38  and  O5_39 
REMARK   10  A    between atoms: O5_39  and  C28_40 
REMARK   11  A    between atoms: C28_40  and  C29_41 
REMARK   12  A    between atoms: C29_41  and  N5_42 
REMARK       I    between atoms: N5_42  and  C30_44 
ROOT
HETATM    1  C12 UNL     1      -2.017  -1.077   0.398  1.00  0.00     0.243 C 
HETATM    2  O3  UNL     1      -1.443  -2.200   0.631  1.00  0.00    -0.271 OA
HETATM    3  N3  UNL     1      -1.382   0.167   0.609  1.00  0.00    -0.336 N 
HETATM    4  C13 UNL     1      -2.101   1.412   0.534  1.00  0.00     0.132 C 
HETATM    5  C14 UNL     1      -1.131   2.470   1.035  1.00  0.00     0.010 C 
HETATM    6  C15 UNL     1      -1.328   3.796   0.411  1.00  0.00     0.007 C 
HETATM    7  C16 UNL     1      -0.149   4.674   0.728  1.00  0.00     0.000 C 
HETATM    8  C17 UNL     1       1.169   4.039   0.415  1.00  0.00     0.000 C 
HETATM    9  C18 UNL     1       1.266   2.625   1.022  1.00  0.00     0.007 C 
HETATM   10  C19 UNL     1       0.136   1.875   0.455  1.00  0.00     0.023 C 
HETATM   11  C20 UNL     1      -0.019   0.435   0.902  1.00  0.00     0.183 C 
ENDROOT
BRANCH  11  12
HETATM   12  C21 UNL     1       0.969  -0.420   0.213  1.00  0.00     0.241 C 
HETATM   13  O4  UNL     1       0.595  -1.113  -0.763  1.00  0.00    -0.271 OA
HETATM   14  N4  UNL     1       2.308  -0.442   0.654  1.00  0.00    -0.348 N 
ATOM     15  H4  UNL     1       2.592   0.123   1.455  1.00  0.00     0.163 HD
BRANCH  14  16
HETATM   16  C22 UNL     1       3.268  -1.258  -0.024  1.00  0.00     0.055 C 
HETATM   17  C23 UNL     1       3.361  -0.893  -1.512  1.00  0.00     0.041 C 
HETATM   18  C24 UNL     1       3.068  -2.724   0.122  1.00  0.00     0.033 C 
HETATM   19  C25 UNL     1       3.507  -2.928   1.580  1.00  0.00     0.005 C 
HETATM   20  C26 UNL     1       4.712  -2.011   1.703  1.00  0.00     0.034 C 
HETATM   21  C27 UNL     1       4.672  -1.072   0.510  1.00  0.00     0.149 C 
BRANCH  21  22
HETATM   22  O5  UNL     1       4.963   0.226   0.819  1.00  0.00    -0.382 OA
BRANCH  22  23
HETATM   23  C28 UNL     1       6.038   0.652   0.045  1.00  0.00     0.188 C 
BRANCH  23  24
HETATM   24  C29 UNL     1       6.396   2.093   0.337  1.00  0.00     0.148 C 
BRANCH  24  25
HETATM   25  N5  UNL     1       7.508   2.520  -0.475  1.00  0.00    -0.363 N 
HETATM   26  C30 UNL     1       8.817   2.040  -0.337  1.00  0.00     0.181 C 
HETATM   27  N6  UNL     1       9.592   2.283   0.671  1.00  0.00    -0.374 N 
HETATM   28  N7  UNL     1       9.388   1.221  -1.360  1.00  0.00    -0.064 NA
ATOM     29  H62 UNL     1       9.185   2.867   1.401  1.00  0.00     0.158 HD
ATOM     30  H61 UNL     1      10.545   1.934   0.771  1.00  0.00     0.158 HD
ATOM     31  H5  UNL     1       7.330   3.218  -1.198  1.00  0.00     0.162 HD
ENDBRANCH  24  25
ENDBRANCH  23  24
ENDBRANCH  22  23
ENDBRANCH  21  22
ENDBRANCH  14  16
ENDBRANCH  11  12
BRANCH   1  32
HETATM   32  C5  UNL     1      -3.403  -1.234  -0.112  1.00  0.00     0.177 C 
BRANCH  32  33
HETATM   33  N2  UNL     1      -4.014  -2.262   0.766  1.00  0.00    -0.346 N 
HETATM   34  C4  UNL     1      -5.372  -2.067   1.216  1.00  0.00     0.236 C 
HETATM   35  O2  UNL     1      -5.995  -1.030   0.849  1.00  0.00    -0.272 OA
ATOM     36  H2  UNL     1      -3.486  -3.089   1.046  1.00  0.00     0.163 HD
BRANCH  34  37
HETATM   37  C3  UNL     1      -6.022  -3.052   2.077  1.00  0.00     0.225 C 
BRANCH  37  38
HETATM   38  N1  UNL     1      -7.363  -2.642   2.376  1.00  0.00    -0.353 N 
HETATM   39  C2  UNL     1      -7.619  -1.453   3.107  1.00  0.00     0.213 C 
HETATM   40  C1  UNL     1      -9.025  -1.042   3.392  1.00  0.00     0.117 C 
HETATM   41  O1  UNL     1      -6.675  -0.718   3.530  1.00  0.00    -0.274 OA
ATOM     42  H1  UNL     1      -8.145  -3.214   2.058  1.00  0.00     0.162 HD
ENDBRANCH  37  38
ENDBRANCH  34  37
ENDBRANCH  32  33
BRANCH  32  43
HETATM   43  C6  UNL     1      -3.392  -1.923  -1.481  1.00  0.00     0.039 C 
BRANCH  43  44
HETATM   44  C7  UNL     1      -2.844  -1.092  -2.561  1.00  0.00    -0.012 C 
HETATM   45  C8  UNL     1      -3.596   0.191  -2.823  1.00  0.00     0.005 C 
HETATM   46  C9  UNL     1      -4.482  -0.164  -3.993  1.00  0.00     0.000 C 
HETATM   47  C10 UNL     1      -3.653  -1.144  -4.824  1.00  0.00     0.000 C 
HETATM   48  C11 UNL     1      -2.698  -1.784  -3.870  1.00  0.00     0.005 C 
ENDBRANCH  43  44
ENDBRANCH  32  43
ENDBRANCH   1  32
TORSDOF 12
