REMARK  15 active torsions:
REMARK  status: ('A' for Active; 'I' for Inactive)
REMARK    1  A    between atoms: C6_6  and  N1_7 
REMARK       I    between atoms: N1_7  and  C7_9 
REMARK    2  A    between atoms: C7_9  and  C8_11 
REMARK    3  A    between atoms: C10_17  and  C11_18 
REMARK    4  A    between atoms: C11_18  and  C12_19 
REMARK    5  A    between atoms: C12_19  and  C13_20 
REMARK    6  A    between atoms: C13_20  and  C14_21 
REMARK    7  A    between atoms: C14_21  and  C15_22 
REMARK    8  A    between atoms: C17_24  and  N4_25 
REMARK    9  A    between atoms: N4_25  and  C18_27 
REMARK   10  A    between atoms: C18_27  and  C19_28 
REMARK   11  A    between atoms: C19_28  and  C20_29 
REMARK   12  A    between atoms: C20_29  and  N5_30 
REMARK   13  A    between atoms: C23_35  and  N7_36 
REMARK   14  A    between atoms: N7_36  and  C24_38 
REMARK   15  A    between atoms: C24_38  and  C25_39 
REMARK       I    between atoms: N8_43  and  C29_44 
ROOT
HETATM    1  C15 UNL     1      -1.049  -0.105   0.832  1.00  0.00     0.030 A 
HETATM    2  C16 UNL     1      -1.397   1.201   0.583  1.00  0.00     0.074 A 
HETATM    3  C17 UNL     1      -2.683   1.486   0.174  1.00  0.00     0.118 A 
HETATM    4  N6  UNL     1      -3.547   0.470   0.035  1.00  0.00    -0.177 N 
ATOM      5  H6  UNL     1      -4.497   0.685  -0.268  1.00  0.00     0.185 HD
HETATM    6  C23 UNL     1      -3.236  -0.811   0.271  1.00  0.00     0.679 A 
HETATM    7  N11 UNL     1      -1.966  -1.061   0.671  1.00  0.00    -0.196 N 
ATOM      8  H11 UNL     1      -1.698  -2.027   0.858  1.00  0.00     0.184 HD
ENDROOT
BRANCH   1   9
HETATM    9  C14 UNL     1       0.332  -0.417   1.268  1.00  0.00     0.058 C 
BRANCH   9  10
HETATM   10  C13 UNL     1       1.131   0.852   1.328  1.00  0.00     0.006 C 
BRANCH  10  11
HETATM   11  C12 UNL     1       2.556   0.596   1.771  1.00  0.00     0.006 C 
BRANCH  11  12
HETATM   12  C11 UNL     1       3.236  -0.293   0.786  1.00  0.00     0.059 C 
BRANCH  12  13
HETATM   13  C10 UNL     1       3.300   0.326  -0.557  1.00  0.00     0.043 A 
HETATM   14  C8  UNL     1       4.164   1.268  -1.028  1.00  0.00     0.073 A 
HETATM   15  C9  UNL     1       3.776   1.548  -2.359  1.00  0.00     0.126 A 
HETATM   16  N2  UNL     1       2.732   0.790  -2.633  1.00  0.00    -0.311 N 
HETATM   17  N3  UNL     1       2.439   0.069  -1.595  1.00  0.00    -0.304 N 
ATOM     18  H2  UNL     1       2.233   0.773  -3.522  1.00  0.00     0.186 HD
ATOM     19  H3  UNL     1       1.670  -0.600  -1.555  1.00  0.00     0.186 HD
BRANCH  14  20
HETATM   20  C7  UNL     1       5.297   1.867  -0.359  1.00  0.00     0.260 C 
HETATM   21  N1  UNL     1       5.832   1.456   0.869  1.00  0.00    -0.309 N 
ATOM     22  H1  UNL     1       5.299   1.592   1.728  1.00  0.00     0.170 HD
HETATM   23  O1  UNL     1       5.897   2.865  -0.907  1.00  0.00    -0.267 OA
BRANCH  21  24
HETATM   24  C6  UNL     1       7.007   0.901   0.914  1.00  0.00     0.108 A 
HETATM   25  C5  UNL     1       7.492   0.513   2.159  1.00  0.00     0.049 A 
HETATM   26  C4  UNL     1       8.727  -0.079   2.242  1.00  0.00     0.006 A 
HETATM   27  C3  UNL     1       9.447  -0.269   1.084  1.00  0.00     0.025 A 
HETATM   28  C2  UNL     1       8.969   0.114  -0.147  1.00  0.00     0.007 A 
HETATM   29  C1  UNL     1       9.762  -0.100  -1.383  1.00  0.00     0.068 C 
HETATM   30  N12 UNL     1       7.739   0.699  -0.195  1.00  0.00    -0.346 N 
ATOM     31  H12 UNL     1       7.364   0.992  -1.097  1.00  0.00     0.167 HD
ENDBRANCH  21  24
ENDBRANCH  14  20
ENDBRANCH  12  13
ENDBRANCH  11  12
ENDBRANCH  10  11
ENDBRANCH   9  10
ENDBRANCH   1   9
BRANCH   3  32
HETATM   32  N4  UNL     1      -3.051   2.686  -0.066  1.00  0.00    -0.376 N 
ATOM     33  H4  UNL     1      -4.009   2.864  -0.368  1.00  0.00     0.161 HD
BRANCH  32  34
HETATM   34  C18 UNL     1      -2.137   3.796   0.082  1.00  0.00     0.123 C 
BRANCH  34  35
HETATM   35  C19 UNL     1      -2.980   5.060   0.125  1.00  0.00     0.050 C 
BRANCH  35  36
HETATM   36  C20 UNL     1      -2.059   6.246   0.272  1.00  0.00     0.273 C 
BRANCH  36  37
HETATM   37  N5  UNL     1      -2.787   7.489   0.327  1.00  0.00     0.080 N 
HETATM   38  C21 UNL     1      -1.871   8.598   0.468  1.00  0.00     0.309 C 
HETATM   39  C22 UNL     1      -3.635   7.678  -0.823  1.00  0.00     0.309 C 
ENDBRANCH  36  37
ENDBRANCH  35  36
ENDBRANCH  34  35
ENDBRANCH  32  34
ENDBRANCH   3  32
BRANCH   6  40
HETATM   40  N7  UNL     1      -4.095  -1.775   0.127  1.00  0.00    -0.226 N 
ATOM     41  H7  UNL     1      -5.050  -1.584  -0.175  1.00  0.00     0.177 HD
BRANCH  40  42
HETATM   42  C24 UNL     1      -3.659  -3.129   0.407  1.00  0.00     0.144 C 
BRANCH  42  43
HETATM   43  C25 UNL     1      -4.783  -4.126   0.137  1.00  0.00     0.022 C 
HETATM   44  C26 UNL     1      -5.238  -4.079  -1.287  1.00  0.00     0.009 C 
HETATM   45  C27 UNL     1      -4.498  -5.044  -2.187  1.00  0.00     0.020 C 
HETATM   46  C28 UNL     1      -4.830  -6.435  -1.767  1.00  0.00     0.125 C 
HETATM   47  N8  UNL     1      -4.658  -6.545  -0.335  1.00  0.00    -0.355 N 
HETATM   48  C29 UNL     1      -4.910  -7.841   0.222  1.00  0.00     0.183 C 
HETATM   49  C30 UNL     1      -4.267  -5.486   0.543  1.00  0.00     0.131 C 
HETATM   50  N9  UNL     1      -4.217  -8.258   1.233  1.00  0.00    -0.374 N 
HETATM   51  N10 UNL     1      -5.898  -8.720  -0.285  1.00  0.00    -0.064 NA
ATOM     52  H92 UNL     1      -3.505  -7.625   1.598  1.00  0.00     0.158 HD
ATOM     53  H91 UNL     1      -4.396  -9.181   1.629  1.00  0.00     0.158 HD
ENDBRANCH  42  43
ENDBRANCH  40  42
ENDBRANCH   6  40
TORSDOF 15
