REMARK  11 active torsions:
REMARK  status: ('A' for Active; 'I' for Inactive)
REMARK       I    between atoms: N1_3  and  C3_5 
REMARK       I    between atoms: C3_5  and  N3_9 
REMARK    1  A    between atoms: C7_13  and  C8_14 
REMARK    2  A    between atoms: C8_14  and  C9_15 
REMARK       I    between atoms: C9_15  and  N4_17 
REMARK    3  A    between atoms: N4_17  and  C10_19 
REMARK    4  A    between atoms: C10_19  and  C11_20 
REMARK    5  A    between atoms: C10_19  and  C25_37 
REMARK    6  A    between atoms: C11_20  and  C12_21 
REMARK    7  A    between atoms: C12_21  and  C13_22 
REMARK    8  A    between atoms: N5_25  and  C16_26 
REMARK    9  A    between atoms: C19_29  and  C20_30 
REMARK       I    between atoms: C25_37  and  N6_39 
REMARK   10  A    between atoms: N6_39  and  C26_41 
REMARK   11  A    between atoms: C26_41  and  C27_42 
ROOT
HETATM    1  C1  UNL     1      -7.439   6.971   1.325  1.00  0.00     0.037 C 
HETATM    2  C2  UNL     1      -6.617   6.134   1.534  1.00  0.00     0.015 C 
HETATM    3  N1  UNL     1      -5.646   5.164   1.793  1.00  0.00    -0.150 N 
ATOM      4  H1  UNL     1      -4.662   5.434   1.787  1.00  0.00     0.195 HD
HETATM    5  C3  UNL     1      -5.989   3.812   2.065  1.00  0.00     0.681 C 
HETATM    6  N2  UNL     1      -6.078   3.346   3.283  1.00  0.00    -0.234 N 
ATOM      7  H21 UNL     1      -6.324   2.376   3.478  1.00  0.00     0.174 HD
ATOM      8  H22 UNL     1      -5.900   3.959   4.079  1.00  0.00     0.174 HD
HETATM    9  N3  UNL     1      -6.237   2.960   0.958  1.00  0.00    -0.212 N 
HETATM   10  C4  UNL     1      -7.493   2.456   0.445  1.00  0.00     0.141 C 
HETATM   11  C5  UNL     1      -7.248   2.414  -1.047  1.00  0.00     0.022 C 
HETATM   12  C6  UNL     1      -5.836   1.875  -1.124  1.00  0.00     0.028 C 
HETATM   13  C7  UNL     1      -5.198   2.431   0.119  1.00  0.00     0.110 C 
ENDROOT
BRANCH  13  14
HETATM   14  C8  UNL     1      -4.553   1.292   0.873  1.00  0.00     0.128 C 
BRANCH  14  15
HETATM   15  C9  UNL     1      -3.478   0.722   0.044  1.00  0.00     0.220 C 
HETATM   16  O1  UNL     1      -3.258   1.211  -1.089  1.00  0.00    -0.274 OA
HETATM   17  N4  UNL     1      -2.715  -0.358   0.530  1.00  0.00    -0.348 N 
ATOM     18  H4  UNL     1      -2.913  -0.740   1.455  1.00  0.00     0.163 HD
BRANCH  17  19
HETATM   19  C10 UNL     1      -1.626  -0.946  -0.289  1.00  0.00     0.176 C 
BRANCH  19  20
HETATM   20  C11 UNL     1      -0.401  -0.726   0.578  1.00  0.00     0.035 C 
BRANCH  20  21
HETATM   21  C12 UNL     1       0.878  -1.219   0.034  1.00  0.00     0.007 C 
BRANCH  21  22
HETATM   22  C13 UNL     1       2.047  -0.966   0.967  1.00  0.00    -0.008 C 
HETATM   23  C14 UNL     1       3.336  -1.504   0.346  1.00  0.00     0.049 C 
HETATM   24  C15 UNL     1       3.881  -0.553  -0.690  1.00  0.00     0.059 C 
HETATM   25  N5  UNL     1       3.923   0.805  -0.331  1.00  0.00    -0.389 N 
HETATM   26  C23 UNL     1       2.745   1.341   0.283  1.00  0.00     0.122 C 
HETATM   27  C24 UNL     1       2.184   0.458   1.362  1.00  0.00     0.024 C 
BRANCH  25  28
HETATM   28  C16 UNL     1       5.151   1.407  -0.004  1.00  0.00     0.083 C 
HETATM   29  C17 UNL     1       6.075   1.386  -1.191  1.00  0.00     0.026 C 
HETATM   30  C18 UNL     1       7.337   2.195  -0.910  1.00  0.00     0.017 C 
HETATM   31  C19 UNL     1       8.030   1.450   0.238  1.00  0.00     0.087 C 
HETATM   32  C21 UNL     1       7.130   1.611   1.436  1.00  0.00     0.017 C 
HETATM   33  C22 UNL     1       5.807   0.891   1.250  1.00  0.00     0.026 C 
BRANCH  31  34
HETATM   34  C20 UNL     1       9.338   2.058   0.536  1.00  0.00     0.177 C 
HETATM   35  O2  UNL     1       9.721   3.039  -0.123  1.00  0.00    -0.648 OA
HETATM   36  O3  UNL     1      10.134   1.538   1.544  1.00  0.00    -0.648 OA
ENDBRANCH  31  34
ENDBRANCH  25  28
ENDBRANCH  21  22
ENDBRANCH  20  21
ENDBRANCH  19  20
BRANCH  19  37
HETATM   37  C25 UNL     1      -1.967  -2.365  -0.495  1.00  0.00     0.241 C 
HETATM   38  O4  UNL     1      -2.930  -2.858   0.128  1.00  0.00    -0.271 OA
HETATM   39  N6  UNL     1      -1.262  -3.214  -1.370  1.00  0.00    -0.342 N 
ATOM     40  H6  UNL     1      -0.479  -2.816  -1.888  1.00  0.00     0.163 HD
BRANCH  39  41
HETATM   41  C26 UNL     1      -1.568  -4.601  -1.585  1.00  0.00     0.111 C 
HETATM   42  C28 UNL     1      -0.530  -5.323  -2.408  1.00  0.00     0.041 C 
HETATM   43  C29 UNL     1      -0.545  -6.443  -1.395  1.00  0.00     0.006 C 
HETATM   44  C30 UNL     1      -1.281  -5.527  -0.446  1.00  0.00     0.041 C 
BRANCH  41  45
HETATM   45  C27 UNL     1      -2.930  -4.889  -2.137  1.00  0.00     0.259 C 
HETATM   46  N7  UNL     1      -3.369  -6.205  -2.381  1.00  0.00    -0.060 NA
HETATM   47  O5  UNL     1      -3.715  -3.948  -2.396  1.00  0.00    -0.274 OA
ENDBRANCH  41  45
ENDBRANCH  39  41
ENDBRANCH  19  37
ENDBRANCH  17  19
ENDBRANCH  14  15
ENDBRANCH  13  14
TORSDOF 11
