REMARK  6 active torsions:
REMARK  status: ('A' for Active; 'I' for Inactive)
REMARK    1  A    between atoms: C3_3  and  C5_5 
REMARK    2  A    between atoms: C5_5  and  C7_7 
REMARK    3  A    between atoms: C7_7  and  C8_8 
REMARK    4  A    between atoms: C9_9  and  C10_10 
REMARK    5  A    between atoms: N1_13  and  O1_15 
REMARK    6  A    between atoms: O1_15  and  C13_16 
ROOT
HETATM    1  C10 UNL     1       1.073  -0.806   0.789  1.00  0.00     0.044 C 
HETATM    2  C11 UNL     1       2.327  -0.067   1.042  1.00  0.00     0.070 C 
HETATM    3  C12 UNL     1       3.518  -0.555   0.338  1.00  0.00     0.034 C 
HETATM    4  N1  UNL     1       4.642   0.040   0.528  1.00  0.00    -0.262 N 
ATOM      5  H1  UNL     1       5.461  -0.310   0.031  1.00  0.00     0.194 HD
HETATM    6  C15 UNL     1       3.376  -1.698  -0.551  1.00  0.00     0.037 C 
HETATM    7  C16 UNL     1       2.326  -2.497  -0.541  1.00  0.00    -0.013 C 
HETATM    8  C17 UNL     1       1.880  -3.684  -1.265  1.00  0.00     0.112 C 
HETATM    9  N2  UNL     1       0.600  -3.798  -1.121  1.00  0.00    -0.314 N 
ATOM     10  H2  UNL     1       0.036  -4.544  -1.528  1.00  0.00     0.181 HD
HETATM   11  N3  UNL     1       0.094  -2.761  -0.333  1.00  0.00    -0.126 NA
HETATM   12  C18 UNL     1       1.216  -2.240   0.419  1.00  0.00     0.082 C 
HETATM   13  C19 UNL     1       1.355  -3.057   1.680  1.00  0.00     0.042 C 
ENDROOT
BRANCH   1  14
HETATM   14  C9  UNL     1       0.309  -0.082  -0.271  1.00  0.00    -0.023 C 
HETATM   15  C8  UNL     1      -0.857   0.541   0.002  1.00  0.00    -0.029 C 
BRANCH  15  16
HETATM   16  C7  UNL     1      -1.603   1.250  -1.039  1.00  0.00     0.035 C 
BRANCH  16  17
HETATM   17  C5  UNL     1      -2.974   0.777  -1.351  1.00  0.00     0.013 C 
HETATM   18  C6  UNL     1      -2.879  -0.627  -1.978  1.00  0.00     0.015 C 
BRANCH  17  19
HETATM   19  C3  UNL     1      -3.933   0.814  -0.261  1.00  0.00    -0.084 C 
HETATM   20  C2  UNL     1      -5.016   1.573  -0.349  1.00  0.00    -0.028 C 
HETATM   21  C1  UNL     1      -5.223   2.413  -1.553  1.00  0.00     0.036 C 
HETATM   22  C4  UNL     1      -3.770  -0.008   0.961  1.00  0.00     0.043 C 
ENDBRANCH  17  19
ENDBRANCH  16  17
ENDBRANCH  15  16
ENDBRANCH   1  14
BRANCH   4  23
HETATM   23  O1  UNL     1       4.801   1.113   1.357  1.00  0.00    -0.200 OA
BRANCH  23  24
HETATM   24  C13 UNL     1       5.080   2.380   0.858  1.00  0.00     0.277 C 
HETATM   25  C14 UNL     1       5.262   3.576   1.700  1.00  0.00     0.128 C 
HETATM   26  O2  UNL     1       5.177   2.480  -0.397  1.00  0.00    -0.264 OA
ENDBRANCH  23  24
ENDBRANCH   4  23
TORSDOF 6
