REMARK  6 active torsions:
REMARK  status: ('A' for Active; 'I' for Inactive)
REMARK    1  A    between atoms: C3_3  and  C5_5 
REMARK    2  A    between atoms: C6_6  and  N1_7 
REMARK    3  A    between atoms: N3_19  and  O1_20 
REMARK    4  A    between atoms: O1_20  and  C15_21 
REMARK    5  A    between atoms: C15_21  and  C16_22 
REMARK    6  A    between atoms: C18_25  and  O3_26 
ROOT
HETATM    1  C5  UNL     1       0.749   1.032  -0.600  1.00  0.00     0.051 A 
HETATM    2  C6  UNL     1       0.318   0.736   0.670  1.00  0.00     0.073 A 
HETATM    3  C13 UNL     1       1.276  -0.057   1.279  1.00  0.00     0.067 A 
HETATM    4  C14 UNL     1       1.254  -0.618   2.679  1.00  0.00     0.073 C 
HETATM    5  N3  UNL     1       2.288  -0.260   0.416  1.00  0.00    -0.201 N 
HETATM    6  C18 UNL     1       1.980   0.388  -0.713  1.00  0.00     0.180 A 
ENDROOT
BRANCH   2   7
HETATM    7  N1  UNL     1      -0.874   1.137   1.269  1.00  0.00    -0.344 N 
HETATM    8  C7  UNL     1      -1.905   0.422   1.559  1.00  0.00     0.077 C 
HETATM    9  C8  UNL     1      -1.825  -0.993   1.214  1.00  0.00     0.076 C 
HETATM   10  N2  UNL     1      -2.945   1.145   2.176  1.00  0.00    -0.380 N 
HETATM   11  C9  UNL     1      -3.076  -1.565   0.586  1.00  0.00     0.007 C 
HETATM   12  C10 UNL     1      -4.221  -0.585   0.520  1.00  0.00     0.002 C 
HETATM   13  C11 UNL     1      -4.772  -0.399   1.916  1.00  0.00     0.020 C 
HETATM   14  C12 UNL     1      -4.343   0.962   2.382  1.00  0.00     0.121 C 
ATOM     15  H2  UNL     1      -2.613   2.022   2.577  1.00  0.00     0.160 HD
ATOM     16  H1  UNL     1      -0.939   2.126   1.509  1.00  0.00     0.167 HD
ENDBRANCH   2   7
BRANCH   1  17
HETATM   17  C3  UNL     1       0.166   1.848  -1.668  1.00  0.00    -0.049 C 
HETATM   18  C2  UNL     1      -0.950   2.523  -1.540  1.00  0.00    -0.023 C 
HETATM   19  C1  UNL     1      -1.445   3.317  -2.724  1.00  0.00     0.036 C 
HETATM   20  C4  UNL     1       0.867   1.920  -2.992  1.00  0.00     0.049 C 
ENDBRANCH   1  17
BRANCH   6  21
HETATM   21  O3  UNL     1       2.822   0.384  -1.825  1.00  0.00    -0.344 OA
ATOM     22  H3  UNL     1       3.661  -0.055  -1.902  1.00  0.00     0.219 HD
ENDBRANCH   6  21
BRANCH   5  23
HETATM   23  O1  UNL     1       3.405  -1.008   0.704  1.00  0.00    -0.268 OA
BRANCH  23  24
HETATM   24  C15 UNL     1       3.885  -2.003  -0.152  1.00  0.00     0.236 C 
BRANCH  24  25
HETATM   25  C16 UNL     1       5.117  -2.690   0.385  1.00  0.00     0.171 A 
HETATM   26  C17 UNL     1       6.405  -2.556  -0.237  1.00  0.00     0.202 A 
HETATM   27  O2  UNL     1       5.591  -3.692  -0.501  1.00  0.00    -0.379 OA
ENDBRANCH  24  25
ENDBRANCH  23  24
ENDBRANCH   5  23
TORSDOF 6
