REMARK  7 active torsions:
REMARK  status: ('A' for Active; 'I' for Inactive)
REMARK    1  A    between atoms: C2_2  and  C4_4 
REMARK    2  A    between atoms: C2_2  and  C12_13 
REMARK    3  A    between atoms: C4_4  and  C5_5 
REMARK    4  A    between atoms: C9_9  and  C10_10 
REMARK    5  A    between atoms: N1_15  and  C14_16 
REMARK    6  A    between atoms: C14_16  and  C17_19 
REMARK    7  A    between atoms: C17_19  and  O1_20 
ROOT
HETATM    1  C12 UNL     1       1.227  -0.891   0.204  1.00  0.00     0.052 A 
HETATM    2  C13 UNL     1       2.282  -0.200  -0.402  1.00  0.00     0.140 A 
HETATM    3  N1  UNL     1       3.217   0.151   0.526  1.00  0.00    -0.276 N 
HETATM    4  N2  UNL     1       2.745  -0.312   1.644  1.00  0.00    -0.240 N 
ATOM      5  H2  UNL     1       3.221  -0.212   2.540  1.00  0.00     0.208 HD
HETATM    6  N3  UNL     1       1.576  -0.931   1.499  1.00  0.00    -0.288 N 
ATOM      7  H3  UNL     1       1.035  -1.364   2.248  1.00  0.00     0.188 HD
ENDROOT
BRANCH   1   8
HETATM    8  C2  UNL     1       0.029  -1.410  -0.503  1.00  0.00    -0.002 C 
HETATM    9  C1  UNL     1      -0.223  -2.806  -0.135  1.00  0.00     0.021 C 
HETATM   10  C3  UNL     1       0.495  -1.520  -2.008  1.00  0.00     0.021 C 
BRANCH   8  11
HETATM   11  C4  UNL     1      -1.063  -0.435  -0.578  1.00  0.00     0.019 C 
BRANCH  11  12
HETATM   12  C5  UNL     1      -1.925  -0.124   0.573  1.00  0.00    -0.013 C 
HETATM   13  C6  UNL     1      -2.772  -1.215   1.132  1.00  0.00     0.005 C 
HETATM   14  C7  UNL     1      -3.905  -1.563   0.164  1.00  0.00     0.001 C 
HETATM   15  C8  UNL     1      -4.907  -0.433   0.210  1.00  0.00     0.005 C 
HETATM   16  C9  UNL     1      -4.243   0.817   0.702  1.00  0.00    -0.004 C 
HETATM   17  C11 UNL     1      -2.859   0.994   0.114  1.00  0.00     0.010 C 
BRANCH  16  18
HETATM   18  C10 UNL     1      -5.057   1.992   0.138  1.00  0.00     0.090 C 
HETATM   19  S1  UNL     1      -4.347   3.573   0.707  1.00  0.00    -0.097 SA
ENDBRANCH  16  18
ENDBRANCH  11  12
ENDBRANCH   8  11
ENDBRANCH   1   8
BRANCH   3  20
HETATM   20  C14 UNL     1       4.412   0.874   0.200  1.00  0.00     0.068 C 
HETATM   21  C15 UNL     1       4.030   2.323  -0.120  1.00  0.00     0.042 C 
HETATM   22  C16 UNL     1       5.048   0.319  -1.084  1.00  0.00     0.042 C 
BRANCH  20  23
HETATM   23  C17 UNL     1       5.383   0.814   1.331  1.00  0.00     0.196 C 
BRANCH  23  24
HETATM   24  O1  UNL     1       5.734  -0.502   1.632  1.00  0.00    -0.398 OA
ATOM     25  H1  UNL     1       6.352  -0.540   2.352  1.00  0.00     0.209 HD
ENDBRANCH  23  24
ENDBRANCH  20  23
ENDBRANCH   3  20
TORSDOF 7
