REMARK  7 active torsions:
REMARK  status: ('A' for Active; 'I' for Inactive)
REMARK    1  A    between atoms: C3_4  and  O2_5 
REMARK    2  A    between atoms: C4_7  and  C5_8 
REMARK    3  A    between atoms: C5_8  and  C6_10 
REMARK    4  A    between atoms: C6_10  and  C8_12 
REMARK    5  A    between atoms: C9_13  and  C10_14 
REMARK    6  A    between atoms: C10_14  and  C11_16 
REMARK    7  A    between atoms: C19_24  and  O5_25 
ROOT
HETATM    1  C6  UNL     1       1.718  -1.297   1.090  1.00  0.00     0.079 C 
HETATM    2  C7  UNL     1       2.100  -2.697   0.742  1.00  0.00     0.022 C 
ENDROOT
BRANCH   1   3
HETATM    3  C5  UNL     1       2.826  -0.388   1.408  1.00  0.00     0.174 C 
HETATM    4  O3  UNL     1       2.734   0.157   2.583  1.00  0.00    -0.291 OA
BRANCH   3   5
HETATM    5  C4  UNL     1       3.963  -0.029   0.618  1.00  0.00     0.104 A 
HETATM    6  C3  UNL     1       4.291  -0.463  -0.630  1.00  0.00     0.200 A 
HETATM    7  O1  UNL     1       5.428   0.114  -1.024  1.00  0.00    -0.289 OA
HETATM    8  C2  UNL     1       5.882   0.904  -0.124  1.00  0.00     0.086 A 
HETATM    9  C1  UNL     1       7.123   1.709  -0.225  1.00  0.00     0.079 C 
HETATM   10  C19 UNL     1       4.985   0.858   0.961  1.00  0.00     0.114 A 
BRANCH   6  11
HETATM   11  O2  UNL     1       3.678  -1.352  -1.507  1.00  0.00    -0.340 OA
ATOM     12  H2  UNL     1       2.869  -1.763  -1.227  1.00  0.00     0.220 HD
ENDBRANCH   6  11
BRANCH  10  13
HETATM   13  O5  UNL     1       5.159   1.580   2.097  1.00  0.00    -0.357 OA
ATOM     14  H5  UNL     1       4.554   1.549   2.829  1.00  0.00     0.217 HD
ENDBRANCH  10  13
ENDBRANCH   3   5
ENDBRANCH   1   3
BRANCH   1  15
HETATM   15  C8  UNL     1       0.803  -0.656   0.132  1.00  0.00    -0.011 C 
HETATM   16  C9  UNL     1      -0.411  -0.211   0.510  1.00  0.00     0.047 C 
BRANCH  16  17
HETATM   17  C10 UNL     1      -1.336   0.422  -0.398  1.00  0.00     0.153 C 
HETATM   18  O4  UNL     1      -0.969   0.555  -1.593  1.00  0.00    -0.293 OA
BRANCH  17  19
HETATM   19  C11 UNL     1      -2.662   0.911  -0.004  1.00  0.00     0.067 C 
HETATM   20  C12 UNL     1      -3.368   1.525  -1.194  1.00  0.00    -0.007 C 
HETATM   21  C13 UNL     1      -4.575   2.278  -0.681  1.00  0.00     0.011 C 
HETATM   22  C14 UNL     1      -3.724   0.549  -2.257  1.00  0.00     0.005 C 
HETATM   23  C15 UNL     1      -4.184  -0.792  -1.804  1.00  0.00     0.001 C 
HETATM   24  C16 UNL     1      -3.655  -1.253  -0.483  1.00  0.00     0.005 C 
HETATM   25  C17 UNL     1      -3.590  -0.152   0.529  1.00  0.00    -0.007 C 
HETATM   26  C18 UNL     1      -3.300  -0.629   1.899  1.00  0.00     0.011 C 
ENDBRANCH  17  19
ENDBRANCH  16  17
ENDBRANCH   1  15
TORSDOF 7
