REMARK  6 active torsions:
REMARK  status: ('A' for Active; 'I' for Inactive)
REMARK    1  A    between atoms: C4_4  and  C5_5 
REMARK    2  A    between atoms: C13_15  and  O3_16 
REMARK    3  A    between atoms: O3_16  and  C14_17 
REMARK    4  A    between atoms: C14_17  and  C15_18 
REMARK    5  A    between atoms: C16_19  and  C17_20 
REMARK    6  A    between atoms: C17_20  and  O4_21 
ROOT
HETATM    1  C5  UNL     1      -3.075   0.184   0.371  1.00  0.00     0.013 C 
HETATM    2  C6  UNL     1      -3.697  -0.379   1.589  1.00  0.00     0.038 C 
HETATM    3  C7  UNL     1      -2.759  -0.566   2.758  1.00  0.00     0.210 C 
HETATM    4  O1  UNL     1      -1.799  -1.511   2.327  1.00  0.00    -0.240 OA
HETATM    5  O2  UNL     1      -0.741  -0.826   2.036  1.00  0.00    -0.230 OA
HETATM    6  C8  UNL     1      -0.643  -0.527   0.656  1.00  0.00     0.099 C 
HETATM    7  C9  UNL     1      -0.814  -1.717  -0.206  1.00  0.00     0.041 C 
HETATM    8  C10 UNL     1       0.262  -1.902  -1.259  1.00  0.00     0.003 C 
HETATM    9  C11 UNL     1       1.372  -2.692  -0.649  1.00  0.00     0.002 C 
HETATM   10  C12 UNL     1       1.733  -2.147   0.680  1.00  0.00     0.032 C 
HETATM   11  C13 UNL     1       1.886  -0.675   0.769  1.00  0.00     0.124 C 
HETATM   12  C18 UNL     1       0.696   0.153   0.498  1.00  0.00     0.073 C 
HETATM   13  C19 UNL     1      -1.664   0.566   0.433  1.00  0.00     0.050 C 
ENDROOT
BRANCH  11  14
HETATM   14  O3  UNL     1       2.931  -0.154   0.032  1.00  0.00    -0.382 OA
BRANCH  14  15
HETATM   15  C14 UNL     1       3.956   0.407   0.729  1.00  0.00     0.195 C 
BRANCH  15  16
HETATM   16  C15 UNL     1       4.961   0.898  -0.240  1.00  0.00    -0.003 C 
HETATM   17  C16 UNL     1       6.198   0.443  -0.231  1.00  0.00    -0.003 C 
BRANCH  17  18
HETATM   18  C17 UNL     1       7.247   0.897  -1.176  1.00  0.00     0.191 C 
BRANCH  18  19
HETATM   19  O4  UNL     1       7.740  -0.146  -1.935  1.00  0.00    -0.397 OA
ATOM     20  H4  UNL     1       8.412   0.145  -2.540  1.00  0.00     0.209 HD
ENDBRANCH  18  19
ENDBRANCH  17  18
ENDBRANCH  15  16
ENDBRANCH  14  15
ENDBRANCH  11  14
BRANCH   1  21
HETATM   21  C4  UNL     1      -3.830   1.456   0.044  1.00  0.00    -0.020 C 
HETATM   22  C2  UNL     1      -4.570   1.617  -1.018  1.00  0.00    -0.091 C 
HETATM   23  C1  UNL     1      -4.776   0.569  -2.057  1.00  0.00     0.042 C 
HETATM   24  C3  UNL     1      -5.260   2.921  -1.221  1.00  0.00     0.042 C 
ENDBRANCH   1  21
TORSDOF 6
