REMARK  8 active torsions:
REMARK  status: ('A' for Active; 'I' for Inactive)
REMARK    1  A    between atoms: C2_2  and  C3_3 
REMARK    2  A    between atoms: C3_3  and  O1_4 
REMARK    3  A    between atoms: C6_8  and  O2_9 
REMARK    4  A    between atoms: C9_13  and  O3_14 
REMARK    5  A    between atoms: O3_14  and  C10_15 
REMARK    6  A    between atoms: C10_15  and  C11_16 
REMARK    7  A    between atoms: C15_20  and  O4_21 
REMARK    8  A    between atoms: C17_23  and  O5_24 
ROOT
HETATM    1  C3  UNL     1      -3.495   0.100   0.194  1.00  0.00     0.105 C 
HETATM    2  C4  UNL     1      -3.816   1.218   1.201  1.00  0.00     0.050 C 
HETATM    3  C5  UNL     1      -3.191   2.506   0.714  1.00  0.00     0.040 C 
HETATM    4  C6  UNL     1      -1.722   2.385   0.493  1.00  0.00     0.152 C 
HETATM    5  C7  UNL     1      -1.240   0.980   0.476  1.00  0.00    -0.015 A 
HETATM    6  C8  UNL     1       0.133   0.781   0.618  1.00  0.00     0.050 A 
HETATM    7  C9  UNL     1       0.658  -0.500   0.604  1.00  0.00     0.105 A 
HETATM    8  C15 UNL     1      -0.158  -1.601   0.449  1.00  0.00     0.135 A 
HETATM    9  C17 UNL     1      -1.529  -1.424   0.305  1.00  0.00     0.114 A 
HETATM   10  C19 UNL     1      -2.025  -0.137   0.324  1.00  0.00     0.025 A 
ENDROOT
BRANCH   7  11
HETATM   11  O3  UNL     1       2.033  -0.613   0.752  1.00  0.00    -0.344 OA
BRANCH  11  12
HETATM   12  C10 UNL     1       2.885   0.488   0.910  1.00  0.00     0.203 C 
BRANCH  12  13
HETATM   13  C11 UNL     1       4.293   0.059   1.044  1.00  0.00     0.001 C 
HETATM   14  C12 UNL     1       5.215   0.452   0.189  1.00  0.00    -0.089 C 
HETATM   15  C13 UNL     1       4.862   1.355  -0.957  1.00  0.00     0.042 C 
HETATM   16  C14 UNL     1       6.636   0.026   0.312  1.00  0.00     0.042 C 
ENDBRANCH  12  13
ENDBRANCH  11  12
ENDBRANCH   7  11
BRANCH   8  17
HETATM   17  O4  UNL     1       0.397  -2.847   0.440  1.00  0.00    -0.351 OA
HETATM   18  C16 UNL     1       0.873  -3.560  -0.654  1.00  0.00     0.210 C 
ENDBRANCH   8  17
BRANCH   9  19
HETATM   19  O5  UNL     1      -2.385  -2.506   0.145  1.00  0.00    -0.352 OA
HETATM   20  C18 UNL     1      -2.723  -3.069  -1.096  1.00  0.00     0.210 C 
ENDBRANCH   9  19
BRANCH   4  21
HETATM   21  O2  UNL     1      -1.063   2.988   1.582  1.00  0.00    -0.391 OA
ATOM     22  H2  UNL     1      -0.127   2.911   1.441  1.00  0.00     0.210 HD
ENDBRANCH   4  21
BRANCH   1  23
HETATM   23  C2  UNL     1      -3.868   0.606  -1.150  1.00  0.00     0.005 C 
HETATM   24  C1  UNL     1      -3.041   0.773  -2.143  1.00  0.00     0.010 C 
ENDBRANCH   1  23
BRANCH   1  25
HETATM   25  O1  UNL     1      -4.274  -0.988   0.484  1.00  0.00    -0.381 OA
ATOM     26  H1  UNL     1      -4.035  -1.312   1.345  1.00  0.00     0.211 HD
ENDBRANCH   1  25
TORSDOF 8
