REMARK  7 active torsions:
REMARK  status: ('A' for Active; 'I' for Inactive)
REMARK    1  A    between atoms: C2_2  and  C3_3 
REMARK    2  A    between atoms: C3_3  and  O1_4 
REMARK    3  A    between atoms: C3_3  and  C15_25 
REMARK    4  A    between atoms: O1_4  and  C4_5 
REMARK    5  A    between atoms: C8_14  and  N4_15 
REMARK    6  A    between atoms: C9_18  and  O2_19 
REMARK    7  A    between atoms: O2_19  and  C10_20 
ROOT
HETATM    1  C4  UNL     1      -0.006   0.897  -0.102  1.00  0.00     0.182 A 
HETATM    2  N1  UNL     1       0.547   1.984   0.460  1.00  0.00    -0.319 N 
ATOM      3  H1  UNL     1       1.416   1.870   0.981  1.00  0.00     0.169 HD
HETATM    4  C5  UNL     1       0.019   3.203   0.372  1.00  0.00     0.132 A 
HETATM    5  C6  UNL     1       0.422   4.426   0.867  1.00  0.00     0.069 A 
HETATM    6  C7  UNL     1      -0.543   5.310   0.439  1.00  0.00     0.111 A 
HETATM    7  N2  UNL     1      -1.437   4.614  -0.258  1.00  0.00    -0.302 N 
ATOM      8  H2  UNL     1      -2.264   5.023  -0.694  1.00  0.00     0.186 HD
HETATM    9  N3  UNL     1      -1.128   3.329  -0.320  1.00  0.00    -0.221 N 
HETATM   10  C8  UNL     1      -1.739   2.289  -0.909  1.00  0.00     0.161 A 
HETATM   11  C9  UNL     1      -1.181   1.046  -0.807  1.00  0.00     0.166 A 
ENDROOT
BRANCH   1  12
HETATM   12  O1  UNL     1       0.615  -0.331   0.042  1.00  0.00    -0.327 OA
BRANCH  12  13
HETATM   13  C3  UNL     1       1.842  -0.360   0.804  1.00  0.00     0.137 C 
BRANCH  13  14
HETATM   14  C2  UNL     1       1.566  -1.202   1.988  1.00  0.00     0.029 C 
HETATM   15  C1  UNL     1       2.708  -1.358   2.940  1.00  0.00     0.007 C 
ENDBRANCH  13  14
BRANCH  13  16
HETATM   16  C15 UNL     1       2.959  -0.768  -0.093  1.00  0.00    -0.025 C 
HETATM   17  C16 UNL     1       3.002   0.265  -1.257  1.00  0.00     0.017 C 
HETATM   18  C17 UNL     1       2.777  -2.114  -0.719  1.00  0.00     0.017 C 
HETATM   19  C18 UNL     1       4.311  -0.665   0.529  1.00  0.00     0.017 C 
ENDBRANCH  13  16
ENDBRANCH  12  13
ENDBRANCH   1  12
BRANCH  11  20
HETATM   20  O2  UNL     1      -1.776  -0.059  -1.399  1.00  0.00    -0.338 OA
BRANCH  20  21
HETATM   21  C10 UNL     1      -2.719  -0.873  -0.755  1.00  0.00     0.129 C 
HETATM   22  C11 UNL     1      -2.240  -2.327  -0.652  1.00  0.00     0.032 C 
HETATM   23  C12 UNL     1      -3.535  -2.992  -0.168  1.00  0.00     0.002 C 
HETATM   24  C13 UNL     1      -4.645  -2.235  -0.855  1.00  0.00     0.002 C 
HETATM   25  C14 UNL     1      -3.992  -1.050  -1.548  1.00  0.00     0.032 C 
ENDBRANCH  20  21
ENDBRANCH  11  20
BRANCH  10  26
HETATM   26  N4  UNL     1      -2.841   2.494  -1.558  1.00  0.00    -0.382 N 
ATOM     27  H42 UNL     1      -3.258   3.422  -1.634  1.00  0.00     0.157 HD
ATOM     28  H41 UNL     1      -3.305   1.704  -2.006  1.00  0.00     0.157 HD
ENDBRANCH  10  26
TORSDOF 7
