REMARK  8 active torsions:
REMARK  status: ('A' for Active; 'I' for Inactive)
REMARK    1  A    between atoms: C2_2  and  C4_4 
REMARK    2  A    between atoms: C4_4  and  C6_6 
REMARK    3  A    between atoms: C6_6  and  C7_7 
REMARK    4  A    between atoms: C9_9  and  O1_10 
REMARK    5  A    between atoms: C12_14  and  O2_15 
REMARK    6  A    between atoms: C13_17  and  O3_18 
REMARK    7  A    between atoms: C15_21  and  C16_22 
REMARK    8  A    between atoms: C17_23  and  C18_24 
ROOT
HETATM    1  C7  UNL     1      -1.533   0.752  -0.605  1.00  0.00    -0.021 A 
HETATM    2  C8  UNL     1      -0.832   1.643   0.219  1.00  0.00     0.049 A 
HETATM    3  C9  UNL     1       0.500   1.474   0.535  1.00  0.00     0.100 A 
HETATM    4  C10 UNL     1       1.185   0.367   0.015  1.00  0.00     0.114 A 
HETATM    5  C11 UNL     1       0.513  -0.509  -0.790  1.00  0.00     0.040 A 
HETATM    6  C12 UNL     1      -0.834  -0.321  -1.100  1.00  0.00     0.083 A 
HETATM    7  C13 UNL     1       1.221  -1.679  -1.334  1.00  0.00     0.159 C 
HETATM    8  C14 UNL     1       2.433  -2.081  -0.568  1.00  0.00     0.073 C 
HETATM    9  C15 UNL     1       3.266  -0.927  -0.048  1.00  0.00     0.154 C 
HETATM   10  O4  UNL     1       2.513   0.191   0.326  1.00  0.00    -0.338 OA
ENDROOT
BRANCH   1  11
HETATM   11  C6  UNL     1      -2.954   0.995  -0.860  1.00  0.00     0.046 C 
BRANCH  11  12
HETATM   12  C4  UNL     1      -3.941   0.298  -0.010  1.00  0.00    -0.011 C 
HETATM   13  C5  UNL     1      -3.946  -1.204  -0.067  1.00  0.00     0.010 C 
BRANCH  12  14
HETATM   14  C2  UNL     1      -5.354   0.720  -0.465  1.00  0.00    -0.019 C 
HETATM   15  C1  UNL     1      -6.393   0.145   0.450  1.00  0.00     0.010 C 
HETATM   16  C3  UNL     1      -5.435   2.213  -0.617  1.00  0.00     0.010 C 
ENDBRANCH  12  14
ENDBRANCH  11  12
ENDBRANCH   1  11
BRANCH   6  17
HETATM   17  O2  UNL     1      -1.458  -1.213  -1.905  1.00  0.00    -0.359 OA
ATOM     18  H2  UNL     1      -0.974  -1.955  -2.248  1.00  0.00     0.217 HD
ENDBRANCH   6  17
BRANCH   3  19
HETATM   19  O1  UNL     1       1.170   2.372   1.353  1.00  0.00    -0.358 OA
ATOM     20  H1  UNL     1       2.087   2.256   1.571  1.00  0.00     0.217 HD
ENDBRANCH   3  19
BRANCH   7  21
HETATM   21  O3  UNL     1       1.645  -1.334  -2.638  1.00  0.00    -0.391 OA
ATOM     22  H3  UNL     1       2.102  -2.089  -2.989  1.00  0.00     0.210 HD
ENDBRANCH   7  21
BRANCH   9  23
HETATM   23  C16 UNL     1       4.306  -0.582  -1.042  1.00  0.00     0.002 C 
HETATM   24  C17 UNL     1       5.582  -0.474  -0.776  1.00  0.00    -0.024 C 
BRANCH  24  25
HETATM   25  C18 UNL     1       6.249  -0.664   0.525  1.00  0.00     0.008 A 
HETATM   26  C19 UNL     1       5.794   0.044   1.757  1.00  0.00     0.009 A 
HETATM   27  C20 UNL     1       7.019   0.507   1.028  1.00  0.00     0.009 A 
ENDBRANCH  24  25
ENDBRANCH   9  23
TORSDOF 8
