REMARK  7 active torsions:
REMARK  status: ('A' for Active; 'I' for Inactive)
REMARK    1  A    between atoms: C2_2  and  C3_3 
REMARK    2  A    between atoms: C3_3  and  C4_4 
REMARK    3  A    between atoms: C5_11  and  O1_12 
REMARK    4  A    between atoms: C6_14  and  C7_15 
REMARK    5  A    between atoms: C7_15  and  C8_16 
REMARK    6  A    between atoms: C8_16  and  O2_18 
REMARK    7  A    between atoms: C8_16  and  C10_20 
ROOT
HETATM    1  C7  UNL     1       0.418   0.591   1.045  1.00  0.00     0.066 C 
ENDROOT
BRANCH   1   2
HETATM    2  C6  UNL     1       1.690   1.296   1.268  1.00  0.00    -0.017 C 
HETATM    3  C2  UNL     1       2.904   1.039   0.544  1.00  0.00    -0.063 C 
HETATM    4  C1  UNL     1       3.293   1.746  -0.723  1.00  0.00     0.048 C 
BRANCH   3   5
HETATM    5  C3  UNL     1       3.812   0.211   1.029  1.00  0.00     0.041 C 
BRANCH   5   6
HETATM    6  C4  UNL     1       5.103  -0.028   0.415  1.00  0.00     0.102 A 
HETATM    7  N1  UNL     1       5.936   0.806  -0.202  1.00  0.00    -0.282 N 
HETATM    8  N2  UNL     1       7.011   0.163  -0.614  1.00  0.00    -0.240 N 
ATOM      9  H1  UNL     1       5.767   1.803  -0.337  1.00  0.00     0.188 HD
HETATM   10  N3  UNL     1       6.919  -1.120  -0.280  1.00  0.00    -0.264 N 
ATOM     11  H2  UNL     1       7.794   0.586  -1.113  1.00  0.00     0.208 HD
HETATM   12  C5  UNL     1       5.749  -1.264   0.357  1.00  0.00     0.184 A 
ATOM     13  H3  UNL     1       7.604  -1.851  -0.471  1.00  0.00     0.190 HD
BRANCH  12  14
HETATM   14  O1  UNL     1       5.264  -2.460   0.874  1.00  0.00    -0.343 OA
ATOM     15  H1  UNL     1       5.704  -3.301   0.835  1.00  0.00     0.219 HD
ENDBRANCH  12  14
ENDBRANCH   5   6
ENDBRANCH   3   5
ENDBRANCH   1   2
BRANCH   1  16
HETATM   16  C8  UNL     1      -0.225   0.596  -0.272  1.00  0.00     0.065 C 
HETATM   17  C9  UNL     1       0.555  -0.078  -1.350  1.00  0.00     0.047 C 
BRANCH  16  18
HETATM   18  O2  UNL     1      -0.375   1.951  -0.713  1.00  0.00    -0.389 OA
ATOM     19  H2  UNL     1      -0.792   1.954  -1.567  1.00  0.00     0.210 HD
ENDBRANCH  16  18
BRANCH  16  20
HETATM   20  C10 UNL     1      -1.652   0.081  -0.261  1.00  0.00    -0.008 C 
HETATM   21  C11 UNL     1      -2.189   0.186  -1.663  1.00  0.00     0.017 C 
HETATM   22  C12 UNL     1      -3.692  -0.110  -1.732  1.00  0.00    -0.013 C 
HETATM   23  C13 UNL     1      -3.776  -1.597  -1.360  1.00  0.00     0.009 C 
HETATM   24  C17 UNL     1      -4.403   0.768  -0.761  1.00  0.00     0.009 C 
HETATM   25  C14 UNL     1      -3.213  -1.767   0.022  1.00  0.00    -0.013 C 
HETATM   26  C15 UNL     1      -4.126  -0.995   0.960  1.00  0.00     0.009 C 
HETATM   27  C19 UNL     1      -1.772  -1.361   0.160  1.00  0.00     0.017 C 
HETATM   28  C16 UNL     1      -3.944   0.473   0.626  1.00  0.00    -0.013 C 
HETATM   29  C18 UNL     1      -2.484   0.860   0.753  1.00  0.00     0.017 C 
ENDBRANCH  16  20
ENDBRANCH   1  16
TORSDOF 7
