REMARK  6 active torsions:
REMARK  status: ('A' for Active; 'I' for Inactive)
REMARK    1  A    between atoms: C2_2  and  S1_3 
REMARK    2  A    between atoms: S1_3  and  C3_4 
REMARK    3  A    between atoms: C3_4  and  C4_5 
REMARK    4  A    between atoms: C4_5  and  N1_6 
REMARK    5  A    between atoms: N1_6  and  C5_7 
REMARK    6  A    between atoms: C12_21  and  S2_23 
ROOT
HETATM    1  C4  UNL     1      -0.483   1.818  -0.272  1.00  0.00     0.178 C 
ENDROOT
BRANCH   1   2
HETATM    2  C3  UNL     1       0.852   1.159  -0.257  1.00  0.00     0.057 C 
HETATM    3  C10 UNL     1       1.126   0.324   0.935  1.00  0.00     0.029 C 
HETATM    4  C11 UNL     1       2.495  -0.367   0.806  1.00  0.00     0.022 C 
HETATM    5  C12 UNL     1       2.578  -1.270  -0.410  1.00  0.00     0.004 C 
HETATM    6  C13 UNL     1       3.823  -0.948  -1.177  1.00  0.00     0.027 C 
HETATM    7  C15 UNL     1       1.319  -1.033  -1.235  1.00  0.00     0.022 C 
HETATM    8  C16 UNL     1       1.152   0.420  -1.585  1.00  0.00     0.029 C 
BRANCH   2   9
HETATM    9  S1  UNL     1       2.103   2.501  -0.239  1.00  0.00    -0.126 SA
BRANCH   9  10
HETATM   10  C2  UNL     1       1.562   3.738   1.001  1.00  0.00     0.036 C 
HETATM   11  C1  UNL     1       2.047   4.905   1.103  1.00  0.00     0.018 C 
ENDBRANCH   9  10
ENDBRANCH   2   9
BRANCH   5  12
HETATM   12  S2  UNL     1       2.528  -3.007   0.060  1.00  0.00    -0.164 SA
HETATM   13  C14 UNL     1       3.936  -3.526   1.022  1.00  0.00     0.090 C 
ENDBRANCH   5  12
ENDBRANCH   1   2
BRANCH   1  14
HETATM   14  N1  UNL     1      -1.673   1.222  -0.405  1.00  0.00    -0.398 NA
BRANCH  14  15
HETATM   15  C5  UNL     1      -2.599   0.490  -0.206  1.00  0.00     0.221 A 
HETATM   16  N2  UNL     1      -2.626  -0.439   0.778  1.00  0.00    -0.336 N 
HETATM   17  C6  UNL     1      -3.679  -1.224   1.000  1.00  0.00     0.115 A 
ATOM     18  H2  UNL     1      -1.805  -0.542   1.375  1.00  0.00     0.168 HD
HETATM   19  C7  UNL     1      -4.833  -1.136   0.225  1.00  0.00     0.022 A 
HETATM   20  C8  UNL     1      -5.973  -2.035   0.484  1.00  0.00     0.069 C 
HETATM   21  N3  UNL     1      -4.873  -0.254  -0.753  1.00  0.00    -0.341 N 
HETATM   22  C9  UNL     1      -3.814   0.554  -1.009  1.00  0.00     0.158 A 
ATOM     23  H3  UNL     1      -5.713  -0.178  -1.326  1.00  0.00     0.167 HD
HETATM   24  N4  UNL     1      -3.769   1.435  -1.994  1.00  0.00    -0.381 N 
ATOM     25  H42 UNL     1      -2.973   2.043  -2.187  1.00  0.00     0.157 HD
ATOM     26  H41 UNL     1      -4.619   1.480  -2.556  1.00  0.00     0.157 HD
ENDBRANCH  14  15
ENDBRANCH   1  14
TORSDOF 6
