REMARK  8 active torsions:
REMARK  status: ('A' for Active; 'I' for Inactive)
REMARK    1  A    between atoms: C2_2  and  N1_4 
REMARK    2  A    between atoms: N1_4  and  C4_6 
REMARK    3  A    between atoms: C4_6  and  N2_7 
REMARK    4  A    between atoms: C4_6  and  C10_16 
REMARK    5  A    between atoms: N2_7  and  C5_9 
REMARK    6  A    between atoms: C5_9  and  O1_10 
REMARK    7  A    between atoms: C5_9  and  C6_12 
REMARK    8  A    between atoms: C12_18  and  C13_19 
ROOT
HETATM    1  C10 UNL     1      -0.278   0.144   0.326  1.00  0.00     0.012 A 
HETATM    2  C11 UNL     1      -1.389  -0.022  -0.430  1.00  0.00     0.028 A 
HETATM    3  C12 UNL     1      -2.488  -0.543   0.191  1.00  0.00    -0.008 A 
HETATM    4  S1  UNL     1      -1.959  -0.787   1.791  1.00  0.00    -0.082 SA
HETATM    5  C17 UNL     1      -0.336  -0.213   1.626  1.00  0.00     0.095 A 
HETATM    6  C18 UNL     1       0.633  -0.142   2.688  1.00  0.00     0.107 C 
HETATM    7  N3  UNL     1       1.428  -0.068   3.541  1.00  0.00    -0.191 NA
ENDROOT
BRANCH   1   8
HETATM    8  C4  UNL     1       1.000   0.683  -0.327  1.00  0.00     0.211 C 
BRANCH   8   9
HETATM    9  N1  UNL     1       0.504   1.890  -0.970  1.00  0.00    -0.395 N 
ATOM     10  H1  UNL     1       0.500   1.999  -1.984  1.00  0.00     0.155 HD
BRANCH   9  11
HETATM   11  C2  UNL     1       0.034   2.890  -0.117  1.00  0.00     0.070 C 
HETATM   12  C1  UNL     1      -0.527   4.016  -0.963  1.00  0.00     0.031 C 
HETATM   13  C3  UNL     1       1.034   3.454   0.843  1.00  0.00     0.031 C 
ENDBRANCH   9  11
ENDBRANCH   8   9
BRANCH   8  14
HETATM   14  N2  UNL     1       1.380  -0.163  -1.412  1.00  0.00    -0.372 N 
ATOM     15  H2  UNL     1       1.095   0.103  -2.355  1.00  0.00     0.158 HD
BRANCH  14  16
HETATM   16  C5  UNL     1       2.116  -1.327  -1.253  1.00  0.00     0.219 C 
BRANCH  16  17
HETATM   17  O1  UNL     1       1.459  -2.333  -0.522  1.00  0.00    -0.377 OA
ATOM     18  H1  UNL     1       1.963  -3.131  -0.413  1.00  0.00     0.212 HD
ENDBRANCH  16  17
BRANCH  16  19
HETATM   19  C6  UNL     1       3.538  -1.196  -0.771  1.00  0.00     0.034 C 
HETATM   20  C7  UNL     1       4.239  -2.577  -0.679  1.00  0.00     0.009 C 
HETATM   21  C8  UNL     1       4.937  -2.063   0.570  1.00  0.00     0.001 C 
HETATM   22  C9  UNL     1       3.744  -1.126   0.727  1.00  0.00     0.009 C 
ENDBRANCH  16  19
ENDBRANCH  14  16
ENDBRANCH   8  14
ENDBRANCH   1   8
BRANCH   3  23
HETATM   23  C13 UNL     1      -3.843  -0.828  -0.410  1.00  0.00    -0.018 C 
HETATM   24  C14 UNL     1      -3.559  -1.856  -1.511  1.00  0.00     0.020 C 
HETATM   25  C15 UNL     1      -4.455   0.390  -1.030  1.00  0.00     0.020 C 
HETATM   26  C16 UNL     1      -4.696  -1.392   0.679  1.00  0.00     0.020 C 
ENDBRANCH   3  23
TORSDOF 8
