REMARK  11 active torsions:
REMARK  status: ('A' for Active; 'I' for Inactive)
REMARK       I    between atoms: C2_2  and  N1_4 
REMARK       I    between atoms: N1_4  and  C3_6 
REMARK    1  A    between atoms: C3_6  and  C4_8 
REMARK    2  A    between atoms: C4_8  and  N2_9 
REMARK       I    between atoms: N2_9  and  C5_11 
REMARK    3  A    between atoms: C5_11  and  C6_13 
REMARK    4  A    between atoms: N4_17  and  C8_18 
REMARK    5  A    between atoms: C9_20  and  C10_21 
REMARK    6  A    between atoms: C10_21  and  O5_22 
REMARK    7  A    between atoms: C10_21  and  O6_24 
REMARK    8  A    between atoms: O6_24  and  N5_25 
REMARK    9  A    between atoms: C11_28  and  O7_29 
REMARK   10  A    between atoms: C12_31  and  O8_32 
REMARK   11  A    between atoms: C14_37  and  N7_38 
ROOT
HETATM    1  C6  UNL     1       1.671  -0.578  -0.831  1.00  0.00     0.204 A 
HETATM    2  N3  UNL     1       0.461   0.009  -0.848  1.00  0.00    -0.167 N 
ATOM      3  H3  UNL     1       0.265   0.990  -1.045  1.00  0.00     0.186 HD
HETATM    4  C7  UNL     1      -0.443  -0.946  -0.555  1.00  0.00     0.712 A 
HETATM    5  N4  UNL     1      -1.759  -1.167  -0.384  1.00  0.00    -0.133 N 
HETATM    6  C13 UNL     1      -1.992  -2.469  -0.076  1.00  0.00     0.175 A 
HETATM    7  N6  UNL     1      -3.128  -3.163   0.181  1.00  0.00    -0.173 N 
ATOM      8  H6  UNL     1      -4.038  -2.702   0.163  1.00  0.00     0.186 HD
HETATM    9  C14 UNL     1      -3.025  -4.474   0.460  1.00  0.00     0.679 A 
HETATM   10  N8  UNL     1      -1.811  -5.078   0.481  1.00  0.00    -0.175 N 
ATOM     11  H8  UNL     1      -1.762  -6.074   0.696  1.00  0.00     0.186 HD
HETATM   12  C15 UNL     1      -0.672  -4.415   0.230  1.00  0.00     0.148 A 
HETATM   13  N9  UNL     1       0.462  -4.998   0.254  1.00  0.00    -0.383 N 
ATOM     14  H91 UNL     1       1.328  -4.494   0.063  1.00  0.00     0.157 HD
ATOM     15  H92 UNL     1       0.520  -5.994   0.468  1.00  0.00     0.157 HD
HETATM   16  C16 UNL     1      -0.751  -3.069  -0.059  1.00  0.00     0.164 A 
HETATM   17  N10 UNL     1       0.178  -2.123  -0.353  1.00  0.00    -0.077 N 
HETATM   18  N11 UNL     1       1.467  -1.875  -0.526  1.00  0.00    -0.259 N 
ATOM     19  H11 UNL     1       2.207  -2.572  -0.440  1.00  0.00     0.190 HD
ENDROOT
BRANCH   5  20
HETATM   20  C8  UNL     1      -2.814  -0.174  -0.506  1.00  0.00     0.279 C 
HETATM   21  O4  UNL     1      -2.397   0.925  -1.199  1.00  0.00    -0.350 OA
HETATM   22  C9  UNL     1      -2.247   2.007  -0.382  1.00  0.00     0.212 C 
HETATM   23  C11 UNL     1      -2.568   1.590   1.023  1.00  0.00     0.185 C 
HETATM   24  C12 UNL     1      -3.323   0.320   0.802  1.00  0.00     0.199 C 
BRANCH  22  25
HETATM   25  C10 UNL     1      -3.221   3.097  -0.852  1.00  0.00     0.316 C 
BRANCH  25  26
HETATM   26  O5  UNL     1      -2.873   3.399  -2.178  1.00  0.00    -0.367 OA
ATOM     27  H5  UNL     1      -3.476   4.073  -2.469  1.00  0.00     0.212 HD
ENDBRANCH  25  26
BRANCH  25  28
HETATM   28  O6  UNL     1      -4.532   2.701  -0.737  1.00  0.00    -0.252 OA
BRANCH  28  29
HETATM   29  N5  UNL     1      -5.243   3.537   0.022  1.00  0.00    -0.308 N 
ATOM     30  H52 UNL     1      -4.845   4.369   0.459  1.00  0.00     0.184 HD
ATOM     31  H51 UNL     1      -6.216   3.243   0.107  1.00  0.00     0.184 HD
ENDBRANCH  28  29
ENDBRANCH  25  28
ENDBRANCH  22  25
BRANCH  23  32
HETATM   32  O7  UNL     1      -1.423   1.432   1.800  1.00  0.00    -0.390 OA
ATOM     33  H7  UNL     1      -1.626   1.168   2.690  1.00  0.00     0.210 HD
ENDBRANCH  23  32
BRANCH  24  34
HETATM   34  O8  UNL     1      -3.073  -0.527   1.872  1.00  0.00    -0.388 OA
ATOM     35  H8  UNL     1      -3.398  -0.212   2.707  1.00  0.00     0.210 HD
ENDBRANCH  24  34
ENDBRANCH   5  20
BRANCH   1  36
HETATM   36  C5  UNL     1       2.961   0.055  -1.090  1.00  0.00     0.287 C 
HETATM   37  N2  UNL     1       4.171  -0.690  -1.038  1.00  0.00    -0.346 N 
ATOM     38  H2  UNL     1       4.132  -1.686  -0.823  1.00  0.00     0.163 HD
HETATM   39  O3  UNL     1       2.981   1.288  -1.362  1.00  0.00    -0.264 OA
BRANCH  37  40
HETATM   40  C4  UNL     1       5.429  -0.086  -1.276  1.00  0.00     0.226 C 
BRANCH  40  41
HETATM   41  C3  UNL     1       5.777   0.909  -0.242  1.00  0.00     0.241 C 
HETATM   42  N1  UNL     1       4.994   1.140   0.895  1.00  0.00    -0.297 N 
HETATM   43  C2  UNL     1       5.346   2.128   1.842  1.00  0.00     0.220 C 
ATOM     44  H1  UNL     1       4.152   0.584   1.043  1.00  0.00     0.171 HD
HETATM   45  C1  UNL     1       6.560   2.948   1.651  1.00  0.00     0.117 C 
HETATM   46  O1  UNL     1       4.597   2.295   2.860  1.00  0.00    -0.274 OA
HETATM   47  O2  UNL     1       6.867   1.555  -0.457  1.00  0.00    -0.271 OA
ENDBRANCH  40  41
ENDBRANCH  37  40
ENDBRANCH   1  36
BRANCH   9  48
HETATM   48  N7  UNL     1      -4.094  -5.171   0.712  1.00  0.00    -0.234 N 
ATOM     49  H72 UNL     1      -5.007  -4.717   0.696  1.00  0.00     0.174 HD
ATOM     50  H71 UNL     1      -4.016  -6.166   0.924  1.00  0.00     0.174 HD
ENDBRANCH   9  48
TORSDOF 11
