REMARK  14 active torsions:
REMARK  status: ('A' for Active; 'I' for Inactive)
REMARK    1  A    between atoms: C2_7  and  C3_8 
REMARK    2  A    between atoms: C4_11  and  S1_12 
REMARK    3  A    between atoms: S1_12  and  C5_13 
REMARK    4  A    between atoms: C7_15  and  O3_16 
REMARK    5  A    between atoms: C7_15  and  C8_18 
REMARK    6  A    between atoms: C8_18  and  O5_20 
REMARK    7  A    between atoms: O5_20  and  C9_21 
REMARK    8  A    between atoms: C9_21  and  C10_22 
REMARK    9  A    between atoms: C10_22  and  O6_23 
REMARK   10  A    between atoms: C11_25  and  O7_26 
REMARK   11  A    between atoms: C12_28  and  N4_29 
REMARK   12  A    between atoms: C13_33  and  O8_34 
REMARK   13  A    between atoms: C14_36  and  O9_37 
REMARK   14  A    between atoms: C15_39  and  O10_40 
ROOT
HETATM    1  C8  UNL     1      -0.224   1.029  -1.084  1.00  0.00     0.301 C 
HETATM    2  O4  UNL     1      -0.862   1.681  -1.941  1.00  0.00    -0.261 OA
ENDROOT
BRANCH   1   3
HETATM    3  C7  UNL     1       1.085   0.484  -1.529  1.00  0.00     0.208 C 
HETATM    4  C6  UNL     1       1.274  -0.999  -1.178  1.00  0.00     0.080 C 
HETATM    5  C5  UNL     1       2.722  -0.599  -0.980  1.00  0.00     0.131 C 
HETATM    6  C16 UNL     1       2.223   0.748  -0.618  1.00  0.00     0.185 C 
HETATM    7  O11 UNL     1       2.556   1.668   0.087  1.00  0.00    -0.293 OA
BRANCH   5   8
HETATM    8  S1  UNL     1       3.610  -1.483   0.294  1.00  0.00    -0.097 SA
BRANCH   8   9
HETATM    9  C4  UNL     1       5.283  -0.858   0.357  1.00  0.00     0.108 A 
HETATM   10  C2  UNL     1       6.178  -1.333   1.216  1.00  0.00     0.159 A 
HETATM   11  N3  UNL     1       7.489  -0.783   1.204  1.00  0.00    -0.290 N 
HETATM   12  N2  UNL     1       7.888   0.234   0.332  1.00  0.00    -0.273 N 
ATOM     13  H3  UNL     1       8.173  -1.149   1.866  1.00  0.00     0.187 HD
HETATM   14  C1  UNL     1       7.033   0.708  -0.510  1.00  0.00     0.208 A 
ATOM     15  H2  UNL     1       8.841   0.596   0.361  1.00  0.00     0.189 HD
HETATM   16  N1  UNL     1       7.337   1.739  -1.436  1.00  0.00    -0.062 NA
HETATM   17  N5  UNL     1       5.726   0.174  -0.512  1.00  0.00    -0.322 N 
ATOM     18  H5  UNL     1       5.057   0.554  -1.181  1.00  0.00     0.169 HD
BRANCH  10  19
HETATM   19  C3  UNL     1       5.825  -2.381   2.139  1.00  0.00     0.231 C 
HETATM   20  O1  UNL     1       4.678  -2.852   2.140  1.00  0.00    -0.643 OA
HETATM   21  O2  UNL     1       6.757  -2.871   3.030  1.00  0.00    -0.643 OA
ENDBRANCH  10  19
ENDBRANCH   8   9
ENDBRANCH   5   8
BRANCH   3  22
HETATM   22  O3  UNL     1       1.424   0.767  -2.828  1.00  0.00    -0.372 OA
ATOM     23  H3  UNL     1       1.307   1.684  -3.045  1.00  0.00     0.211 HD
ENDBRANCH   3  22
ENDBRANCH   1   3
BRANCH   1  24
HETATM   24  O5  UNL     1      -0.758   0.879   0.134  1.00  0.00    -0.316 OA
BRANCH  24  25
HETATM   25  C9  UNL     1      -1.886   1.237   0.776  1.00  0.00     0.222 C 
BRANCH  25  26
HETATM   26  C10 UNL     1      -3.219   0.696   0.472  1.00  0.00     0.136 C 
HETATM   27  C11 UNL     1      -3.820   0.928  -0.852  1.00  0.00     0.190 C 
HETATM   28  C12 UNL     1      -5.213   0.325  -0.949  1.00  0.00     0.246 C 
HETATM   29  C13 UNL     1      -5.751  -0.235   0.315  1.00  0.00     0.182 C 
HETATM   30  C14 UNL     1      -4.799  -1.018   1.150  1.00  0.00     0.180 C 
HETATM   31  C15 UNL     1      -3.352  -0.784   0.799  1.00  0.00     0.188 C 
BRANCH  26  32
HETATM   32  O6  UNL     1      -4.089   1.335   1.430  1.00  0.00    -0.382 OA
ATOM     33  H6  UNL     1      -4.950   0.985   1.234  1.00  0.00     0.210 HD
ENDBRANCH  26  32
BRANCH  27  34
HETATM   34  O7  UNL     1      -3.996   2.301  -1.027  1.00  0.00    -0.390 OA
ATOM     35  H7  UNL     1      -4.384   2.451  -1.881  1.00  0.00     0.210 HD
ENDBRANCH  27  34
BRANCH  28  36
HETATM   36  N4  UNL     1      -6.161   1.319  -1.428  1.00  0.00    -0.070 N 
ATOM     37  H43 UNL     1      -6.151   2.162  -0.854  1.00  0.00     0.274 HD
ATOM     38  H42 UNL     1      -5.864   1.734  -2.311  1.00  0.00     0.274 HD
ATOM     39  H41 UNL     1      -7.095   0.915  -1.493  1.00  0.00     0.274 HD
ENDBRANCH  28  36
BRANCH  29  40
HETATM   40  O8  UNL     1      -6.784  -1.138  -0.059  1.00  0.00    -0.391 OA
ATOM     41  H8  UNL     1      -7.129  -1.497   0.750  1.00  0.00     0.210 HD
ENDBRANCH  29  40
BRANCH  30  42
HETATM   42  O9  UNL     1      -5.039  -2.393   1.073  1.00  0.00    -0.390 OA
ATOM     43  H9  UNL     1      -4.432  -2.893   1.606  1.00  0.00     0.210 HD
ENDBRANCH  30  42
BRANCH  31  44
HETATM   44  O10 UNL     1      -2.888  -1.600  -0.204  1.00  0.00    -0.390 OA
ATOM     45  H10 UNL     1      -2.971  -2.524   0.000  1.00  0.00     0.210 HD
ENDBRANCH  31  44
ENDBRANCH  25  26
ENDBRANCH  24  25
ENDBRANCH   1  24
TORSDOF 14
