REMARK  1 active torsions:
REMARK  status: ('A' for Active; 'I' for Inactive)
REMARK       I    between atoms: N3_4  and  C2_6 
REMARK    1  A    between atoms: C2_6  and  C3_8 
ROOT
HETATM    1  C3  UNL     1      -1.389  -0.851   0.082  1.00  0.00     0.149 A 
HETATM    2  N4  UNL     1      -1.339  -2.100   0.435  1.00  0.00    -0.287 N 
ATOM      3  H4  UNL     1      -0.442  -2.586   0.459  1.00  0.00     0.188 HD
HETATM    4  N5  UNL     1      -2.423  -2.731   0.756  1.00  0.00    -0.268 N 
ATOM      5  H5  UNL     1      -2.525  -3.703   1.048  1.00  0.00     0.195 HD
HETATM    6  S1  UNL     1      -3.623  -1.568   0.578  1.00  0.00     0.019 SA
HETATM    7  C4  UNL     1      -2.638  -0.269   0.077  1.00  0.00     0.138 A 
HETATM    8  N6  UNL     1      -2.975   1.092  -0.270  1.00  0.00    -0.090 NA
ENDROOT
BRANCH   1   9
HETATM    9  C2  UNL     1      -0.175  -0.080  -0.296  1.00  0.00     0.278 C 
HETATM   10  N3  UNL     1       1.120  -0.661  -0.297  1.00  0.00    -0.298 N 
HETATM   11  C1  UNL     1       2.168   0.036  -0.138  1.00  0.00     0.203 C 
ATOM     12  H3  UNL     1       1.211  -1.668  -0.429  1.00  0.00     0.171 HD
HETATM   13  N1  UNL     1       2.190   1.431   0.055  1.00  0.00    -0.066 NA
HETATM   14  N2  UNL     1       3.434  -0.653  -0.156  1.00  0.00    -0.066 NA
HETATM   15  O1  UNL     1      -0.269   1.123  -0.630  1.00  0.00    -0.265 OA
ENDBRANCH   1   9
TORSDOF 1
