REMARK  3 active torsions:
REMARK  status: ('A' for Active; 'I' for Inactive)
REMARK    1  A    between atoms: N1_1  and  C1_4 
REMARK    2  A    between atoms: C2_7  and  C3_8 
REMARK    3  A    between atoms: N5_12  and  O1_13 
ROOT
HETATM    1  C1  UNL     1      -2.377  -0.304   0.267  1.00  0.00     0.676 A 
HETATM    2  N2  UNL     1      -1.130  -0.840   0.352  1.00  0.00    -0.188 N 
ATOM      3  H2  UNL     1      -1.021  -1.807   0.657  1.00  0.00     0.184 HD
HETATM    4  C2  UNL     1      -0.038  -0.121   0.042  1.00  0.00     0.097 A 
HETATM    5  C4  UNL     1      -0.230   1.183  -0.366  1.00  0.00     0.051 A 
HETATM    6  C5  UNL     1      -1.506   1.736  -0.455  1.00  0.00     0.108 A 
HETATM    7  N7  UNL     1      -2.535   0.970  -0.134  1.00  0.00    -0.202 N 
ATOM      8  H7  UNL     1      -3.477   1.357  -0.192  1.00  0.00     0.183 HD
ENDROOT
BRANCH   4   9
HETATM    9  C3  UNL     1       1.298  -0.684   0.129  1.00  0.00     0.164 A 
HETATM   10  N3  UNL     1       1.618  -1.933   0.510  1.00  0.00    -0.263 N 
HETATM   11  N4  UNL     1       2.930  -2.100   0.471  1.00  0.00     0.025 NA
ATOM     12  H3  UNL     1       0.947  -2.648   0.789  1.00  0.00     0.186 HD
HETATM   13  N5  UNL     1       3.465  -0.962   0.065  1.00  0.00    -0.077 N 
HETATM   14  N6  UNL     1       2.475  -0.096  -0.144  1.00  0.00    -0.242 N 
ATOM     15  H6  UNL     1       2.592   0.866  -0.462  1.00  0.00     0.192 HD
BRANCH  13  16
HETATM   16  O1  UNL     1       4.807  -0.737  -0.102  1.00  0.00    -0.255 OA
ATOM     17  H1  UNL     1       5.192   0.081  -0.394  1.00  0.00     0.248 HD
ENDBRANCH  13  16
ENDBRANCH   4   9
BRANCH   1  18
HETATM   18  N1  UNL     1      -3.432  -0.968   0.557  1.00  0.00    -0.234 N 
ATOM     19  H12 UNL     1      -3.312  -1.934   0.861  1.00  0.00     0.174 HD
ATOM     20  H11 UNL     1      -4.367  -0.566   0.493  1.00  0.00     0.174 HD
ENDBRANCH   1  18
TORSDOF 3
