REMARK  1 active torsions:
REMARK  status: ('A' for Active; 'I' for Inactive)
REMARK    1  A    between atoms: N2_7  and  C3_8 
ROOT
HETATM    1  O1  UNL     1      -3.613   1.552  -0.513  1.00  0.00    -0.245 OA
HETATM    2  C1  UNL     1      -2.651   0.803  -0.188  1.00  0.00     0.343 A 
HETATM    3  N1  UNL     1      -2.762  -0.373   0.491  1.00  0.00    -0.258 N 
ATOM      4  H1  UNL     1      -3.632  -0.792   0.819  1.00  0.00     0.175 HD
HETATM    5  C2  UNL     1      -1.513  -0.897   0.659  1.00  0.00     0.351 A 
HETATM    6  O2  UNL     1      -1.279  -1.970   1.243  1.00  0.00    -0.244 OA
HETATM    7  N2  UNL     1      -0.647  -0.044   0.084  1.00  0.00    -0.183 N 
HETATM    8  N5  UNL     1      -1.344   0.949  -0.407  1.00  0.00    -0.239 N 
ATOM      9  H5  UNL     1      -0.935   1.743  -0.900  1.00  0.00     0.192 HD
ENDROOT
BRANCH   7  10
HETATM   10  C3  UNL     1       0.780  -0.207   0.029  1.00  0.00     0.148 A 
HETATM   11  C4  UNL     1       1.681   0.684  -0.507  1.00  0.00     0.139 A 
HETATM   12  N3  UNL     1       2.918   0.168  -0.367  1.00  0.00    -0.358 N 
HETATM   13  C5  UNL     1       2.780  -1.021   0.245  1.00  0.00     0.182 A 
ATOM     14  H3  UNL     1       3.793   0.598  -0.668  1.00  0.00     0.166 HD
HETATM   15  N4  UNL     1       1.464  -1.266   0.496  1.00  0.00    -0.336 N 
ATOM     16  H4  UNL     1       1.074  -2.092   0.950  1.00  0.00     0.168 HD
ENDBRANCH   7  10
TORSDOF 1
