REMARK  7 active torsions:
REMARK  status: ('A' for Active; 'I' for Inactive)
REMARK    1  A    between atoms: N1_5  and  C5_6 
REMARK    2  A    between atoms: C5_6  and  C6_7 
REMARK    3  A    between atoms: C6_7  and  C7_8 
REMARK    4  A    between atoms: C7_8  and  N2_9 
REMARK    5  A    between atoms: N2_9  and  C8_11 
REMARK    6  A    between atoms: C8_11  and  N3_13 
REMARK    7  A    between atoms: N3_13  and  C9_15 
ROOT
HETATM    1  C8  UNL     1      -1.631  -0.756   0.871  1.00  0.00     0.167 C 
HETATM    2  S1  UNL     1      -0.729  -0.962   2.242  1.00  0.00    -0.041 SA
ENDROOT
BRANCH   1   3
HETATM    3  N2  UNL     1      -1.115  -1.092  -0.387  1.00  0.00    -0.367 N 
ATOM      4  H2  UNL     1      -1.716  -0.963  -1.201  1.00  0.00     0.161 HD
BRANCH   3   5
HETATM    5  C7  UNL     1       0.202  -1.604  -0.599  1.00  0.00     0.123 C 
BRANCH   5   6
HETATM    6  C6  UNL     1       1.246  -0.555  -0.385  1.00  0.00     0.050 C 
BRANCH   6   7
HETATM    7  C5  UNL     1       2.620  -1.139  -0.624  1.00  0.00     0.274 C 
BRANCH   7   8
HETATM    8  N1  UNL     1       3.703  -0.252  -0.467  1.00  0.00     0.088 N 
HETATM    9  C4  UNL     1       3.833   0.800  -1.428  1.00  0.00     0.272 C 
HETATM   10  C3  UNL     1       5.307   1.120  -1.523  1.00  0.00     0.034 C 
HETATM   11  C2  UNL     1       6.045   1.074  -0.247  1.00  0.00    -0.015 C 
HETATM   12  C1  UNL     1       7.246   0.134  -0.444  1.00  0.00     0.010 C 
HETATM   13  C16 UNL     1       5.337   0.656   0.975  1.00  0.00     0.034 C 
HETATM   14  C15 UNL     1       3.873   0.341   0.836  1.00  0.00     0.272 C 
ENDBRANCH   7   8
ENDBRANCH   6   7
ENDBRANCH   5   6
ENDBRANCH   3   5
ENDBRANCH   1   3
BRANCH   1  15
HETATM   15  N3  UNL     1      -2.931  -0.255   1.054  1.00  0.00    -0.361 N 
ATOM     16  H3  UNL     1      -3.226  -0.018   2.001  1.00  0.00     0.162 HD
BRANCH  15  17
HETATM   17  C9  UNL     1      -3.895  -0.052  -0.047  1.00  0.00     0.103 C 
HETATM   18  C10 UNL     1      -4.396  -1.371  -0.468  1.00  0.00     0.056 C 
HETATM   19  C11 UNL     1      -5.867  -1.491  -0.759  1.00  0.00     0.176 C 
HETATM   20 CL1  UNL     1      -6.685  -2.437   0.496  1.00  0.00    -0.115 Cl
HETATM   21  C12 UNL     1      -6.528  -0.199  -0.941  1.00  0.00     0.238 C 
HETATM   22  O1  UNL     1      -7.448  -0.074  -1.786  1.00  0.00    -0.272 OA
HETATM   23  N4  UNL     1      -6.154   0.929  -0.179  1.00  0.00    -0.353 N 
HETATM   24  C13 UNL     1      -7.043   2.072   0.034  1.00  0.00     0.152 C 
HETATM   25  C14 UNL     1      -4.854   0.973   0.424  1.00  0.00     0.150 C 
ENDBRANCH  15  17
ENDBRANCH   1  15
TORSDOF 7
