REMARK  9 active torsions:
REMARK  status: ('A' for Active; 'I' for Inactive)
REMARK    1  A    between atoms: C3_5  and  C4_6 
REMARK    2  A    between atoms: C4_6  and  N2_7 
REMARK    3  A    between atoms: N2_7  and  N3_9 
REMARK    4  A    between atoms: N3_9  and  N4_10 
REMARK    5  A    between atoms: C9_20  and  N6_21 
REMARK       I    between atoms: N6_21  and  C10_23 
REMARK    6  A    between atoms: C10_23  and  C11_25 
REMARK    7  A    between atoms: C11_25  and  C12_26 
REMARK    8  A    between atoms: C13_28  and  N7_29 
REMARK    9  A    between atoms: N7_29  and  N8_30 
ROOT
HETATM    1  C1  UNL     1      -0.489  -0.911   2.021  1.00  0.00     0.360 C 
HETATM    2  N1  UNL     1      -1.257  -0.197   1.013  1.00  0.00     0.052 N 
HETATM    3  O1  UNL     1      -1.025   1.136   1.256  1.00  0.00    -0.062 OA
HETATM    4  C2  UNL     1      -2.643  -0.526   1.256  1.00  0.00     0.323 C 
HETATM    5  C3  UNL     1      -3.558  -0.208   0.134  1.00  0.00     0.066 C 
HETATM    6  C5  UNL     1      -2.967  -0.376  -1.229  1.00  0.00     0.245 C 
HETATM    7  N5  UNL     1      -1.795  -1.228  -1.098  1.00  0.00    -0.025 N 
ATOM      8  H51 UNL     1      -1.432  -1.562  -1.991  1.00  0.00     0.281 HD
ATOM      9  H52 UNL     1      -1.999  -2.144  -0.698  1.00  0.00     0.281 HD
HETATM   10  C6  UNL     1      -0.822  -0.455  -0.323  1.00  0.00     0.396 C 
HETATM   11  C7  UNL     1      -0.614   0.840  -1.120  1.00  0.00     0.090 C 
HETATM   12  C8  UNL     1       0.838   1.196  -0.971  1.00  0.00     0.038 C 
HETATM   13  C9  UNL     1       1.522  -0.157  -0.943  1.00  0.00     0.152 C 
HETATM   14  C13 UNL     1       0.518  -1.087  -0.408  1.00  0.00     0.181 C 
ENDROOT
BRANCH  14  15
HETATM   15  N7  UNL     1       0.750  -2.266  -0.063  1.00  0.00    -0.335 NA
BRANCH  15  16
HETATM   16  N8  UNL     1       1.029  -3.479   0.054  1.00  0.00    -0.280 N 
ATOM     17  H82 UNL     1       1.210  -3.523  -0.949  1.00  0.00     0.191 HD
ATOM     18  H81 UNL     1       1.218  -4.441   0.335  1.00  0.00     0.191 HD
ENDBRANCH  15  16
ENDBRANCH  14  15
BRANCH  13  19
HETATM   19  N6  UNL     1       2.693  -0.030  -0.096  1.00  0.00    -0.350 N 
HETATM   20  C10 UNL     1       4.003  -0.264  -0.524  1.00  0.00     0.219 C 
HETATM   21  O2  UNL     1       4.196  -0.606  -1.715  1.00  0.00    -0.274 OA
ATOM     22  H6  UNL     1       2.551   0.248   0.875  1.00  0.00     0.163 HD
BRANCH  20  23
HETATM   23  C11 UNL     1       5.127  -0.103   0.430  1.00  0.00     0.117 C 
BRANCH  23  24
HETATM   24  C12 UNL     1       6.417  -0.417  -0.297  1.00  0.00     0.124 C 
HETATM   25 CL1  UNL     1       7.819  -0.250   0.770  1.00  0.00    -0.130 Cl
ENDBRANCH  23  24
ENDBRANCH  20  23
ENDBRANCH  13  19
BRANCH   5  26
HETATM   26  C4  UNL     1      -4.172   1.169   0.345  1.00  0.00     0.164 C 
BRANCH  26  27
HETATM   27  N2  UNL     1      -5.069   1.482  -0.752  1.00  0.00    -0.252 N 
ATOM     28  H2  UNL     1      -5.437   0.714  -1.314  1.00  0.00     0.196 HD
BRANCH  27  29
HETATM   29  N3  UNL     1      -5.405   2.627  -1.035  1.00  0.00    -0.249 NA
BRANCH  29  30
HETATM   30  N4  UNL     1      -5.557   3.830  -1.200  1.00  0.00    -0.261 N 
ATOM     31  H42 UNL     1      -4.712   3.997  -0.653  1.00  0.00     0.193 HD
ATOM     32  H41 UNL     1      -5.836   4.782  -1.435  1.00  0.00     0.193 HD
ENDBRANCH  29  30
ENDBRANCH  27  29
ENDBRANCH  26  27
ENDBRANCH   5  26
TORSDOF 9
