REMARK  6 active torsions:
REMARK  status: ('A' for Active; 'I' for Inactive)
REMARK    1  A    between atoms: N3_4  and  N4_6 
REMARK    2  A    between atoms: C2_8  and  C3_9 
REMARK    3  A    between atoms: C4_10  and  O1_11 
REMARK    4  A    between atoms: C6_17  and  N6_18 
REMARK    5  A    between atoms: N6_18  and  N7_20 
REMARK    6  A    between atoms: N7_20  and  S1_22 
ROOT
HETATM    1  C3  UNL     1      -0.526   0.404   0.433  1.00  0.00     0.100 C 
HETATM    2  C4  UNL     1      -0.151  -0.178  -0.755  1.00  0.00     0.160 C 
HETATM    3  N5  UNL     1       1.028  -0.800  -1.029  1.00  0.00    -0.300 N 
ATOM      4  H5  UNL     1       1.029  -1.370  -1.875  1.00  0.00     0.171 HD
HETATM    5  C5  UNL     1       2.198  -0.779  -0.352  1.00  0.00     0.293 C 
HETATM    6  O2  UNL     1       3.187  -1.383  -0.879  1.00  0.00    -0.264 OA
HETATM    7  C6  UNL     1       2.490  -0.194   0.845  1.00  0.00     0.193 C 
HETATM    8  N8  UNL     1       1.586   0.454   1.634  1.00  0.00    -0.303 N 
ATOM      9  H8  UNL     1       2.003   0.903   2.449  1.00  0.00     0.171 HD
HETATM   10  C7  UNL     1       0.274   0.616   1.552  1.00  0.00     0.263 C 
HETATM   11  O6  UNL     1      -0.359   1.001   2.564  1.00  0.00    -0.267 OA
ENDROOT
BRANCH   1  12
HETATM   12  C2  UNL     1      -1.900   0.826   0.491  1.00  0.00     0.128 C 
HETATM   13  N4  UNL     1      -2.695   0.661  -0.504  1.00  0.00    -0.309 N 
ATOM     14  H4  UNL     1      -2.328   0.218  -1.346  1.00  0.00     0.186 HD
BRANCH  13  15
HETATM   15  N3  UNL     1      -4.030   1.053  -0.496  1.00  0.00    -0.276 N 
HETATM   16  C1  UNL     1      -4.945   0.198  -0.230  1.00  0.00     0.215 C 
HETATM   17  N1  UNL     1      -6.295   0.655  -0.237  1.00  0.00    -0.065 NA
HETATM   18  N2  UNL     1      -4.582  -1.144   0.055  1.00  0.00    -0.065 NA
ATOM     19  H3  UNL     1      -4.279   2.020  -0.702  1.00  0.00     0.189 HD
ENDBRANCH  13  15
ENDBRANCH   1  12
BRANCH   2  20
HETATM   20  O1  UNL     1      -1.083  -0.124  -1.794  1.00  0.00    -0.345 OA
ATOM     21  H1  UNL     1      -0.824  -0.526  -2.615  1.00  0.00     0.219 HD
ENDBRANCH   2  20
BRANCH   7  22
HETATM   22  N6  UNL     1       3.663  -0.212   1.326  1.00  0.00    -0.269 N 
ATOM     23  H6  UNL     1       3.790   0.250   2.226  1.00  0.00     0.189 HD
BRANCH  22  24
HETATM   24  N7  UNL     1       4.778  -0.782   0.773  1.00  0.00    -0.206 N 
ATOM     25  H7  UNL     1       4.909  -1.792   0.827  1.00  0.00     0.202 HD
BRANCH  24  26
HETATM   26  S1  UNL     1       5.958   0.189  -0.012  1.00  0.00     0.223 S 
HETATM   27  O3  UNL     1       5.381   1.455  -0.572  1.00  0.00    -0.577 OA
HETATM   28  O4  UNL     1       6.681  -0.574  -1.094  1.00  0.00    -0.577 OA
HETATM   29  O5  UNL     1       7.085   0.643   1.177  1.00  0.00    -0.577 OA
ENDBRANCH  24  26
ENDBRANCH  22  24
ENDBRANCH   7  22
TORSDOF 6
