REMARK  8 active torsions:
REMARK  status: ('A' for Active; 'I' for Inactive)
REMARK    1  A    between atoms: N1_2  and  C2_4 
REMARK    2  A    between atoms: C3_5  and  C4_6 
REMARK       I    between atoms: C4_6  and  N2_8 
REMARK    3  A    between atoms: N2_8  and  C5_10 
REMARK    4  A    between atoms: C5_10  and  C6_11 
REMARK    5  A    between atoms: C5_10  and  C7_14 
REMARK    6  A    between atoms: C7_14  and  O3_15 
REMARK    7  A    between atoms: C7_14  and  O4_17 
REMARK    8  A    between atoms: N7_27  and  O6_28 
ROOT
HETATM    1  C2  UNL     1      -1.715  -0.256  -0.898  1.00  0.00     0.166 C 
HETATM    2  C3  UNL     1      -1.260   0.739  -0.028  1.00  0.00     0.120 C 
HETATM    3  C8  UNL     1      -1.991   1.877   0.339  1.00  0.00     0.140 C 
HETATM    4  N4  UNL     1      -1.644   2.462   1.577  1.00  0.00    -0.081 NA
HETATM    5  N5  UNL     1      -2.990   2.467  -0.375  1.00  0.00    -0.295 N 
ATOM      6  H5  UNL     1      -3.364   3.332   0.016  1.00  0.00     0.172 HD
HETATM    7  C9  UNL     1      -3.549   2.055  -1.534  1.00  0.00     0.342 C 
HETATM    8  O5  UNL     1      -4.480   2.801  -1.938  1.00  0.00    -0.245 OA
HETATM    9  N6  UNL     1      -3.256   0.977  -2.305  1.00  0.00    -0.223 N 
ATOM     10  H6  UNL     1      -3.720   0.934  -3.212  1.00  0.00     0.194 HD
HETATM   11  N7  UNL     1      -2.423  -0.045  -2.013  1.00  0.00    -0.141 N 
ENDROOT
BRANCH   2  12
HETATM   12  C4  UNL     1       0.020   0.625   0.578  1.00  0.00     0.259 C 
HETATM   13  O1  UNL     1       0.345   1.517   1.431  1.00  0.00    -0.267 OA
HETATM   14  N2  UNL     1       0.996  -0.370   0.345  1.00  0.00    -0.339 N 
ATOM     15  H2  UNL     1       0.816  -1.115  -0.328  1.00  0.00     0.163 HD
BRANCH  14  16
HETATM   16  C5  UNL     1       2.267  -0.329   1.073  1.00  0.00     0.229 C 
BRANCH  16  17
HETATM   17  C6  UNL     1       2.465  -1.568   1.870  1.00  0.00     0.258 C 
HETATM   18  N3  UNL     1       3.609  -1.790   2.666  1.00  0.00    -0.060 NA
HETATM   19  O2  UNL     1       1.545  -2.442   1.807  1.00  0.00    -0.274 OA
ENDBRANCH  16  17
BRANCH  16  20
HETATM   20  C7  UNL     1       3.432  -0.208   0.124  1.00  0.00     0.285 C 
BRANCH  20  21
HETATM   21  O3  UNL     1       3.494  -1.279  -0.762  1.00  0.00    -0.369 OA
ATOM     22  H3  UNL     1       4.228  -1.203  -1.360  1.00  0.00     0.212 HD
ENDBRANCH  20  21
BRANCH  20  23
HETATM   23  O4  UNL     1       3.447   1.009  -0.539  1.00  0.00    -0.369 OA
ATOM     24  H4  UNL     1       4.181   1.085  -1.137  1.00  0.00     0.212 HD
ENDBRANCH  20  23
ENDBRANCH  16  20
ENDBRANCH  14  16
ENDBRANCH   2  12
BRANCH   1  25
HETATM   25  N1  UNL     1      -1.438  -1.425  -0.585  1.00  0.00    -0.377 N 
HETATM   26  C1  UNL     1      -1.711  -2.674  -1.186  1.00  0.00     0.148 C 
ATOM     27  H1  UNL     1      -0.905  -1.499   0.282  1.00  0.00     0.160 HD
ENDBRANCH   1  25
BRANCH  11  28
HETATM   28  O6  UNL     1      -2.332  -0.865  -2.920  1.00  0.00    -0.266 OA
ATOM     29  H6  UNL     1      -2.835  -0.715  -3.712  1.00  0.00     0.247 HD
ENDBRANCH  11  28
TORSDOF 8
