REMARK  7 active torsions:
REMARK  status: ('A' for Active; 'I' for Inactive)
REMARK    1  A    between atoms: N1_1  and  N2_4 
REMARK    2  A    between atoms: N2_4  and  C1_5 
REMARK    3  A    between atoms: C2_13  and  N5_14 
REMARK       I    between atoms: N5_14  and  C3_16 
REMARK    4  A    between atoms: C3_16  and  C4_18 
REMARK    5  A    between atoms: C4_18  and  C5_19 
REMARK    6  A    between atoms: C5_19  and  N6_20 
REMARK    7  A    between atoms: C5_19  and  C7_25 
REMARK       I    between atoms: N6_20  and  C6_22 
ROOT
HETATM    1  N5  UNL     1      -0.926   1.135  -0.730  1.00  0.00    -0.313 N 
ATOM      2  H5  UNL     1      -0.985   2.151  -0.801  1.00  0.00     0.170 HD
HETATM    3  C3  UNL     1       0.343   0.557  -0.681  1.00  0.00     0.225 C 
HETATM    4  O3  UNL     1       0.558  -0.668  -0.589  1.00  0.00    -0.273 OA
ENDROOT
BRANCH   1   5
HETATM    5  C2  UNL     1      -2.169   0.384  -0.687  1.00  0.00     0.136 C 
HETATM    6  C1  UNL     1      -2.277  -1.072  -0.610  1.00  0.00     0.276 C 
HETATM    7  N3  UNL     1      -3.515  -1.540  -1.202  1.00  0.00    -0.275 N 
HETATM    8  S1  UNL     1      -4.543  -0.259  -0.654  1.00  0.00     0.322 S 
ATOM      9  H3  UNL     1      -3.717  -2.366  -1.765  1.00  0.00     0.176 HD
HETATM   10  O1  UNL     1      -5.085  -0.493   0.695  1.00  0.00    -0.182 OA
HETATM   11  O2  UNL     1      -5.599  -0.069  -1.699  1.00  0.00    -0.182 OA
HETATM   12  N4  UNL     1      -3.343   0.975  -0.719  1.00  0.00    -0.253 N 
ATOM     13  H4  UNL     1      -3.512   1.979  -0.772  1.00  0.00     0.181 HD
BRANCH   6  14
HETATM   14  N2  UNL     1      -2.138  -1.530   0.755  1.00  0.00    -0.114 NA
BRANCH  14  15
HETATM   15  N1  UNL     1      -2.133  -2.909   0.816  1.00  0.00    -0.346 N 
ATOM     16  H12 UNL     1      -2.217  -3.512  -0.003  1.00  0.00     0.172 HD
ATOM     17  H11 UNL     1      -2.035  -3.232   1.779  1.00  0.00     0.172 HD
ENDBRANCH  14  15
ENDBRANCH   6  14
ENDBRANCH   1   5
BRANCH   3  18
HETATM   18  C4  UNL     1       1.540   1.442  -0.742  1.00  0.00     0.139 C 
BRANCH  18  19
HETATM   19  C5  UNL     1       2.837   0.692  -0.550  1.00  0.00     0.195 C 
BRANCH  19  20
HETATM   20  N6  UNL     1       2.952   0.081   0.729  1.00  0.00    -0.330 N 
HETATM   21  C6  UNL     1       2.227   0.390   1.872  1.00  0.00     0.329 C 
HETATM   22  N7  UNL     1       2.447  -0.346   3.111  1.00  0.00    -0.040 NA
HETATM   23  O4  UNL     1       1.355   1.277   1.974  1.00  0.00    -0.251 OA
ATOM     24  H6  UNL     1       3.642  -0.665   0.816  1.00  0.00     0.164 HD
ENDBRANCH  19  20
BRANCH  19  25
HETATM   25  C7  UNL     1       4.001   1.477  -0.988  1.00  0.00     0.197 C 
HETATM   26  O5  UNL     1       5.035   1.600  -0.284  1.00  0.00    -0.646 OA
HETATM   27  O6  UNL     1       3.986   2.115  -2.216  1.00  0.00    -0.646 OA
ENDBRANCH  19  25
ENDBRANCH  18  19
ENDBRANCH   3  18
TORSDOF 7
