REMARK  5 active torsions:
REMARK  status: ('A' for Active; 'I' for Inactive)
REMARK    1  A    between atoms: C2_3  and  C3_4 
REMARK    2  A    between atoms: C3_4  and  C4_5 
REMARK    3  A    between atoms: C4_5  and  N2_6 
REMARK    4  A    between atoms: C10_24  and  N7_25 
REMARK    5  A    between atoms: N7_25  and  N8_27 
ROOT
HETATM    1  N2  UNL     1       1.072   0.037   0.677  1.00  0.00    -0.352 N 
ATOM      2  H2  UNL     1       0.475   0.569   0.044  1.00  0.00     0.166 HD
HETATM    3  C5  UNL     1       2.239   0.427   0.667  1.00  0.00     0.153 C 
HETATM    4  N3  UNL     1       2.542   1.490  -0.177  1.00  0.00    -0.291 N 
ATOM      5  H3  UNL     1       1.777   2.129  -0.395  1.00  0.00     0.172 HD
HETATM    6  C6  UNL     1       3.742   1.771  -0.742  1.00  0.00     0.329 C 
HETATM    7  O1  UNL     1       3.764   2.825  -1.429  1.00  0.00    -0.246 OA
HETATM    8  N4  UNL     1       4.891   1.091  -0.670  1.00  0.00    -0.260 N 
ATOM      9  H4  UNL     1       5.647   1.427  -1.266  1.00  0.00     0.175 HD
HETATM   10  C7  UNL     1       5.172   0.021   0.090  1.00  0.00     0.329 C 
HETATM   11  O2  UNL     1       6.280  -0.553  -0.093  1.00  0.00    -0.246 OA
HETATM   12  N5  UNL     1       4.429  -0.573   1.067  1.00  0.00    -0.292 N 
ATOM     13  H5  UNL     1       4.844  -1.377   1.538  1.00  0.00     0.172 HD
HETATM   14  C8  UNL     1       3.178  -0.193   1.477  1.00  0.00     0.148 C 
HETATM   15  N6  UNL     1       2.892  -0.408   2.704  1.00  0.00    -0.382 N 
ATOM     16  H61 UNL     1       3.583  -0.864   3.300  1.00  0.00     0.157 HD
ATOM     17  H62 UNL     1       1.961  -0.125   3.009  1.00  0.00     0.157 HD
ENDROOT
BRANCH   1  18
HETATM   18  C4  UNL     1       0.372  -0.972   1.359  1.00  0.00     0.068 C 
BRANCH  18  19
HETATM   19  C3  UNL     1      -0.674  -1.663   0.508  1.00  0.00     0.102 C 
BRANCH  19  20
HETATM   20  C2  UNL     1      -1.746  -0.800   0.010  1.00  0.00     0.024 A 
HETATM   21  N1  UNL     1      -2.678  -1.317  -0.823  1.00  0.00    -0.307 N 
HETATM   22  C1  UNL     1      -2.547  -2.713  -1.187  1.00  0.00     0.161 C 
HETATM   23  C11 UNL     1      -3.700  -0.600  -1.315  1.00  0.00     0.328 A 
HETATM   24  N9  UNL     1      -3.843   0.697  -0.992  1.00  0.00    -0.293 N 
HETATM   25  O3  UNL     1      -4.558  -1.128  -2.099  1.00  0.00    -0.246 OA
HETATM   26  C10 UNL     1      -2.959   1.280  -0.171  1.00  0.00     0.125 A 
ATOM     27  H9  UNL     1      -4.622   1.236  -1.371  1.00  0.00     0.172 HD
HETATM   28  C9  UNL     1      -1.896   0.526   0.339  1.00  0.00     0.075 A 
BRANCH  26  29
HETATM   29  N7  UNL     1      -3.103   2.522   0.134  1.00  0.00    -0.292 N 
ATOM     30  H7  UNL     1      -2.432   2.970   0.759  1.00  0.00     0.188 HD
BRANCH  29  31
HETATM   31  N8  UNL     1      -4.167   3.262  -0.381  1.00  0.00    -0.344 N 
ATOM     32  H82 UNL     1      -4.829   2.799  -1.004  1.00  0.00     0.176 HD
ATOM     33  H81 UNL     1      -4.281   4.246  -0.139  1.00  0.00     0.176 HD
ENDBRANCH  29  31
ENDBRANCH  26  29
ENDBRANCH  19  20
ENDBRANCH  18  19
ENDBRANCH   1  18
TORSDOF 5
