REMARK  6 active torsions:
REMARK  status: ('A' for Active; 'I' for Inactive)
REMARK    1  A    between atoms: C2_3  and  N2_4 
REMARK    2  A    between atoms: N2_4  and  C3_6 
REMARK    3  A    between atoms: C3_6  and  C4_7 
REMARK    4  A    between atoms: C4_7  and  N3_8 
REMARK    5  A    between atoms: C8_20  and  N8_21 
REMARK    6  A    between atoms: N9_26  and  N10_27 
ROOT
HETATM    1  C1  UNL     1       0.017   1.178  -1.132  1.00  0.00     0.177 C 
HETATM    2  N1  UNL     1      -0.696   0.724   0.040  1.00  0.00    -0.168 N 
HETATM    3  C2  UNL     1      -0.286   0.504   1.306  1.00  0.00     0.682 A 
HETATM    4  N6  UNL     1      -1.363   0.045   2.057  1.00  0.00    -0.182 N 
ATOM      5  H6  UNL     1      -1.337  -0.200   3.047  1.00  0.00     0.184 HD
HETATM    6  C6  UNL     1      -2.426  -0.021   1.275  1.00  0.00     0.163 A 
HETATM    7  C7  UNL     1      -3.694  -0.445   1.660  1.00  0.00     0.278 C 
HETATM    8  O1  UNL     1      -3.917  -0.438   2.868  1.00  0.00    -0.265 OA
HETATM    9  N7  UNL     1      -4.685  -0.854   0.861  1.00  0.00    -0.303 N 
ATOM     10  H7  UNL     1      -5.536  -1.177   1.322  1.00  0.00     0.171 HD
HETATM   11  C8  UNL     1      -4.683  -0.887  -0.510  1.00  0.00     0.173 C 
HETATM   12  C9  UNL     1      -3.872  -0.252  -1.414  1.00  0.00     0.311 C 
HETATM   13  O2  UNL     1      -4.104  -0.354  -2.650  1.00  0.00    -0.262 OA
HETATM   14  N9  UNL     1      -2.792   0.511  -1.089  1.00  0.00    -0.204 N 
HETATM   15  C10 UNL     1      -2.013   0.405   0.012  1.00  0.00     0.180 A 
ENDROOT
BRANCH   3  16
HETATM   16  N2  UNL     1       0.841   0.679   1.792  1.00  0.00    -0.224 N 
ATOM     17  H2  UNL     1       0.791   0.409   2.774  1.00  0.00     0.177 HD
BRANCH  16  18
HETATM   18  C3  UNL     1       2.121   1.085   1.550  1.00  0.00     0.157 C 
BRANCH  18  19
HETATM   19  C4  UNL     1       2.981  -0.156   1.217  1.00  0.00     0.142 C 
BRANCH  19  20
HETATM   20  N3  UNL     1       4.339   0.202   0.952  1.00  0.00    -0.365 N 
HETATM   21  C5  UNL     1       5.077  -0.631   0.304  1.00  0.00     0.197 C 
HETATM   22  N4  UNL     1       4.586  -1.885  -0.151  1.00  0.00    -0.067 NA
HETATM   23  N5  UNL     1       6.425  -0.286   0.037  1.00  0.00    -0.067 NA
ATOM     24  H3  UNL     1       4.715   1.096   1.269  1.00  0.00     0.161 HD
ENDBRANCH  19  20
ENDBRANCH  18  19
ENDBRANCH  16  18
ENDBRANCH   3  16
BRANCH  14  25
HETATM   25  N10 UNL     1      -2.448   1.520  -1.970  1.00  0.00    -0.334 N 
ATOM     26 2H10 UNL     1      -3.035   1.600  -2.800  1.00  0.00     0.177 HD
ATOM     27 1H10 UNL     1      -1.639   2.092  -1.727  1.00  0.00     0.177 HD
ENDBRANCH  14  25
BRANCH  11  28
HETATM   28  N8  UNL     1      -5.593  -1.636  -1.037  1.00  0.00    -0.381 N 
ATOM     29  H82 UNL     1      -6.197  -2.109  -0.364  1.00  0.00     0.157 HD
ATOM     30  H81 UNL     1      -5.592  -1.661  -2.057  1.00  0.00     0.157 HD
ENDBRANCH  11  28
TORSDOF 6
