REMARK  12 active torsions:
REMARK  status: ('A' for Active; 'I' for Inactive)
REMARK    1  A    between atoms: N1_2  and  C2_4 
REMARK    2  A    between atoms: C2_4  and  N2_6 
REMARK    3  A    between atoms: N2_6  and  C3_8 
REMARK    4  A    between atoms: C3_8  and  C4_9 
REMARK    5  A    between atoms: C3_8  and  C7_13 
REMARK    6  A    between atoms: C4_9  and  C5_10 
REMARK    7  A    between atoms: C5_10  and  C6_11 
REMARK    8  A    between atoms: C7_13  and  O1_14 
REMARK    9  A    between atoms: N3_16  and  C8_18 
REMARK   10  A    between atoms: C8_18  and  C9_19 
REMARK   11  A    between atoms: C9_19  and  N4_20 
REMARK   12  A    between atoms: C14_25  and  O2_26 
ROOT
HETATM    1  C7  UNL     1       2.286  -0.190   0.083  1.00  0.00     0.134 C 
HETATM    2  N3  UNL     1       1.307   0.082  -0.686  1.00  0.00    -0.371 N 
ATOM      3  H3  UNL     1       1.501   0.288  -1.666  1.00  0.00     0.161 HD
ENDROOT
BRANCH   2   4
HETATM    4  C8  UNL     1      -0.071   0.112  -0.232  1.00  0.00     0.149 C 
BRANCH   4   5
HETATM    5  C9  UNL     1      -0.938  -0.314  -1.380  1.00  0.00     0.259 C 
BRANCH   5   6
HETATM    6  N4  UNL     1      -2.340  -0.333  -1.079  1.00  0.00    -0.038 N 
HETATM    7  C10 UNL     1      -3.016  -0.528  -2.374  1.00  0.00     0.275 C 
HETATM    8  C11 UNL     1      -2.587  -1.479  -0.213  1.00  0.00     0.272 C 
HETATM    9  C12 UNL     1      -3.349  -0.872   0.972  1.00  0.00     0.216 C 
HETATM   10  C13 UNL     1      -4.803  -0.855   0.573  1.00  0.00     0.067 C 
HETATM   11  N5  UNL     1      -2.914   0.504   1.016  1.00  0.00    -0.039 N 
HETATM   12  C14 UNL     1      -5.266   0.432   0.004  1.00  0.00     0.127 C 
HETATM   13  C15 UNL     1      -4.251   1.183  -0.801  1.00  0.00     0.069 C 
HETATM   14  C16 UNL     1      -4.404   2.663  -0.433  1.00  0.00     0.016 C 
HETATM   15  C17 UNL     1      -2.816   0.822  -0.388  1.00  0.00     0.393 C 
ATOM     16  H52 UNL     1      -3.505   1.130   1.563  1.00  0.00     0.280 HD
ATOM     17  H51 UNL     1      -2.069   0.675   1.560  1.00  0.00     0.280 HD
BRANCH  12  18
HETATM   18  O2  UNL     1      -6.360   0.170  -0.839  1.00  0.00    -0.395 OA
ATOM     19  H2  UNL     1      -6.657   0.995  -1.204  1.00  0.00     0.210 HD
ENDBRANCH  12  18
ENDBRANCH   5   6
ENDBRANCH   4   5
ENDBRANCH   2   4
BRANCH   1  20
HETATM   20  C3  UNL     1       3.668  -0.201  -0.459  1.00  0.00     0.158 C 
BRANCH  20  21
HETATM   21  N2  UNL     1       4.607   0.415   0.396  1.00  0.00    -0.355 N 
ATOM     22  H2  UNL     1       5.324  -0.184   0.806  1.00  0.00     0.162 HD
BRANCH  21  23
HETATM   23  C2  UNL     1       4.643   1.766   0.730  1.00  0.00     0.167 C 
HETATM   24  S1  UNL     1       5.799   2.338   1.770  1.00  0.00    -0.041 SA
BRANCH  23  25
HETATM   25  N1  UNL     1       3.735   2.712   0.230  1.00  0.00    -0.372 N 
HETATM   26  C1  UNL     1       3.800   4.106   0.608  1.00  0.00     0.148 C 
ATOM     27  H1  UNL     1       3.009   2.408  -0.418  1.00  0.00     0.161 HD
ENDBRANCH  23  25
ENDBRANCH  21  23
ENDBRANCH  20  21
BRANCH  20  28
HETATM   28  C4  UNL     1       4.061  -1.643  -0.802  1.00  0.00     0.034 C 
BRANCH  28  29
HETATM   29  C5  UNL     1       4.170  -2.527   0.391  1.00  0.00     0.017 C 
BRANCH  29  30
HETATM   30  C6  UNL     1       4.563  -3.920  -0.109  1.00  0.00     0.115 C 
HETATM   31 CL1  UNL     1       4.719  -5.049   1.233  1.00  0.00    -0.130 Cl
ENDBRANCH  29  30
ENDBRANCH  28  29
ENDBRANCH  20  28
ENDBRANCH   1  20
BRANCH   1  32
HETATM   32  O1  UNL     1       2.043  -0.476   1.407  1.00  0.00    -0.348 OA
ATOM     33  H1  UNL     1       1.159  -0.469   1.754  1.00  0.00     0.219 HD
ENDBRANCH   1  32
TORSDOF 12
