REMARK  10 active torsions:
REMARK  status: ('A' for Active; 'I' for Inactive)
REMARK       I    between atoms: C1_2  and  N1_3 
REMARK    1  A    between atoms: C1_2  and  C9_16 
REMARK    2  A    between atoms: N1_3  and  N2_5 
REMARK    3  A    between atoms: C2_7  and  C3_8 
REMARK    4  A    between atoms: C6_11  and  O2_12 
REMARK       I    between atoms: C9_16  and  N3_18 
REMARK    5  A    between atoms: N3_18  and  C10_20 
REMARK    6  A    between atoms: C12_29  and  C13_30 
REMARK    7  A    between atoms: C13_30  and  O5_31 
REMARK    8  A    between atoms: C13_30  and  C14_33 
REMARK    9  A    between atoms: C16_35  and  N7_36 
REMARK   10  A    between atoms: C18_40  and  N8_41 
ROOT
HETATM    1  C10 UNL     1      -1.310  -0.236  -1.849  1.00  0.00     0.206 C 
HETATM    2  C11 UNL     1      -1.660   0.640  -2.999  1.00  0.00     0.262 C 
HETATM    3  O4  UNL     1      -1.527   0.230  -4.179  1.00  0.00    -0.269 OA
HETATM    4  N4  UNL     1      -2.145   1.941  -2.691  1.00  0.00    -0.254 N 
ATOM      5  H4  UNL     1      -2.135   2.649  -3.425  1.00  0.00     0.191 HD
HETATM    6  N5  UNL     1      -2.632   2.293  -1.436  1.00  0.00    -0.244 N 
ATOM      7  H5  UNL     1      -3.167   3.146  -1.275  1.00  0.00     0.208 HD
HETATM    8  N6  UNL     1      -2.339   1.410  -0.436  1.00  0.00    -0.312 N 
ATOM      9  H6  UNL     1      -2.125   1.724   0.511  1.00  0.00     0.182 HD
HETATM   10  C12 UNL     1      -2.347   0.031  -0.781  1.00  0.00     0.166 C 
ENDROOT
BRANCH   1  11
HETATM   11  N3  UNL     1      -0.014   0.139  -1.287  1.00  0.00    -0.337 N 
HETATM   12  C9  UNL     1       1.043  -0.814  -1.227  1.00  0.00     0.311 C 
HETATM   13  O3  UNL     1       0.871  -1.978  -1.653  1.00  0.00    -0.262 OA
ATOM     14  H3  UNL     1       0.134   1.086  -0.937  1.00  0.00     0.163 HD
BRANCH  12  15
HETATM   15  C1  UNL     1       2.330  -0.454  -0.673  1.00  0.00     0.327 C 
HETATM   16  O1  UNL     1       2.506   0.718  -0.237  1.00  0.00    -0.261 OA
HETATM   17  N1  UNL     1       3.417  -1.363  -0.596  1.00  0.00    -0.262 N 
ATOM     18  H1  UNL     1       3.256  -2.305  -0.953  1.00  0.00     0.190 HD
BRANCH  17  19
HETATM   19  N2  UNL     1       4.662  -1.097  -0.088  1.00  0.00    -0.308 N 
HETATM   20  C2  UNL     1       5.337  -0.024  -0.178  1.00  0.00     0.118 C 
ATOM     21  H2  UNL     1       5.103  -1.858   0.429  1.00  0.00     0.186 HD
BRANCH  20  22
HETATM   22  C3  UNL     1       6.663   0.144   0.409  1.00  0.00    -0.019 A 
HETATM   23  C4  UNL     1       7.235  -0.894   1.098  1.00  0.00     0.015 A 
HETATM   24  C5  UNL     1       8.503  -0.779   1.676  1.00  0.00     0.037 A 
HETATM   25  C6  UNL     1       9.188   0.419   1.543  1.00  0.00     0.065 A 
HETATM   26  C7  UNL     1       8.625   1.482   0.849  1.00  0.00     0.037 A 
HETATM   27  C8  UNL     1       7.358   1.327   0.286  1.00  0.00     0.015 A 
BRANCH  25  28
HETATM   28  O2  UNL     1      10.457   0.547   2.117  1.00  0.00    -0.361 OA
ATOM     29  H2  UNL     1      10.926   1.368   2.026  1.00  0.00     0.217 HD
ENDBRANCH  25  28
ENDBRANCH  20  22
ENDBRANCH  17  19
ENDBRANCH  12  15
ENDBRANCH   1  11
BRANCH  10  30
HETATM   30  C13 UNL     1      -3.709  -0.472  -1.198  1.00  0.00     0.178 C 
BRANCH  30  31
HETATM   31  O5  UNL     1      -3.581  -1.845  -1.510  1.00  0.00    -0.389 OA
ATOM     32  H5  UNL     1      -4.438  -2.161  -1.772  1.00  0.00     0.210 HD
ENDBRANCH  30  31
BRANCH  30  33
HETATM   33  C14 UNL     1      -4.689  -0.395  -0.088  1.00  0.00    -0.023 A 
HETATM   34  C15 UNL     1      -5.711   0.509  -0.056  1.00  0.00     0.046 A 
HETATM   35  C16 UNL     1      -6.580   0.530   0.997  1.00  0.00     0.105 A 
HETATM   36  C17 UNL     1      -6.445  -0.355   2.043  1.00  0.00     0.072 A 
HETATM   37  C18 UNL     1      -5.422  -1.281   2.040  1.00  0.00     0.105 A 
HETATM   38  C19 UNL     1      -4.547  -1.285   0.958  1.00  0.00     0.046 A 
BRANCH  35  39
HETATM   39  N7  UNL     1      -7.636   1.483   1.004  1.00  0.00    -0.116 N 
HETATM   40  O6  UNL     1      -7.804   2.305   0.083  1.00  0.00    -0.532 OA
HETATM   41  O7  UNL     1      -8.514   1.512   2.057  1.00  0.00    -0.532 OA
ENDBRANCH  35  39
BRANCH  37  42
HETATM   42  N8  UNL     1      -5.268  -2.202   3.112  1.00  0.00    -0.116 N 
HETATM   43  O8  UNL     1      -4.351  -3.028   3.107  1.00  0.00    -0.532 OA
HETATM   44  O9  UNL     1      -6.138  -2.175   4.156  1.00  0.00    -0.532 OA
ENDBRANCH  37  42
ENDBRANCH  30  33
ENDBRANCH  10  30
TORSDOF 10
