REMARK  13 active torsions:
REMARK  status: ('A' for Active; 'I' for Inactive)
REMARK    1  A    between atoms: O1_2  and  C2_3 
REMARK    2  A    between atoms: C3_4  and  O2_5 
REMARK    3  A    between atoms: C4_7  and  C5_8 
REMARK    4  A    between atoms: C5_8  and  N1_9 
REMARK    5  A    between atoms: C8_14  and  N2_15 
REMARK    6  A    between atoms: N2_15  and  C9_17 
REMARK    7  A    between atoms: C9_17  and  C10_18 
REMARK    8  A    between atoms: C10_18  and  N3_19 
REMARK    9  A    between atoms: N4_25  and  C12_26 
REMARK   10  A    between atoms: C13_29  and  N6_30 
REMARK   11  A    between atoms: C18_39  and  N9_40 
REMARK   12  A    between atoms: N9_40  and  C19_42 
REMARK   13  A    between atoms: C23_48  and  O4_49 
ROOT
HETATM    1  C2  UNL     1      -1.227  -3.118   0.572  1.00  0.00     0.138 A 
HETATM    2  C3  UNL     1      -2.577  -3.168   0.423  1.00  0.00     0.114 A 
HETATM    3  C4  UNL     1      -3.314  -1.989   0.101  1.00  0.00     0.028 A 
HETATM    4  C6  UNL     1      -2.600  -0.829  -0.045  1.00  0.00     0.011 A 
HETATM    5  C7  UNL     1      -3.227   0.359  -0.355  1.00  0.00     0.050 A 
HETATM    6  C8  UNL     1      -2.476   1.505  -0.495  1.00  0.00     0.099 A 
HETATM    7  C11 UNL     1      -1.139   1.487  -0.333  1.00  0.00     0.293 A 
HETATM    8  O3  UNL     1      -0.469   2.564  -0.468  1.00  0.00    -0.265 OA
HETATM    9  N4  UNL     1      -0.480   0.336  -0.026  1.00  0.00    -0.104 N 
HETATM   10  C22 UNL     1      -1.190  -0.792   0.114  1.00  0.00     0.107 A 
HETATM   11  C23 UNL     1      -0.516  -1.946   0.423  1.00  0.00     0.131 A 
ENDROOT
BRANCH   9  12
HETATM   12  C12 UNL     1       0.918   0.477   0.111  1.00  0.00     0.721 A 
HETATM   13  N5  UNL     1       1.695   0.340  -0.978  1.00  0.00    -0.021 N 
HETATM   14  C13 UNL     1       3.032   0.498  -0.934  1.00  0.00     0.709 A 
ATOM     15  H5  UNL     1       1.256   0.108  -1.869  1.00  0.00     0.203 HD
HETATM   16  N8  UNL     1       3.614   0.803   0.245  1.00  0.00    -0.021 N 
HETATM   17  C18 UNL     1       2.866   0.946   1.352  1.00  0.00     0.707 A 
ATOM     18  H8  UNL     1       4.625   0.925   0.296  1.00  0.00     0.203 HD
HETATM   19  N10 UNL     1       1.515   0.781   1.278  1.00  0.00    -0.021 N 
ATOM     20  H10 UNL     1       0.948   0.890   2.119  1.00  0.00     0.203 HD
BRANCH  14  21
HETATM   21  N6  UNL     1       3.802   0.344  -2.102  1.00  0.00    -0.214 N 
HETATM   22  C14 UNL     1       3.165   0.015  -3.363  1.00  0.00     0.160 C 
HETATM   23  C15 UNL     1       3.841  -1.276  -3.844  1.00  0.00     0.134 C 
HETATM   24  N7  UNL     1       5.246  -1.058  -4.031  1.00  0.00    -0.418 N 
HETATM   25  C16 UNL     1       5.940  -0.599  -2.873  1.00  0.00     0.134 C 
ATOM     26  H7  UNL     1       5.713  -1.219  -4.923  1.00  0.00     0.153 HD
HETATM   27  C17 UNL     1       5.243   0.500  -2.124  1.00  0.00     0.160 C 
ENDBRANCH  14  21
BRANCH  17  28
HETATM   28  N9  UNL     1       3.460   1.236   2.449  1.00  0.00    -0.221 N 
ATOM     29  H9  UNL     1       4.474   1.341   2.414  1.00  0.00     0.178 HD
BRANCH  28  30
HETATM   30  C19 UNL     1       2.829   1.426   3.720  1.00  0.00     0.091 C 
HETATM   31  C20 UNL     1       3.698   2.232   4.673  1.00  0.00     0.032 C 
HETATM   32  C21 UNL     1       2.452   0.108   4.339  1.00  0.00     0.032 C 
ENDBRANCH  28  30
ENDBRANCH  17  28
ENDBRANCH   9  12
BRANCH   6  33
HETATM   33  N2  UNL     1      -3.176   2.705  -0.816  1.00  0.00    -0.384 N 
ATOM     34  H2  UNL     1      -2.639   3.566  -0.924  1.00  0.00     0.159 HD
BRANCH  33  35
HETATM   35  C9  UNL     1      -4.597   2.761  -0.995  1.00  0.00     0.147 C 
BRANCH  35  36
HETATM   36  C10 UNL     1      -4.987   4.182  -1.324  1.00  0.00     0.249 C 
BRANCH  36  37
HETATM   37  N3  UNL     1      -6.412   4.335  -1.522  1.00  0.00    -0.078 N 
ATOM     38  H33 UNL     1      -6.755   3.687  -2.231  1.00  0.00     0.274 HD
ATOM     39  H32 UNL     1      -6.933   3.989  -0.717  1.00  0.00     0.274 HD
ATOM     40  H31 UNL     1      -6.675   5.295  -1.744  1.00  0.00     0.274 HD
ENDBRANCH  36  37
ENDBRANCH  35  36
ENDBRANCH  33  35
ENDBRANCH   6  33
BRANCH  11  41
HETATM   41  O4  UNL     1       0.852  -1.972   0.590  1.00  0.00    -0.356 OA
ATOM     42  H4  UNL     1       1.342  -1.165   0.487  1.00  0.00     0.218 HD
ENDBRANCH  11  41
BRANCH   3  43
HETATM   43  C5  UNL     1      -4.744  -2.173  -0.041  1.00  0.00     0.095 C 
BRANCH  43  44
HETATM   44  N1  UNL     1      -5.605  -1.138  -0.337  1.00  0.00    -0.407 N 
ATOM     45  H12 UNL     1      -5.202  -0.209  -0.458  1.00  0.00     0.155 HD
ATOM     46  H11 UNL     1      -6.612  -1.268  -0.437  1.00  0.00     0.155 HD
ENDBRANCH  43  44
ENDBRANCH   3  43
BRANCH   1  47
HETATM   47  O1  UNL     1      -0.525  -4.274   0.885  1.00  0.00    -0.351 OA
HETATM   48  C1  UNL     1      -0.265  -4.695   2.207  1.00  0.00     0.210 C 
ENDBRANCH   1  47
BRANCH   2  49
HETATM   49  O2  UNL     1      -3.210  -4.381   0.591  1.00  0.00    -0.357 OA
ATOM     50  H2  UNL     1      -4.154  -4.416   0.487  1.00  0.00     0.217 HD
ENDBRANCH   2  49
TORSDOF 13
