REMARK  13 active torsions:
REMARK  status: ('A' for Active; 'I' for Inactive)
REMARK    1  A    between atoms: O1_2  and  C2_3 
REMARK    2  A    between atoms: C5_6  and  C6_7 
REMARK    3  A    between atoms: C7_12  and  C8_13 
REMARK    4  A    between atoms: C8_13  and  C9_14 
REMARK    5  A    between atoms: N3_16  and  C11_17 
REMARK    6  A    between atoms: C11_17  and  C12_18 
REMARK    7  A    between atoms: C12_18  and  C13_19 
REMARK       I    between atoms: C13_19  and  N4_21 
REMARK    8  A    between atoms: N4_21  and  C14_23 
REMARK    9  A    between atoms: C14_23  and  C15_24 
REMARK   10  A    between atoms: C16_27  and  N6_28 
REMARK   11  A    between atoms: N9_37  and  O4_38 
REMARK   12  A    between atoms: C18_42  and  O5_43 
REMARK   13  A    between atoms: C19_45  and  O6_46 
ROOT
HETATM    1  C9  UNL     1       0.601   1.104  -2.626  1.00  0.00     0.068 A 
HETATM    2  C10 UNL     1       1.047  -0.129  -2.233  1.00  0.00     0.129 A 
HETATM    3  N3  UNL     1       2.319   0.009  -1.751  1.00  0.00    -0.281 N 
HETATM    4  C17 UNL     1       2.638   1.286  -1.847  1.00  0.00     0.356 A 
HETATM    5  O3  UNL     1       3.688   1.920  -1.539  1.00  0.00    -0.244 OA
HETATM    6  N9  UNL     1       1.588   1.971  -2.384  1.00  0.00    -0.175 N 
ENDROOT
BRANCH   1   7
HETATM    7  C8  UNL     1      -0.697   1.450  -3.208  1.00  0.00     0.139 C 
BRANCH   7   8
HETATM    8  C7  UNL     1      -1.748   1.789  -2.217  1.00  0.00     0.103 A 
HETATM    9  N2  UNL     1      -2.066   2.978  -1.673  1.00  0.00    -0.287 N 
HETATM   10  N1  UNL     1      -3.090   2.804  -0.827  1.00  0.00    -0.283 N 
ATOM     11  H2  UNL     1      -1.604   3.865  -1.872  1.00  0.00     0.188 HD
HETATM   12  C6  UNL     1      -3.436   1.507  -0.821  1.00  0.00     0.134 A 
ATOM     13  H1  UNL     1      -3.535   3.538  -0.276  1.00  0.00     0.188 HD
HETATM   14  N10 UNL     1      -2.607   0.905  -1.673  1.00  0.00    -0.329 N 
ATOM     15  H10 UNL     1      -2.621  -0.093  -1.885  1.00  0.00     0.168 HD
BRANCH  12  16
HETATM   16  C5  UNL     1      -4.524   0.963  -0.008  1.00  0.00     0.045 A 
HETATM   17  C4  UNL     1      -5.267   1.785   0.806  1.00  0.00     0.021 A 
HETATM   18  C3  UNL     1      -6.303   1.269   1.576  1.00  0.00     0.041 A 
HETATM   19  C2  UNL     1      -6.627  -0.065   1.558  1.00  0.00     0.104 A 
HETATM   20  C19 UNL     1      -5.869  -0.894   0.730  1.00  0.00     0.135 A 
HETATM   21  C18 UNL     1      -4.843  -0.382  -0.032  1.00  0.00     0.116 A 
BRANCH  19  22
HETATM   22  O1  UNL     1      -7.630  -0.625   2.289  1.00  0.00    -0.353 OA
HETATM   23  C1  UNL     1      -8.470   0.072   3.157  1.00  0.00     0.210 C 
ENDBRANCH  19  22
BRANCH  20  24
HETATM   24  O6  UNL     1      -6.196  -2.238   0.713  1.00  0.00    -0.351 OA
HETATM   25  C20 UNL     1      -7.152  -2.673  -0.235  1.00  0.00     0.210 C 
ENDBRANCH  20  24
BRANCH  21  26
HETATM   26  O5  UNL     1      -4.080  -1.221  -0.867  1.00  0.00    -0.357 OA
ATOM     27  H5  UNL     1      -4.299  -2.145  -0.883  1.00  0.00     0.217 HD
ENDBRANCH  21  26
ENDBRANCH  12  16
ENDBRANCH   7   8
ENDBRANCH   1   7
BRANCH   6  28
HETATM   28  O4  UNL     1       1.531   3.328  -2.644  1.00  0.00    -0.279 OA
ATOM     29  H4  UNL     1       2.233   3.945  -2.472  1.00  0.00     0.245 HD
ENDBRANCH   6  28
BRANCH   3  30
HETATM   30  C11 UNL     1       3.135  -1.031  -1.244  1.00  0.00     0.106 C 
BRANCH  30  31
HETATM   31  C12 UNL     1       4.355  -0.901  -0.793  1.00  0.00     0.092 C 
BRANCH  31  32
HETATM   32  C13 UNL     1       5.115  -2.061  -0.286  1.00  0.00     0.246 C 
HETATM   33  O2  UNL     1       4.560  -3.180  -0.296  1.00  0.00    -0.268 OA
HETATM   34  N4  UNL     1       6.437  -1.961   0.206  1.00  0.00    -0.330 N 
ATOM     35  H4  UNL     1       7.199  -2.231  -0.416  1.00  0.00     0.168 HD
BRANCH  34  36
HETATM   36  C14 UNL     1       6.742  -1.551   1.389  1.00  0.00     0.141 C 
BRANCH  36  37
HETATM   37  C15 UNL     1       8.137  -1.484   1.801  1.00  0.00     0.151 A 
HETATM   38  N5  UNL     1       8.607  -1.074   3.009  1.00  0.00    -0.173 N 
HETATM   39  C16 UNL     1       9.947  -1.179   2.941  1.00  0.00     0.692 A 
ATOM     40  H5  UNL     1       8.056  -0.752   3.805  1.00  0.00     0.186 HD
HETATM   41  N7  UNL     1      10.300  -1.646   1.709  1.00  0.00    -0.131 N 
HETATM   42  N8  UNL     1       9.178  -1.822   1.039  1.00  0.00    -0.270 N 
ATOM     43  H7  UNL     1      11.246  -1.824   1.372  1.00  0.00     0.205 HD
ATOM     44  H8  UNL     1       9.116  -2.166   0.081  1.00  0.00     0.189 HD
BRANCH  39  45
HETATM   45  N6  UNL     1      10.784  -0.893   3.869  1.00  0.00    -0.233 N 
ATOM     46  H62 UNL     1      10.520  -0.544   4.790  1.00  0.00     0.174 HD
ATOM     47  H61 UNL     1      11.800  -0.973   3.817  1.00  0.00     0.174 HD
ENDBRANCH  39  45
ENDBRANCH  36  37
ENDBRANCH  34  36
ENDBRANCH  31  32
ENDBRANCH  30  31
ENDBRANCH   3  30
TORSDOF 13
