REMARK  8 active torsions:
REMARK  status: ('A' for Active; 'I' for Inactive)
REMARK       I    between atoms: C1_4  and  N3_6 
REMARK       I    between atoms: N3_6  and  C2_8 
REMARK    1  A    between atoms: C2_8  and  C3_10 
REMARK    2  A    between atoms: C3_10  and  N4_11 
REMARK       I    between atoms: N4_11  and  C4_13 
REMARK    3  A    between atoms: C4_13  and  C5_15 
REMARK    4  A    between atoms: C6_21  and  N7_22 
REMARK    5  A    between atoms: C8_24  and  C9_25 
REMARK    6  A    between atoms: C12_28  and  N8_29 
REMARK       I    between atoms: N8_29  and  C13_31 
REMARK    7  A    between atoms: C13_31  and  C14_33 
REMARK    8  A    between atoms: C15_36  and  C16_37 
ROOT
HETATM    1  N7  UNL     1       1.774   1.597  -1.858  1.00  0.00    -0.231 N 
HETATM    2  C7  UNL     1       0.651   1.651  -1.102  1.00  0.00     0.151 A 
HETATM    3  C8  UNL     1      -0.283   0.769  -1.564  1.00  0.00     0.079 A 
HETATM    4  N12 UNL     1       0.335   0.180  -2.639  1.00  0.00    -0.284 N 
ATOM      5  H12 UNL     1      -0.075  -0.540  -3.234  1.00  0.00     0.188 HD
HETATM    6  N13 UNL     1       1.525   0.683  -2.780  1.00  0.00    -0.234 N 
ATOM      7  H13 UNL     1       2.183   0.408  -3.509  1.00  0.00     0.209 HD
ENDROOT
BRANCH   1   8
HETATM    8  C6  UNL     1       2.973   2.344  -1.716  1.00  0.00     0.184 A 
HETATM    9  C5  UNL     1       4.189   1.887  -1.200  1.00  0.00     0.171 A 
HETATM   10  N5  UNL     1       5.066   2.928  -1.247  1.00  0.00    -0.232 N 
HETATM   11  O3  UNL     1       4.439   3.927  -1.747  1.00  0.00    -0.154 OA
ATOM     12  H5  UNL     1       6.039   2.915  -0.942  1.00  0.00     0.197 HD
HETATM   13  N6  UNL     1       3.211   3.628  -2.036  1.00  0.00    -0.221 N 
ATOM     14  H6  UNL     1       2.530   4.269  -2.444  1.00  0.00     0.198 HD
BRANCH   9  15
HETATM   15  C4  UNL     1       4.409   0.549  -0.722  1.00  0.00     0.274 C 
HETATM   16  N4  UNL     1       5.704   0.201  -0.216  1.00  0.00    -0.347 N 
ATOM     17  H4  UNL     1       6.452   0.894  -0.197  1.00  0.00     0.163 HD
HETATM   18  O2  UNL     1       3.515  -0.299  -0.739  1.00  0.00    -0.266 OA
BRANCH  16  19
HETATM   19  C3  UNL     1       5.938  -1.130   0.264  1.00  0.00     0.226 C 
BRANCH  19  20
HETATM   20  C2  UNL     1       7.281  -1.428   0.770  1.00  0.00     0.241 C 
HETATM   21  N3  UNL     1       8.307  -0.465   0.793  1.00  0.00    -0.300 N 
HETATM   22  C1  UNL     1       9.588  -0.856   1.307  1.00  0.00     0.188 C 
ATOM     23  H3  UNL     1       8.145   0.483   0.454  1.00  0.00     0.171 HD
HETATM   24  N1  UNL     1      10.516   0.022   1.326  1.00  0.00    -0.373 N 
HETATM   25  N2  UNL     1       9.875  -2.140   1.788  1.00  0.00    -0.064 NA
ATOM     26  H12 UNL     1      11.427  -0.256   1.691  1.00  0.00     0.158 HD
ATOM     27  H11 UNL     1      10.307   0.957   0.976  1.00  0.00     0.158 HD
HETATM   28  O1  UNL     1       7.532  -2.619   1.212  1.00  0.00    -0.271 OA
ENDBRANCH  19  20
ENDBRANCH  16  19
ENDBRANCH   9  15
ENDBRANCH   1   8
BRANCH   3  29
HETATM   29  C9  UNL     1      -1.627   0.463  -1.096  1.00  0.00     0.018 A 
HETATM   30  C10 UNL     1      -2.367  -0.512  -1.781  1.00  0.00     0.018 A 
HETATM   31  C11 UNL     1      -3.629  -0.856  -1.407  1.00  0.00     0.030 A 
HETATM   32  C12 UNL     1      -4.287  -0.262  -0.309  1.00  0.00     0.036 A 
HETATM   33  C18 UNL     1      -3.556   0.687   0.354  1.00  0.00     0.057 A 
HETATM   34  C19 UNL     1      -2.253   1.038  -0.037  1.00  0.00     0.061 A 
HETATM   35  N11 UNL     1      -1.594   2.036   0.724  1.00  0.00    -0.101 NA
BRANCH  32  36
HETATM   36  N8  UNL     1      -5.581  -0.698   0.012  1.00  0.00    -0.320 N 
HETATM   37  C13 UNL     1      -6.500   0.013   0.776  1.00  0.00     0.290 C 
HETATM   38  O4  UNL     1      -6.229   1.152   1.251  1.00  0.00    -0.264 OA
ATOM     39  H8  UNL     1      -5.871  -1.609  -0.343  1.00  0.00     0.169 HD
BRANCH  37  40
HETATM   40  C14 UNL     1      -7.845  -0.559   1.059  1.00  0.00     0.175 A 
HETATM   41  N9  UNL     1      -8.842  -0.033   1.764  1.00  0.00    -0.334 N 
HETATM   42  C15 UNL     1      -9.891  -0.863   1.784  1.00  0.00     0.087 A 
ATOM     43  H9  UNL     1      -8.811   0.876   2.225  1.00  0.00     0.168 HD
HETATM   44  C17 UNL     1      -9.502  -1.962   1.043  1.00  0.00     0.122 A 
HETATM   45  N10 UNL     1      -8.235  -1.755   0.604  1.00  0.00    -0.345 N 
ATOM     46  H10 UNL     1      -7.682  -2.394   0.032  1.00  0.00     0.167 HD
BRANCH  42  47
HETATM   47  C16 UNL     1     -11.188  -0.702   2.428  1.00  0.00     0.289 C 
HETATM   48  O5  UNL     1     -12.092  -1.555   2.374  1.00  0.00    -0.300 OA
ENDBRANCH  42  47
ENDBRANCH  37  40
ENDBRANCH  32  36
ENDBRANCH   3  29
TORSDOF 8
