REMARK  13 active torsions:
REMARK  status: ('A' for Active; 'I' for Inactive)
REMARK    1  A    between atoms: C5_5  and  N1_6 
REMARK       I    between atoms: N1_6  and  C6_8 
REMARK    2  A    between atoms: C6_8  and  C7_10 
REMARK    3  A    between atoms: N2_13  and  S1_14 
REMARK    4  A    between atoms: N3_18  and  C11_19 
REMARK    5  A    between atoms: C11_19  and  O4_20 
REMARK    6  A    between atoms: C11_19  and  C12_22 
REMARK    7  A    between atoms: C12_22  and  C13_23 
REMARK    8  A    between atoms: C12_22  and  N5_38 
REMARK    9  A    between atoms: C13_23  and  C14_24 
REMARK   10  A    between atoms: C14_24  and  C15_26 
REMARK   11  A    between atoms: C22_33  and  O6_34 
REMARK   12  A    between atoms: N5_38  and  S2_40 
REMARK   13  A    between atoms: S2_40  and  C24_43 
ROOT
HETATM    1  C24 UNL     1      -1.400   4.328  -1.548  1.00  0.00     0.079 A 
HETATM    2  C25 UNL     1      -1.826   4.638  -0.275  1.00  0.00     0.027 A 
HETATM    3  C26 UNL     1      -3.104   5.086  -0.010  1.00  0.00     0.024 A 
HETATM    4  C27 UNL     1      -4.015   5.241  -1.029  1.00  0.00     0.044 A 
HETATM    5  C28 UNL     1      -5.363   5.708  -0.784  1.00  0.00     0.099 C 
HETATM    6  N6  UNL     1      -6.430   6.100  -0.593  1.00  0.00    -0.191 NA
HETATM    7  C29 UNL     1      -3.594   4.932  -2.314  1.00  0.00     0.024 A 
HETATM    8  C30 UNL     1      -2.316   4.485  -2.575  1.00  0.00     0.027 A 
ENDROOT
BRANCH   1   9
HETATM    9  S2  UNL     1       0.204   3.752  -1.911  1.00  0.00     0.259 S 
HETATM   10  O7  UNL     1       1.111   4.325  -0.847  1.00  0.00    -0.201 OA
HETATM   11  O8  UNL     1       0.638   4.358  -3.209  1.00  0.00    -0.201 OA
BRANCH   9  12
HETATM   12  N5  UNL     1       0.300   2.043  -1.934  1.00  0.00    -0.302 N 
ATOM     13  H5  UNL     1       0.558   1.488  -2.750  1.00  0.00     0.173 HD
BRANCH  12  14
HETATM   14  C12 UNL     1      -0.044   1.476  -0.600  1.00  0.00     0.176 C 
BRANCH  14  15
HETATM   15  C11 UNL     1       1.092   0.799  -0.026  1.00  0.00     0.154 C 
BRANCH  15  16
HETATM   16  N3  UNL     1       1.672   0.588   1.226  1.00  0.00    -0.265 N 
HETATM   17  C7  UNL     1       3.093   0.117   1.300  1.00  0.00     0.199 C 
HETATM   18  C8  UNL     1       3.513   0.633   2.676  1.00  0.00     0.054 C 
HETATM   19  C9  UNL     1       2.339   1.385   3.192  1.00  0.00     0.135 C 
HETATM   20  N2  UNL     1       1.248   0.666   2.521  1.00  0.00    -0.116 NA
BRANCH  17  21
HETATM   21  C6  UNL     1       3.930   0.870   0.294  1.00  0.00     0.247 C 
HETATM   22  N1  UNL     1       5.114   0.482  -0.251  1.00  0.00    -0.311 N 
ATOM     23  H1  UNL     1       5.833   1.192  -0.114  1.00  0.00     0.170 HD
HETATM   24  O1  UNL     1       3.448   2.003  -0.068  1.00  0.00    -0.271 OA
BRANCH  22  25
HETATM   25  C5  UNL     1       5.568  -0.508  -0.876  1.00  0.00     0.107 A 
HETATM   26  C4  UNL     1       6.924  -0.476  -1.264  1.00  0.00     0.049 A 
HETATM   27  C3  UNL     1       7.504  -1.507  -1.947  1.00  0.00     0.012 A 
HETATM   28  C2  UNL     1       6.791  -2.636  -2.293  1.00  0.00    -0.046 A 
HETATM   29  C1  UNL     1       7.389  -3.774  -3.034  1.00  0.00     0.049 C 
HETATM   30  C31 UNL     1       5.468  -2.640  -1.901  1.00  0.00     0.096 A 
HETATM   31  N7  UNL     1       4.901  -1.622  -1.229  1.00  0.00    -0.352 N 
ATOM     32  H7  UNL     1       3.916  -1.698  -0.974  1.00  0.00     0.166 HD
ENDBRANCH  22  25
ENDBRANCH  17  21
BRANCH  20  33
HETATM   33  S1  UNL     1       0.786  -0.702   3.377  1.00  0.00     0.225 S 
HETATM   34  C10 UNL     1       1.998  -1.957   3.641  1.00  0.00     0.181 C 
HETATM   35  O2  UNL     1       0.336  -0.302   4.794  1.00  0.00    -0.210 OA
HETATM   36  O3  UNL     1      -0.396  -1.444   2.764  1.00  0.00    -0.210 OA
ENDBRANCH  20  33
ENDBRANCH  15  16
BRANCH  15  37
HETATM   37  O4  UNL     1       1.794   0.224  -1.039  1.00  0.00    -0.347 OA
ATOM     38  H4  UNL     1       1.399   0.368  -1.891  1.00  0.00     0.219 HD
ENDBRANCH  15  37
ENDBRANCH  14  15
BRANCH  14  39
HETATM   39  C13 UNL     1      -1.366   0.835  -0.736  1.00  0.00     0.118 C 
BRANCH  39  40
HETATM   40  C14 UNL     1      -2.109   0.531   0.471  1.00  0.00     0.162 C 
HETATM   41  O5  UNL     1      -1.926   1.165   1.569  1.00  0.00    -0.292 OA
BRANCH  40  42
HETATM   42  C15 UNL     1      -3.121  -0.523   0.509  1.00  0.00     0.011 A 
HETATM   43  C16 UNL     1      -3.796  -0.777   1.668  1.00  0.00     0.017 A 
HETATM   44  C17 UNL     1      -4.756  -1.756   1.755  1.00  0.00     0.031 A 
HETATM   45  C18 UNL     1      -5.026  -2.492   0.620  1.00  0.00     0.046 A 
HETATM   46  C19 UNL     1      -4.366  -2.267  -0.569  1.00  0.00    -0.004 A 
HETATM   47  N4  UNL     1      -5.898  -3.482   0.450  1.00  0.00    -0.332 N 
HETATM   48  C20 UNL     1      -3.407  -1.267  -0.604  1.00  0.00     0.029 A 
HETATM   49  C21 UNL     1      -4.869  -3.156  -1.468  1.00  0.00     0.069 A 
HETATM   50  C22 UNL     1      -5.824  -3.910  -0.822  1.00  0.00     0.143 A 
HETATM   51  C23 UNL     1      -6.796  -4.026   1.470  1.00  0.00     0.158 C 
BRANCH  50  52
HETATM   52  O6  UNL     1      -6.552  -4.918  -1.422  1.00  0.00    -0.346 OA
ATOM     53  H6  UNL     1      -7.211  -5.438  -0.977  1.00  0.00     0.219 HD
ENDBRANCH  50  52
ENDBRANCH  40  42
ENDBRANCH  39  40
ENDBRANCH  14  39
ENDBRANCH  12  14
ENDBRANCH   9  12
ENDBRANCH   1   9
TORSDOF 13
