REMARK  6 active torsions:
REMARK  status: ('A' for Active; 'I' for Inactive)
REMARK    1  A    between atoms: O1_2  and  C2_3 
REMARK    2  A    between atoms: C6_9  and  C7_10 
REMARK    3  A    between atoms: C7_10  and  N2_11 
REMARK    4  A    between atoms: N2_11  and  S1_13 
REMARK    5  A    between atoms: S1_13  and  C8_16 
REMARK    6  A    between atoms: C8_16  and  C9_17 
ROOT
HETATM    1  S1  UNL     1      -0.379  -0.374  -0.952  1.00  0.00     0.230 S 
HETATM    2  O2  UNL     1      -0.724  -1.446  -1.837  1.00  0.00    -0.206 OA
HETATM    3  O3  UNL     1      -1.117   0.894  -1.591  1.00  0.00    -0.206 OA
ENDROOT
BRANCH   1   4
HETATM    4  N2  UNL     1       1.232   0.061  -0.866  1.00  0.00    -0.315 N 
ATOM      5  H2  UNL     1       1.593   0.852  -1.399  1.00  0.00     0.172 HD
BRANCH   4   6
HETATM    6  C7  UNL     1       2.080  -0.706  -0.028  1.00  0.00     0.175 C 
BRANCH   6   7
HETATM    7  C6  UNL     1       3.488  -0.213  -0.220  1.00  0.00     0.017 A 
HETATM    8  C2  UNL     1       4.405   0.348   0.576  1.00  0.00     0.093 A 
HETATM    9  C3  UNL     1       5.621   0.316  -0.069  1.00  0.00     0.125 A 
HETATM   10  N1  UNL     1       5.461  -0.268  -1.287  1.00  0.00    -0.366 N 
HETATM   11  C4  UNL     1       4.190  -0.592  -1.398  1.00  0.00     0.015 A 
ATOM     12  H1  UNL     1       6.189  -0.425  -1.984  1.00  0.00     0.165 HD
HETATM   13  C5  UNL     1       3.528  -1.291  -2.535  1.00  0.00     0.069 C 
BRANCH   8  14
HETATM   14  O1  UNL     1       4.134   0.892   1.858  1.00  0.00    -0.354 OA
HETATM   15  C1  UNL     1       5.134   1.500   2.583  1.00  0.00     0.210 C 
ENDBRANCH   8  14
ENDBRANCH   6   7
ENDBRANCH   4   6
ENDBRANCH   1   4
BRANCH   1  16
HETATM   16  C8  UNL     1      -1.087  -0.436   0.720  1.00  0.00     0.202 C 
BRANCH  16  17
HETATM   17  C9  UNL     1      -2.568  -0.327   0.585  1.00  0.00    -0.031 A 
HETATM   18  C10 UNL     1      -2.961   0.982   1.008  1.00  0.00    -0.054 A 
HETATM   19  C11 UNL     1      -1.992   1.830   1.757  1.00  0.00     0.049 C 
HETATM   20  C12 UNL     1      -4.213   1.382   0.679  1.00  0.00     0.014 A 
HETATM   21  C13 UNL     1      -5.079   0.593  -0.023  1.00  0.00    -0.061 A 
HETATM   22  C14 UNL     1      -6.367   1.178  -0.584  1.00  0.00     0.048 C 
HETATM   23  C15 UNL     1      -4.674  -0.680  -0.401  1.00  0.00     0.014 A 
HETATM   24  C16 UNL     1      -3.384  -1.129  -0.076  1.00  0.00    -0.054 A 
HETATM   25  C17 UNL     1      -3.092  -2.533  -0.344  1.00  0.00     0.049 C 
ENDBRANCH  16  17
ENDBRANCH   1  16
TORSDOF 6
