REMARK  10 active torsions:
REMARK  status: ('A' for Active; 'I' for Inactive)
REMARK    1  A    between atoms: C2_2  and  C4_4 
REMARK    2  A    between atoms: C4_4  and  N1_5 
REMARK    3  A    between atoms: C4_4  and  C15_17 
REMARK    4  A    between atoms: N1_5  and  C5_7 
REMARK    5  A    between atoms: C15_17  and  O1_18 
REMARK    6  A    between atoms: C15_17  and  N2_20 
REMARK       I    between atoms: N2_20  and  C16_22 
REMARK    7  A    between atoms: C16_22  and  C17_24 
REMARK    8  A    between atoms: C17_24  and  C18_25 
REMARK    9  A    between atoms: C17_24  and  N4_29 
REMARK   10  A    between atoms: C18_25  and  C19_26 
ROOT
HETATM    1  C4  UNL     1      -0.530  -0.841  -0.812  1.00  0.00     0.129 C 
ENDROOT
BRANCH   1   2
HETATM    2  C2  UNL     1      -0.149  -1.421  -2.198  1.00  0.00     0.004 C 
HETATM    3  C1  UNL     1       1.199  -1.032  -2.705  1.00  0.00     0.012 C 
HETATM    4  C3  UNL     1      -1.163  -1.116  -3.253  1.00  0.00     0.012 C 
ENDBRANCH   1   2
BRANCH   1   5
HETATM    5  N1  UNL     1      -1.838  -1.363  -0.588  1.00  0.00    -0.404 N 
ATOM      6  H1  UNL     1      -1.988  -2.367  -0.683  1.00  0.00     0.154 HD
BRANCH   5   7
HETATM    7  C5  UNL     1      -2.921  -0.551  -0.243  1.00  0.00     0.027 C 
HETATM    8  C6  UNL     1      -2.727  -0.023   1.161  1.00  0.00     0.035 C 
HETATM    9  C7  UNL     1      -3.973   0.670   1.709  1.00  0.00    -0.012 C 
HETATM   10  C8  UNL     1      -5.182  -0.202   1.627  1.00  0.00     0.009 C 
HETATM   11  C12 UNL     1      -4.154   1.901   0.874  1.00  0.00     0.009 C 
HETATM   12  C9  UNL     1      -5.392  -0.571   0.180  1.00  0.00    -0.012 C 
HETATM   13  C10 UNL     1      -5.574   0.676  -0.685  1.00  0.00     0.009 C 
HETATM   14  C14 UNL     1      -4.204  -1.313  -0.324  1.00  0.00     0.035 C 
HETATM   15  C11 UNL     1      -4.293   1.478  -0.547  1.00  0.00    -0.012 C 
HETATM   16  C13 UNL     1      -3.118   0.695  -1.098  1.00  0.00     0.035 C 
ENDBRANCH   5   7
ENDBRANCH   1   5
BRANCH   1  17
HETATM   17  C15 UNL     1       0.535  -1.310   0.142  1.00  0.00     0.242 C 
BRANCH  17  18
HETATM   18  O1  UNL     1       0.176  -1.092   1.502  1.00  0.00    -0.375 OA
ATOM     19  H1  UNL     1       0.848  -1.388   2.104  1.00  0.00     0.212 HD
ENDBRANCH  17  18
BRANCH  17  20
HETATM   20  N2  UNL     1       1.699  -0.389   0.027  1.00  0.00    -0.331 N 
HETATM   21  C16 UNL     1       3.024  -0.785   0.336  1.00  0.00     0.253 C 
HETATM   22  O2  UNL     1       3.290  -1.937   0.736  1.00  0.00    -0.271 OA
ATOM     23  H2  UNL     1       1.536   0.567  -0.288  1.00  0.00     0.165 HD
BRANCH  21  24
HETATM   24  C17 UNL     1       4.162   0.176   0.189  1.00  0.00     0.322 C 
BRANCH  24  25
HETATM   25  C18 UNL     1       3.588   1.576   0.289  1.00  0.00     0.145 C 
BRANCH  25  26
HETATM   26  C19 UNL     1       4.606   2.639   0.182  1.00  0.00     0.233 C 
HETATM   27  N3  UNL     1       4.208   3.988   0.291  1.00  0.00    -0.062 NA
HETATM   28  O3  UNL     1       5.797   2.350  -0.000  1.00  0.00    -0.277 OA
ENDBRANCH  25  26
ENDBRANCH  24  25
BRANCH  24  29
HETATM   29  N4  UNL     1       5.274  -0.049   1.001  1.00  0.00     0.102 N 
HETATM   30  C20 UNL     1       6.095  -1.182   0.976  1.00  0.00     0.275 C 
HETATM   31  C21 UNL     1       6.211  -1.198   2.511  1.00  0.00     0.060 C 
HETATM   32  C22 UNL     1       5.207  -0.062   2.413  1.00  0.00     0.275 C 
ENDBRANCH  24  29
ENDBRANCH  21  24
ENDBRANCH  17  20
ENDBRANCH   1  17
TORSDOF 10
