REMARK  11 active torsions:
REMARK  status: ('A' for Active; 'I' for Inactive)
REMARK    1  A    between atoms: C2_2  and  C3_3 
REMARK    2  A    between atoms: C3_3  and  C4_4 
REMARK    3  A    between atoms: C4_4  and  C5_5 
REMARK    4  A    between atoms: C5_5  and  N1_6 
REMARK       I    between atoms: N1_6  and  C6_8 
REMARK    5  A    between atoms: C6_8  and  C7_10 
REMARK    6  A    between atoms: C7_10  and  C8_11 
REMARK    7  A    between atoms: C8_11  and  C9_12 
REMARK    8  A    between atoms: C16_26  and  O4_27 
REMARK    9  A    between atoms: C17_29  and  C18_30 
REMARK   10  A    between atoms: C18_30  and  C19_31 
REMARK   11  A    between atoms: C19_31  and  O5_33 
ROOT
HETATM    1  C7  UNL     1      -0.623  -0.086   1.187  1.00  0.00     0.142 C 
HETATM    2  N2  UNL     1      -0.539   1.306   1.310  1.00  0.00    -0.333 N 
ATOM      3  H2  UNL     1      -0.237   1.623   2.232  1.00  0.00     0.164 HD
HETATM    4  C11 UNL     1      -0.793   2.354   0.399  1.00  0.00     0.291 C 
HETATM    5  O2  UNL     1       0.151   3.184   0.101  1.00  0.00    -0.264 OA
HETATM    6  C12 UNL     1      -2.033   2.647  -0.283  1.00  0.00     0.252 C 
HETATM    7  O3  UNL     1      -2.005   3.117  -1.474  1.00  0.00    -0.284 OA
HETATM    8  C13 UNL     1      -3.375   2.442   0.293  1.00  0.00     0.271 C 
HETATM    9  F1  UNL     1      -3.430   2.335   1.633  1.00  0.00    -0.239 F 
HETATM   10  C14 UNL     1      -4.173   1.391  -0.367  1.00  0.00     0.121 C 
HETATM   11  C15 UNL     1      -4.405   1.747  -1.860  1.00  0.00     0.035 C 
HETATM   12  N3  UNL     1      -3.876   0.015  -0.162  1.00  0.00    -0.363 N 
ATOM     13  H3  UNL     1      -4.655  -0.566  -0.472  1.00  0.00     0.162 HD
HETATM   14  C16 UNL     1      -2.853  -0.775   0.329  1.00  0.00     0.141 C 
HETATM   15  C17 UNL     1      -1.384  -0.848   0.184  1.00  0.00     0.010 C 
ENDROOT
BRANCH   1  16
HETATM   16  C6  UNL     1       0.760  -0.701   1.287  1.00  0.00     0.250 C 
HETATM   17  N1  UNL     1       1.698  -0.292   0.271  1.00  0.00    -0.359 N 
ATOM     18  H1  UNL     1       1.431   0.368  -0.460  1.00  0.00     0.162 HD
HETATM   19  O1  UNL     1       1.066  -1.479   2.174  1.00  0.00    -0.270 OA
BRANCH  17  20
HETATM   20  C5  UNL     1       3.038  -0.854   0.326  1.00  0.00     0.122 C 
BRANCH  20  21
HETATM   21  C4  UNL     1       3.936  -0.271  -0.737  1.00  0.00     0.020 C 
BRANCH  21  22
HETATM   22  C3  UNL     1       5.312  -0.883  -0.629  1.00  0.00     0.001 C 
BRANCH  22  23
HETATM   23  C2  UNL     1       6.278  -0.303  -1.619  1.00  0.00    -0.004 C 
HETATM   24  C1  UNL     1       6.434   1.194  -1.399  1.00  0.00     0.005 C 
ENDBRANCH  22  23
ENDBRANCH  21  22
ENDBRANCH  20  21
ENDBRANCH  17  20
ENDBRANCH   1  16
BRANCH   1  25
HETATM   25  C8  UNL     1      -1.280  -0.528   2.554  1.00  0.00     0.046 C 
BRANCH  25  26
HETATM   26  C9  UNL     1      -0.616  -0.035   3.764  1.00  0.00    -0.001 C 
HETATM   27  C10 UNL     1      -1.436  -0.639   4.952  1.00  0.00     0.005 C 
ENDBRANCH  25  26
ENDBRANCH   1  25
BRANCH  15  28
HETATM   28  C18 UNL     1      -0.855  -0.923  -1.207  1.00  0.00     0.073 C 
BRANCH  28  29
HETATM   29  C19 UNL     1      -1.611  -1.799  -2.185  1.00  0.00     0.118 C 
HETATM   30  C20 UNL     1      -0.861  -1.700  -3.524  1.00  0.00     0.039 C 
BRANCH  29  31
HETATM   31  O5  UNL     1      -2.873  -1.382  -2.419  1.00  0.00    -0.396 OA
ATOM     32  H5  UNL     1      -3.347  -1.931  -3.032  1.00  0.00     0.210 HD
ENDBRANCH  29  31
ENDBRANCH  28  29
ENDBRANCH  15  28
BRANCH  14  33
HETATM   33  O4  UNL     1      -3.319  -1.721   1.146  1.00  0.00    -0.346 OA
ATOM     34  H4  UNL     1      -2.616  -2.264   1.483  1.00  0.00     0.219 HD
ENDBRANCH  14  33
TORSDOF 11
