REMARK  11 active torsions:
REMARK  status: ('A' for Active; 'I' for Inactive)
REMARK    1  A    between atoms: C2_2  and  C3_3 
REMARK    2  A    between atoms: C3_3  and  N1_4 
REMARK    3  A    between atoms: C5_7  and  C6_8 
REMARK    4  A    between atoms: C9_11  and  O2_12 
REMARK    5  A    between atoms: C10_16  and  C11_17 
REMARK    6  A    between atoms: C11_17  and  C12_18 
REMARK    7  A    between atoms: N4_24  and  C16_26 
REMARK    8  A    between atoms: C16_26  and  C17_27 
REMARK    9  A    between atoms: C17_27  and  C18_28 
REMARK   10  A    between atoms: C18_28  and  C19_29 
REMARK   11  A    between atoms: C19_29  and  N5_30 
ROOT
HETATM    1  N1  UNL     1       0.793  -2.690   1.511  1.00  0.00    -0.273 N 
HETATM    2  C4  UNL     1      -0.376  -1.854   1.480  1.00  0.00     0.277 A 
HETATM    3  O1  UNL     1      -1.499  -2.370   1.810  1.00  0.00    -0.265 OA
HETATM    4  C5  UNL     1      -0.226  -0.477   1.074  1.00  0.00     0.103 A 
HETATM    5  N3  UNL     1       1.102  -0.006   0.714  1.00  0.00    -0.334 N 
ATOM      6  H3  UNL     1       1.219   0.965   0.424  1.00  0.00     0.168 HD
HETATM    7  C15 UNL     1       2.227  -0.842   0.752  1.00  0.00     0.171 A 
HETATM    8  N4  UNL     1       3.415  -0.446   0.417  1.00  0.00    -0.372 N 
ATOM      9  H4  UNL     1       4.200  -1.096   0.463  1.00  0.00     0.161 HD
HETATM   10  C20 UNL     1       2.080  -2.228   1.162  1.00  0.00     0.294 A 
HETATM   11  O3  UNL     1       3.077  -2.995   1.203  1.00  0.00    -0.264 OA
ENDROOT
BRANCH   4  12
HETATM   12  C6  UNL     1      -1.220   0.378   1.036  1.00  0.00     0.049 C 
HETATM   13  C7  UNL     1      -2.612   0.241   1.355  1.00  0.00    -0.007 A 
HETATM   14  C8  UNL     1      -3.230  -0.161   2.518  1.00  0.00     0.069 A 
HETATM   15  C10 UNL     1      -3.627   0.525   0.408  1.00  0.00     0.022 A 
HETATM   16  C9  UNL     1      -4.584  -0.123   2.285  1.00  0.00     0.140 A 
HETATM   17  N2  UNL     1      -4.783   0.288   1.026  1.00  0.00    -0.340 N 
ATOM     18  H2  UNL     1      -5.701   0.404   0.596  1.00  0.00     0.167 HD
BRANCH  16  19
HETATM   19  O2  UNL     1      -5.596  -0.446   3.174  1.00  0.00    -0.346 OA
ATOM     20  H2  UNL     1      -6.532  -0.420   3.013  1.00  0.00     0.219 HD
ENDBRANCH  16  19
BRANCH  15  21
HETATM   21  C11 UNL     1      -3.355   0.983  -0.974  1.00  0.00     0.062 C 
BRANCH  21  22
HETATM   22  C12 UNL     1      -4.619   1.378  -1.669  1.00  0.00    -0.017 C 
HETATM   23  C13 UNL     1      -4.352   1.839  -3.094  1.00  0.00     0.010 C 
HETATM   24  C14 UNL     1      -5.324   2.523  -0.980  1.00  0.00     0.010 C 
ENDBRANCH  21  22
ENDBRANCH  15  21
ENDBRANCH   4  12
BRANCH   1  25
HETATM   25  C3  UNL     1       0.587  -4.083   1.932  1.00  0.00     0.162 C 
BRANCH  25  26
HETATM   26  C2  UNL     1       0.290  -4.967   0.777  1.00  0.00    -0.017 C 
HETATM   27  C1  UNL     1       1.050  -6.004   0.451  1.00  0.00     0.008 C 
ENDBRANCH  25  26
ENDBRANCH   1  25
BRANCH   8  28
HETATM   28  C16 UNL     1       3.627   0.892  -0.015  1.00  0.00     0.121 C 
BRANCH  28  29
HETATM   29  C17 UNL     1       4.966   1.001  -0.766  1.00  0.00     0.021 C 
BRANCH  29  30
HETATM   30  C18 UNL     1       5.100   2.444  -1.192  1.00  0.00     0.029 C 
BRANCH  30  31
HETATM   31  C19 UNL     1       6.392   2.683  -1.956  1.00  0.00     0.229 C 
BRANCH  31  32
HETATM   32  N5  UNL     1       7.547   2.366  -1.157  1.00  0.00    -0.079 N 
ATOM     33  H53 UNL     1       7.538   2.873  -0.272  1.00  0.00     0.274 HD
ATOM     34  H52 UNL     1       7.499   1.414  -0.795  1.00  0.00     0.274 HD
ATOM     35  H51 UNL     1       8.414   2.526  -1.670  1.00  0.00     0.274 HD
ENDBRANCH  31  32
ENDBRANCH  30  31
ENDBRANCH  29  30
ENDBRANCH  28  29
ENDBRANCH   8  28
TORSDOF 11
