REMARK  10 active torsions:
REMARK  status: ('A' for Active; 'I' for Inactive)
REMARK    1  A    between atoms: N1_2  and  C2_3 
REMARK    2  A    between atoms: N1_2  and  C4_7 
REMARK    3  A    between atoms: C2_3  and  C3_4 
REMARK    4  A    between atoms: C4_7  and  C5_8 
REMARK       I    between atoms: C5_8  and  N3_10 
REMARK    5  A    between atoms: N3_10  and  C6_12 
REMARK    6  A    between atoms: C6_12  and  C7_13 
REMARK    7  A    between atoms: C6_12  and  C9_19 
REMARK    8  A    between atoms: C7_13  and  C8_14 
REMARK    9  A    between atoms: C8_14  and  N4_15 
REMARK       I    between atoms: C9_19  and  N5_21 
REMARK   10  A    between atoms: N5_21  and  C10_23 
ROOT
HETATM    1  C6  UNL     1      -1.496   1.152  -1.019  1.00  0.00     0.178 C 
ENDROOT
BRANCH   1   2
HETATM    2  N3  UNL     1      -2.497   0.166  -1.474  1.00  0.00    -0.346 N 
HETATM    3  C5  UNL     1      -3.837   0.253  -1.034  1.00  0.00     0.246 C 
HETATM    4  O2  UNL     1      -4.164   1.173  -0.268  1.00  0.00    -0.272 OA
ATOM      5  H3  UNL     1      -2.219  -0.582  -2.109  1.00  0.00     0.163 HD
BRANCH   3   6
HETATM    6  C4  UNL     1      -4.833  -0.731  -1.477  1.00  0.00     0.374 C 
BRANCH   6   7
HETATM    7  N1  UNL     1      -6.147  -0.513  -0.980  1.00  0.00     0.101 N 
HETATM    8  C1  UNL     1      -6.774   0.684  -1.500  1.00  0.00     0.311 C 
BRANCH   7   9
HETATM    9  C2  UNL     1      -6.355  -0.691   0.418  1.00  0.00     0.371 C 
BRANCH   9  10
HETATM   10  C3  UNL     1      -7.790  -0.980   0.715  1.00  0.00     0.259 C 
HETATM   11  N2  UNL     1      -8.702  -1.037  -0.359  1.00  0.00    -0.061 NA
HETATM   12  O1  UNL     1      -8.214  -1.174   1.882  1.00  0.00    -0.275 OA
ENDBRANCH   9  10
ENDBRANCH   7   9
ENDBRANCH   6   7
ENDBRANCH   3   6
ENDBRANCH   1   2
BRANCH   1  13
HETATM   13  C7  UNL     1      -1.118   2.052  -2.185  1.00  0.00     0.062 C 
BRANCH  13  14
HETATM   14  C8  UNL     1      -0.532   1.267  -3.331  1.00  0.00     0.232 C 
BRANCH  14  15
HETATM   15  N4  UNL     1      -0.180   2.135  -4.432  1.00  0.00    -0.079 N 
ATOM     16  H43 UNL     1      -0.974   2.701  -4.732  1.00  0.00     0.274 HD
ATOM     17  H42 UNL     1       0.443   2.885  -4.134  1.00  0.00     0.274 HD
ATOM     18  H41 UNL     1       0.216   1.604  -5.207  1.00  0.00     0.274 HD
ENDBRANCH  14  15
ENDBRANCH  13  14
ENDBRANCH   1  13
BRANCH   1  19
HETATM   19  C9  UNL     1      -0.308   0.498  -0.436  1.00  0.00     0.240 C 
HETATM   20  O3  UNL     1      -0.080  -0.691  -0.737  1.00  0.00    -0.271 OA
HETATM   21  N5  UNL     1       0.579   1.151   0.448  1.00  0.00    -0.355 N 
ATOM     22  H5  UNL     1       0.391   2.121   0.703  1.00  0.00     0.162 HD
BRANCH  21  23
HETATM   23  C10 UNL     1       1.751   0.496   1.010  1.00  0.00     0.084 C 
HETATM   24  C11 UNL     1       1.260  -0.084   2.354  1.00  0.00     0.025 C 
HETATM   25  C12 UNL     1       1.413  -1.588   2.391  1.00  0.00     0.002 C 
HETATM   26  C13 UNL     1       2.811  -1.945   2.819  1.00  0.00     0.000 C 
HETATM   27  C14 UNL     1       3.424  -3.057   2.005  1.00  0.00     0.000 C 
HETATM   28  C15 UNL     1       4.304  -2.562   0.879  1.00  0.00     0.000 C 
HETATM   29  C16 UNL     1       5.477  -1.748   1.335  1.00  0.00     0.000 C 
HETATM   30  C17 UNL     1       5.712  -0.533   0.459  1.00  0.00     0.000 C 
HETATM   31  C18 UNL     1       5.715   0.754   1.236  1.00  0.00     0.000 C 
HETATM   32  C19 UNL     1       5.148   1.908   0.468  1.00  0.00     0.000 C 
HETATM   33  C20 UNL     1       3.696   1.728   0.070  1.00  0.00     0.002 C 
HETATM   34  C21 UNL     1       2.805   1.539   1.248  1.00  0.00     0.025 C 
ENDBRANCH  21  23
ENDBRANCH   1  19
TORSDOF 10
