REMARK  11 active torsions:
REMARK  status: ('A' for Active; 'I' for Inactive)
REMARK    1  A    between atoms: O1_2  and  C2_3 
REMARK    2  A    between atoms: C2_3  and  C3_4 
REMARK    3  A    between atoms: C3_4  and  N1_5 
REMARK       I    between atoms: N1_5  and  C4_7 
REMARK    4  A    between atoms: C4_7  and  C5_9 
REMARK    5  A    between atoms: C5_9  and  C6_10 
REMARK    6  A    between atoms: C6_10  and  N2_11 
REMARK       I    between atoms: N2_11  and  C7_13 
REMARK       I    between atoms: C7_13  and  N3_15 
REMARK    7  A    between atoms: N3_15  and  N4_17 
REMARK       I    between atoms: N4_17  and  C8_19 
REMARK    8  A    between atoms: C8_19  and  C9_21 
REMARK    9  A    between atoms: C9_21  and  O5_22 
REMARK   10  A    between atoms: C9_21  and  C14_27 
REMARK   11  A    between atoms: O5_22  and  C10_23 
ROOT
HETATM    1  N2  UNL     1       2.288   2.494   0.673  1.00  0.00    -0.341 N 
ATOM      2  H2  UNL     1       2.251   3.367   1.199  1.00  0.00     0.164 HD
HETATM    3  C7  UNL     1       1.090   1.831   0.321  1.00  0.00     0.334 C 
HETATM    4  O3  UNL     1       1.049   0.757  -0.326  1.00  0.00    -0.246 OA
HETATM    5  N3  UNL     1      -0.168   2.405   0.720  1.00  0.00    -0.249 N 
ATOM      6  H3  UNL     1      -0.165   3.285   1.236  1.00  0.00     0.192 HD
ENDROOT
BRANCH   5   7
HETATM    7  N4  UNL     1      -1.388   1.805   0.428  1.00  0.00    -0.264 N 
HETATM    8  C8  UNL     1      -1.906   0.707   1.160  1.00  0.00     0.266 C 
HETATM    9  O4  UNL     1      -1.171   0.297   2.113  1.00  0.00    -0.269 OA
ATOM     10  H4  UNL     1      -1.936   2.172  -0.350  1.00  0.00     0.190 HD
BRANCH   8  11
HETATM   11  C9  UNL     1      -3.217   0.051   0.868  1.00  0.00     0.226 C 
BRANCH  11  12
HETATM   12  O5  UNL     1      -3.868   0.602  -0.187  1.00  0.00    -0.366 OA
BRANCH  12  13
HETATM   13  C10 UNL     1      -5.021   1.279   0.024  1.00  0.00     0.051 C 
HETATM   14  C11 UNL     1      -4.859   2.506   0.927  1.00  0.00     0.045 C 
HETATM   15  C12 UNL     1      -5.496   1.817  -1.325  1.00  0.00     0.045 C 
HETATM   16  C13 UNL     1      -6.164   0.509   0.625  1.00  0.00     0.045 C 
ENDBRANCH  12  13
ENDBRANCH  11  12
BRANCH  11  17
HETATM   17  C14 UNL     1      -2.959  -1.434   0.777  1.00  0.00     0.013 A 
HETATM   18  C15 UNL     1      -2.387  -2.009   2.067  1.00  0.00     0.020 C 
HETATM   19  C16 UNL     1      -2.477  -1.949  -0.507  1.00  0.00     0.013 A 
HETATM   20  C17 UNL     1      -2.521  -1.204  -1.801  1.00  0.00     0.012 C 
HETATM   21  C18 UNL     1      -3.854  -2.332   0.022  1.00  0.00     0.098 A 
HETATM   22 CL1  UNL     1      -3.972  -4.033   0.592  1.00  0.00    -0.124 Cl
ENDBRANCH  11  17
ENDBRANCH   8  11
ENDBRANCH   5   7
BRANCH   1  23
HETATM   23  C6  UNL     1       3.558   1.940   0.291  1.00  0.00     0.134 C 
BRANCH  23  24
HETATM   24  C5  UNL     1       3.818   0.569   0.843  1.00  0.00     0.122 C 
BRANCH  24  25
HETATM   25  C4  UNL     1       5.182   0.123   0.370  1.00  0.00     0.219 C 
HETATM   26  N1  UNL     1       5.604  -1.156   0.747  1.00  0.00    -0.359 N 
ATOM     27  H1  UNL     1       4.952  -1.683   1.328  1.00  0.00     0.162 HD
HETATM   28  O2  UNL     1       5.840   0.899  -0.313  1.00  0.00    -0.274 OA
BRANCH  26  29
HETATM   29  C3  UNL     1       6.823  -1.820   0.427  1.00  0.00     0.148 C 
BRANCH  29  30
HETATM   30  C2  UNL     1       6.998  -2.087  -1.021  1.00  0.00     0.186 C 
BRANCH  30  31
HETATM   31  O1  UNL     1       7.017  -0.964  -1.790  1.00  0.00    -0.394 OA
HETATM   32  C1  UNL     1       7.179  -1.223  -3.137  1.00  0.00     0.201 C 
ENDBRANCH  30  31
ENDBRANCH  29  30
ENDBRANCH  26  29
ENDBRANCH  24  25
ENDBRANCH  23  24
ENDBRANCH   1  23
TORSDOF 11
