REMARK  2 active torsions:
REMARK  status: ('A' for Active; 'I' for Inactive)
REMARK    1  A    between atoms: C2_4  and  N2_6 
REMARK    2  A    between atoms: N2_6  and  C4_8 
ROOT
HETATM    1  C1  UNL     1      -2.756   1.163   0.157  1.00  0.00     0.147 C 
HETATM    2  N1  UNL     1      -1.436   0.944   0.637  1.00  0.00    -0.385 N 
ATOM      3  H1  UNL     1      -0.960   1.740   1.061  1.00  0.00     0.160 HD
HETATM    4  C2  UNL     1      -0.790  -0.157   0.587  1.00  0.00     0.068 C 
HETATM    5  C3  UNL     1      -1.442  -1.338  -0.017  1.00  0.00     0.088 C 
ENDROOT
BRANCH   4   6
HETATM    6  N2  UNL     1       0.524  -0.307   1.084  1.00  0.00    -0.376 N 
ATOM      7  H2  UNL     1       0.679  -1.030   1.787  1.00  0.00     0.161 HD
BRANCH   6   8
HETATM    8  C4  UNL     1       1.656   0.472   0.683  1.00  0.00     0.083 A 
HETATM    9  C5  UNL     1       2.143   0.519  -0.711  1.00  0.00     0.027 A 
HETATM   10  C6  UNL     1       2.862  -0.371   0.273  1.00  0.00     0.027 A 
ENDBRANCH   6   8
ENDBRANCH   4   6
TORSDOF 2
