REMARK  1 active torsions:
REMARK  status: ('A' for Active; 'I' for Inactive)
REMARK    1  A    between atoms: C5_5  and  C6_6 
ROOT
HETATM    1  C1  UNL     1      -1.461   1.527   0.308  1.00  0.00     0.015 C 
HETATM    2  C2  UNL     1      -0.770   0.205  -0.002  1.00  0.00    -0.035 A 
HETATM    3  C3  UNL     1      -1.407  -0.970   0.698  1.00  0.00     0.015 C 
HETATM    4  C4  UNL     1      -0.197  -0.064  -1.327  1.00  0.00     0.024 A 
HETATM    5  C5  UNL     1       0.698   0.285  -0.194  1.00  0.00     0.083 A 
ENDROOT
BRANCH   5   6
HETATM    6  C6  UNL     1       1.512  -0.742   0.476  1.00  0.00     0.236 C 
HETATM    7  N1  UNL     1       2.792  -0.424   0.989  1.00  0.00    -0.062 NA
HETATM    8  O1  UNL     1       1.120  -1.941   0.625  1.00  0.00    -0.276 OA
ENDBRANCH   5   6
TORSDOF 1
