REMARK  1 active torsions:
REMARK  status: ('A' for Active; 'I' for Inactive)
REMARK    1  A    between atoms: N1_2  and  C2_4 
ROOT
HETATM    1  C2  UNL     1       0.456   0.551   0.423  1.00  0.00     0.284 C 
HETATM    2  C3  UNL     1       0.055   0.087   1.832  1.00  0.00     0.082 C 
HETATM    3  C4  UNL     1      -0.581  -1.051   1.021  1.00  0.00     0.242 C 
HETATM    4  N2  UNL     1      -0.729  -0.086  -0.047  1.00  0.00    -0.054 N 
HETATM    5  C5  UNL     1      -0.745  -0.609  -1.375  1.00  0.00     0.274 C 
HETATM    6  C6  UNL     1      -1.881   0.783   0.205  1.00  0.00     0.274 C 
ENDROOT
BRANCH   1   7
HETATM    7  N1  UNL     1       1.716  -0.066   0.109  1.00  0.00    -0.399 N 
HETATM    8  C1  UNL     1       2.154   0.119  -1.235  1.00  0.00     0.142 C 
ATOM      9  H1  UNL     1       2.255  -0.595   0.795  1.00  0.00     0.154 HD
ENDBRANCH   1   7
TORSDOF 1
