REMARK  7 active torsions:
REMARK  status: ('A' for Active; 'I' for Inactive)
REMARK    1  A    between atoms: C2_2  and  O1_3 
REMARK    2  A    between atoms: O1_3  and  C3_4 
REMARK    3  A    between atoms: C3_4  and  C4_6 
REMARK    4  A    between atoms: C4_6  and  S1_7 
REMARK    5  A    between atoms: S1_7  and  C5_8 
REMARK    6  A    between atoms: C8_14  and  C9_15 
REMARK    7  A    between atoms: C9_15  and  O4_17 
ROOT
HETATM    1  C5  UNL     1      -0.988  -0.048   1.026  1.00  0.00     0.087 A 
HETATM    2  N1  UNL     1      -0.378  -0.761   1.989  1.00  0.00    -0.358 N 
ATOM      3  H1  UNL     1       0.527  -0.561   2.415  1.00  0.00     0.166 HD
HETATM    4  C6  UNL     1      -1.203  -1.802   2.285  1.00  0.00     0.109 A 
HETATM    5  C7  UNL     1      -2.330  -1.723   1.495  1.00  0.00     0.045 A 
HETATM    6 BR1  UNL     1      -3.831  -2.926   1.486  1.00  0.00    -0.048 Br
HETATM    7  C8  UNL     1      -2.211  -0.610   0.684  1.00  0.00     0.091 A 
ENDROOT
BRANCH   1   8
HETATM    8  S1  UNL     1      -0.392   1.441   0.218  1.00  0.00    -0.101 SA
BRANCH   8   9
HETATM    9  C4  UNL     1       0.592   1.110  -1.234  1.00  0.00     0.191 C 
BRANCH   9  10
HETATM   10  C3  UNL     1       1.898   0.459  -0.952  1.00  0.00     0.268 C 
HETATM   11  O2  UNL     1       2.614   0.166  -1.941  1.00  0.00    -0.264 OA
BRANCH  10  12
HETATM   12  O1  UNL     1       2.355   0.167   0.307  1.00  0.00    -0.321 OA
BRANCH  12  13
HETATM   13  C2  UNL     1       3.591  -0.452   0.582  1.00  0.00     0.174 C 
HETATM   14  C1  UNL     1       4.782   0.324   0.068  1.00  0.00     0.034 C 
ENDBRANCH  12  13
ENDBRANCH  10  12
ENDBRANCH   9  10
ENDBRANCH   8   9
ENDBRANCH   1   8
BRANCH   7  15
HETATM   15  C9  UNL     1      -3.189  -0.158  -0.299  1.00  0.00     0.297 C 
HETATM   16  O3  UNL     1      -4.233  -0.813  -0.455  1.00  0.00    -0.259 OA
BRANCH  15  17
HETATM   17  O4  UNL     1      -3.012   0.985  -1.082  1.00  0.00    -0.322 OA
HETATM   18  C10 UNL     1      -4.016   1.377  -2.033  1.00  0.00     0.213 C 
ENDBRANCH  15  17
ENDBRANCH   7  15
TORSDOF 7
