REMARK  6 active torsions:
REMARK  status: ('A' for Active; 'I' for Inactive)
REMARK    1  A    between atoms: C2_2  and  C3_3 
REMARK    2  A    between atoms: C3_3  and  N1_4 
REMARK    3  A    between atoms: N1_4  and  C4_5 
REMARK       I    between atoms: N1_4  and  C6_7 
REMARK       I    between atoms: C6_7  and  N2_9 
REMARK    4  A    between atoms: N2_9  and  C7_11 
REMARK    5  A    between atoms: C9_15  and  S1_16 
REMARK    6  A    between atoms: S1_16  and  O2_19 
ROOT
HETATM    1  C7  UNL     1       0.830   0.471  -1.144  1.00  0.00     0.096 A 
HETATM    2  C8  UNL     1       1.712   0.844  -2.123  1.00  0.00     0.126 A 
HETATM    3  N3  UNL     1       2.960   0.499  -1.991  1.00  0.00    -0.352 N 
ATOM      4  H3  UNL     1       3.627   0.770  -2.713  1.00  0.00     0.166 HD
HETATM    5  C9  UNL     1       3.376  -0.170  -0.983  1.00  0.00     0.121 A 
HETATM    6  S2  UNL     1       1.935  -0.372  -0.092  1.00  0.00    -0.045 SA
ENDROOT
BRANCH   1   7
HETATM    7  N2  UNL     1      -0.566   0.694  -1.007  1.00  0.00    -0.302 N 
HETATM    8  C6  UNL     1      -1.246   0.199   0.109  1.00  0.00     0.323 C 
HETATM    9  N1  UNL     1      -2.630   0.414   0.252  1.00  0.00    -0.334 N 
HETATM   10  O1  UNL     1      -0.632  -0.438   0.987  1.00  0.00    -0.247 OA
ATOM     11  H2  UNL     1      -1.072   1.215  -1.723  1.00  0.00     0.171 HD
BRANCH   9  12
HETATM   12  C3  UNL     1      -3.294  -0.110   1.426  1.00  0.00     0.127 C 
BRANCH  12  13
HETATM   13  C2  UNL     1      -3.807  -1.505   1.272  1.00  0.00     0.015 C 
HETATM   14  C1  UNL     1      -4.816  -1.644   0.168  1.00  0.00     0.006 C 
ENDBRANCH  12  13
ENDBRANCH   9  12
BRANCH   9  15
HETATM   15  C4  UNL     1      -3.367   1.146  -0.747  1.00  0.00     0.123 C 
HETATM   16  C5  UNL     1      -3.376   2.634  -0.444  1.00  0.00     0.026 C 
ENDBRANCH   9  15
ENDBRANCH   1   7
BRANCH   5  17
HETATM   17  S1  UNL     1       5.059  -0.891  -0.329  1.00  0.00    -0.077 SA
HETATM   18  C10 UNL     1       5.593   0.765   0.356  1.00  0.00     0.108 C 
HETATM   19  C11 UNL     1       4.979  -1.768   1.313  1.00  0.00     0.108 C 
HETATM   20 CL1  UNL     1       6.646  -0.788  -1.444  1.00  0.00    -0.045 Cl
BRANCH  17  21
HETATM   21  O2  UNL     1       4.892  -2.203  -1.197  1.00  0.00    -0.342 OA
ATOM     22  H2  UNL     1       5.714  -2.555  -0.877  1.00  0.00     0.226 HD
ENDBRANCH  17  21
ENDBRANCH   5  17
TORSDOF 6
