REMARK  5 active torsions:
REMARK  status: ('A' for Active; 'I' for Inactive)
REMARK    1  A    between atoms: C3_6  and  C4_7 
REMARK    2  A    between atoms: C4_7  and  N2_8 
REMARK    3  A    between atoms: N2_8  and  C5_11 
REMARK    4  A    between atoms: C10_17  and  C11_18 
REMARK    5  A    between atoms: C11_18  and  N3_19 
ROOT
HETATM    1  C1  UNL     1       0.624  -3.320  -1.312  1.00  0.00     0.080 C 
HETATM    2  C2  UNL     1      -0.049  -2.020  -1.290  1.00  0.00     0.086 A 
HETATM    3  O1  UNL     1      -1.032  -1.686  -2.079  1.00  0.00    -0.242 OA
HETATM    4  N1  UNL     1      -1.435  -0.532  -1.831  1.00  0.00    -0.263 N 
ATOM      5  H1  UNL     1      -2.189  -0.060  -2.331  1.00  0.00     0.194 HD
HETATM    6  C3  UNL     1      -0.767  -0.019  -0.856  1.00  0.00     0.072 A 
HETATM    7  C10 UNL     1       0.177  -0.878  -0.443  1.00  0.00     0.037 A 
ENDROOT
BRANCH   6   8
HETATM    8  C4  UNL     1      -1.177   1.215  -0.059  1.00  0.00     0.292 C 
BRANCH   8   9
HETATM    9  N2  UNL     1      -2.428   1.705  -0.682  1.00  0.00    -0.066 N 
ATOM     10  H22 UNL     1      -2.610   2.684  -0.460  1.00  0.00     0.278 HD
ATOM     11  H21 UNL     1      -2.343   1.798  -1.694  1.00  0.00     0.278 HD
BRANCH   9  12
HETATM   12  C5  UNL     1      -3.533   0.842  -0.302  1.00  0.00     0.190 C 
HETATM   13  C6  UNL     1      -4.787   1.646  -0.174  1.00  0.00     0.059 C 
HETATM   14  C7  UNL     1      -5.950   0.805   0.320  1.00  0.00     0.169 C 
HETATM   15  O2  UNL     1      -5.608  -0.551   0.215  1.00  0.00    -0.391 OA
HETATM   16  C8  UNL     1      -4.672  -0.759   1.226  1.00  0.00     0.169 C 
HETATM   17  C9  UNL     1      -3.321  -0.146   0.768  1.00  0.00     0.059 C 
ENDBRANCH   9  12
ENDBRANCH   8   9
ENDBRANCH   6   8
BRANCH   7  18
HETATM   18  C11 UNL     1       1.220  -1.005   0.575  1.00  0.00     0.101 C 
BRANCH  18  19
HETATM   19  N3  UNL     1       2.309  -0.112   0.567  1.00  0.00    -0.388 N 
HETATM   20  C12 UNL     1       2.339   1.219   0.904  1.00  0.00     0.125 C 
HETATM   21  C13 UNL     1       3.839   1.579   1.152  1.00  0.00     0.057 C 
HETATM   22  C14 UNL     1       4.513   1.516  -0.197  1.00  0.00     0.177 C 
HETATM   23  F1  UNL     1       5.822   1.902  -0.184  1.00  0.00    -0.249 F 
HETATM   24  C15 UNL     1       4.407   0.090  -0.695  1.00  0.00     0.033 C 
HETATM   25  C16 UNL     1       5.298  -0.881   0.007  1.00  0.00     0.014 C 
HETATM   26  C17 UNL     1       2.994  -0.327  -0.762  1.00  0.00     0.129 C 
ENDBRANCH  18  19
ENDBRANCH   7  18
TORSDOF 5
