REMARK  6 active torsions:
REMARK  status: ('A' for Active; 'I' for Inactive)
REMARK    1  A    between atoms: O1_2  and  C2_3 
REMARK    2  A    between atoms: C2_3  and  O2_4 
REMARK    3  A    between atoms: C2_3  and  C3_6 
REMARK    4  A    between atoms: C3_6  and  S1_7 
REMARK    5  A    between atoms: S1_7  and  C4_9 
REMARK    6  A    between atoms: C7_12  and  C8_13 
ROOT
HETATM    1  C4  UNL     1       0.264  -0.616   0.769  1.00  0.00     0.031 A 
HETATM    2  C5  UNL     1       0.479   0.737   0.650  1.00  0.00     0.022 A 
HETATM    3  C6  UNL     1       1.739   1.200   0.247  1.00  0.00     0.016 A 
HETATM    4  C7  UNL     1       2.757   0.311  -0.030  1.00  0.00     0.005 A 
HETATM    5  C9  UNL     1       2.539  -1.045   0.089  1.00  0.00     0.016 A 
HETATM    6  C10 UNL     1       1.303  -1.499   0.485  1.00  0.00     0.022 A 
ENDROOT
BRANCH   1   7
HETATM    7  S1  UNL     1      -1.255  -1.260   1.257  1.00  0.00     0.054 S 
HETATM    8  O3  UNL     1      -1.926  -0.577   2.598  1.00  0.00    -0.253 OA
BRANCH   7   9
HETATM    9  C3  UNL     1      -2.369  -1.621  -0.036  1.00  0.00     0.174 C 
BRANCH   9  10
HETATM   10  C2  UNL     1      -3.113  -0.455  -0.596  1.00  0.00     0.268 C 
BRANCH  10  11
HETATM   11  O1  UNL     1      -3.887   0.190   0.337  1.00  0.00    -0.365 OA
HETATM   12  C1  UNL     1      -3.686   1.548   0.347  1.00  0.00     0.204 C 
ENDBRANCH  10  11
BRANCH  10  13
HETATM   13  O2  UNL     1      -3.975  -0.973  -1.591  1.00  0.00    -0.370 OA
ATOM     14  H2  UNL     1      -3.440  -1.419  -2.236  1.00  0.00     0.212 HD
ENDBRANCH  10  13
ENDBRANCH   9  10
ENDBRANCH   7   9
ENDBRANCH   1   7
BRANCH   4  15
HETATM   15  C8  UNL     1       4.047   0.842  -0.445  1.00  0.00     0.120 C 
HETATM   16  N1  UNL     1       4.328   2.070  -0.579  1.00  0.00    -0.387 N 
ATOM     17  H12 UNL     1       3.585   2.739  -0.378  1.00  0.00     0.157 HD
ATOM     18  H11 UNL     1       5.232   2.442  -0.870  1.00  0.00     0.157 HD
HETATM   19  N2  UNL     1       5.087  -0.095  -0.727  1.00  0.00    -0.082 NA
ENDBRANCH   4  15
TORSDOF 6
