REMARK  6 active torsions:
REMARK  status: ('A' for Active; 'I' for Inactive)
REMARK    1  A    between atoms: C2_2  and  O1_3 
REMARK    2  A    between atoms: O1_3  and  C3_4 
REMARK    3  A    between atoms: C3_4  and  C4_5 
REMARK    4  A    between atoms: C3_4  and  C6_14 
REMARK    5  A    between atoms: N2_7  and  N3_9 
REMARK    6  A    between atoms: N3_9  and  C5_11 
ROOT
HETATM    1  C3  UNL     1      -0.259  -0.412  -0.160  1.00  0.00     0.220 C 
ENDROOT
BRANCH   1   2
HETATM    2  O1  UNL     1      -1.384  -1.164  -0.369  1.00  0.00    -0.374 OA
BRANCH   2   3
HETATM    3  C2  UNL     1      -1.669  -1.469  -1.675  1.00  0.00     0.165 C 
HETATM    4  C1  UNL     1      -2.935  -2.296  -1.700  1.00  0.00     0.033 C 
ENDBRANCH   2   3
ENDBRANCH   1   2
BRANCH   1   5
HETATM    5  C4  UNL     1       0.708  -1.244   0.612  1.00  0.00     0.141 C 
HETATM    6  N1  UNL     1       0.397  -1.764   1.901  1.00  0.00    -0.083 NA
HETATM    7  N2  UNL     1       1.880  -1.538   0.154  1.00  0.00    -0.287 N 
ATOM      8  H2  UNL     1       2.530  -2.108   0.695  1.00  0.00     0.188 HD
BRANCH   7   9
HETATM    9  N3  UNL     1       2.228  -1.048  -1.109  1.00  0.00    -0.277 N 
ATOM     10  H3  UNL     1       1.715  -1.347  -1.938  1.00  0.00     0.189 HD
BRANCH   9  11
HETATM   11  C5  UNL     1       3.301  -0.132  -1.223  1.00  0.00     0.199 C 
HETATM   12  N4  UNL     1       4.024   0.296  -0.099  1.00  0.00    -0.068 NA
HETATM   13  S1  UNL     1       3.726   0.452  -2.685  1.00  0.00    -0.043 SA
ENDBRANCH   9  11
ENDBRANCH   7   9
ENDBRANCH   1   5
BRANCH   1  14
HETATM   14  C6  UNL     1      -0.508   0.889   0.497  1.00  0.00    -0.022 A 
HETATM   15  C7  UNL     1      -1.362   0.913   1.593  1.00  0.00     0.010 A 
HETATM   16  C8  UNL     1      -1.601   2.123   2.213  1.00  0.00     0.001 A 
HETATM   17  C9  UNL     1      -1.001   3.286   1.750  1.00  0.00     0.000 A 
HETATM   18  C10 UNL     1      -0.150   3.282   0.664  1.00  0.00     0.001 A 
HETATM   19  C11 UNL     1       0.083   2.057   0.047  1.00  0.00     0.010 A 
ENDBRANCH   1  14
TORSDOF 6
