REMARK  7 active torsions:
REMARK  status: ('A' for Active; 'I' for Inactive)
REMARK    1  A    between atoms: N1_2  and  C2_5 
REMARK    2  A    between atoms: C2_5  and  C4_7 
REMARK    3  A    between atoms: C4_7  and  N2_8 
REMARK    4  A    between atoms: N2_8  and  C5_10 
REMARK    5  A    between atoms: C5_10  and  N3_12 
REMARK    6  A    between atoms: N3_12  and  C6_14 
REMARK    7  A    between atoms: C6_14  and  C7_15 
ROOT
HETATM    1  C5  UNL     1       0.173   1.011  -0.535  1.00  0.00     0.167 C 
HETATM    2  S1  UNL     1       0.930   1.901  -1.659  1.00  0.00    -0.041 SA
ENDROOT
BRANCH   1   3
HETATM    3  N2  UNL     1       0.796   0.513   0.627  1.00  0.00    -0.365 N 
ATOM      4  H2  UNL     1       0.191   0.011   1.276  1.00  0.00     0.161 HD
BRANCH   3   5
HETATM    5  C4  UNL     1       2.152   0.621   1.007  1.00  0.00     0.154 C 
BRANCH   5   6
HETATM    6  C2  UNL     1       3.173  -0.193   0.329  1.00  0.00     0.199 C 
HETATM    7  C3  UNL     1       4.490  -0.026   1.108  1.00  0.00     0.041 C 
BRANCH   6   8
HETATM    8  N1  UNL     1       3.358  -0.031  -1.064  1.00  0.00    -0.074 N 
HETATM    9  C1  UNL     1       4.233  -1.103  -1.563  1.00  0.00     0.267 C 
ATOM     10  H12 UNL     1       3.707   0.897  -1.303  1.00  0.00     0.277 HD
ATOM     11  H11 UNL     1       2.473   0.014  -1.570  1.00  0.00     0.277 HD
ENDBRANCH   6   8
ENDBRANCH   5   6
ENDBRANCH   3   5
ENDBRANCH   1   3
BRANCH   1  12
HETATM   12  N3  UNL     1      -1.215   0.771  -0.739  1.00  0.00    -0.362 N 
ATOM     13  H3  UNL     1      -1.688   1.120  -1.573  1.00  0.00     0.162 HD
BRANCH  12  14
HETATM   14  C6  UNL     1      -1.936   0.024   0.258  1.00  0.00     0.179 C 
BRANCH  14  15
HETATM   15  C7  UNL     1      -3.364  -0.172  -0.031  1.00  0.00     0.026 A 
HETATM   16  C8  UNL     1      -4.139   0.944  -0.307  1.00  0.00     0.027 A 
HETATM   17  C9  UNL     1      -5.473   0.718  -0.564  1.00  0.00     0.003 A 
HETATM   18  C10 UNL     1      -5.985  -0.554  -0.543  1.00  0.00     0.017 A 
HETATM   19  C11 UNL     1      -5.193  -1.660  -0.264  1.00  0.00     0.088 A 
HETATM   20  N4  UNL     1      -3.890  -1.402  -0.016  1.00  0.00    -0.368 N 
ATOM     21  H4  UNL     1      -3.274  -2.188   0.194  1.00  0.00     0.165 HD
ENDBRANCH  14  15
ENDBRANCH  12  14
ENDBRANCH   1  12
TORSDOF 7
