REMARK  7 active torsions:
REMARK  status: ('A' for Active; 'I' for Inactive)
REMARK    1  A    between atoms: O1_1  and  C1_3 
REMARK    2  A    between atoms: N1_5  and  C3_6 
REMARK    3  A    between atoms: C9_13  and  C10_14 
REMARK    4  A    between atoms: C10_14  and  N2_15 
REMARK    5  A    between atoms: N2_15  and  O3_17 
REMARK    6  A    between atoms: O3_17  and  C11_18 
REMARK    7  A    between atoms: C11_18  and  C12_19 
ROOT
HETATM    1  C1  UNL     1      -1.630   2.052  -1.389  1.00  0.00     0.094 A 
HETATM    2  C2  UNL     1      -2.840   1.336  -1.418  1.00  0.00     0.128 A 
HETATM    3  N1  UNL     1      -3.166   0.979  -0.156  1.00  0.00    -0.358 N 
HETATM    4  C8  UNL     1      -2.206   1.455   0.660  1.00  0.00     0.106 A 
HETATM    5  C9  UNL     1      -1.205   2.146  -0.107  1.00  0.00     0.031 A 
ENDROOT
BRANCH   5   6
HETATM    6  C10 UNL     1       0.067   2.433   0.553  1.00  0.00     0.129 C 
BRANCH   6   7
HETATM    7  N2  UNL     1       1.180   2.337   0.274  1.00  0.00    -0.277 N 
ATOM      8  H2  UNL     1       1.622   2.705   1.117  1.00  0.00     0.193 HD
BRANCH   7   9
HETATM    9  O3  UNL     1       2.220   2.053  -0.443  1.00  0.00    -0.280 OA
BRANCH   9  10
HETATM   10  C11 UNL     1       2.304   0.504  -0.216  1.00  0.00     0.205 C 
BRANCH  10  11
HETATM   11  C12 UNL     1       3.640   0.296   0.385  1.00  0.00     0.012 C 
HETATM   12  C13 UNL     1       3.797  -1.175   0.851  1.00  0.00     0.007 C 
HETATM   13  C14 UNL     1       5.272  -1.335   1.262  1.00  0.00     0.000 C 
HETATM   14  C15 UNL     1       6.075  -1.538   0.008  1.00  0.00     0.000 C 
HETATM   15  C16 UNL     1       5.295  -0.857  -1.091  1.00  0.00     0.000 C 
HETATM   16  C17 UNL     1       4.790   0.472  -0.634  1.00  0.00     0.007 C 
ENDBRANCH  10  11
ENDBRANCH   9  10
ENDBRANCH   7   9
ENDBRANCH   6   7
ENDBRANCH   5   6
BRANCH   1  17
HETATM   17  O1  UNL     1      -0.996   2.581  -2.546  1.00  0.00    -0.358 OA
ATOM     18  H1  UNL     1      -0.179   3.065  -2.526  1.00  0.00     0.217 HD
ENDBRANCH   1  17
BRANCH   3  19
HETATM   19  C3  UNL     1      -4.258   0.153   0.313  1.00  0.00     0.092 C 
HETATM   20  C4  UNL     1      -5.329   0.009  -0.710  1.00  0.00     0.052 C 
HETATM   21  C5  UNL     1      -6.389  -0.910  -0.073  1.00  0.00     0.169 C 
HETATM   22  O2  UNL     1      -6.058  -1.233   1.263  1.00  0.00    -0.391 OA
HETATM   23  C6  UNL     1      -4.846  -1.966   1.327  1.00  0.00     0.169 C 
HETATM   24  C7  UNL     1      -3.749  -1.281   0.554  1.00  0.00     0.052 C 
ENDBRANCH   3  19
TORSDOF 7
