REMARK  5 active torsions:
REMARK  status: ('A' for Active; 'I' for Inactive)
REMARK    1  A    between atoms: O1_2  and  C2_3 
REMARK    2  A    between atoms: C4_5  and  O2_6 
REMARK    3  A    between atoms: C6_8  and  C7_9 
REMARK    4  A    between atoms: N2_14  and  C10_16 
REMARK    5  A    between atoms: C15_22  and  O4_23 
ROOT
HETATM    1  C2  UNL     1       3.717   0.085   0.147  1.00  0.00     0.104 A 
HETATM    2  C3  UNL     1       2.671   0.977   0.217  1.00  0.00     0.077 A 
HETATM    3  C4  UNL     1       1.348   0.565   0.146  1.00  0.00     0.084 A 
HETATM    4  C6  UNL     1       1.111  -0.773   0.003  1.00  0.00     0.035 A 
HETATM    5  C14 UNL     1       2.138  -1.688  -0.069  1.00  0.00     0.057 A 
HETATM    6  C15 UNL     1       3.433  -1.254   0.003  1.00  0.00     0.102 A 
ENDROOT
BRANCH   4   7
HETATM    7  C7  UNL     1      -0.278  -1.235  -0.074  1.00  0.00     0.107 A 
HETATM    8  C8  UNL     1      -0.681  -2.559  -0.218  1.00  0.00     0.130 A 
HETATM    9  N1  UNL     1      -2.033  -2.512  -0.242  1.00  0.00    -0.329 N 
HETATM   10  C9  UNL     1      -2.445  -1.236  -0.120  1.00  0.00     0.225 A 
ATOM     11  H1  UNL     1      -2.647  -3.321  -0.338  1.00  0.00     0.168 HD
HETATM   12  N2  UNL     1      -3.669  -0.869  -0.108  1.00  0.00    -0.348 N 
HETATM   13  O3  UNL     1      -1.363  -0.500  -0.021  1.00  0.00    -0.277 OA
ATOM     14  H2  UNL     1      -4.369  -1.605  -0.198  1.00  0.00     0.163 HD
BRANCH  12  15
HETATM   15  C10 UNL     1      -4.153   0.461   0.018  1.00  0.00     0.022 C 
HETATM   16  C11 UNL     1      -5.675   0.408   0.010  1.00  0.00     0.037 C 
HETATM   17  C12 UNL     1      -3.746   1.148   1.295  1.00  0.00     0.037 C 
HETATM   18  C13 UNL     1      -3.636   1.280  -1.145  1.00  0.00     0.037 C 
ENDBRANCH  12  15
ENDBRANCH   4   7
BRANCH   3  19
HETATM   19  O2  UNL     1       0.318   1.508   0.221  1.00  0.00    -0.355 OA
HETATM   20  C5  UNL     1       0.603   2.879   0.368  1.00  0.00     0.210 C 
ENDBRANCH   3  19
BRANCH   6  21
HETATM   21  O4  UNL     1       4.483  -2.153  -0.067  1.00  0.00    -0.353 OA
HETATM   22  C16 UNL     1       4.234  -3.529  -0.213  1.00  0.00     0.210 C 
ENDBRANCH   6  21
BRANCH   1  23
HETATM   23  O1  UNL     1       5.045   0.482   0.216  1.00  0.00    -0.353 OA
HETATM   24  C1  UNL     1       5.305   1.866   0.364  1.00  0.00     0.210 C 
ENDBRANCH   1  23
TORSDOF 5
