REMARK  3 active torsions:
REMARK  status: ('A' for Active; 'I' for Inactive)
REMARK    1  A    between atoms: C2_2  and  C3_3 
REMARK    2  A    between atoms: C5_5  and  O1_6 
REMARK    3  A    between atoms: C13_15  and  O2_16 
ROOT
HETATM    1  C3  UNL     1       0.785   0.612   0.096  1.00  0.00    -0.031 C 
HETATM    2  C4  UNL     1       1.735   0.063   1.219  1.00  0.00     0.041 C 
HETATM    3  C5  UNL     1       1.543  -1.403   1.396  1.00  0.00     0.119 C 
HETATM    4  C6  UNL     1       1.657  -2.228   0.162  1.00  0.00     0.036 C 
HETATM    5  C7  UNL     1       0.941  -1.651  -1.029  1.00  0.00    -0.011 C 
HETATM    6  C8  UNL     1      -0.492  -2.057  -1.075  1.00  0.00     0.005 C 
HETATM    7  C9  UNL     1      -1.330  -0.843  -1.409  1.00  0.00     0.010 C 
HETATM    8  C10 UNL     1      -1.641  -0.140  -0.157  1.00  0.00    -0.035 C 
HETATM    9  C11 UNL     1      -2.509  -1.070   0.715  1.00  0.00     0.016 C 
HETATM   10  C12 UNL     1      -2.429   1.139  -0.336  1.00  0.00     0.041 C 
HETATM   11  C13 UNL     1      -1.475   1.719   0.724  1.00  0.00     0.124 C 
HETATM   12  C14 UNL     1      -0.561   0.535   0.584  1.00  0.00     0.031 C 
HETATM   13  C15 UNL     1       1.200  -0.193  -1.106  1.00  0.00     0.014 C 
ENDROOT
BRANCH   1  14
HETATM   14  C2  UNL     1       1.432   1.957  -0.155  1.00  0.00     0.005 C 
HETATM   15  C1  UNL     1       0.845   2.803  -1.214  1.00  0.00     0.006 C 
ENDBRANCH   1  14
BRANCH   3  16
HETATM   16  O1  UNL     1       2.541  -1.833   2.283  1.00  0.00    -0.396 OA
ATOM     17  H1  UNL     1       2.419  -2.768   2.396  1.00  0.00     0.210 HD
ENDBRANCH   3  16
BRANCH  11  18
HETATM   18  O2  UNL     1      -2.223   1.755   1.930  1.00  0.00    -0.395 OA
ATOM     19  H2  UNL     1      -1.634   2.113   2.584  1.00  0.00     0.210 HD
ENDBRANCH  11  18
TORSDOF 3
