REMARK  4 active torsions:
REMARK  status: ('A' for Active; 'I' for Inactive)
REMARK    1  A    between atoms: C5_6  and  C6_7 
REMARK    2  A    between atoms: C6_7  and  C9_10 
REMARK    3  A    between atoms: C9_10  and  O1_11 
REMARK    4  A    between atoms: C11_14  and  C12_15 
ROOT
HETATM    1  C1  UNL     1      -1.554   2.577   0.454  1.00  0.00     0.011 C 
HETATM    2  C2  UNL     1      -0.808   1.264   0.515  1.00  0.00     0.004 C 
HETATM    3  C3  UNL     1       0.683   1.572   0.245  1.00  0.00     0.102 C 
HETATM    4  C4  UNL     1       1.169   2.171   1.471  1.00  0.00     0.064 C 
HETATM    5  N1  UNL     1       1.537   2.664   2.444  1.00  0.00    -0.197 NA
HETATM    6  C5  UNL     1       1.332   0.411  -0.287  1.00  0.00     0.014 C 
HETATM    7  C10 UNL     1       0.179  -0.463  -0.803  1.00  0.00     0.012 C 
HETATM    8  C11 UNL     1      -1.074   0.347  -0.622  1.00  0.00    -0.002 C 
ENDROOT
BRANCH   6   9
HETATM    9  C6  UNL     1       2.255  -0.469   0.416  1.00  0.00    -0.021 C 
HETATM   10  C7  UNL     1       2.636  -1.568  -0.614  1.00  0.00     0.017 C 
HETATM   11  C8  UNL     1       1.771  -1.167   1.631  1.00  0.00     0.017 C 
BRANCH   9  12
HETATM   12  C9  UNL     1       3.632   0.086   0.748  1.00  0.00     0.173 C 
BRANCH  12  13
HETATM   13  O1  UNL     1       4.342   0.470  -0.370  1.00  0.00    -0.400 OA
ATOM     14  H1  UNL     1       5.202   0.817  -0.163  1.00  0.00     0.209 HD
ENDBRANCH  12  13
ENDBRANCH   9  12
ENDBRANCH   6   9
BRANCH   8  15
HETATM   15  C12 UNL     1      -2.305  -0.493  -0.479  1.00  0.00    -0.047 C 
HETATM   16  C13 UNL     1      -2.507  -1.407  -1.686  1.00  0.00     0.015 C 
HETATM   17  C14 UNL     1      -2.291  -1.387   0.731  1.00  0.00     0.015 C 
HETATM   18  C15 UNL     1      -3.550   0.362  -0.396  1.00  0.00     0.015 C 
ENDBRANCH   8  15
TORSDOF 4
