REMARK  3 active torsions:
REMARK  status: ('A' for Active; 'I' for Inactive)
REMARK    1  A    between atoms: C2_2  and  O1_4 
REMARK    2  A    between atoms: C2_2  and  C4_6 
REMARK    3  A    between atoms: C6_8  and  O2_9 
ROOT
HETATM    1  C4  UNL     1      -1.145  -0.152   0.679  1.00  0.00     0.031 C 
HETATM    2  C5  UNL     1      -1.245   1.104   1.587  1.00  0.00     0.040 C 
HETATM    3  C6  UNL     1      -0.078   1.963   1.264  1.00  0.00     0.123 C 
HETATM    4  C7  UNL     1       0.993   1.035   0.722  1.00  0.00     0.024 C 
HETATM    5  C8  UNL     1       1.590   1.633  -0.488  1.00  0.00     0.008 C 
HETATM    6  C9  UNL     1       2.183   0.691  -1.470  1.00  0.00     0.001 C 
HETATM    7  C10 UNL     1       1.377  -0.554  -1.698  1.00  0.00     0.009 C 
HETATM    8  C11 UNL     1       1.024  -1.144  -0.358  1.00  0.00    -0.040 C 
HETATM    9  C12 UNL     1       2.448  -1.333   0.248  1.00  0.00     0.015 C 
HETATM   10  C13 UNL     1       0.559  -2.546  -0.548  1.00  0.00     0.015 C 
HETATM   11  C14 UNL     1       0.288  -0.292   0.590  1.00  0.00    -0.025 C 
HETATM   12  C15 UNL     1       0.674  -0.991   1.946  1.00  0.00     0.017 C 
ENDROOT
BRANCH   1  13
HETATM   13  C2  UNL     1      -2.159   0.027  -0.324  1.00  0.00     0.055 C 
HETATM   14  C1  UNL     1      -2.367  -1.059  -1.361  1.00  0.00     0.045 C 
HETATM   15  C3  UNL     1      -2.287   1.345  -1.026  1.00  0.00     0.045 C 
BRANCH  13  16
HETATM   16  O1  UNL     1      -3.398  -0.045   0.395  1.00  0.00    -0.390 OA
ATOM     17  H1  UNL     1      -3.268   0.636   1.045  1.00  0.00     0.210 HD
ENDBRANCH  13  16
ENDBRANCH   1  13
BRANCH   3  18
HETATM   18  O2  UNL     1       0.314   2.641   2.416  1.00  0.00    -0.395 OA
ATOM     19  H2  UNL     1       1.061   3.191   2.209  1.00  0.00     0.210 HD
ENDBRANCH   3  18
TORSDOF 3
