REMARK  3 active torsions:
REMARK  status: ('A' for Active; 'I' for Inactive)
REMARK    1  A    between atoms: C2_2  and  O1_3 
REMARK    2  A    between atoms: C2_2  and  C3_5 
REMARK    3  A    between atoms: C5_7  and  O2_9 
ROOT
HETATM    1  C3  UNL     1      -0.084   0.348  -0.400  1.00  0.00     0.005 A 
HETATM    2  C4  UNL     1       0.811  -0.042  -1.594  1.00  0.00     0.052 A 
HETATM    3  C5  UNL     1       1.752  -0.819  -0.710  1.00  0.00     0.063 A 
HETATM    4  C6  UNL     1       3.178  -0.432  -0.689  1.00  0.00     0.046 C 
HETATM    5  C7  UNL     1       0.886  -0.379   0.445  1.00  0.00    -0.003 A 
HETATM    6  C8  UNL     1       1.682   0.389   1.457  1.00  0.00     0.019 C 
HETATM    7  C9  UNL     1       0.316  -1.634   1.104  1.00  0.00     0.013 C 
HETATM    8  C10 UNL     1      -1.016  -1.404   1.708  1.00  0.00     0.002 C 
HETATM    9  C11 UNL     1      -1.999  -0.826   0.784  1.00  0.00     0.010 C 
HETATM   10  C12 UNL     1      -1.465  -0.198  -0.471  1.00  0.00    -0.037 C 
HETATM   11  C13 UNL     1      -2.529   0.840  -0.823  1.00  0.00     0.015 C 
HETATM   12  C14 UNL     1      -1.654  -1.228  -1.599  1.00  0.00     0.015 C 
ENDROOT
BRANCH   1  13
HETATM   13  C2  UNL     1      -0.044   1.878  -0.335  1.00  0.00     0.124 C 
HETATM   14  C1  UNL     1      -0.838   2.499   0.750  1.00  0.00     0.040 C 
BRANCH  13  15
HETATM   15  O1  UNL     1       1.274   2.345  -0.184  1.00  0.00    -0.395 OA
ATOM     16  H1  UNL     1       1.783   1.947  -0.880  1.00  0.00     0.210 HD
ENDBRANCH  13  15
ENDBRANCH   1  13
BRANCH   3  17
HETATM   17  O2  UNL     1       1.731  -2.217  -0.968  1.00  0.00    -0.389 OA
ATOM     18  H2  UNL     1       2.324  -2.707  -0.411  1.00  0.00     0.210 HD
ENDBRANCH   3  17
TORSDOF 3
