REMARK  16 active torsions:
REMARK  status: ('A' for Active; 'I' for Inactive)
REMARK    1  A    between atoms: N1_1  and  C1_5 
REMARK    2  A    between atoms: C1_5  and  C2_6 
REMARK    3  A    between atoms: C2_6  and  C3_7 
REMARK    4  A    between atoms: C3_7  and  N2_8 
REMARK    5  A    between atoms: N2_8  and  C4_9 
REMARK    6  A    between atoms: N2_8  and  C7_14 
REMARK    7  A    between atoms: C4_9  and  C5_10 
REMARK    8  A    between atoms: C5_10  and  C6_11 
REMARK    9  A    between atoms: C7_14  and  C8_15 
REMARK   10  A    between atoms: C8_15  and  C9_16 
REMARK   11  A    between atoms: C13_20  and  C14_21 
REMARK   12  A    between atoms: C14_21  and  C15_22 
REMARK   13  A    between atoms: C15_22  and  C16_23 
REMARK   14  A    between atoms: C17_26  and  C18_27 
REMARK   15  A    between atoms: C18_27  and  C19_28 
REMARK   16  A    between atoms: C19_28  and  N5_29 
ROOT
HETATM    1  C9  UNL     1      -0.013   0.982  -0.396  1.00  0.00     0.188 C 
HETATM    2  C10 UNL     1       0.314   0.893  -1.860  1.00  0.00     0.039 C 
HETATM    3  C11 UNL     1       1.690   0.240  -1.843  1.00  0.00     0.019 C 
HETATM    4  C12 UNL     1       2.778   1.221  -1.647  1.00  0.00     0.011 C 
HETATM    5  C13 UNL     1       3.824   0.572  -0.744  1.00  0.00    -0.008 C 
HETATM    6  C17 UNL     1       3.038  -0.495   0.004  1.00  0.00     0.022 C 
HETATM    7  C20 UNL     1       1.680  -0.594  -0.609  1.00  0.00     0.195 C 
HETATM    8  N6  UNL     1       0.634  -0.101   0.258  1.00  0.00    -0.066 N 
ATOM      9  H61 UNL     1      -0.017  -0.833   0.544  1.00  0.00     0.278 HD
ATOM     10  H62 UNL     1       0.977   0.149   1.185  1.00  0.00     0.278 HD
ENDROOT
BRANCH   1  11
HETATM   11  C8  UNL     1      -1.454   1.185  -0.102  1.00  0.00     0.063 C 
BRANCH  11  12
HETATM   12  C7  UNL     1      -2.343   0.109  -0.622  1.00  0.00     0.274 C 
BRANCH  12  13
HETATM   13  N2  UNL     1      -3.738   0.412  -0.266  1.00  0.00     0.088 N 
BRANCH  13  14
HETATM   14  C3  UNL     1      -3.934   0.294   1.117  1.00  0.00     0.274 C 
BRANCH  14  15
HETATM   15  C2  UNL     1      -3.320  -0.945   1.760  1.00  0.00     0.057 C 
BRANCH  15  16
HETATM   16  C1  UNL     1      -3.868  -2.228   1.233  1.00  0.00     0.231 C 
BRANCH  16  17
HETATM   17  N1  UNL     1      -5.319  -2.218   1.519  1.00  0.00    -0.079 N 
ATOM     18  H13 UNL     1      -5.535  -2.062   2.504  1.00  0.00     0.274 HD
ATOM     19  H12 UNL     1      -5.796  -1.395   1.152  1.00  0.00     0.274 HD
ATOM     20  H11 UNL     1      -5.694  -3.096   1.159  1.00  0.00     0.274 HD
ENDBRANCH  16  17
ENDBRANCH  15  16
ENDBRANCH  14  15
ENDBRANCH  13  14
BRANCH  13  21
HETATM   21  C4  UNL     1      -4.191   1.542  -0.975  1.00  0.00     0.281 C 
BRANCH  21  22
HETATM   22  C5  UNL     1      -5.658   1.715  -1.063  1.00  0.00     0.129 C 
BRANCH  22  23
HETATM   23  C6  UNL     1      -6.404   2.036   0.143  1.00  0.00     0.232 C 
HETATM   24  N3  UNL     1      -7.725   1.562   0.347  1.00  0.00    -0.062 NA
HETATM   25  O1  UNL     1      -5.908   2.755   1.055  1.00  0.00    -0.277 OA
ENDBRANCH  22  23
ENDBRANCH  21  22
ENDBRANCH  13  21
ENDBRANCH  12  13
ENDBRANCH  11  12
ENDBRANCH   1  11
BRANCH   6  26
HETATM   26  C18 UNL     1       3.804  -1.787  -0.055  1.00  0.00     0.034 C 
BRANCH  26  27
HETATM   27  C19 UNL     1       3.112  -2.917   0.691  1.00  0.00     0.230 C 
BRANCH  27  28
HETATM   28  N5  UNL     1       3.905  -4.136   0.609  1.00  0.00    -0.079 N 
ATOM     29  H53 UNL     1       4.115  -4.390  -0.357  1.00  0.00     0.274 HD
ATOM     30  H52 UNL     1       4.860  -3.992   0.937  1.00  0.00     0.274 HD
ATOM     31  H51 UNL     1       3.441  -4.894   1.109  1.00  0.00     0.274 HD
ENDBRANCH  27  28
ENDBRANCH  26  27
ENDBRANCH   6  26
BRANCH   5  32
HETATM   32  C14 UNL     1       4.332   1.614   0.230  1.00  0.00     0.014 C 
BRANCH  32  33
HETATM   33  C15 UNL     1       5.398   1.146   1.163  1.00  0.00     0.100 C 
BRANCH  33  34
HETATM   34  C16 UNL     1       6.645   0.764   0.470  1.00  0.00     0.231 C 
HETATM   35  N4  UNL     1       7.686   0.127   1.240  1.00  0.00    -0.062 NA
HETATM   36  O2  UNL     1       6.847   0.960  -0.734  1.00  0.00    -0.277 OA
ENDBRANCH  33  34
ENDBRANCH  32  33
ENDBRANCH   5  32
TORSDOF 16
