REMARK  16 active torsions:
REMARK  status: ('A' for Active; 'I' for Inactive)
REMARK    1  A    between atoms: C2_2  and  C3_3 
REMARK    2  A    between atoms: C3_3  and  N1_4 
REMARK    3  A    between atoms: N1_4  and  C4_7 
REMARK    4  A    between atoms: C4_7  and  C5_8 
REMARK    5  A    between atoms: C5_8  and  C6_9 
REMARK    6  A    between atoms: C5_8  and  N2_12 
REMARK    7  A    between atoms: C6_9  and  C7_10 
REMARK    8  A    between atoms: N2_12  and  N3_13 
REMARK       I    between atoms: N2_12  and  C10_17 
REMARK    9  A    between atoms: C10_17  and  C11_19 
REMARK   10  A    between atoms: C11_19  and  C12_20 
REMARK   11  A    between atoms: C12_20  and  N5_21 
REMARK   12  A    between atoms: N5_21  and  C13_23 
REMARK   13  A    between atoms: C13_23  and  C14_24 
REMARK   14  A    between atoms: C14_24  and  C15_25 
REMARK   15  A    between atoms: C15_25  and  N6_26 
REMARK   16  A    between atoms: N6_26  and  C16_28 
ROOT
HETATM    1  N2  UNL     1      -1.330  -2.389  -0.886  1.00  0.00    -0.230 N 
HETATM    2  C10 UNL     1      -0.339  -1.404  -0.920  1.00  0.00     0.244 C 
HETATM    3  O1  UNL     1       0.801  -1.723  -1.423  1.00  0.00    -0.271 OA
ENDROOT
BRANCH   2   4
HETATM    4  C11 UNL     1      -0.428  -0.006  -0.437  1.00  0.00     0.124 C 
BRANCH   4   5
HETATM    5  C12 UNL     1       0.863   0.749  -0.704  1.00  0.00     0.123 C 
BRANCH   5   6
HETATM    6  N5  UNL     1       1.991   0.166  -0.082  1.00  0.00    -0.421 N 
ATOM      7  H5  UNL     1       2.715  -0.292  -0.636  1.00  0.00     0.153 HD
BRANCH   6   8
HETATM    8  C13 UNL     1       2.091   0.233   1.329  1.00  0.00     0.115 C 
BRANCH   8   9
HETATM    9  C14 UNL     1       2.346   1.637   1.846  1.00  0.00     0.039 C 
BRANCH   9  10
HETATM   10  C15 UNL     1       3.673   2.115   1.242  1.00  0.00     0.123 C 
BRANCH  10  11
HETATM   11  N6  UNL     1       3.964   3.431   1.697  1.00  0.00    -0.376 N 
ATOM     12  H6  UNL     1       3.174   4.013   1.977  1.00  0.00     0.161 HD
BRANCH  11  13
HETATM   13  C16 UNL     1       5.138   3.951   1.786  1.00  0.00     0.100 A 
HETATM   14  C17 UNL     1       5.250   5.249   2.250  1.00  0.00     0.048 A 
HETATM   15  C18 UNL     1       6.471   5.891   2.382  1.00  0.00     0.005 A 
HETATM   16  C19 UNL     1       7.618   5.229   2.045  1.00  0.00     0.017 A 
HETATM   17  C20 UNL     1       7.482   3.935   1.585  1.00  0.00     0.089 A 
HETATM   18  N7  UNL     1       6.280   3.315   1.459  1.00  0.00    -0.353 N 
ATOM     19  H7  UNL     1       6.241   2.356   1.113  1.00  0.00     0.166 HD
ENDBRANCH  11  13
ENDBRANCH  10  11
ENDBRANCH   9  10
ENDBRANCH   8   9
ENDBRANCH   6   8
ENDBRANCH   5   6
ENDBRANCH   4   5
ENDBRANCH   2   4
BRANCH   1  20
HETATM   20  C5  UNL     1      -2.678  -2.309  -0.424  1.00  0.00     0.044 C 
BRANCH  20  21
HETATM   21  C4  UNL     1      -3.564  -1.563  -1.404  1.00  0.00     0.287 C 
BRANCH  21  22
HETATM   22  N1  UNL     1      -4.963  -1.821  -1.234  1.00  0.00    -0.067 N 
ATOM     23  H12 UNL     1      -5.267  -1.567  -0.294  1.00  0.00     0.277 HD
ATOM     24  H11 UNL     1      -5.146  -2.824  -1.205  1.00  0.00     0.277 HD
BRANCH  22  25
HETATM   25  C3  UNL     1      -5.773  -1.189  -2.214  1.00  0.00     0.259 C 
BRANCH  25  26
HETATM   26  C2  UNL     1      -5.764   0.276  -2.060  1.00  0.00    -0.010 C 
HETATM   27  C1  UNL     1      -5.320   1.024  -3.071  1.00  0.00     0.008 C 
ENDBRANCH  25  26
ENDBRANCH  22  25
ENDBRANCH  21  22
ENDBRANCH  20  21
BRANCH  20  28
HETATM   28  C6  UNL     1      -2.884  -2.000   1.005  1.00  0.00     0.083 C 
BRANCH  28  29
HETATM   29  C7  UNL     1      -4.216  -2.285   1.566  1.00  0.00    -0.031 C 
HETATM   30  C8  UNL     1      -4.380  -3.205   2.540  1.00  0.00     0.007 C 
ENDBRANCH  28  29
ENDBRANCH  20  28
ENDBRANCH   1  20
BRANCH   1  31
HETATM   31  N3  UNL     1      -0.922  -3.663  -1.401  1.00  0.00    -0.289 N 
HETATM   32  C9  UNL     1      -0.704  -4.576  -0.533  1.00  0.00     0.207 C 
HETATM   33  N4  UNL     1      -0.298  -5.848  -1.032  1.00  0.00    -0.095 NA
ATOM     34  H3  UNL     1      -0.812  -3.831  -2.401  1.00  0.00     0.188 HD
ENDBRANCH   1  31
TORSDOF 16
