REMARK  19 active torsions:
REMARK  status: ('A' for Active; 'I' for Inactive)
REMARK    1  A    between atoms: C2_2  and  C3_3 
REMARK    2  A    between atoms: C3_3  and  N1_5 
REMARK    3  A    between atoms: N1_5  and  C5_7 
REMARK    4  A    between atoms: C6_8  and  N2_9 
REMARK    5  A    between atoms: C7_13  and  C8_14 
REMARK    6  A    between atoms: C8_14  and  O1_15 
REMARK    7  A    between atoms: O1_15  and  C9_16 
REMARK    8  A    between atoms: C10_18  and  C11_19 
REMARK    9  A    between atoms: C11_19  and  O3_20 
REMARK   10  A    between atoms: C12_22  and  N3_23 
REMARK   11  A    between atoms: C13_27  and  O4_28 
REMARK   12  A    between atoms: C14_30  and  O5_31 
REMARK   13  A    between atoms: C15_34  and  C16_35 
REMARK   14  A    between atoms: C16_35  and  C17_36 
REMARK   15  A    between atoms: C16_35  and  C18_39 
REMARK   16  A    between atoms: C16_35  and  O9_42 
REMARK   17  A    between atoms: C17_36  and  O7_37 
REMARK   18  A    between atoms: C18_39  and  O8_40 
REMARK   19  A    between atoms: O9_42  and  C19_43 
ROOT
HETATM    1  C5  UNL     1      -2.047  -0.760   0.071  1.00  0.00     0.142 C 
HETATM    2  C6  UNL     1      -0.966  -1.803   0.072  1.00  0.00     0.239 C 
HETATM    3  C7  UNL     1       0.331  -0.953   0.021  1.00  0.00     0.178 C 
HETATM    4  O6  UNL     1      -0.042   0.303  -0.359  1.00  0.00    -0.371 OA
HETATM    5  C15 UNL     1      -1.376   0.298  -0.804  1.00  0.00     0.186 C 
ENDROOT
BRANCH   3   6
HETATM    6  C8  UNL     1       1.242  -1.601  -0.984  1.00  0.00     0.205 C 
BRANCH   6   7
HETATM    7  O1  UNL     1       2.409  -0.936  -1.200  1.00  0.00    -0.356 OA
BRANCH   7   8
HETATM    8  C9  UNL     1       3.256  -0.818  -0.101  1.00  0.00     0.291 C 
HETATM    9  O2  UNL     1       3.372   0.530   0.170  1.00  0.00    -0.349 OA
HETATM   10  C10 UNL     1       4.414   0.865   1.001  1.00  0.00     0.181 C 
HETATM   11  C12 UNL     1       5.699   0.579   0.254  1.00  0.00     0.245 C 
HETATM   12  C13 UNL     1       5.775  -0.937   0.180  1.00  0.00     0.184 C 
HETATM   13  C14 UNL     1       4.555  -1.504  -0.440  1.00  0.00     0.204 C 
BRANCH  10  14
HETATM   14  C11 UNL     1       4.299   2.322   1.388  1.00  0.00     0.198 C 
BRANCH  14  15
HETATM   15  O3  UNL     1       3.113   2.584   2.053  1.00  0.00    -0.398 OA
ATOM     16  H3  UNL     1       3.041   3.500   2.296  1.00  0.00     0.209 HD
ENDBRANCH  14  15
ENDBRANCH  10  14
BRANCH  11  17
HETATM   17  N3  UNL     1       6.860   1.131   0.866  1.00  0.00    -0.070 N 
ATOM     18  H33 UNL     1       6.746   2.134   1.011  1.00  0.00     0.274 HD
ATOM     19  H32 UNL     1       6.934   0.824   1.836  1.00  0.00     0.274 HD
ATOM     20  H31 UNL     1       7.726   0.938   0.363  1.00  0.00     0.274 HD
ENDBRANCH  11  17
BRANCH  12  21
HETATM   21  O4  UNL     1       6.877  -1.279  -0.603  1.00  0.00    -0.391 OA
ATOM     22  H4  UNL     1       6.925  -2.227  -0.649  1.00  0.00     0.210 HD
ENDBRANCH  12  21
BRANCH  13  23
HETATM   23  O5  UNL     1       4.731  -1.525  -1.825  1.00  0.00    -0.388 OA
ATOM     24  H5  UNL     1       5.550  -1.957  -2.039  1.00  0.00     0.210 HD
ENDBRANCH  13  23
ENDBRANCH   7   8
ENDBRANCH   6   7
ENDBRANCH   3   6
BRANCH   2  25
HETATM   25  N2  UNL     1      -1.007  -2.607  -1.135  1.00  0.00    -0.070 N 
ATOM     26  H23 UNL     1      -1.928  -3.023  -1.277  1.00  0.00     0.274 HD
ATOM     27  H22 UNL     1      -0.966  -2.027  -1.973  1.00  0.00     0.274 HD
ATOM     28  H21 UNL     1      -0.273  -3.315  -1.134  1.00  0.00     0.274 HD
ENDBRANCH   2  25
BRANCH   1  29
HETATM   29  N1  UNL     1      -3.285  -1.174  -0.369  1.00  0.00    -0.409 N 
ATOM     30  H1  UNL     1      -3.598  -0.801  -1.265  1.00  0.00     0.154 HD
BRANCH  29  31
HETATM   31  C3  UNL     1      -4.146  -2.039   0.272  1.00  0.00     0.072 C 
HETATM   32  C4  UNL     1      -3.706  -3.461   0.376  1.00  0.00     0.031 C 
BRANCH  31  33
HETATM   33  C2  UNL     1      -4.654  -1.579   1.631  1.00  0.00     0.020 C 
HETATM   34  C1  UNL     1      -5.127  -0.143   1.605  1.00  0.00     0.007 C 
ENDBRANCH  31  33
ENDBRANCH  29  31
ENDBRANCH   1  29
BRANCH   5  35
HETATM   35  C16 UNL     1      -1.897   1.681  -0.564  1.00  0.00     0.140 C 
BRANCH  35  36
HETATM   36  C17 UNL     1      -0.912   2.624  -1.277  1.00  0.00     0.207 C 
BRANCH  36  37
HETATM   37  O7  UNL     1      -1.180   3.949  -1.009  1.00  0.00    -0.398 OA
ATOM     38  H7  UNL     1      -0.572   4.531  -1.449  1.00  0.00     0.209 HD
ENDBRANCH  36  37
ENDBRANCH  35  36
BRANCH  35  39
HETATM   39  C18 UNL     1      -1.787   2.081   0.910  1.00  0.00     0.207 C 
BRANCH  39  40
HETATM   40  O8  UNL     1      -0.488   1.867   1.392  1.00  0.00    -0.398 OA
ATOM     41  H8  UNL     1      -0.420   2.115   2.306  1.00  0.00     0.209 HD
ENDBRANCH  39  40
ENDBRANCH  35  39
BRANCH  35  42
HETATM   42  O9  UNL     1      -3.206   1.923  -0.946  1.00  0.00    -0.303 OA
BRANCH  42  43
HETATM   43  C19 UNL     1      -3.749   1.828  -2.213  1.00  0.00     0.255 C 
HETATM   44  C20 UNL     1      -5.185   2.140  -2.392  1.00  0.00     0.126 C 
HETATM   45  O10 UNL     1      -2.978   1.477  -3.141  1.00  0.00    -0.266 OA
ENDBRANCH  42  43
ENDBRANCH  35  42
ENDBRANCH   5  35
TORSDOF 19
