REMARK  17 active torsions:
REMARK  status: ('A' for Active; 'I' for Inactive)
REMARK    1  A    between atoms: C2_7  and  C3_8 
REMARK    2  A    between atoms: C3_8  and  N5_12 
REMARK       I    between atoms: N5_12  and  C4_14 
REMARK       I    between atoms: C4_14  and  N7_18 
REMARK    3  A    between atoms: N7_18  and  C5_20 
REMARK    4  A    between atoms: C5_20  and  C6_21 
REMARK    5  A    between atoms: C6_21  and  N8_22 
REMARK    6  A    between atoms: N8_22  and  C7_25 
REMARK    7  A    between atoms: C7_25  and  C8_26 
REMARK    8  A    between atoms: C8_26  and  C9_27 
REMARK    9  A    between atoms: C9_27  and  N9_28 
REMARK   10  A    between atoms: N9_28  and  C10_31 
REMARK   11  A    between atoms: C10_31  and  C11_32 
REMARK   12  A    between atoms: C12_33  and  O1_34 
REMARK   13  A    between atoms: C13_36  and  N10_37 
REMARK   14  A    between atoms: C14_41  and  O2_42 
REMARK   15  A    between atoms: C15_44  and  O3_45 
REMARK   16  A    between atoms: C16_47  and  C17_48 
REMARK   17  A    between atoms: C17_48  and  C18_49 
ROOT
HETATM    1  C7  UNL     1       0.890  -1.348  -0.147  1.00  0.00     0.234 C 
ENDROOT
BRANCH   1   2
HETATM    2  N8  UNL     1       1.702  -0.598  -1.066  1.00  0.00    -0.074 N 
ATOM      3  H82 UNL     1       1.531   0.403  -0.967  1.00  0.00     0.277 HD
ATOM      4  H81 UNL     1       1.380  -0.730  -2.025  1.00  0.00     0.277 HD
BRANCH   2   5
HETATM    5  C6  UNL     1       3.099  -0.888  -0.954  1.00  0.00     0.252 C 
BRANCH   5   6
HETATM    6  C5  UNL     1       3.714  -0.400   0.354  1.00  0.00     0.165 C 
BRANCH   6   7
HETATM    7  N7  UNL     1       5.120  -0.738   0.359  1.00  0.00    -0.225 N 
HETATM    8  C4  UNL     1       5.483  -2.105   0.437  1.00  0.00     0.673 C 
HETATM    9  N5  UNL     1       6.770  -2.524  -0.051  1.00  0.00    -0.174 N 
HETATM   10  N6  UNL     1       4.687  -2.977   0.935  1.00  0.00    -0.235 N 
ATOM     11  H5  UNL     1       6.876  -3.316  -0.685  1.00  0.00     0.186 HD
ATOM     12  H62 UNL     1       4.948  -3.961   0.991  1.00  0.00     0.174 HD
ATOM     13  H61 UNL     1       3.775  -2.680   1.281  1.00  0.00     0.174 HD
ATOM     14  H7  UNL     1       5.833  -0.010   0.308  1.00  0.00     0.177 HD
BRANCH   9  15
HETATM   15  C3  UNL     1       7.878  -1.773   0.401  1.00  0.00     0.162 C 
HETATM   16  N4  UNL     1       8.347  -1.983   1.573  1.00  0.00    -0.382 N 
ATOM     17  H42 UNL     1       9.147  -1.441   1.899  1.00  0.00     0.157 HD
ATOM     18  H41 UNL     1       7.934  -2.684   2.189  1.00  0.00     0.157 HD
BRANCH  15  19
HETATM   19  C2  UNL     1       8.463  -0.780  -0.472  1.00  0.00     0.182 A 
HETATM   20  N3  UNL     1       8.084  -0.446  -1.721  1.00  0.00    -0.265 N 
HETATM   21  N2  UNL     1       8.904   0.519  -2.160  1.00  0.00    -0.225 N 
ATOM     22  H3  UNL     1       7.309  -0.856  -2.242  1.00  0.00     0.190 HD
HETATM   23  N1  UNL     1       9.770   0.783  -1.220  1.00  0.00    -0.223 N 
ATOM     24  H2  UNL     1       8.859   0.970  -3.074  1.00  0.00     0.210 HD
HETATM   25  C1  UNL     1      10.825   1.777  -1.327  1.00  0.00     0.202 C 
HETATM   26  N11 UNL     1       9.532   0.012  -0.178  1.00  0.00    -0.264 N 
ATOM     27  H11 UNL     1      10.057   0.009   0.697  1.00  0.00     0.190 HD
ENDBRANCH  15  19
ENDBRANCH   9  15
ENDBRANCH   6   7
ENDBRANCH   5   6
ENDBRANCH   2   5
ENDBRANCH   1   2
BRANCH   1  28
HETATM   28  C8  UNL     1      -0.586  -1.053  -0.275  1.00  0.00     0.055 C 
BRANCH  28  29
HETATM   29  C9  UNL     1      -0.904   0.381  -0.012  1.00  0.00     0.233 C 
BRANCH  29  30
HETATM   30  N9  UNL     1      -2.305   0.714  -0.129  1.00  0.00    -0.075 N 
ATOM     31  H92 UNL     1      -2.446   1.724  -0.162  1.00  0.00     0.277 HD
ATOM     32  H91 UNL     1      -2.669   0.472  -1.051  1.00  0.00     0.277 HD
BRANCH  30  33
HETATM   33  C10 UNL     1      -3.077   0.115   0.908  1.00  0.00     0.239 C 
BRANCH  33  34
HETATM   34  C11 UNL     1      -4.556   0.427   0.858  1.00  0.00     0.049 C 
HETATM   35  C12 UNL     1      -4.739   1.899   0.979  1.00  0.00     0.157 C 
HETATM   36  C13 UNL     1      -6.250   2.144   0.818  1.00  0.00     0.243 C 
HETATM   37  C14 UNL     1      -6.504   1.974  -0.661  1.00  0.00     0.180 C 
HETATM   38  C15 UNL     1      -5.926   0.740  -1.239  1.00  0.00     0.153 C 
HETATM   39  C16 UNL     1      -5.251  -0.191  -0.312  1.00  0.00     0.030 C 
BRANCH  35  40
HETATM   40  O1  UNL     1      -4.344   2.263   2.284  1.00  0.00    -0.393 OA
ATOM     41  H1  UNL     1      -4.461   3.203   2.361  1.00  0.00     0.210 HD
ENDBRANCH  35  40
BRANCH  36  42
HETATM   42  N10 UNL     1      -6.512   3.546   1.145  1.00  0.00    -0.070 N 
ATOM     43 3H10 UNL     1      -6.164   3.809   2.067  1.00  0.00     0.274 HD
ATOM     44 2H10 UNL     1      -5.945   4.193   0.597  1.00  0.00     0.274 HD
ATOM     45 1H10 UNL     1      -7.513   3.708   1.038  1.00  0.00     0.274 HD
ENDBRANCH  36  42
BRANCH  37  46
HETATM   46  O2  UNL     1      -7.882   2.093  -0.855  1.00  0.00    -0.391 OA
ATOM     47  H2  UNL     1      -8.042   1.986  -1.785  1.00  0.00     0.210 HD
ENDBRANCH  37  46
BRANCH  38  48
HETATM   48  O3  UNL     1      -5.040   1.101  -2.274  1.00  0.00    -0.393 OA
ATOM     49  H3  UNL     1      -4.669   0.309  -2.645  1.00  0.00     0.210 HD
ENDBRANCH  38  48
BRANCH  39  50
HETATM   50  C17 UNL     1      -6.208  -1.256   0.182  1.00  0.00     0.079 C 
BRANCH  50  51
HETATM   51  C18 UNL     1      -5.531  -2.355   0.940  1.00  0.00     0.353 C 
HETATM   52  F1  UNL     1      -6.538  -3.251   1.326  1.00  0.00    -0.214 F 
HETATM   53  F2  UNL     1      -4.742  -3.056   0.041  1.00  0.00    -0.214 F 
ENDBRANCH  50  51
ENDBRANCH  39  50
ENDBRANCH  33  34
ENDBRANCH  30  33
ENDBRANCH  29  30
ENDBRANCH  28  29
ENDBRANCH   1  28
TORSDOF 17
