REMARK  9 active torsions:
REMARK  status: ('A' for Active; 'I' for Inactive)
REMARK    1  A    between atoms: O1_1  and  C1_3 
REMARK    2  A    between atoms: C1_3  and  C2_4 
REMARK    3  A    between atoms: C2_4  and  N1_5 
REMARK    4  A    between atoms: N1_5  and  C3_8 
REMARK    5  A    between atoms: C4_9  and  O2_10 
REMARK    6  A    between atoms: O2_10  and  C5_11 
REMARK    7  A    between atoms: C9_15  and  N2_16 
REMARK    8  A    between atoms: N2_16  and  O3_17 
REMARK    9  A    between atoms: C14_24  and  O4_25 
ROOT
HETATM    1  C3  UNL     1      -2.091  -0.721   0.177  1.00  0.00     0.250 C 
HETATM    2  C4  UNL     1      -0.750  -0.724   0.866  1.00  0.00     0.177 C 
HETATM    3  C11 UNL     1      -0.563  -2.099   1.474  1.00  0.00     0.006 C 
HETATM    4  C12 UNL     1      -1.284  -3.125   1.096  1.00  0.00     0.011 C 
HETATM    5  C13 UNL     1      -2.346  -3.135   0.071  1.00  0.00     0.223 C 
HETATM    6  F1  UNL     1      -2.383  -4.294  -0.678  1.00  0.00    -0.242 F 
HETATM    7  C14 UNL     1      -2.199  -1.893  -0.791  1.00  0.00     0.189 C 
ENDROOT
BRANCH   2   8
HETATM    8  O2  UNL     1       0.314  -0.538   0.014  1.00  0.00    -0.374 OA
BRANCH   8   9
HETATM    9  C5  UNL     1       1.195   0.472   0.393  1.00  0.00     0.127 C 
HETATM   10  C6  UNL     1       1.174   1.526  -0.647  1.00  0.00     0.059 C 
HETATM   11  C7  UNL     1       2.417   2.279  -0.813  1.00  0.00    -0.026 C 
HETATM   12  C8  UNL     1       3.593   1.711  -0.613  1.00  0.00    -0.007 C 
HETATM   13  C9  UNL     1       3.633   0.301  -0.217  1.00  0.00     0.131 C 
HETATM   14  C10 UNL     1       2.532  -0.104   0.716  1.00  0.00     0.059 C 
BRANCH  13  15
HETATM   15  N2  UNL     1       4.930   0.041   0.380  1.00  0.00    -0.095 NA
BRANCH  15  16
HETATM   16  O3  UNL     1       5.065  -1.246   0.776  1.00  0.00    -0.295 OA
ATOM     17  H3  UNL     1       5.914  -1.416   1.167  1.00  0.00     0.238 HD
ENDBRANCH  15  16
ENDBRANCH  13  15
ENDBRANCH   8   9
ENDBRANCH   2   8
BRANCH   1  18
HETATM   18  N1  UNL     1      -2.436   0.507  -0.448  1.00  0.00    -0.064 N 
ATOM     19  H12 UNL     1      -3.280   0.410  -1.012  1.00  0.00     0.277 HD
ATOM     20  H11 UNL     1      -1.774   0.744  -1.187  1.00  0.00     0.277 HD
BRANCH  18  21
HETATM   21  C2  UNL     1      -2.563   1.572   0.494  1.00  0.00     0.258 C 
BRANCH  21  22
HETATM   22  C1  UNL     1      -2.924   2.891  -0.147  1.00  0.00     0.191 C 
BRANCH  22  23
HETATM   23  O1  UNL     1      -4.118   2.862  -0.827  1.00  0.00    -0.399 OA
ATOM     24  H1  UNL     1      -4.345   3.692  -1.230  1.00  0.00     0.209 HD
ENDBRANCH  22  23
ENDBRANCH  21  22
ENDBRANCH  18  21
ENDBRANCH   1  18
BRANCH   7  25
HETATM   25  O4  UNL     1      -1.035  -2.032  -1.541  1.00  0.00    -0.390 OA
ATOM     26  H4  UNL     1      -1.102  -2.763  -2.144  1.00  0.00     0.210 HD
ENDBRANCH   7  25
TORSDOF 9
