REMARK  7 active torsions:
REMARK  status: ('A' for Active; 'I' for Inactive)
REMARK    1  A    between atoms: C1_4  and  N2_5 
REMARK    2  A    between atoms: C1_4  and  C10_23 
REMARK    3  A    between atoms: N2_5  and  C2_7 
REMARK    4  A    between atoms: C2_7  and  C3_8 
REMARK    5  A    between atoms: C3_8  and  N3_9 
REMARK    6  A    between atoms: N3_9  and  C4_11 
REMARK    7  A    between atoms: C8_17  and  C9_18 
ROOT
HETATM    1  C2  UNL     1       0.920   0.041   1.454  1.00  0.00     0.141 C 
ENDROOT
BRANCH   1   2
HETATM    2  N2  UNL     1       1.023   1.311   0.766  1.00  0.00    -0.372 N 
ATOM      3  H2  UNL     1       0.315   2.011   0.988  1.00  0.00     0.161 HD
BRANCH   2   4
HETATM    4  C1  UNL     1       1.998   1.676  -0.175  1.00  0.00     0.140 C 
HETATM    5  N1  UNL     1       1.855   2.792  -0.824  1.00  0.00    -0.383 N 
ATOM      6  H12 UNL     1       1.038   3.371  -0.629  1.00  0.00     0.157 HD
ATOM      7  H11 UNL     1       2.564   3.057  -1.508  1.00  0.00     0.157 HD
BRANCH   4   8
HETATM    8  C10 UNL     1       3.154   0.857  -0.451  1.00  0.00     0.149 A 
HETATM    9  N7  UNL     1       4.034   1.320  -1.392  1.00  0.00    -0.346 N 
HETATM   10  C11 UNL     1       5.136   0.665  -1.741  1.00  0.00     0.133 A 
ATOM     11  H7  UNL     1       3.834   2.211  -1.847  1.00  0.00     0.167 HD
HETATM   12  C12 UNL     1       5.429  -0.525  -1.150  1.00  0.00     0.147 A 
HETATM   13  F1  UNL     1       6.539  -1.229  -1.471  1.00  0.00    -0.203 F 
HETATM   14  C13 UNL     1       4.532  -0.985  -0.199  1.00  0.00     0.133 A 
HETATM   15  N8  UNL     1       3.427  -0.307   0.136  1.00  0.00    -0.346 N 
ATOM     16  H8  UNL     1       2.793  -0.682   0.842  1.00  0.00     0.167 HD
ENDBRANCH   4   8
ENDBRANCH   2   4
ENDBRANCH   1   2
BRANCH   1  17
HETATM   17  C3  UNL     1      -0.292   0.013   2.363  1.00  0.00     0.139 C 
BRANCH  17  18
HETATM   18  N3  UNL     1      -1.542   0.212   1.629  1.00  0.00    -0.386 N 
ATOM     19  H3  UNL     1      -2.088   1.061   1.774  1.00  0.00     0.159 HD
BRANCH  18  20
HETATM   20  C4  UNL     1      -1.996  -0.775   0.715  1.00  0.00     0.057 A 
HETATM   21  C5  UNL     1      -1.411  -2.062   0.788  1.00  0.00     0.117 A 
HETATM   22  N4  UNL     1      -1.851  -3.042  -0.005  1.00  0.00    -0.373 N 
HETATM   23  C6  UNL     1      -2.844  -2.868  -0.888  1.00  0.00     0.088 A 
ATOM     24  H4  UNL     1      -1.413  -3.961   0.064  1.00  0.00     0.164 HD
HETATM   25  C7  UNL     1      -3.428  -1.640  -0.982  1.00  0.00     0.034 A 
HETATM   26  C8  UNL     1      -3.009  -0.560  -0.174  1.00  0.00     0.034 A 
BRANCH  26  27
HETATM   27  C9  UNL     1      -3.633   0.725  -0.363  1.00  0.00     0.122 C 
HETATM   28  N5  UNL     1      -3.368   1.825   0.195  1.00  0.00    -0.387 N 
ATOM     29  H52 UNL     1      -2.602   1.769   0.866  1.00  0.00     0.157 HD
ATOM     30  H51 UNL     1      -3.810   2.735   0.061  1.00  0.00     0.157 HD
HETATM   31  N6  UNL     1      -4.723   0.804  -1.318  1.00  0.00    -0.082 NA
ENDBRANCH  26  27
ENDBRANCH  18  20
ENDBRANCH  17  18
ENDBRANCH   1  17
TORSDOF 7
