REMARK  8 active torsions:
REMARK  status: ('A' for Active; 'I' for Inactive)
REMARK    1  A    between atoms: C2_2  and  S1_5 
REMARK    2  A    between atoms: S1_5  and  C5_6 
REMARK    3  A    between atoms: C7_8  and  C8_9 
REMARK    4  A    between atoms: C8_9  and  N1_10 
REMARK       I    between atoms: N1_10  and  C9_12 
REMARK    5  A    between atoms: C10_15  and  C11_16 
REMARK    6  A    between atoms: C10_15  and  N3_19 
REMARK    7  A    between atoms: C11_16  and  O2_17 
REMARK    8  A    between atoms: C12_21  and  O3_22 
ROOT
HETATM    1  C5  UNL     1      -0.743  -0.833   0.313  1.00  0.00     0.079 C 
HETATM    2  C6  UNL     1       0.547  -1.008   1.116  1.00  0.00     0.026 C 
HETATM    3  C7  UNL     1       1.546  -1.305   0.025  1.00  0.00     0.036 C 
HETATM    4  C10 UNL     1       1.096  -0.761  -1.251  1.00  0.00     0.115 C 
HETATM    5  C12 UNL     1      -0.269  -0.121  -0.904  1.00  0.00     0.161 C 
ENDROOT
BRANCH   3   6
HETATM    6  C8  UNL     1       2.940  -1.043   0.484  1.00  0.00     0.131 C 
BRANCH   6   7
HETATM    7  N1  UNL     1       3.195   0.302   0.899  1.00  0.00    -0.345 N 
HETATM    8  C9  UNL     1       4.452   0.773   1.360  1.00  0.00     0.328 C 
HETATM    9  N2  UNL     1       4.703   2.090   1.769  1.00  0.00    -0.040 NA
HETATM   10  O1  UNL     1       5.404  -0.072   1.398  1.00  0.00    -0.251 OA
ATOM     11  H1  UNL     1       2.422   0.967   0.861  1.00  0.00     0.163 HD
ENDBRANCH   6   7
ENDBRANCH   3   6
BRANCH   4  12
HETATM   12  C11 UNL     1       1.879   0.284  -1.941  1.00  0.00     0.196 C 
BRANCH  12  13
HETATM   13  O2  UNL     1       3.106  -0.144  -2.436  1.00  0.00    -0.399 OA
ATOM     14  H2  UNL     1       3.610   0.528  -2.880  1.00  0.00     0.209 HD
ENDBRANCH  12  13
ENDBRANCH   4  12
BRANCH   4  15
HETATM   15  N3  UNL     1       0.844  -1.826  -2.239  1.00  0.00    -0.037 NA
HETATM   16  F1  UNL     1       0.434  -1.263  -3.373  1.00  0.00    -0.114 F 
ENDBRANCH   4  15
BRANCH   1  17
HETATM   17  S1  UNL     1      -1.853   0.143   1.322  1.00  0.00    -0.153 SA
BRANCH  17  18
HETATM   18  C2  UNL     1      -3.485   0.401   0.675  1.00  0.00    -0.003 C 
HETATM   19  C1  UNL     1      -4.225  -0.930   0.573  1.00  0.00     0.026 C 
HETATM   20  C3  UNL     1      -4.293   1.249   1.660  1.00  0.00     0.026 C 
HETATM   21  C4  UNL     1      -3.449   1.157  -0.617  1.00  0.00     0.026 C 
ENDBRANCH  17  18
ENDBRANCH   1  17
BRANCH   5  22
HETATM   22  O3  UNL     1      -0.067   1.227  -0.567  1.00  0.00    -0.392 OA
ATOM     23  H3  UNL     1       0.236   1.682  -1.344  1.00  0.00     0.210 HD
ENDBRANCH   5  22
TORSDOF 8
