REMARK  9 active torsions:
REMARK  status: ('A' for Active; 'I' for Inactive)
REMARK    1  A    between atoms: C2_2  and  O1_3 
REMARK    2  A    between atoms: C2_2  and  O2_5 
REMARK    3  A    between atoms: O2_5  and  C3_6 
REMARK    4  A    between atoms: C3_6  and  N1_7 
REMARK    5  A    between atoms: C6_12  and  N3_13 
REMARK    6  A    between atoms: N3_13  and  C7_15 
REMARK    7  A    between atoms: C7_15  and  C8_16 
REMARK    8  A    between atoms: C10_18  and  C11_19 
REMARK    9  A    between atoms: C15_29  and  N7_30 
ROOT
HETATM    1  N1  UNL     1       3.459  -1.019   0.564  1.00  0.00    -0.305 N 
HETATM    2  C4  UNL     1       2.840  -1.487   1.662  1.00  0.00     0.187 A 
HETATM    3  N2  UNL     1       1.690  -0.795   1.856  1.00  0.00    -0.346 N 
ATOM      4  H2  UNL     1       1.029  -0.946   2.618  1.00  0.00     0.167 HD
HETATM    5  C5  UNL     1       1.563   0.121   0.884  1.00  0.00     0.123 A 
HETATM    6  C6  UNL     1       0.579   1.079   0.615  1.00  0.00     0.148 A 
HETATM    7  N6  UNL     1       0.757   1.859  -0.465  1.00  0.00    -0.175 N 
ATOM      8  H6  UNL     1       0.064   2.571  -0.697  1.00  0.00     0.186 HD
HETATM    9  C15 UNL     1       1.855   1.704  -1.249  1.00  0.00     0.679 A 
HETATM   10  N8  UNL     1       2.797   0.780  -0.984  1.00  0.00    -0.174 N 
ATOM     11  H8  UNL     1       3.609   0.692  -1.595  1.00  0.00     0.186 HD
HETATM   12  C16 UNL     1       2.669  -0.029   0.087  1.00  0.00     0.156 A 
ENDROOT
BRANCH   6  13
HETATM   13  N3  UNL     1      -0.437   1.167   1.397  1.00  0.00    -0.368 N 
ATOM     14  H3  UNL     1      -0.464   0.518   2.184  1.00  0.00     0.161 HD
BRANCH  13  15
HETATM   15  C7  UNL     1      -1.528   2.072   1.283  1.00  0.00     0.179 C 
BRANCH  15  16
HETATM   16  C8  UNL     1      -2.609   1.394   0.489  1.00  0.00     0.045 A 
HETATM   17  C9  UNL     1      -3.626   0.581   0.928  1.00  0.00     0.055 A 
HETATM   18  C10 UNL     1      -4.365   0.200  -0.162  1.00  0.00     0.035 A 
HETATM   19  N4  UNL     1      -3.809   0.769  -1.236  1.00  0.00    -0.304 N 
HETATM   20  N5  UNL     1      -2.773   1.471  -0.841  1.00  0.00    -0.303 N 
ATOM     21  H4  UNL     1      -4.134   0.674  -2.198  1.00  0.00     0.186 HD
ATOM     22  H5  UNL     1      -2.170   2.007  -1.465  1.00  0.00     0.186 HD
BRANCH  18  23
HETATM   23  C11 UNL     1      -5.552  -0.676  -0.114  1.00  0.00    -0.007 C 
HETATM   24  C12 UNL     1      -5.391  -1.647   1.016  1.00  0.00     0.021 C 
HETATM   25  C13 UNL     1      -6.767   0.208   0.034  1.00  0.00     0.021 C 
HETATM   26  C14 UNL     1      -5.689  -1.418  -1.435  1.00  0.00     0.021 C 
ENDBRANCH  18  23
ENDBRANCH  15  16
ENDBRANCH  13  15
ENDBRANCH   6  13
BRANCH   9  27
HETATM   27  N7  UNL     1       2.023   2.456  -2.286  1.00  0.00    -0.234 N 
ATOM     28  H72 UNL     1       1.309   3.156  -2.487  1.00  0.00     0.174 HD
ATOM     29  H71 UNL     1       2.848   2.340  -2.875  1.00  0.00     0.174 HD
ENDBRANCH   9  27
BRANCH   1  30
HETATM   30  C3  UNL     1       4.717  -1.464  -0.020  1.00  0.00     0.304 C 
BRANCH  30  31
HETATM   31  O2  UNL     1       5.741  -0.714   0.547  1.00  0.00    -0.343 OA
BRANCH  31  32
HETATM   32  C2  UNL     1       6.984  -1.044   0.062  1.00  0.00     0.255 C 
HETATM   33  C1  UNL     1       7.491   0.162  -0.742  1.00  0.00     0.070 C 
BRANCH  32  34
HETATM   34  O1  UNL     1       7.922  -1.358   1.031  1.00  0.00    -0.372 OA
ATOM     35  H1  UNL     1       7.608  -2.104   1.528  1.00  0.00     0.212 HD
ENDBRANCH  32  34
ENDBRANCH  31  32
ENDBRANCH  30  31
ENDBRANCH   1  30
TORSDOF 9
