REMARK  10 active torsions:
REMARK  status: ('A' for Active; 'I' for Inactive)
REMARK    1  A    between atoms: N3_8  and  C5_9 
REMARK    2  A    between atoms: C6_12  and  N5_13 
REMARK    3  A    between atoms: C7_18  and  N7_19 
REMARK    4  A    between atoms: N7_19  and  C8_21 
REMARK    5  A    between atoms: N8_24  and  C11_25 
REMARK    6  A    between atoms: C11_25  and  O1_26 
REMARK    7  A    between atoms: C11_25  and  C12_28 
REMARK    8  A    between atoms: C12_28  and  O2_29 
REMARK    9  A    between atoms: C13_31  and  N9_32 
REMARK   10  A    between atoms: N9_32  and  C14_34 
ROOT
HETATM    1  C1  UNL     1      -6.212   0.423  -0.752  1.00  0.00     0.229 C 
HETATM    2  N1  UNL     1      -5.105   0.640  -0.552  1.00  0.00    -0.423 NA
HETATM    3  C2  UNL     1      -3.774   0.927  -0.322  1.00  0.00     0.174 A 
HETATM    4  C3  UNL     1      -3.202   2.152  -0.667  1.00  0.00     0.067 A 
HETATM    5  C4  UNL     1      -3.878   3.315  -1.308  1.00  0.00     0.073 C 
HETATM    6  N2  UNL     1      -1.924   2.075  -0.304  1.00  0.00    -0.279 N 
ATOM      7  H2  UNL     1      -1.253   2.832  -0.433  1.00  0.00     0.188 HD
HETATM    8  N3  UNL     1      -1.625   0.928   0.233  1.00  0.00    -0.065 N 
HETATM    9  C13 UNL     1      -2.763   0.188   0.236  1.00  0.00     0.184 A 
ENDROOT
BRANCH   9  10
HETATM   10  N9  UNL     1      -2.889  -1.001   0.685  1.00  0.00    -0.372 N 
ATOM     11  H9  UNL     1      -2.040  -1.414   1.070  1.00  0.00     0.161 HD
BRANCH  10  12
HETATM   12  C14 UNL     1      -4.039  -1.829   0.725  1.00  0.00     0.117 C 
HETATM   13  C15 UNL     1      -3.721  -3.190   1.367  1.00  0.00     0.026 C 
ENDBRANCH  10  12
ENDBRANCH   9  10
BRANCH   8  14
HETATM   14  C5  UNL     1      -0.375   0.526   0.750  1.00  0.00     0.739 A 
HETATM   15  N4  UNL     1      -0.245   0.338   2.097  1.00  0.00    -0.019 N 
HETATM   16  C6  UNL     1       0.895  -0.021   2.677  1.00  0.00     0.705 A 
ATOM     17  H4  UNL     1      -1.065   0.480   2.687  1.00  0.00     0.203 HD
HETATM   18  N6  UNL     1       1.973  -0.208   1.901  1.00  0.00    -0.021 N 
HETATM   19  C7  UNL     1       1.919  -0.039   0.546  1.00  0.00     0.712 A 
ATOM     20  H6  UNL     1       2.855  -0.483   2.333  1.00  0.00     0.203 HD
HETATM   21  N8  UNL     1       0.756   0.321  -0.003  1.00  0.00     0.018 N 
BRANCH  16  22
HETATM   22  N5  UNL     1       0.909  -0.172   3.963  1.00  0.00    -0.234 N 
ATOM     23  H52 UNL     1       0.089  -0.030   4.553  1.00  0.00     0.174 HD
ATOM     24  H51 UNL     1       1.784  -0.448   4.408  1.00  0.00     0.174 HD
ENDBRANCH  16  22
BRANCH  19  25
HETATM   25  N7  UNL     1       2.990  -0.216  -0.141  1.00  0.00    -0.221 N 
ATOM     26  H7  UNL     1       2.918  -0.082  -1.150  1.00  0.00     0.178 HD
BRANCH  25  27
HETATM   27  C8  UNL     1       4.260  -0.579   0.368  1.00  0.00     0.091 C 
HETATM   28  C9  UNL     1       5.187  -1.088  -0.740  1.00  0.00     0.032 C 
HETATM   29  C10 UNL     1       4.901   0.646   0.990  1.00  0.00     0.032 C 
ENDBRANCH  25  27
ENDBRANCH  19  25
BRANCH  21  30
HETATM   30  C11 UNL     1       0.590   0.516  -1.400  1.00  0.00     0.285 C 
BRANCH  30  31
HETATM   31  O1  UNL     1      -0.623  -0.093  -1.860  1.00  0.00    -0.373 OA
ATOM     32  H1  UNL     1      -0.734   0.037  -2.794  1.00  0.00     0.212 HD
ENDBRANCH  30  31
BRANCH  30  33
HETATM   33  C12 UNL     1       1.599   0.066  -2.372  1.00  0.00     0.219 C 
BRANCH  33  34
HETATM   34  O2  UNL     1       1.760  -1.328  -2.470  1.00  0.00    -0.397 OA
ATOM     35  H2  UNL     1       2.411  -1.619  -3.098  1.00  0.00     0.209 HD
ENDBRANCH  33  34
ENDBRANCH  30  33
ENDBRANCH  21  30
ENDBRANCH   8  14
TORSDOF 10
