REMARK  3 active torsions:
REMARK  status: ('A' for Active; 'I' for Inactive)
REMARK    1  A    between atoms: N1_1  and  C1_4 
REMARK    2  A    between atoms: C1_4  and  C2_6 
REMARK       I    between atoms: C2_6  and  N3_8 
REMARK    3  A    between atoms: N3_8  and  C3_10 
ROOT
HETATM    1  C3  UNL     1       0.534  -0.168  -0.557  1.00  0.00     0.192 A 
HETATM    2  N4  UNL     1       1.297  -1.197  -0.970  1.00  0.00    -0.277 N 
ATOM      3  H4  UNL     1       0.948  -1.795  -1.719  1.00  0.00     0.189 HD
HETATM    4  N5  UNL     1       2.484  -1.464  -0.442  1.00  0.00    -0.250 N 
ATOM      5  H5  UNL     1       3.016  -2.259  -0.797  1.00  0.00     0.192 HD
HETATM    6  C4  UNL     1       3.010  -0.716   0.551  1.00  0.00     0.341 A 
HETATM    7  O2  UNL     1       4.141  -0.985   1.042  1.00  0.00    -0.245 OA
HETATM    8  N6  UNL     1       2.272   0.322   0.987  1.00  0.00    -0.271 N 
ATOM      9  H6  UNL     1       2.638   0.909   1.736  1.00  0.00     0.174 HD
HETATM   10  C5  UNL     1       1.050   0.612   0.457  1.00  0.00     0.295 A 
HETATM   11  O3  UNL     1       0.362   1.573   0.857  1.00  0.00    -0.264 OA
ENDROOT
BRANCH   1  12
HETATM   12  N3  UNL     1      -0.588   0.011  -1.120  1.00  0.00    -0.301 N 
HETATM   13  C2  UNL     1      -1.527   1.006  -0.852  1.00  0.00     0.287 C 
HETATM   14  O1  UNL     1      -1.451   2.190  -1.307  1.00  0.00    -0.264 OA
ATOM     15  H3  UNL     1      -0.832  -0.651  -1.856  1.00  0.00     0.171 HD
BRANCH  13  16
HETATM   16  C1  UNL     1      -2.668   0.695  -0.005  1.00  0.00     0.178 C 
HETATM   17  N2  UNL     1      -2.813  -0.616   0.539  1.00  0.00    -0.077 NA
BRANCH  16  18
HETATM   18  N1  UNL     1      -3.575   1.581   0.280  1.00  0.00    -0.383 N 
ATOM     19  H12 UNL     1      -4.375   1.363   0.874  1.00  0.00     0.157 HD
ATOM     20  H11 UNL     1      -3.471   2.518  -0.109  1.00  0.00     0.157 HD
ENDBRANCH  16  18
ENDBRANCH  13  16
ENDBRANCH   1  12
TORSDOF 3
