REMARK  1 active torsions:
REMARK  status: ('A' for Active; 'I' for Inactive)
REMARK    1  A    between atoms: C2_5  and  N3_6 
REMARK       I    between atoms: N3_6  and  C3_8 
ROOT
HETATM    1  C1  UNL     1      -3.356  -0.439   0.585  1.00  0.00     0.182 C 
HETATM    2  N1  UNL     1      -2.010  -0.134   0.152  1.00  0.00    -0.243 N 
HETATM    3  N2  UNL     1      -0.953  -0.624   0.808  1.00  0.00    -0.127 N 
ATOM      4  H2  UNL     1      -1.105  -1.219   1.622  1.00  0.00     0.206 HD
HETATM    5  C2  UNL     1       0.299  -0.353   0.423  1.00  0.00     0.702 A 
HETATM    6  N6  UNL     1       0.489   0.432  -0.652  1.00  0.00    -0.150 N 
ATOM      7  H6  UNL     1       1.442   0.640  -0.949  1.00  0.00     0.188 HD
HETATM    8  C4  UNL     1      -0.546   0.956  -1.354  1.00  0.00     0.329 A 
HETATM    9  O1  UNL     1      -0.373   1.686  -2.354  1.00  0.00    -0.261 OA
HETATM   10  C5  UNL     1      -1.826   0.651  -0.923  1.00  0.00     0.330 A 
HETATM   11  O2  UNL     1      -2.844   1.088  -1.508  1.00  0.00    -0.260 OA
ENDROOT
BRANCH   5  12
HETATM   12  N3  UNL     1       1.319  -0.830   1.062  1.00  0.00    -0.162 N 
HETATM   13  C3  UNL     1       2.654  -0.565   0.684  1.00  0.00     0.200 C 
HETATM   14  N4  UNL     1       3.328  -1.360  -0.058  1.00  0.00    -0.373 N 
HETATM   15  N5  UNL     1       3.268   0.624   1.142  1.00  0.00    -0.063 NA
ATOM     16  H42 UNL     1       2.885  -2.217  -0.388  1.00  0.00     0.158 HD
ATOM     17  H41 UNL     1       4.292  -1.169  -0.331  1.00  0.00     0.158 HD
ATOM     18  H3  UNL     1       1.151  -1.423   1.874  1.00  0.00     0.187 HD
ENDBRANCH   5  12
TORSDOF 1
