REMARK  4 active torsions:
REMARK  status: ('A' for Active; 'I' for Inactive)
REMARK    1  A    between atoms: C4_4  and  C12_17 
REMARK    2  A    between atoms: C6_7  and  O2_8 
REMARK    3  A    between atoms: C9_12  and  C10_13 
REMARK    4  A    between atoms: C10_13  and  O3_14 
ROOT
HETATM    1  C1  UNL     1       1.181   2.247   0.525  1.00  0.00     0.018 C 
HETATM    2  C2  UNL     1       0.409   1.048  -0.004  1.00  0.00    -0.004 C 
HETATM    3  C3  UNL     1      -0.688   1.553  -0.872  1.00  0.00     0.044 C 
HETATM    4  C4  UNL     1      -0.937   0.358  -1.749  1.00  0.00     0.129 C 
HETATM    5  O1  UNL     1       0.265  -0.367  -1.766  1.00  0.00    -0.377 OA
HETATM    6  C5  UNL     1       1.211   0.333  -1.087  1.00  0.00     0.159 C 
HETATM    7  C6  UNL     1       2.338  -0.402  -0.518  1.00  0.00     0.148 C 
HETATM    8  C7  UNL     1       2.058  -1.226   0.681  1.00  0.00     0.035 C 
HETATM    9  C8  UNL     1       1.122  -0.666   1.670  1.00  0.00     0.013 C 
HETATM   10  C9  UNL     1       0.005   0.184   1.122  1.00  0.00     0.059 C 
ENDROOT
BRANCH   7  11
HETATM   11  O2  UNL     1       2.911  -1.227  -1.506  1.00  0.00    -0.393 OA
ATOM     12  H2  UNL     1       3.644  -1.705  -1.136  1.00  0.00     0.210 HD
ENDBRANCH   7  11
BRANCH  10  13
HETATM   13  C10 UNL     1      -1.248  -0.609   0.952  1.00  0.00     0.166 C 
HETATM   14  C11 UNL     1      -1.328  -1.494  -0.228  1.00  0.00     0.078 C 
HETATM   15  C12 UNL     1      -2.012  -0.555  -1.236  1.00  0.00     0.044 C 
HETATM   16  C13 UNL     1      -2.975   0.144  -0.285  1.00  0.00     0.178 C 
HETATM   17  O4  UNL     1      -2.407   0.159   0.955  1.00  0.00    -0.354 OA
BRANCH  13  18
HETATM   18  O3  UNL     1      -1.367  -1.427   2.103  1.00  0.00    -0.365 OA
ATOM     19  H3  UNL     1      -2.165  -1.932   1.995  1.00  0.00     0.213 HD
ENDBRANCH  13  18
ENDBRANCH  10  13
TORSDOF 4
