REMARK  1 active torsions:
REMARK  status: ('A' for Active; 'I' for Inactive)
REMARK    1  A    between atoms: C14_16  and  O3_17 
ROOT
HETATM    1  C1  UNL     1       0.182  -2.306  -0.781  1.00  0.00     0.018 C 
HETATM    2  C2  UNL     1       0.408  -0.919  -0.162  1.00  0.00    -0.011 C 
HETATM    3  C3  UNL     1       0.094   0.133  -1.190  1.00  0.00     0.050 C 
HETATM    4  C4  UNL     1      -0.456   1.267  -0.403  1.00  0.00     0.070 A 
HETATM    5  C5  UNL     1      -1.898   1.518  -0.755  1.00  0.00     0.043 A 
HETATM    6  C6  UNL     1      -2.336   1.000   0.566  1.00  0.00    -0.004 A 
HETATM    7  C7  UNL     1      -2.991  -0.322   0.645  1.00  0.00     0.005 C 
HETATM    8  C8  UNL     1      -1.899  -1.356   0.479  1.00  0.00     0.006 C 
HETATM    9  C9  UNL     1      -0.600  -0.678   0.894  1.00  0.00     0.003 C 
HETATM   10  C10 UNL     1      -0.913   0.758   0.935  1.00  0.00     0.029 A 
HETATM   11  O1  UNL     1       0.363   2.337  -0.254  1.00  0.00    -0.347 OA
HETATM   12  C11 UNL     1       1.619   2.228  -0.739  1.00  0.00     0.290 A 
HETATM   13  O2  UNL     1       2.567   2.830   0.239  1.00  0.00    -0.348 OA
HETATM   14  C12 UNL     1       2.633   1.513  -0.117  1.00  0.00     0.182 A 
HETATM   15  C13 UNL     1       2.294   0.415   0.864  1.00  0.00     0.069 C 
HETATM   16  C14 UNL     1       1.823  -0.844   0.226  1.00  0.00     0.129 C 
ENDROOT
BRANCH  16  17
HETATM   17  O3  UNL     1       2.163  -1.962   1.014  1.00  0.00    -0.395 OA
ATOM     18  H3  UNL     1       3.078  -1.914   1.265  1.00  0.00     0.210 HD
ENDBRANCH  16  17
TORSDOF 1
