REMARK  2 active torsions:
REMARK  status: ('A' for Active; 'I' for Inactive)
REMARK    1  A    between atoms: C10_11  and  O1_12 
REMARK    2  A    between atoms: C14_17  and  O2_18 
ROOT
HETATM    1  C1  UNL     1      -2.052  -2.016  -1.077  1.00  0.00     0.017 C 
HETATM    2  C2  UNL     1      -1.807  -0.864  -0.491  1.00  0.00    -0.058 C 
HETATM    3  C3  UNL     1      -2.943   0.009  -0.114  1.00  0.00     0.036 C 
HETATM    4  C4  UNL     1      -2.686   0.790   1.146  1.00  0.00     0.011 C 
HETATM    5  C5  UNL     1      -1.235   1.139   1.344  1.00  0.00     0.011 C 
HETATM    6  C6  UNL     1      -0.748   1.866   0.092  1.00  0.00     0.128 C 
HETATM    7  N1  UNL     1      -0.219   0.850  -0.741  1.00  0.00    -0.377 N 
HETATM    8  C7  UNL     1       0.883   1.141  -1.527  1.00  0.00     0.059 C 
HETATM    9  C8  UNL     1       2.214   1.254  -0.843  1.00  0.00     0.047 C 
HETATM   10  C9  UNL     1       2.719  -0.056  -0.336  1.00  0.00     0.045 C 
HETATM   11  C10 UNL     1       1.747  -0.800   0.529  1.00  0.00     0.087 C 
HETATM   12  C11 UNL     1       1.041   0.085   1.522  1.00  0.00     0.048 C 
HETATM   13  C12 UNL     1      -0.429  -0.111   1.311  1.00  0.00     0.029 C 
HETATM   14  C13 UNL     1      -0.444  -0.425  -0.203  1.00  0.00     0.087 C 
HETATM   15  C14 UNL     1       0.627  -1.425  -0.273  1.00  0.00     0.185 C 
ENDROOT
BRANCH  11  16
HETATM   16  O1  UNL     1       2.449  -1.826   1.164  1.00  0.00    -0.387 OA
ATOM     17  H1  UNL     1       1.833  -2.298   1.712  1.00  0.00     0.210 HD
ENDBRANCH  11  16
BRANCH  15  18
HETATM   18  O2  UNL     1       1.030  -1.841  -1.523  1.00  0.00    -0.390 OA
ATOM     19  H2  UNL     1       0.327  -2.234  -2.027  1.00  0.00     0.210 HD
ENDBRANCH  15  18
TORSDOF 2
