REMARK  9 active torsions:
REMARK  status: ('A' for Active; 'I' for Inactive)
REMARK    1  A    between atoms: C2_2  and  C3_3 
REMARK    2  A    between atoms: C3_3  and  O1_4 
REMARK    3  A    between atoms: O1_4  and  C4_5 
REMARK    4  A    between atoms: C7_9  and  O3_10 
REMARK    5  A    between atoms: O3_10  and  C8_11 
REMARK    6  A    between atoms: C14_19  and  O6_20 
REMARK    7  A    between atoms: C15_22  and  O7_23 
REMARK    8  A    between atoms: C16_25  and  O8_26 
REMARK    9  A    between atoms: C17_28  and  O9_29 
ROOT
HETATM    1  C4  UNL     1       3.339   0.302   0.443  1.00  0.00     0.291 C 
HETATM    2  O2  UNL     1       2.852   0.442   1.740  1.00  0.00    -0.351 OA
HETATM    3  C5  UNL     1       1.472   0.439   1.754  1.00  0.00     0.152 C 
HETATM    4  C6  UNL     1       0.993  -0.148   3.063  1.00  0.00     0.042 C 
HETATM    5  C7  UNL     1       0.846  -0.245   0.589  1.00  0.00     0.184 C 
HETATM    6  C16 UNL     1       1.659  -1.408   0.060  1.00  0.00     0.183 C 
HETATM    7  C17 UNL     1       3.129  -1.149   0.051  1.00  0.00     0.204 C 
ENDROOT
BRANCH   5   8
HETATM    8  O3  UNL     1      -0.369  -0.805   1.033  1.00  0.00    -0.348 OA
BRANCH   8   9
HETATM    9  C8  UNL     1      -1.448  -0.343   0.281  1.00  0.00     0.294 C 
HETATM   10  O4  UNL     1      -2.061  -1.449  -0.280  1.00  0.00    -0.328 OA
HETATM   11  C9  UNL     1      -3.165  -1.146  -1.042  1.00  0.00     0.273 C 
HETATM   12  O5  UNL     1      -2.865  -0.598  -2.278  1.00  0.00    -0.360 OA
HETATM   13  C12 UNL     1      -4.165  -0.265  -0.370  1.00  0.00     0.036 C 
HETATM   14  C10 UNL     1      -3.949   0.192  -2.645  1.00  0.00     0.172 C 
HETATM   15  C11 UNL     1      -4.229   0.922  -1.327  1.00  0.00     0.043 C 
HETATM   16  C13 UNL     1      -5.550  -0.877  -0.358  1.00  0.00     0.023 C 
HETATM   17  C14 UNL     1      -3.803   0.137   1.016  1.00  0.00     0.164 C 
HETATM   18  C15 UNL     1      -2.354   0.409   1.236  1.00  0.00     0.203 C 
BRANCH  17  19
HETATM   19  O6  UNL     1      -4.257  -0.825   1.909  1.00  0.00    -0.392 OA
ATOM     20  H6  UNL     1      -4.026  -0.568   2.794  1.00  0.00     0.210 HD
ENDBRANCH  17  19
BRANCH  18  21
HETATM   21  O7  UNL     1      -2.094   1.786   1.166  1.00  0.00    -0.388 OA
ATOM     22  H7  UNL     1      -2.662   2.257   1.764  1.00  0.00     0.210 HD
ENDBRANCH  18  21
ENDBRANCH   8   9
ENDBRANCH   5   8
BRANCH   6  23
HETATM   23  O8  UNL     1       1.260  -1.627  -1.275  1.00  0.00    -0.390 OA
ATOM     24  H8  UNL     1       1.770  -2.357  -1.607  1.00  0.00     0.210 HD
ENDBRANCH   6  23
BRANCH   7  25
HETATM   25  O9  UNL     1       3.729  -1.976   0.999  1.00  0.00    -0.388 OA
ATOM     26  H9  UNL     1       3.598  -2.884   0.754  1.00  0.00     0.210 HD
ENDBRANCH   7  25
BRANCH   1  27
HETATM   27  O1  UNL     1       4.698   0.542   0.417  1.00  0.00    -0.355 OA
BRANCH  27  28
HETATM   28  C3  UNL     1       5.068   1.578  -0.423  1.00  0.00     0.197 C 
BRANCH  28  29
HETATM   29  C2  UNL     1       6.548   1.713  -0.342  1.00  0.00    -0.011 C 
HETATM   30  C1  UNL     1       7.309   1.565  -1.430  1.00  0.00     0.009 C 
ENDBRANCH  28  29
ENDBRANCH  27  28
ENDBRANCH   1  27
TORSDOF 9
