REMARK  7 active torsions:
REMARK  status: ('A' for Active; 'I' for Inactive)
REMARK       I    between atoms: C2_2  and  N1_4 
REMARK    1  A    between atoms: N1_4  and  C3_6 
REMARK    2  A    between atoms: C5_9  and  S1_10 
REMARK    3  A    between atoms: S1_10  and  S2_11 
REMARK    4  A    between atoms: S2_11  and  C6_12 
REMARK    5  A    between atoms: C9_18  and  O3_19 
REMARK    6  A    between atoms: C10_22  and  N3_23 
REMARK       I    between atoms: N3_23  and  C11_25 
REMARK    7  A    between atoms: C13_28  and  O6_29 
ROOT
HETATM    1  C3  UNL     1      -1.803   1.193  -0.725  1.00  0.00     0.139 C 
HETATM    2  C4  UNL     1      -0.581   1.755  -0.088  1.00  0.00     0.197 C 
HETATM    3  O2  UNL     1       0.223   0.844   0.535  1.00  0.00    -0.370 OA
HETATM    4  C5  UNL     1      -0.411  -0.090   1.329  1.00  0.00     0.219 C 
HETATM    5  C10 UNL     1      -1.285  -0.943   0.451  1.00  0.00     0.155 C 
HETATM    6  C13 UNL     1      -2.391   0.020  -0.029  1.00  0.00     0.169 C 
ENDROOT
BRANCH   4   7
HETATM    7  S1  UNL     1       0.871  -1.132   2.068  1.00  0.00    -0.061 SA
BRANCH   7   8
HETATM    8  S2  UNL     1       1.857  -2.182   0.506  1.00  0.00    -0.061 SA
BRANCH   8   9
HETATM    9  C6  UNL     1       3.241  -1.189  -0.060  1.00  0.00     0.222 C 
HETATM   10  C7  UNL     1       4.252  -1.096   1.064  1.00  0.00     0.276 C 
HETATM   11  N2  UNL     1       5.473  -0.583   0.482  1.00  0.00    -0.067 N 
HETATM   12  C8  UNL     1       5.210   0.687  -0.136  1.00  0.00     0.292 C 
ATOM     13  H22 UNL     1       6.233  -0.532   1.161  1.00  0.00     0.277 HD
ATOM     14  H21 UNL     1       5.901  -1.246  -0.165  1.00  0.00     0.277 HD
HETATM   15  C9  UNL     1       3.993   0.681  -1.024  1.00  0.00     0.284 C 
HETATM   16  O4  UNL     1       2.882   0.108  -0.390  1.00  0.00    -0.342 OA
BRANCH  15  17
HETATM   17  O3  UNL     1       4.206  -0.050  -2.195  1.00  0.00    -0.369 OA
ATOM     18  H3  UNL     1       3.439  -0.054  -2.755  1.00  0.00     0.212 HD
ENDBRANCH  15  17
ENDBRANCH   8   9
ENDBRANCH   7   8
ENDBRANCH   4   7
BRANCH   5  19
HETATM   19  N3  UNL     1      -1.898  -1.962   1.279  1.00  0.00    -0.351 N 
HETATM   20  C11 UNL     1      -1.918  -3.301   0.850  1.00  0.00     0.214 C 
HETATM   21  C12 UNL     1      -2.547  -4.349   1.711  1.00  0.00     0.117 C 
HETATM   22  O5  UNL     1      -1.412  -3.625  -0.250  1.00  0.00    -0.274 OA
ATOM     23  H3  UNL     1      -2.316  -1.708   2.174  1.00  0.00     0.163 HD
ENDBRANCH   5  19
BRANCH   6  24
HETATM   24  O6  UNL     1      -2.991   0.483   1.164  1.00  0.00    -0.391 OA
ATOM     25  H6  UNL     1      -3.367  -0.267   1.609  1.00  0.00     0.210 HD
ENDBRANCH   6  24
BRANCH   1  26
HETATM   26  N1  UNL     1      -2.822   2.255  -0.701  1.00  0.00    -0.352 N 
HETATM   27  C2  UNL     1      -3.390   2.765  -1.883  1.00  0.00     0.214 C 
HETATM   28  C1  UNL     1      -4.409   3.834  -1.771  1.00  0.00     0.117 C 
HETATM   29  O1  UNL     1      -3.008   2.289  -2.997  1.00  0.00    -0.274 OA
ATOM     30  H1  UNL     1      -3.125   2.632   0.197  1.00  0.00     0.163 HD
ENDBRANCH   1  26
TORSDOF 7
