REMARK  10 active torsions:
REMARK  status: ('A' for Active; 'I' for Inactive)
REMARK    1  A    between atoms: O1_1  and  C1_3 
REMARK    2  A    between atoms: C4_8  and  S1_9 
REMARK    3  A    between atoms: S1_9  and  C5_10 
REMARK    4  A    between atoms: C5_10  and  C6_11 
REMARK    5  A    between atoms: C6_11  and  C7_12 
REMARK    6  A    between atoms: C7_12  and  N1_13 
REMARK    7  A    between atoms: C13_19  and  O4_20 
REMARK    8  A    between atoms: C14_22  and  O5_23 
REMARK    9  A    between atoms: C15_25  and  O6_26 
REMARK   10  A    between atoms: C16_28  and  O7_29 
ROOT
HETATM    1  C1  UNL     1      -3.029   1.991  -1.478  1.00  0.00     0.176 C 
HETATM    2  C2  UNL     1      -2.767   2.180  -0.003  1.00  0.00     0.206 C 
HETATM    3  O2  UNL     1      -1.964   1.077   0.278  1.00  0.00    -0.348 OA
HETATM    4  C3  UNL     1      -2.649  -0.018  -0.269  1.00  0.00     0.223 C 
HETATM    5  O3  UNL     1      -1.697  -0.969  -0.581  1.00  0.00    -0.332 OA
HETATM    6  C4  UNL     1      -1.349  -1.786   0.492  1.00  0.00     0.218 C 
HETATM    7  C13 UNL     1      -2.530  -2.649   0.837  1.00  0.00     0.188 C 
HETATM    8  C14 UNL     1      -3.800  -1.875   1.023  1.00  0.00     0.184 C 
HETATM    9  C15 UNL     1      -3.722  -0.440   0.659  1.00  0.00     0.214 C 
HETATM   10  C16 UNL     1      -3.199   0.504  -1.595  1.00  0.00     0.214 C 
ENDROOT
BRANCH   6  11
HETATM   11  S1  UNL     1      -0.828  -0.862   1.930  1.00  0.00    -0.135 SA
BRANCH  11  12
HETATM   12  C5  UNL     1       0.711   0.018   1.758  1.00  0.00     0.078 C 
BRANCH  12  13
HETATM   13  C6  UNL     1       1.936  -0.882   1.663  1.00  0.00     0.040 C 
BRANCH  13  14
HETATM   14  C7  UNL     1       3.147   0.011   1.515  1.00  0.00     0.273 C 
BRANCH  14  15
HETATM   15  N1  UNL     1       2.977   0.772   0.278  1.00  0.00     0.088 N 
HETATM   16  C8  UNL     1       3.986   1.820   0.200  1.00  0.00     0.272 C 
HETATM   17  C9  UNL     1       5.374   1.289   0.164  1.00  0.00     0.030 C 
HETATM   18  C10 UNL     1       5.512   0.251  -0.925  1.00  0.00     0.003 C 
HETATM   19  C11 UNL     1       4.249   0.287  -1.764  1.00  0.00     0.030 C 
HETATM   20  C12 UNL     1       3.099  -0.122  -0.873  1.00  0.00     0.272 C 
ENDBRANCH  14  15
ENDBRANCH  13  14
ENDBRANCH  12  13
ENDBRANCH  11  12
ENDBRANCH   6  11
BRANCH   7  21
HETATM   21  O4  UNL     1      -2.184  -3.415   1.946  1.00  0.00    -0.389 OA
ATOM     22  H4  UNL     1      -2.931  -3.961   2.164  1.00  0.00     0.210 HD
ENDBRANCH   7  21
BRANCH   8  23
HETATM   23  O5  UNL     1      -4.843  -2.526   0.366  1.00  0.00    -0.390 OA
ATOM     24  H5  UNL     1      -5.648  -2.035   0.484  1.00  0.00     0.210 HD
ENDBRANCH   8  23
BRANCH   9  25
HETATM   25  O6  UNL     1      -4.962  -0.060   0.099  1.00  0.00    -0.387 OA
ATOM     26  H6  UNL     1      -5.651  -0.331   0.695  1.00  0.00     0.210 HD
ENDBRANCH   9  25
BRANCH  10  27
HETATM   27  O7  UNL     1      -2.408   0.056  -2.660  1.00  0.00    -0.387 OA
ATOM     28  H7  UNL     1      -2.516  -0.885  -2.734  1.00  0.00     0.210 HD
ENDBRANCH  10  27
BRANCH   1  29
HETATM   29  O1  UNL     1      -4.202   2.637  -1.867  1.00  0.00    -0.391 OA
ATOM     30  H1  UNL     1      -4.367   2.518  -2.795  1.00  0.00     0.210 HD
ENDBRANCH   1  29
TORSDOF 10
