REMARK  9 active torsions:
REMARK  status: ('A' for Active; 'I' for Inactive)
REMARK    1  A    between atoms: O1_2  and  C2_3 
REMARK    2  A    between atoms: C9_10  and  O2_11 
REMARK    3  A    between atoms: O2_11  and  C10_12 
REMARK    4  A    between atoms: C11_14  and  C12_15 
REMARK    5  A    between atoms: C12_15  and  O4_16 
REMARK    6  A    between atoms: C13_18  and  O5_19 
REMARK    7  A    between atoms: C14_21  and  O6_22 
REMARK    8  A    between atoms: C15_24  and  O7_25 
REMARK    9  A    between atoms: O7_25  and  C16_26 
ROOT
HETATM    1  C10 UNL     1       1.574   0.261  -0.542  1.00  0.00     0.295 C 
HETATM    2  O3  UNL     1       2.058   0.870  -1.699  1.00  0.00    -0.348 OA
HETATM    3  C11 UNL     1       3.179   1.651  -1.453  1.00  0.00     0.179 C 
HETATM    4  C13 UNL     1       4.305   0.718  -1.050  1.00  0.00     0.180 C 
HETATM    5  C14 UNL     1       3.884   0.089   0.275  1.00  0.00     0.183 C 
HETATM    6  C15 UNL     1       2.598  -0.671   0.070  1.00  0.00     0.218 C 
ENDROOT
BRANCH   1   7
HETATM    7  O2  UNL     1       0.425  -0.425  -0.887  1.00  0.00    -0.329 OA
BRANCH   7   8
HETATM    8  C9  UNL     1      -0.675   0.052  -0.181  1.00  0.00     0.267 C 
HETATM    9  C8  UNL     1      -1.721   0.637  -1.096  1.00  0.00     0.071 C 
HETATM   10  C7  UNL     1      -2.963  -0.200  -0.811  1.00  0.00     0.053 C 
HETATM   11  C2  UNL     1      -2.613  -0.974   0.379  1.00  0.00     0.170 C 
HETATM   12  C6  UNL     1      -4.109   0.728  -0.749  1.00  0.00     0.010 C 
HETATM   13  C3  UNL     1      -3.349  -0.699   1.640  1.00  0.00     0.069 C 
HETATM   14  O8  UNL     1      -1.249  -0.880   0.630  1.00  0.00    -0.325 OA
HETATM   15  C4  UNL     1      -4.475   0.258   1.586  1.00  0.00     0.005 C 
HETATM   16  C5  UNL     1      -4.319   1.373   0.589  1.00  0.00     0.001 C 
BRANCH  11  17
HETATM   17  O1  UNL     1      -2.819  -2.342   0.080  1.00  0.00    -0.359 OA
HETATM   18  C1  UNL     1      -4.139  -2.634  -0.202  1.00  0.00     0.205 C 
ENDBRANCH  11  17
ENDBRANCH   7   8
ENDBRANCH   1   7
BRANCH   6  19
HETATM   19  O7  UNL     1       2.108  -1.052   1.333  1.00  0.00    -0.312 OA
BRANCH  19  20
HETATM   20  C16 UNL     1       2.773  -1.895   2.179  1.00  0.00     0.225 C 
HETATM   21  N1  UNL     1       3.616  -2.738   1.690  1.00  0.00    -0.368 N 
ATOM     22  H12 UNL     1       3.739  -2.725   0.678  1.00  0.00     0.159 HD
ATOM     23  H11 UNL     1       4.112  -3.367   2.321  1.00  0.00     0.159 HD
HETATM   24  N2  UNL     1       2.602  -1.913   3.589  1.00  0.00    -0.057 NA
ENDBRANCH  19  20
ENDBRANCH   6  19
BRANCH   3  25
HETATM   25  C12 UNL     1       3.527   2.427  -2.679  1.00  0.00     0.198 C 
BRANCH  25  26
HETATM   26  O4  UNL     1       2.427   3.238  -2.996  1.00  0.00    -0.398 OA
ATOM     27  H4  UNL     1       2.649   3.732  -3.777  1.00  0.00     0.209 HD
ENDBRANCH  25  26
ENDBRANCH   3  25
BRANCH   5  28
HETATM   28  O6  UNL     1       3.726   1.121   1.215  1.00  0.00    -0.390 OA
ATOM     29  H6  UNL     1       3.464   0.729   2.040  1.00  0.00     0.210 HD
ENDBRANCH   5  28
BRANCH   4  30
HETATM   30  O5  UNL     1       4.399  -0.309  -1.983  1.00  0.00    -0.390 OA
ATOM     31  H5  UNL     1       5.104  -0.893  -1.731  1.00  0.00     0.210 HD
ENDBRANCH   4  30
TORSDOF 9
