REMARK  5 active torsions:
REMARK  status: ('A' for Active; 'I' for Inactive)
REMARK    1  A    between atoms: N1_1  and  C1_5 
REMARK    2  A    between atoms: N2_8  and  C4_9 
REMARK    3  A    between atoms: C4_9  and  O1_10 
REMARK    4  A    between atoms: C4_9  and  N3_12 
REMARK    5  A    between atoms: C9_17  and  O2_18 
ROOT
HETATM    1  C4  UNL     1       0.523  -1.206   0.320  1.00  0.00     0.221 C 
ENDROOT
BRANCH   1   2
HETATM    2  N2  UNL     1       1.758  -0.531   0.292  1.00  0.00    -0.327 N 
HETATM    3  C3  UNL     1       2.871  -1.223   0.938  1.00  0.00     0.133 C 
HETATM    4  C2  UNL     1       3.995  -0.346   1.346  1.00  0.00     0.053 C 
HETATM    5  C1  UNL     1       4.381   0.592   0.224  1.00  0.00     0.189 C 
HETATM    6  C13 UNL     1       3.217   1.434  -0.147  1.00  0.00     0.077 C 
HETATM    7  C12 UNL     1       1.911   0.731  -0.315  1.00  0.00     0.069 C 
BRANCH   5   8
HETATM    8  N1  UNL     1       4.906  -0.110  -0.918  1.00  0.00    -0.075 N 
ATOM      9  H13 UNL     1       5.687  -0.710  -0.654  1.00  0.00     0.274 HD
ATOM     10  H12 UNL     1       4.255  -0.825  -1.243  1.00  0.00     0.274 HD
ATOM     11  H11 UNL     1       5.166   0.523  -1.675  1.00  0.00     0.274 HD
ENDBRANCH   5   8
ENDBRANCH   1   2
BRANCH   1  12
HETATM   12  O1  UNL     1       0.490  -2.366   0.935  1.00  0.00    -0.332 OA
ATOM     13  H1  UNL     1      -0.343  -2.822   0.954  1.00  0.00     0.221 HD
ENDBRANCH   1  12
BRANCH   1  14
HETATM   14  N3  UNL     1      -0.716  -0.839  -0.212  1.00  0.00    -0.346 N 
HETATM   15  C5  UNL     1      -1.254   0.260  -0.967  1.00  0.00     0.131 C 
HETATM   16  C6  UNL     1      -2.293   0.755   0.060  1.00  0.00     0.012 C 
HETATM   17  C7  UNL     1      -3.376   1.549  -0.579  1.00  0.00     0.009 C 
HETATM   18  C10 UNL     1      -2.907  -0.594   0.457  1.00  0.00     0.038 C 
HETATM   19  C8  UNL     1      -4.663   0.846  -0.215  1.00  0.00     0.032 C 
HETATM   20  C9  UNL     1      -4.260  -0.616  -0.208  1.00  0.00     0.124 C 
HETATM   21  C11 UNL     1      -1.977  -1.657  -0.075  1.00  0.00     0.134 C 
BRANCH  20  22
HETATM   22  O2  UNL     1      -4.250  -1.182  -1.461  1.00  0.00    -0.395 OA
ATOM     23  H2  UNL     1      -3.998  -2.098  -1.457  1.00  0.00     0.210 HD
ENDBRANCH  20  22
ENDBRANCH   1  14
TORSDOF 5
