REMARK  3 active torsions:
REMARK  status: ('A' for Active; 'I' for Inactive)
REMARK    1  A    between atoms: C9_9  and  O1_10 
REMARK    2  A    between atoms: C13_15  and  O2_16 
REMARK    3  A    between atoms: C16_20  and  O3_21 
ROOT
HETATM    1  C1  UNL     1       4.717   0.804   1.230  1.00  0.00     0.017 C 
HETATM    2  C2  UNL     1       3.605   0.606   0.778  1.00  0.00    -0.082 C 
HETATM    3  C3  UNL     1       2.300   0.382   0.224  1.00  0.00    -0.002 C 
HETATM    4  C4  UNL     1       1.507   1.375  -0.158  1.00  0.00    -0.004 C 
HETATM    5  C5  UNL     1       0.189   1.009  -0.712  1.00  0.00     0.028 C 
HETATM    6  C6  UNL     1       0.285  -0.044  -1.786  1.00  0.00     0.024 C 
HETATM    7  C7  UNL     1      -1.149  -0.506  -1.915  1.00  0.00     0.016 C 
HETATM    8  C8  UNL     1      -1.587  -0.613  -0.475  1.00  0.00     0.033 A 
HETATM    9  C9  UNL     1      -2.852   0.130  -0.178  1.00  0.00     0.067 A 
HETATM   10  C10 UNL     1      -3.152   0.561   1.236  1.00  0.00     0.047 A 
HETATM   11  C11 UNL     1      -2.021   1.184   0.533  1.00  0.00     0.035 A 
HETATM   12  C12 UNL     1      -0.764   0.423   0.258  1.00  0.00     0.006 A 
HETATM   13  C13 UNL     1      -0.137  -0.165   1.491  1.00  0.00     0.129 C 
HETATM   14  C14 UNL     1       0.811  -1.294   1.188  1.00  0.00     0.045 C 
HETATM   15  C15 UNL     1       1.738  -0.989   0.040  1.00  0.00     0.058 C 
HETATM   16  C16 UNL     1       1.109  -1.191  -1.299  1.00  0.00     0.132 C 
ENDROOT
BRANCH  16  17
HETATM   17  O3  UNL     1       2.154  -1.372  -2.235  1.00  0.00    -0.394 OA
ATOM     18  H3  UNL     1       2.678  -2.101  -1.925  1.00  0.00     0.210 HD
ENDBRANCH  16  17
BRANCH  13  19
HETATM   19  O2  UNL     1       0.457   0.819   2.283  1.00  0.00    -0.395 OA
ATOM     20  H2  UNL     1       0.853   0.447   3.062  1.00  0.00     0.210 HD
ENDBRANCH  13  19
BRANCH   9  21
HETATM   21  O1  UNL     1      -3.695   0.528  -1.202  1.00  0.00    -0.389 OA
ATOM     22  H1  UNL     1      -4.498   1.000  -1.014  1.00  0.00     0.210 HD
ENDBRANCH   9  21
TORSDOF 3
