REMARK  12 active torsions:
REMARK  status: ('A' for Active; 'I' for Inactive)
REMARK    1  A    between atoms: C2_2  and  C4_4 
REMARK    2  A    between atoms: C4_4  and  C5_5 
REMARK    3  A    between atoms: C9_12  and  C10_13 
REMARK    4  A    between atoms: C11_14  and  C12_15 
REMARK    5  A    between atoms: C12_15  and  C13_16 
REMARK    6  A    between atoms: C13_16  and  C14_17 
REMARK    7  A    between atoms: C14_17  and  C15_18 
REMARK    8  A    between atoms: C23_30  and  O4_31 
REMARK    9  A    between atoms: C24_33  and  C25_34 
REMARK   10  A    between atoms: C25_34  and  C26_35 
REMARK   11  A    between atoms: C26_35  and  C27_36 
REMARK   12  A    between atoms: C27_36  and  N3_37 
ROOT
HETATM    1  C5  UNL     1      -0.776   1.940  -0.592  1.00  0.00     0.177 C 
HETATM    2  N1  UNL     1       0.550   2.394  -0.198  1.00  0.00    -0.348 N 
ATOM      3  H1  UNL     1       0.629   2.850   0.711  1.00  0.00     0.163 HD
HETATM    4  C6  UNL     1       1.723   2.267  -0.942  1.00  0.00     0.218 C 
HETATM    5  O1  UNL     1       2.513   3.269  -0.973  1.00  0.00    -0.274 OA
HETATM    6  C7  UNL     1       2.116   1.072  -1.688  1.00  0.00     0.103 C 
HETATM    7  C8  UNL     1       3.539   0.668  -1.417  1.00  0.00     0.021 C 
HETATM    8  C9  UNL     1       3.665  -0.380  -0.313  1.00  0.00     0.030 C 
HETATM    9  C16 UNL     1       4.513  -1.476  -0.775  1.00  0.00    -0.022 C 
HETATM   10  C17 UNL     1       4.153  -2.761  -0.795  1.00  0.00    -0.026 C 
HETATM   11  C18 UNL     1       2.803  -3.241  -0.335  1.00  0.00     0.053 C 
HETATM   12  C19 UNL     1       1.751  -2.882  -1.294  1.00  0.00    -0.027 C 
HETATM   13  C20 UNL     1       0.462  -2.732  -1.057  1.00  0.00    -0.027 C 
HETATM   14  C21 UNL     1      -0.196  -2.904   0.266  1.00  0.00     0.072 C 
HETATM   15  C22 UNL     1      -1.584  -3.405   0.059  1.00  0.00     0.141 C 
HETATM   16  N2  UNL     1      -2.328  -2.537  -0.795  1.00  0.00    -0.351 N 
ATOM     17  H2  UNL     1      -2.108  -2.686  -1.780  1.00  0.00     0.163 HD
HETATM   18  C23 UNL     1      -3.269  -1.549  -0.618  1.00  0.00     0.136 C 
HETATM   19  C24 UNL     1      -3.269  -0.207  -0.042  1.00  0.00     0.159 C 
HETATM   20  N6  UNL     1      -2.161   0.206   0.748  1.00  0.00    -0.347 N 
ATOM     21  H6  UNL     1      -1.874  -0.439   1.484  1.00  0.00     0.163 HD
HETATM   22  C29 UNL     1      -1.407   1.398   0.642  1.00  0.00     0.241 C 
HETATM   23  O5  UNL     1      -1.212   2.132   1.683  1.00  0.00    -0.271 OA
HETATM   24  C30 UNL     1      -1.408  -4.738  -0.680  1.00  0.00     0.229 C 
HETATM   25  O6  UNL     1      -0.316  -5.156  -1.067  1.00  0.00    -0.286 OA
HETATM   26  C31 UNL     1      -2.654  -5.465  -0.883  1.00  0.00     0.201 C 
HETATM   27  O7  UNL     1      -2.715  -6.265  -1.848  1.00  0.00    -0.289 OA
HETATM   28  C32 UNL     1      -3.822  -5.254   0.043  1.00  0.00     0.115 C 
HETATM   29  C33 UNL     1      -3.276  -4.668   1.295  1.00  0.00     0.003 C 
HETATM   30  C34 UNL     1      -2.255  -3.825   1.311  1.00  0.00     0.045 C 
HETATM   31 CL1  UNL     1      -1.677  -3.225   2.839  1.00  0.00    -0.086 Cl
ENDROOT
BRANCH   8  32
HETATM   32  C10 UNL     1       4.186   0.320   0.865  1.00  0.00    -0.022 C 
HETATM   33  C11 UNL     1       5.210   0.228   1.626  1.00  0.00    -0.030 C 
BRANCH  33  34
HETATM   34  C12 UNL     1       6.365  -0.670   1.645  1.00  0.00     0.027 C 
BRANCH  34  35
HETATM   35  C13 UNL     1       7.681   0.084   1.475  1.00  0.00     0.014 C 
BRANCH  35  36
HETATM   36  C14 UNL     1       8.786  -0.966   1.499  1.00  0.00     0.113 C 
BRANCH  36  37
HETATM   37  C15 UNL     1      10.066  -0.254   1.337  1.00  0.00     0.172 C 
HETATM   38  O2  UNL     1      10.404   0.562   2.230  1.00  0.00    -0.648 OA
HETATM   39  O3  UNL     1      10.863  -0.490   0.227  1.00  0.00    -0.648 OA
ENDBRANCH  36  37
ENDBRANCH  35  36
ENDBRANCH  34  35
ENDBRANCH  33  34
ENDBRANCH   8  32
BRANCH   1  40
HETATM   40  C4  UNL     1      -1.592   3.014  -1.227  1.00  0.00     0.038 C 
BRANCH  40  41
HETATM   41  C2  UNL     1      -1.889   4.218  -0.413  1.00  0.00    -0.020 C 
HETATM   42  C1  UNL     1      -2.749   5.153  -1.292  1.00  0.00     0.009 C 
HETATM   43  C3  UNL     1      -0.726   5.044   0.021  1.00  0.00     0.009 C 
ENDBRANCH  40  41
ENDBRANCH   1  40
BRANCH  19  44
HETATM   44  C25 UNL     1      -4.579  -0.030   0.755  1.00  0.00     0.035 C 
BRANCH  44  45
HETATM   45  C26 UNL     1      -4.681   1.315   1.393  1.00  0.00     0.022 C 
BRANCH  45  46
HETATM   46  C27 UNL     1      -6.040   1.326   2.118  1.00  0.00     0.122 C 
BRANCH  46  47
HETATM   47  N3  UNL     1      -7.021   1.117   1.054  1.00  0.00    -0.367 N 
HETATM   48  C28 UNL     1      -7.398   2.111   0.346  1.00  0.00     0.196 C 
HETATM   49  N4  UNL     1      -6.880   3.396   0.585  1.00  0.00    -0.067 NA
HETATM   50  N5  UNL     1      -8.343   1.912  -0.686  1.00  0.00    -0.067 NA
ATOM     51  H3  UNL     1      -7.401   0.187   0.879  1.00  0.00     0.161 HD
ENDBRANCH  46  47
ENDBRANCH  45  46
ENDBRANCH  44  45
ENDBRANCH  19  44
BRANCH  18  52
HETATM   52  O4  UNL     1      -4.469  -1.856  -1.070  1.00  0.00    -0.348 OA
ATOM     53  H4  UNL     1      -5.119  -1.174  -0.948  1.00  0.00     0.219 HD
ENDBRANCH  18  52
TORSDOF 12
