REMARK  11 active torsions:
REMARK  status: ('A' for Active; 'I' for Inactive)
REMARK    1  A    between atoms: C2_2  and  C3_3 
REMARK    2  A    between atoms: C3_3  and  C4_4 
REMARK    3  A    between atoms: C16_18  and  C17_19 
REMARK       I    between atoms: C17_19  and  N2_21 
REMARK    4  A    between atoms: N2_21  and  C18_23 
REMARK    5  A    between atoms: C20_25  and  C21_26 
REMARK       I    between atoms: C21_26  and  N3_28 
REMARK    6  A    between atoms: N3_28  and  C22_30 
REMARK    7  A    between atoms: C22_30  and  C23_31 
REMARK    8  A    between atoms: C22_30  and  C25_35 
REMARK    9  A    between atoms: C23_31  and  C24_32 
REMARK   10  A    between atoms: C29_43  and  C30_44 
REMARK   11  A    between atoms: C30_44  and  C31_45 
ROOT
HETATM    1  C18 UNL     1       1.135   1.009   0.929  1.00  0.00     0.036 A 
HETATM    2  C19 UNL     1       1.963   0.045   0.444  1.00  0.00     0.049 A 
HETATM    3  C20 UNL     1       3.241   0.280  -0.086  1.00  0.00     0.061 A 
HETATM    4  C26 UNL     1       3.673   1.587  -0.113  1.00  0.00     0.059 A 
HETATM    5  N5  UNL     1       4.789   2.185  -0.557  1.00  0.00    -0.358 N 
ATOM      6  H5  UNL     1       5.583   1.701  -0.976  1.00  0.00     0.166 HD
HETATM    7  C27 UNL     1       4.708   3.538  -0.366  1.00  0.00     0.013 A 
HETATM    8  C28 UNL     1       5.748   4.528  -0.731  1.00  0.00     0.068 C 
HETATM    9  C29 UNL     1       3.514   3.813   0.212  1.00  0.00    -0.015 A 
HETATM   10  C32 UNL     1       2.835   2.599   0.384  1.00  0.00     0.002 A 
HETATM   11  C33 UNL     1       1.601   2.316   0.890  1.00  0.00     0.044 A 
ENDROOT
BRANCH   1  12
HETATM   12  N2  UNL     1      -0.180   0.807   1.431  1.00  0.00    -0.326 N 
HETATM   13  C17 UNL     1      -1.042  -0.268   1.112  1.00  0.00     0.231 C 
HETATM   14  O2  UNL     1      -0.623  -1.114   0.319  1.00  0.00    -0.272 OA
ATOM     15  H2  UNL     1      -0.536   1.505   2.084  1.00  0.00     0.169 HD
BRANCH  13  16
HETATM   16  C16 UNL     1      -2.370  -0.273   1.763  1.00  0.00     0.051 C 
HETATM   17  C8  UNL     1      -3.372  -1.235   1.277  1.00  0.00     0.034 C 
HETATM   18  C7  UNL     1      -4.283  -0.558   0.304  1.00  0.00     0.033 C 
HETATM   19  C9  UNL     1      -2.918  -2.579   0.863  1.00  0.00     0.093 C 
HETATM   20  C6  UNL     1      -3.950  -0.681  -1.135  1.00  0.00     0.009 C 
HETATM   21  C35 UNL     1      -4.304   0.849   0.831  1.00  0.00     0.109 C 
HETATM   22  C5  UNL     1      -4.591   0.307  -2.045  1.00  0.00     0.005 C 
HETATM   23  C4  UNL     1      -5.237   1.486  -1.426  1.00  0.00    -0.008 C 
HETATM   24  C36 UNL     1      -4.506   1.894  -0.207  1.00  0.00     0.049 C 
HETATM   25  C34 UNL     1      -2.984   1.090   1.504  1.00  0.00     0.063 C 
HETATM   26  F1  UNL     1      -5.293   0.999   1.785  1.00  0.00    -0.242 F 
HETATM   27  C10 UNL     1      -4.137  -3.518   0.912  1.00  0.00     0.027 C 
HETATM   28  N1  UNL     1      -2.090  -3.235   1.828  1.00  0.00    -0.347 N 
HETATM   29  C11 UNL     1      -3.537  -4.893   1.174  1.00  0.00     0.022 C 
HETATM   30  C12 UNL     1      -2.067  -4.637   1.403  1.00  0.00     0.126 C 
HETATM   31  C13 UNL     1      -1.410  -2.741   2.960  1.00  0.00     0.220 C 
HETATM   32  O1  UNL     1      -0.348  -3.399   3.233  1.00  0.00    -0.273 OA
HETATM   33  C14 UNL     1      -1.735  -1.631   3.823  1.00  0.00     0.104 C 
HETATM   34  C15 UNL     1      -2.234  -0.388   3.266  1.00  0.00     0.029 C 
BRANCH  23  35
HETATM   35  C3  UNL     1      -6.733   1.332  -1.256  1.00  0.00     0.031 C 
BRANCH  35  36
HETATM   36  C2  UNL     1      -7.386   1.128  -2.568  1.00  0.00    -0.037 C 
HETATM   37  C1  UNL     1      -8.077   0.022  -2.782  1.00  0.00     0.007 C 
ENDBRANCH  35  36
ENDBRANCH  23  35
ENDBRANCH  13  16
ENDBRANCH   1  12
BRANCH   3  38
HETATM   38  C21 UNL     1       4.041  -0.839  -0.502  1.00  0.00     0.254 C 
HETATM   39  O3  UNL     1       3.369  -1.863  -0.913  1.00  0.00    -0.268 OA
HETATM   40  N3  UNL     1       5.420  -0.945  -0.507  1.00  0.00    -0.342 N 
ATOM     41  H3  UNL     1       5.998  -0.169  -0.185  1.00  0.00     0.163 HD
BRANCH  40  42
HETATM   42  C22 UNL     1       6.057  -2.218  -0.993  1.00  0.00     0.194 C 
BRANCH  42  43
HETATM   43  C23 UNL     1       6.785  -1.856  -2.240  1.00  0.00     0.135 C 
BRANCH  43  44
HETATM   44  C24 UNL     1       7.434  -2.993  -2.897  1.00  0.00     0.233 C 
HETATM   45  N4  UNL     1       8.297  -2.722  -4.033  1.00  0.00    -0.062 NA
HETATM   46  O4  UNL     1       7.338  -4.204  -2.595  1.00  0.00    -0.277 OA
ENDBRANCH  43  44
ENDBRANCH  42  43
BRANCH  42  47
HETATM   47  C25 UNL     1       6.933  -2.699   0.106  1.00  0.00     0.197 C 
HETATM   48  O5  UNL     1       7.038  -2.014   1.184  1.00  0.00    -0.646 OA
HETATM   49  O6  UNL     1       7.674  -3.856   0.086  1.00  0.00    -0.646 OA
ENDBRANCH  42  47
ENDBRANCH  40  42
ENDBRANCH   3  38
BRANCH   9  50
HETATM   50  C30 UNL     1       2.949   5.122   0.618  1.00  0.00     0.141 C 
BRANCH  50  51
HETATM   51  C31 UNL     1       2.464   5.897  -0.547  1.00  0.00     0.235 C 
HETATM   52  N6  UNL     1       2.268   5.240  -1.787  1.00  0.00    -0.062 NA
HETATM   53  O7  UNL     1       2.226   7.125  -0.447  1.00  0.00    -0.277 OA
ENDBRANCH  50  51
ENDBRANCH   9  50
TORSDOF 11
