REMARK  2 active torsions:
REMARK  status: ('A' for Active; 'I' for Inactive)
REMARK    1  A    between atoms: N1_1  and  C1_4 
REMARK    2  A    between atoms: C2_7  and  N3_8 
ROOT
HETATM    1  C1  UNL     1       2.114  -0.251  -0.017  1.00  0.00     0.679 A 
HETATM    2  N2  UNL     1       1.694   1.013   0.038  1.00  0.00    -0.169 N 
ATOM      3  H2  UNL     1       2.396   1.753   0.067  1.00  0.00     0.186 HD
HETATM    4  C2  UNL     1       0.395   1.368   0.057  1.00  0.00     0.219 A 
HETATM    5  C3  UNL     1      -0.551   0.365   0.017  1.00  0.00     0.132 A 
HETATM    6  N4  UNL     1      -1.893   0.314   0.019  1.00  0.00    -0.302 N 
ATOM      7  H4  UNL     1      -2.501   1.132   0.056  1.00  0.00     0.171 HD
HETATM    8  C4  UNL     1      -2.328  -0.953  -0.034  1.00  0.00     0.326 A 
HETATM    9  O3  UNL     1      -3.531  -1.383  -0.049  1.00  0.00    -0.247 OA
HETATM   10  N5  UNL     1      -1.242  -1.733  -0.071  1.00  0.00    -0.292 N 
ATOM     11  H5  UNL     1      -1.249  -2.752  -0.115  1.00  0.00     0.172 HD
HETATM   12  C5  UNL     1      -0.139  -0.964  -0.041  1.00  0.00     0.156 A 
HETATM   13  N6  UNL     1       1.188  -1.226  -0.056  1.00  0.00    -0.174 N 
ATOM     14  H6  UNL     1       1.497  -2.197  -0.098  1.00  0.00     0.186 HD
ENDROOT
BRANCH   1  15
HETATM   15  N1  UNL     1       3.385  -0.550  -0.033  1.00  0.00    -0.234 N 
ATOM     16  H12 UNL     1       4.087   0.189  -0.003  1.00  0.00     0.174 HD
ATOM     17  H11 UNL     1       3.706  -1.517  -0.075  1.00  0.00     0.174 HD
ENDBRANCH   1  15
BRANCH   4  18
HETATM   18  N3  UNL     1      -0.029   2.721   0.115  1.00  0.00    -0.095 N 
HETATM   19  O1  UNL     1       0.751   3.572  -0.369  1.00  0.00    -0.530 OA
HETATM   20  O2  UNL     1      -1.215   3.115   0.660  1.00  0.00    -0.530 OA
ENDBRANCH   4  18
TORSDOF 2
