REMARK  1 active torsions:
REMARK  status: ('A' for Active; 'I' for Inactive)
REMARK       I    between atoms: C2_2  and  N1_4 
REMARK    1  A    between atoms: N1_4  and  N2_6 
ROOT
HETATM    1  N2  UNL     1       0.545  -0.842   1.129  1.00  0.00    -0.277 N 
ATOM      2  H2  UNL     1       0.450  -1.169   2.091  1.00  0.00     0.189 HD
HETATM    3  C3  UNL     1      -0.521  -0.483   0.557  1.00  0.00     0.206 C 
HETATM    4  N3  UNL     1      -1.712  -0.580   1.325  1.00  0.00    -0.260 N 
ATOM      5  H3  UNL     1      -1.545  -0.713   2.322  1.00  0.00     0.190 HD
HETATM    6  N4  UNL     1      -3.052  -0.530   0.990  1.00  0.00    -0.197 N 
ATOM      7  H4  UNL     1      -3.740  -1.144   1.426  1.00  0.00     0.216 HD
HETATM    8  O2  UNL     1      -3.399   0.381   0.049  1.00  0.00    -0.186 OA
HETATM    9  C4  UNL     1      -2.875   0.776  -1.170  1.00  0.00     0.245 C 
HETATM   10  N5  UNL     1      -3.639   1.414  -1.996  1.00  0.00    -0.364 N 
ATOM     11  H51 UNL     1      -3.253   1.705  -2.894  1.00  0.00     0.159 HD
ATOM     12  H52 UNL     1      -4.593   1.580  -1.675  1.00  0.00     0.159 HD
HETATM   13  N6  UNL     1      -1.541   0.544  -1.619  1.00  0.00    -0.285 N 
ATOM     14  H6  UNL     1      -1.328   0.784  -2.587  1.00  0.00     0.172 HD
HETATM   15  C5  UNL     1      -0.460  -0.004  -0.820  1.00  0.00     0.295 C 
HETATM   16  O3  UNL     1       0.667  -0.089  -1.341  1.00  0.00    -0.264 OA
ENDROOT
BRANCH   1  17
HETATM   17  N1  UNL     1       1.817  -0.846   0.613  1.00  0.00    -0.269 N 
HETATM   18  C2  UNL     1       2.815   0.128   0.887  1.00  0.00     0.232 C 
HETATM   19  C1  UNL     1       4.163   0.113   0.332  1.00  0.00     0.119 C 
HETATM   20  O1  UNL     1       2.476   1.065   1.673  1.00  0.00    -0.272 OA
ATOM     21  H1  UNL     1       2.066  -1.609  -0.017  1.00  0.00     0.190 HD
ENDBRANCH   1  17
TORSDOF 1
