REMARK  4 active torsions:
REMARK  status: ('A' for Active; 'I' for Inactive)
REMARK    1  A    between atoms: C3_4  and  C4_5 
REMARK    2  A    between atoms: C4_5  and  O1_6 
REMARK    3  A    between atoms: C4_5  and  N2_8 
REMARK    4  A    between atoms: N2_8  and  N3_10 
ROOT
HETATM    1  N1  UNL     1       0.938   3.492   1.315  1.00  0.00    -0.191 NA
HETATM    2  C1  UNL     1       0.362   2.565   0.953  1.00  0.00     0.106 C 
HETATM    3  C2  UNL     1      -0.401   1.446   0.515  1.00  0.00     0.129 A 
HETATM    4  C3  UNL     1       0.184   0.300   0.080  1.00  0.00     0.070 A 
HETATM    5  C5  UNL     1      -0.690  -0.736  -0.326  1.00  0.00     0.103 A 
HETATM    6  N4  UNL     1      -0.170  -1.975  -0.797  1.00  0.00    -0.098 NA
HETATM    7  C6  UNL     1      -2.048  -0.617  -0.295  1.00  0.00     0.144 A 
HETATM    8  N5  UNL     1      -2.909  -1.699  -0.720  1.00  0.00    -0.081 NA
HETATM    9  N6  UNL     1      -2.595   0.529   0.140  1.00  0.00    -0.309 N 
ATOM     10  H6  UNL     1      -3.609   0.637   0.172  1.00  0.00     0.170 HD
HETATM   11  C7  UNL     1      -1.798   1.527   0.531  1.00  0.00     0.268 A 
HETATM   12  O2  UNL     1      -2.312   2.593   0.935  1.00  0.00    -0.266 OA
ENDROOT
BRANCH   4  13
HETATM   13  C4  UNL     1       1.591   0.069   0.007  1.00  0.00     0.168 C 
BRANCH  13  14
HETATM   14  O1  UNL     1       1.886  -1.129  -0.451  1.00  0.00    -0.344 OA
ATOM     15  H1  UNL     1       2.822  -1.283  -0.500  1.00  0.00     0.219 HD
ENDBRANCH  13  14
BRANCH  13  16
HETATM   16  N2  UNL     1       2.720   0.815   0.305  1.00  0.00    -0.286 N 
ATOM     17  H2  UNL     1       2.646   1.765   0.669  1.00  0.00     0.188 HD
BRANCH  16  18
HETATM   18  N3  UNL     1       4.009   0.196   0.080  1.00  0.00    -0.343 N 
ATOM     19  H32 UNL     1       4.067  -0.755  -0.285  1.00  0.00     0.176 HD
ATOM     20  H31 UNL     1       4.840   0.745   0.299  1.00  0.00     0.176 HD
ENDBRANCH  16  18
ENDBRANCH  13  16
ENDBRANCH   4  13
TORSDOF 4
