REMARK  4 active torsions:
REMARK  status: ('A' for Active; 'I' for Inactive)
REMARK    1  A    between atoms: O1_2  and  C2_3 
REMARK    2  A    between atoms: C2_3  and  C3_7 
REMARK    3  A    between atoms: N5_17  and  N6_19 
REMARK    4  A    between atoms: N6_19  and  O3_21 
ROOT
HETATM    1  C3  UNL     1       0.258   0.006  -0.151  1.00  0.00     0.101 A 
HETATM    2  C4  UNL     1       0.395   1.336   0.179  1.00  0.00     0.138 A 
HETATM    3  N2  UNL     1      -0.801   2.062   0.469  1.00  0.00    -0.081 NA
HETATM    4  N3  UNL     1       1.618   1.939   0.229  1.00  0.00    -0.296 N 
ATOM      5  H3  UNL     1       1.709   2.925   0.475  1.00  0.00     0.171 HD
HETATM    6  C5  UNL     1       2.697   1.193  -0.056  1.00  0.00     0.327 A 
HETATM    7  O2  UNL     1       3.824   1.736  -0.013  1.00  0.00    -0.247 OA
HETATM    8  N4  UNL     1       2.615  -0.107  -0.383  1.00  0.00    -0.292 N 
ATOM      9  H4  UNL     1       3.462  -0.636  -0.591  1.00  0.00     0.172 HD
HETATM   10  C6  UNL     1       1.393  -0.719  -0.436  1.00  0.00     0.143 A 
HETATM   11  N5  UNL     1       1.252  -1.952  -0.741  1.00  0.00    -0.265 N 
ATOM     12  H5  UNL     1       0.327  -2.380  -0.772  1.00  0.00     0.190 HD
ENDROOT
BRANCH   1  13
HETATM   13  C2  UNL     1      -1.079  -0.610  -0.194  1.00  0.00     0.153 C 
HETATM   14  N1  UNL     1      -1.231  -1.850  -0.500  1.00  0.00    -0.379 N 
ATOM     15  H12 UNL     1      -2.157  -2.277  -0.530  1.00  0.00     0.158 HD
ATOM     16  H11 UNL     1      -0.402  -2.404  -0.714  1.00  0.00     0.158 HD
BRANCH  13  17
HETATM   17  O1  UNL     1      -2.204   0.141   0.096  1.00  0.00    -0.340 OA
HETATM   18  C1  UNL     1      -3.439  -0.422   0.472  1.00  0.00     0.211 C 
ENDBRANCH  13  17
ENDBRANCH   1  13
BRANCH  11  19
HETATM   19  N6  UNL     1       2.395  -2.699  -1.031  1.00  0.00    -0.208 N 
ATOM     20  H6  UNL     1       2.578  -2.924  -2.009  1.00  0.00     0.215 HD
BRANCH  19  21
HETATM   21  O3  UNL     1       3.197  -3.105  -0.191  1.00  0.00    -0.274 OA
ATOM     22  H3  UNL     1       3.975  -3.613  -0.388  1.00  0.00     0.246 HD
ENDBRANCH  19  21
ENDBRANCH  11  19
TORSDOF 4
