REMARK  7 active torsions:
REMARK  status: ('A' for Active; 'I' for Inactive)
REMARK    1  A    between atoms: N1_1  and  C1_5 
REMARK    2  A    between atoms: C7_11  and  O1_12 
REMARK    3  A    between atoms: O1_12  and  C8_13 
REMARK    4  A    between atoms: C8_13  and  C9_15 
REMARK    5  A    between atoms: C9_15  and  O3_16 
REMARK    6  A    between atoms: C9_15  and  C10_19 
REMARK       I    between atoms: C10_19  and  N2_21 
REMARK    7  A    between atoms: N2_21  and  C11_23 
ROOT
HETATM    1  C8  UNL     1       0.817  -0.817  -0.984  1.00  0.00     0.316 C 
HETATM    2  O2  UNL     1       0.734  -0.269  -2.114  1.00  0.00    -0.260 OA
ENDROOT
BRANCH   1   3
HETATM    3  O1  UNL     1      -0.304  -0.820  -0.192  1.00  0.00    -0.310 OA
BRANCH   3   4
HETATM    4  C7  UNL     1      -1.548  -0.242  -0.575  1.00  0.00     0.162 C 
HETATM    5  C1  UNL     1      -1.920   0.920   0.307  1.00  0.00     0.212 C 
HETATM    6  C2  UNL     1      -3.010   0.633   1.272  1.00  0.00     0.035 C 
HETATM    7  C3  UNL     1      -4.392   0.848   0.735  1.00  0.00     0.002 C 
HETATM    8  C4  UNL     1      -4.854  -0.351  -0.103  1.00  0.00     0.000 C 
HETATM    9  C5  UNL     1      -3.872  -0.616  -1.221  1.00  0.00     0.002 C 
HETATM   10  C6  UNL     1      -2.636  -1.264  -0.691  1.00  0.00     0.035 C 
BRANCH   5  11
HETATM   11  N1  UNL     1      -2.231   2.118  -0.440  1.00  0.00    -0.073 N 
ATOM     12  H13 UNL     1      -3.142   2.060  -0.896  1.00  0.00     0.274 HD
ATOM     13  H12 UNL     1      -2.422   2.912   0.171  1.00  0.00     0.274 HD
ATOM     14  H11 UNL     1      -1.482   2.315  -1.103  1.00  0.00     0.274 HD
ENDBRANCH   5  11
ENDBRANCH   3   4
ENDBRANCH   1   3
BRANCH   1  15
HETATM   15  C9  UNL     1       2.116  -1.413  -0.602  1.00  0.00     0.287 C 
HETATM   16  S1  UNL     1       2.552  -2.805  -1.702  1.00  0.00    -0.035 SA
BRANCH  15  17
HETATM   17  O3  UNL     1       1.962  -1.952   0.674  1.00  0.00    -0.363 OA
ATOM     18  H3  UNL     1       2.796  -2.335   0.919  1.00  0.00     0.212 HD
ENDBRANCH  15  17
BRANCH  15  19
HETATM   19  C10 UNL     1       3.221  -0.456  -0.609  1.00  0.00     0.274 C 
HETATM   20  O4  UNL     1       3.569   0.178  -1.659  1.00  0.00    -0.268 OA
HETATM   21  N2  UNL     1       3.954  -0.201   0.576  1.00  0.00    -0.353 N 
ATOM     22  H2  UNL     1       3.698  -0.695   1.431  1.00  0.00     0.163 HD
BRANCH  21  23
HETATM   23  C11 UNL     1       5.062   0.745   0.612  1.00  0.00     0.084 A 
HETATM   24  C12 UNL     1       6.221   0.534   1.490  1.00  0.00     0.027 A 
HETATM   25  C13 UNL     1       5.241   1.601   1.811  1.00  0.00     0.027 A 
ENDBRANCH  21  23
ENDBRANCH  15  19
ENDBRANCH   1  15
TORSDOF 7
