REMARK  1 active torsions:
REMARK  status: ('A' for Active; 'I' for Inactive)
REMARK    1  A    between atoms: S1_2  and  C2_3 
ROOT
HETATM    1  C2  UNL     1       1.509  -0.682  -0.208  1.00  0.00     0.148 A 
HETATM    2  N1  UNL     1       0.652  -0.187  -1.105  1.00  0.00    -0.321 N 
ATOM      3  H1  UNL     1       0.976   0.094  -2.030  1.00  0.00     0.169 HD
HETATM    4  C3  UNL     1      -0.645  -0.065  -0.769  1.00  0.00     0.133 A 
HETATM    5  C4  UNL     1      -1.075  -0.447   0.486  1.00  0.00     0.071 A 
HETATM    6  C5  UNL     1      -0.189  -0.955   1.405  1.00  0.00     0.258 A 
HETATM    7  O1  UNL     1      -0.587  -1.300   2.543  1.00  0.00    -0.267 OA
HETATM    8  N2  UNL     1       1.102  -1.054   1.008  1.00  0.00    -0.303 N 
ATOM      9  H2  UNL     1       1.789  -1.427   1.663  1.00  0.00     0.171 HD
HETATM   10  C6  UNL     1      -2.525  -0.276   0.770  1.00  0.00     0.180 C 
HETATM   11  N3  UNL     1      -2.939   0.973   0.181  1.00  0.00    -0.121 NA
HETATM   12  N4  UNL     1      -2.839   0.938  -1.194  1.00  0.00    -0.030 NA
HETATM   13  N5  UNL     1      -1.627   0.449  -1.654  1.00  0.00    -0.272 N 
ATOM     14  H5  UNL     1      -1.436   0.459  -2.656  1.00  0.00     0.185 HD
ENDROOT
BRANCH   1  15
HETATM   15  S1  UNL     1       3.221  -0.847  -0.642  1.00  0.00    -0.098 SA
HETATM   16  C1  UNL     1       4.188   0.612  -0.250  1.00  0.00     0.099 C 
ENDBRANCH   1  15
TORSDOF 1
