REMARK  9 active torsions:
REMARK  status: ('A' for Active; 'I' for Inactive)
REMARK       I    between atoms: C2_2  and  N1_4 
REMARK    1  A    between atoms: N1_4  and  S1_6 
REMARK    2  A    between atoms: S1_6  and  N2_8 
REMARK    3  A    between atoms: S1_6  and  N5_21 
REMARK    4  A    between atoms: N2_8  and  O3_10 
REMARK    5  A    between atoms: O3_10  and  C3_11 
REMARK    6  A    between atoms: C3_11  and  N4_15 
REMARK    7  A    between atoms: N4_15  and  C4_17 
REMARK    8  A    between atoms: N5_21  and  C8_23 
REMARK    9  A    between atoms: C8_23  and  C9_24 
ROOT
HETATM    1  C9  UNL     1       3.845   2.589  -1.974  1.00  0.00     0.144 C 
HETATM    2  C10 UNL     1       4.233   3.565  -0.958  1.00  0.00     0.060 C 
HETATM    3  N6  UNL     1       4.521   4.346  -0.157  1.00  0.00    -0.197 NA
ENDROOT
BRANCH   1   4
HETATM    4  C8  UNL     1       2.707   1.741  -1.450  1.00  0.00     0.146 C 
BRANCH   4   5
HETATM    5  N5  UNL     1       3.175   1.067  -0.251  1.00  0.00    -0.317 N 
ATOM      6  H5  UNL     1       4.114   1.173   0.133  1.00  0.00     0.172 HD
BRANCH   5   7
HETATM    7  S1  UNL     1       1.963   0.071   0.444  1.00  0.00     0.220 S 
HETATM    8  O2  UNL     1       1.343   0.829   1.596  1.00  0.00    -0.204 OA
BRANCH   7   9
HETATM    9  N1  UNL     1       2.749  -1.350   1.039  1.00  0.00    -0.254 N 
HETATM   10  C2  UNL     1       2.671  -2.576   0.327  1.00  0.00     0.227 C 
HETATM   11  C1  UNL     1       3.331  -3.794   0.817  1.00  0.00     0.118 C 
HETATM   12  O1  UNL     1       2.031  -2.636  -0.740  1.00  0.00    -0.273 OA
ATOM     13  H1  UNL     1       3.275  -1.307   1.912  1.00  0.00     0.181 HD
ENDBRANCH   7   9
BRANCH   7  14
HETATM   14  N2  UNL     1       0.858  -0.329  -0.588  1.00  0.00    -0.183 N 
ATOM     15  H2  UNL     1       1.103  -0.959  -1.352  1.00  0.00     0.208 HD
BRANCH  14  16
HETATM   16  O3  UNL     1      -0.412   0.131  -0.504  1.00  0.00    -0.192 OA
BRANCH  16  17
HETATM   17  C3  UNL     1      -1.324  -0.325   0.419  1.00  0.00     0.238 C 
HETATM   18  N3  UNL     1      -1.168  -1.478   0.943  1.00  0.00    -0.364 N 
ATOM     19  H32 UNL     1      -0.373  -2.062   0.684  1.00  0.00     0.159 HD
ATOM     20  H31 UNL     1      -1.844  -1.816   1.628  1.00  0.00     0.159 HD
BRANCH  17  21
HETATM   21  N4  UNL     1      -2.413   0.474   0.774  1.00  0.00    -0.347 N 
ATOM     22  H4  UNL     1      -2.233   1.261   1.398  1.00  0.00     0.163 HD
BRANCH  21  23
HETATM   23  C4  UNL     1      -3.765   0.279   0.333  1.00  0.00     0.022 C 
HETATM   24  C5  UNL     1      -4.632   1.365   0.928  1.00  0.00     0.037 C 
HETATM   25  C6  UNL     1      -3.787   0.419  -1.179  1.00  0.00     0.037 C 
HETATM   26  C7  UNL     1      -4.310  -1.079   0.735  1.00  0.00     0.037 C 
ENDBRANCH  21  23
ENDBRANCH  17  21
ENDBRANCH  16  17
ENDBRANCH  14  16
ENDBRANCH   7  14
ENDBRANCH   5   7
ENDBRANCH   4   5
ENDBRANCH   1   4
TORSDOF 9
