REMARK  7 active torsions:
REMARK  status: ('A' for Active; 'I' for Inactive)
REMARK    1  A    between atoms: O1_2  and  C2_3 
REMARK       I    between atoms: C2_3  and  N1_5 
REMARK    2  A    between atoms: N1_5  and  C3_7 
REMARK    3  A    between atoms: C5_11  and  C6_12 
REMARK    4  A    between atoms: C7_13  and  C8_14 
REMARK       I    between atoms: C8_14  and  N3_16 
REMARK    5  A    between atoms: N3_16  and  C9_18 
REMARK    6  A    between atoms: C9_18  and  N4_19 
REMARK    7  A    between atoms: C9_18  and  C10_23 
ROOT
HETATM    1  C6  UNL     1       0.241  -0.610   0.983  1.00  0.00     0.026 C 
HETATM    2  C7  UNL     1      -1.006  -0.685   0.932  1.00  0.00     0.075 C 
ENDROOT
BRANCH   1   3
HETATM    3  C5  UNL     1       1.275   0.020   0.211  1.00  0.00     0.024 A 
HETATM    4  C4  UNL     1       1.341   0.800  -0.901  1.00  0.00     0.109 A 
HETATM    5  N2  UNL     1       2.512   1.209  -1.338  1.00  0.00    -0.345 N 
HETATM    6  C3  UNL     1       3.599   0.852  -0.687  1.00  0.00     0.153 A 
ATOM      7  H2  UNL     1       2.577   1.795  -2.170  1.00  0.00     0.167 HD
HETATM    8  S2  UNL     1       3.007  -0.086   0.585  1.00  0.00    -0.053 SA
BRANCH   6   9
HETATM    9  N1  UNL     1       4.841   1.168  -0.981  1.00  0.00    -0.282 N 
HETATM   10  C2  UNL     1       5.914   0.703  -0.177  1.00  0.00     0.366 C 
HETATM   11  O2  UNL     1       6.418   1.510   0.646  1.00  0.00    -0.238 OA
ATOM     12  H1  UNL     1       5.035   1.752  -1.794  1.00  0.00     0.173 HD
BRANCH  10  13
HETATM   13  O1  UNL     1       6.442  -0.570  -0.235  1.00  0.00    -0.309 OA
HETATM   14  C1  UNL     1       7.500  -1.029   0.556  1.00  0.00     0.215 C 
ENDBRANCH  10  13
ENDBRANCH   6   9
ENDBRANCH   1   3
BRANCH   2  15
HETATM   15  C8  UNL     1      -2.054  -0.204   0.107  1.00  0.00     0.242 C 
HETATM   16  O3  UNL     1      -1.916   0.503  -0.892  1.00  0.00    -0.269 OA
HETATM   17  N3  UNL     1      -3.430  -0.545   0.420  1.00  0.00    -0.329 N 
ATOM     18  H3  UNL     1      -3.610  -1.129   1.236  1.00  0.00     0.164 HD
BRANCH  17  19
HETATM   19  C9  UNL     1      -4.548  -0.102  -0.360  1.00  0.00     0.294 C 
BRANCH  19  20
HETATM   20  N4  UNL     1      -5.300  -1.237  -0.912  1.00  0.00    -0.058 N 
ATOM     21  H43 UNL     1      -4.696  -1.861  -1.446  1.00  0.00     0.276 HD
ATOM     22  H42 UNL     1      -5.589  -1.886  -0.180  1.00  0.00     0.276 HD
ATOM     23  H41 UNL     1      -6.096  -0.922  -1.467  1.00  0.00     0.276 HD
ENDBRANCH  19  20
BRANCH  19  24
HETATM   24  C10 UNL     1      -5.527   0.636   0.543  1.00  0.00     0.140 C 
HETATM   25  S1  UNL     1      -6.942   1.193  -0.460  1.00  0.00    -0.094 SA
ENDBRANCH  19  24
ENDBRANCH  17  19
ENDBRANCH   2  15
TORSDOF 7
