REMARK  7 active torsions:
REMARK  status: ('A' for Active; 'I' for Inactive)
REMARK    1  A    between atoms: C2_2  and  C4_4 
REMARK    2  A    between atoms: C4_4  and  C5_5 
REMARK    3  A    between atoms: C4_4  and  N2_12 
REMARK    4  A    between atoms: C5_5  and  O1_6 
REMARK    5  A    between atoms: O1_6  and  C6_7 
REMARK       I    between atoms: C6_7  and  N1_9 
REMARK    6  A    between atoms: N2_12  and  C9_14 
REMARK    7  A    between atoms: C10_17  and  N4_18 
ROOT
HETATM    1  C9  UNL     1      -2.345   0.696   0.080  1.00  0.00     0.149 A 
HETATM    2  N3  UNL     1      -1.806   1.479  -0.860  1.00  0.00    -0.175 N 
ATOM      3  H3  UNL     1      -0.831   1.318  -1.112  1.00  0.00     0.186 HD
HETATM    4  C10 UNL     1      -2.459   2.456  -1.489  1.00  0.00     0.679 A 
HETATM    5  N5  UNL     1      -3.742   2.694  -1.180  1.00  0.00    -0.173 N 
ATOM      6  H5  UNL     1      -4.253   3.439  -1.653  1.00  0.00     0.186 HD
HETATM    7  C11 UNL     1      -4.356   1.941  -0.237  1.00  0.00     0.169 A 
HETATM    8  N6  UNL     1      -5.598   1.945   0.269  1.00  0.00    -0.268 N 
ATOM      9  H6  UNL     1      -6.352   2.577  -0.002  1.00  0.00     0.190 HD
HETATM   10  N7  UNL     1      -5.677   1.001   1.169  1.00  0.00    -0.240 N 
ATOM     11  H7  UNL     1      -6.512   0.783   1.713  1.00  0.00     0.208 HD
HETATM   12  N8  UNL     1      -4.524   0.370   1.274  1.00  0.00    -0.279 N 
ATOM     13  H8  UNL     1      -4.322  -0.407   1.904  1.00  0.00     0.189 HD
HETATM   14  C12 UNL     1      -3.666   0.925   0.412  1.00  0.00     0.140 A 
ENDROOT
BRANCH   1  15
HETATM   15  N2  UNL     1      -1.684  -0.209   0.639  1.00  0.00    -0.367 N 
ATOM     16  H2  UNL     1      -2.187  -0.750   1.342  1.00  0.00     0.161 HD
BRANCH  15  17
HETATM   17  C4  UNL     1      -0.305  -0.594   0.426  1.00  0.00     0.111 C 
BRANCH  17  18
HETATM   18  C2  UNL     1      -0.245  -2.070   0.750  1.00  0.00     0.002 C 
HETATM   19  C1  UNL     1       1.111  -2.681   0.645  1.00  0.00     0.011 C 
HETATM   20  C3  UNL     1      -1.128  -2.764  -0.297  1.00  0.00     0.011 C 
ENDBRANCH  17  18
BRANCH  17  21
HETATM   21  C5  UNL     1       0.530   0.269   1.297  1.00  0.00     0.206 C 
BRANCH  21  22
HETATM   22  O1  UNL     1       1.897   0.109   1.268  1.00  0.00    -0.302 OA
BRANCH  22  23
HETATM   23  C6  UNL     1       2.595   0.335   0.077  1.00  0.00     0.362 C 
HETATM   24  O2  UNL     1       2.006   0.683  -0.977  1.00  0.00    -0.238 OA
HETATM   25  N1  UNL     1       4.005   0.174   0.027  1.00  0.00    -0.337 N 
HETATM   26  C7  UNL     1       4.718  -0.225   1.216  1.00  0.00     0.154 C 
HETATM   27  C8  UNL     1       4.713   0.410  -1.210  1.00  0.00     0.154 C 
ENDBRANCH  22  23
ENDBRANCH  21  22
ENDBRANCH  17  21
ENDBRANCH  15  17
ENDBRANCH   1  15
BRANCH   4  28
HETATM   28  N4  UNL     1      -1.914   3.195  -2.391  1.00  0.00    -0.234 N 
ATOM     29  H42 UNL     1      -0.938   3.014  -2.626  1.00  0.00     0.174 HD
ATOM     30  H41 UNL     1      -2.414   3.943  -2.872  1.00  0.00     0.174 HD
ENDBRANCH   4  28
TORSDOF 7
