REMARK  10 active torsions:
REMARK  status: ('A' for Active; 'I' for Inactive)
REMARK    1  A    between atoms: C2_2  and  N1_3 
REMARK    2  A    between atoms: N1_3  and  C3_5 
REMARK    3  A    between atoms: C5_11  and  N4_12 
REMARK    4  A    between atoms: N4_12  and  C6_14 
REMARK    5  A    between atoms: C6_14  and  C7_15 
REMARK    6  A    between atoms: C7_15  and  N5_16 
REMARK    7  A    between atoms: C8_22  and  N7_23 
REMARK    8  A    between atoms: N7_23  and  C9_25 
REMARK    9  A    between atoms: C9_25  and  C10_26 
REMARK   10  A    between atoms: C10_26  and  O1_27 
ROOT
HETATM    1  C3  UNL     1       3.419   0.296  -0.395  1.00  0.00     0.694 A 
HETATM    2  N2  UNL     1       3.122  -0.825   0.288  1.00  0.00    -0.132 N 
ATOM      3  H2  UNL     1       3.878  -1.440   0.591  1.00  0.00     0.205 HD
HETATM    4  N3  UNL     1       1.877  -1.146   0.574  1.00  0.00    -0.280 N 
ATOM      5  H3  UNL     1       1.683  -2.003   1.092  1.00  0.00     0.188 HD
HETATM    6  C4  UNL     1       0.856  -0.353   0.188  1.00  0.00     0.138 A 
HETATM    7  C5  UNL     1      -0.447  -0.695   0.491  1.00  0.00     0.149 A 
HETATM    8  N6  UNL     1      -1.411   0.145   0.072  1.00  0.00    -0.175 N 
ATOM      9  H6  UNL     1      -2.384  -0.080   0.281  1.00  0.00     0.186 HD
HETATM   10  C8  UNL     1      -1.138   1.274  -0.614  1.00  0.00     0.681 A 
HETATM   11  N8  UNL     1       0.162   1.579  -0.896  1.00  0.00    -0.174 N 
ATOM     12  H8  UNL     1       0.368   2.432  -1.416  1.00  0.00     0.186 HD
HETATM   13  C11 UNL     1       1.179   0.791  -0.511  1.00  0.00     0.168 A 
HETATM   14  N9  UNL     1       2.445   1.128  -0.809  1.00  0.00    -0.172 N 
ATOM     15  H9  UNL     1       2.659   1.980  -1.328  1.00  0.00     0.186 HD
ENDROOT
BRANCH   7  16
HETATM   16  N4  UNL     1      -0.649  -1.777   1.144  1.00  0.00    -0.372 N 
ATOM     17  H4  UNL     1       0.179  -2.316   1.397  1.00  0.00     0.161 HD
BRANCH  16  18
HETATM   18  C6  UNL     1      -1.896  -2.307   1.553  1.00  0.00     0.148 C 
BRANCH  18  19
HETATM   19  C7  UNL     1      -2.486  -3.313   0.595  1.00  0.00     0.249 C 
BRANCH  19  20
HETATM   20  N5  UNL     1      -3.761  -3.741   1.189  1.00  0.00    -0.078 N 
ATOM     21  H53 UNL     1      -3.668  -4.093   2.142  1.00  0.00     0.274 HD
ATOM     22  H52 UNL     1      -4.390  -2.967   1.404  1.00  0.00     0.274 HD
ATOM     23  H51 UNL     1      -4.160  -4.421   0.542  1.00  0.00     0.274 HD
ENDBRANCH  19  20
ENDBRANCH  18  19
ENDBRANCH  16  18
ENDBRANCH   7  16
BRANCH  10  24
HETATM   24  N7  UNL     1      -2.056   2.086  -1.020  1.00  0.00    -0.224 N 
ATOM     25  H7  UNL     1      -1.824   2.934  -1.537  1.00  0.00     0.177 HD
BRANCH  24  26
HETATM   26  C9  UNL     1      -3.429   1.742  -0.710  1.00  0.00     0.164 C 
BRANCH  26  27
HETATM   27  C10 UNL     1      -4.393   2.795  -1.191  1.00  0.00     0.184 C 
BRANCH  27  28
HETATM   28  O1  UNL     1      -4.058   4.001  -0.547  1.00  0.00    -0.399 OA
ATOM     29  H1  UNL     1      -4.666   4.665  -0.850  1.00  0.00     0.209 HD
ENDBRANCH  27  28
ENDBRANCH  26  27
ENDBRANCH  24  26
ENDBRANCH  10  24
BRANCH   1  30
HETATM   30  N1  UNL     1       4.650   0.595  -0.668  1.00  0.00    -0.225 N 
ATOM     31  H1  UNL     1       4.855   1.449  -1.187  1.00  0.00     0.177 HD
BRANCH  30  32
HETATM   32  C2  UNL     1       5.733  -0.257  -0.251  1.00  0.00     0.134 C 
HETATM   33  C1  UNL     1       6.723   0.543   0.536  1.00  0.00     0.027 C 
ENDBRANCH  30  32
ENDBRANCH   1  30
TORSDOF 10
