REMARK  7 active torsions:
REMARK  status: ('A' for Active; 'I' for Inactive)
REMARK    1  A    between atoms: N1_1  and  N2_4 
REMARK    2  A    between atoms: N2_4  and  C1_6 
REMARK    3  A    between atoms: N4_11  and  C3_12 
REMARK    4  A    between atoms: C3_12  and  C4_13 
REMARK    5  A    between atoms: C4_13  and  C5_14 
REMARK    6  A    between atoms: C5_14  and  N5_15 
REMARK    7  A    between atoms: N5_15  and  C6_18 
ROOT
HETATM    1  C1  UNL     1       5.326   0.186   0.589  1.00  0.00     0.704 A 
HETATM    2  N3  UNL     1       4.618  -0.503   1.498  1.00  0.00    -0.139 N 
ATOM      3  H3  UNL     1       4.979  -0.645   2.441  1.00  0.00     0.189 HD
HETATM    4  C2  UNL     1       3.408  -1.008   1.133  1.00  0.00     0.344 A 
HETATM    5  O1  UNL     1       2.705  -1.665   1.960  1.00  0.00    -0.246 OA
HETATM    6  N4  UNL     1       2.947  -0.810  -0.120  1.00  0.00    -0.250 N 
HETATM    7  C11 UNL     1       3.701  -0.106  -1.003  1.00  0.00     0.344 A 
HETATM    8  O2  UNL     1       3.276   0.083  -2.179  1.00  0.00    -0.246 OA
HETATM    9  N7  UNL     1       4.899   0.401  -0.662  1.00  0.00    -0.139 N 
ATOM     10  H7  UNL     1       5.461   0.929  -1.330  1.00  0.00     0.189 HD
ENDROOT
BRANCH   6  11
HETATM   11  C3  UNL     1       1.659  -1.332  -0.552  1.00  0.00     0.140 C 
BRANCH  11  12
HETATM   12  C4  UNL     1       0.620  -0.256  -0.254  1.00  0.00     0.048 C 
BRANCH  12  13
HETATM   13  C5  UNL     1      -0.764  -0.712  -0.671  1.00  0.00     0.234 C 
BRANCH  13  14
HETATM   14  N5  UNL     1      -1.687   0.354  -0.362  1.00  0.00    -0.069 N 
ATOM     15  H52 UNL     1      -1.607   0.620   0.620  1.00  0.00     0.277 HD
ATOM     16  H51 UNL     1      -1.387   1.223  -0.804  1.00  0.00     0.277 HD
BRANCH  14  17
HETATM   17  C6  UNL     1      -3.054   0.072  -0.693  1.00  0.00     0.203 C 
HETATM   18  C7  UNL     1      -3.821   1.376  -0.563  1.00  0.00     0.036 C 
HETATM   19  C8  UNL     1      -5.290   1.006  -0.665  1.00  0.00     0.021 C 
HETATM   20  C9  UNL     1      -5.649   0.287   0.616  1.00  0.00     0.113 C 
HETATM   21  N6  UNL     1      -4.592  -0.526   1.134  1.00  0.00    -0.419 N 
HETATM   22  C10 UNL     1      -3.659  -1.011   0.157  1.00  0.00     0.146 C 
ATOM     23  H6  UNL     1      -4.507  -0.745   2.127  1.00  0.00     0.153 HD
ENDBRANCH  14  17
ENDBRANCH  13  14
ENDBRANCH  12  13
ENDBRANCH  11  12
ENDBRANCH   6  11
BRANCH   1  24
HETATM   24  N2  UNL     1       6.481   0.665   0.948  1.00  0.00    -0.138 N 
ATOM     25  H2  UNL     1       6.812   0.505   1.899  1.00  0.00     0.205 HD
BRANCH  24  26
HETATM   26  N1  UNL     1       7.277   1.391   0.065  1.00  0.00    -0.331 N 
ATOM     27  H12 UNL     1       6.931   1.542  -0.883  1.00  0.00     0.177 HD
ATOM     28  H11 UNL     1       8.183   1.767   0.346  1.00  0.00     0.177 HD
ENDBRANCH  24  26
ENDBRANCH   1  24
TORSDOF 7
