REMARK  5 active torsions:
REMARK  status: ('A' for Active; 'I' for Inactive)
REMARK    1  A    between atoms: N1_2  and  C3_4 
REMARK    2  A    between atoms: C3_4  and  C4_5 
REMARK    3  A    between atoms: C4_5  and  C5_6 
REMARK    4  A    between atoms: C5_6  and  N2_7 
REMARK    5  A    between atoms: C9_21  and  N7_22 
REMARK       I    between atoms: N7_22  and  C10_24 
REMARK       I    between atoms: C10_24  and  N8_25 
REMARK       I    between atoms: C10_24  and  N9_29 
ROOT
HETATM    1  N2  UNL     1      -0.167  -1.328   1.287  1.00  0.00    -0.293 N 
HETATM    2  C6  UNL     1       0.006  -2.553   1.863  1.00  0.00     0.328 A 
HETATM    3  O1  UNL     1       0.998  -2.984   2.513  1.00  0.00    -0.246 OA
HETATM    4  N3  UNL     1      -1.098  -3.269   1.620  1.00  0.00    -0.292 N 
ATOM      5  H3  UNL     1      -1.251  -4.228   1.931  1.00  0.00     0.172 HD
HETATM    6  C7  UNL     1      -1.987  -2.533   0.898  1.00  0.00     0.156 A 
HETATM    7  N4  UNL     1      -3.214  -2.801   0.417  1.00  0.00    -0.174 N 
ATOM      8  H4  UNL     1      -3.637  -3.715   0.581  1.00  0.00     0.186 HD
HETATM    9  C8  UNL     1      -3.880  -1.871  -0.276  1.00  0.00     0.679 A 
HETATM   10  N5  UNL     1      -5.073  -2.127  -0.744  1.00  0.00    -0.234 N 
ATOM     11  H51 UNL     1      -5.581  -1.418  -1.273  1.00  0.00     0.174 HD
ATOM     12  H52 UNL     1      -5.525  -3.030  -0.598  1.00  0.00     0.174 HD
HETATM   13  N6  UNL     1      -3.287  -0.687  -0.467  1.00  0.00    -0.175 N 
ATOM     14  H6  UNL     1      -3.805   0.014  -0.997  1.00  0.00     0.186 HD
HETATM   15  C9  UNL     1      -2.066  -0.343  -0.020  1.00  0.00     0.151 A 
HETATM   16  C11 UNL     1      -1.365  -1.315   0.707  1.00  0.00     0.128 A 
ENDROOT
BRANCH  15  17
HETATM   17  N7  UNL     1      -1.575   0.800  -0.231  1.00  0.00    -0.325 N 
HETATM   18  C10 UNL     1      -2.078   1.931  -0.909  1.00  0.00     0.481 C 
HETATM   19  N8  UNL     1      -2.420   1.716  -2.306  1.00  0.00    -0.033 N 
HETATM   20  N9  UNL     1      -3.195   2.541  -0.223  1.00  0.00    -0.033 N 
ATOM     21  H83 UNL     1      -1.619   1.334  -2.808  1.00  0.00     0.278 HD
ATOM     22  H82 UNL     1      -3.073   0.937  -2.391  1.00  0.00     0.278 HD
ATOM     23  H81 UNL     1      -2.784   2.533  -2.796  1.00  0.00     0.278 HD
ATOM     24  H93 UNL     1      -3.934   1.860  -0.049  1.00  0.00     0.278 HD
ATOM     25  H92 UNL     1      -2.952   2.770   0.741  1.00  0.00     0.278 HD
ATOM     26  H91 UNL     1      -3.559   3.358  -0.713  1.00  0.00     0.278 HD
ATOM     27  H7  UNL     1      -0.642   0.931   0.161  1.00  0.00     0.165 HD
ENDBRANCH  15  17
BRANCH   1  28
HETATM   28  C5  UNL     1       0.797  -0.285   1.330  1.00  0.00     0.136 C 
BRANCH  28  29
HETATM   29  C4  UNL     1       1.797  -0.296   0.193  1.00  0.00     0.050 C 
BRANCH  29  30
HETATM   30  C3  UNL     1       2.704   0.893   0.417  1.00  0.00     0.273 C 
BRANCH  30  31
HETATM   31  N1  UNL     1       3.732   1.051  -0.575  1.00  0.00     0.080 N 
HETATM   32  C1  UNL     1       4.440   2.294  -0.227  1.00  0.00     0.309 C 
HETATM   33  C2  UNL     1       4.719   0.001  -0.583  1.00  0.00     0.309 C 
ENDBRANCH  30  31
ENDBRANCH  29  30
ENDBRANCH  28  29
ENDBRANCH   1  28
TORSDOF 5
