REMARK  6 active torsions:
REMARK  status: ('A' for Active; 'I' for Inactive)
REMARK    1  A    between atoms: O1_2  and  C2_3 
REMARK    2  A    between atoms: C3_6  and  N2_7 
REMARK    3  A    between atoms: N2_7  and  C4_9 
REMARK    4  A    between atoms: C4_9  and  C5_10 
REMARK    5  A    between atoms: C5_10  and  O2_11 
REMARK    6  A    between atoms: O2_11  and  N3_12 
REMARK       I    between atoms: N3_12  and  C6_14 
ROOT
HETATM    1  C2  UNL     1      -3.103  -0.979  -0.459  1.00  0.00     0.188 A 
HETATM    2  N1  UNL     1      -1.958  -1.495  -0.001  1.00  0.00    -0.168 N 
ATOM      3  H1  UNL     1      -1.819  -2.505  -0.031  1.00  0.00     0.186 HD
HETATM    4  C3  UNL     1      -0.965  -0.696   0.509  1.00  0.00     0.681 A 
HETATM    5  N6  UNL     1      -1.132   0.635   0.554  1.00  0.00    -0.174 N 
ATOM      6  H6  UNL     1      -0.388   1.220   0.934  1.00  0.00     0.186 HD
HETATM    7  C7  UNL     1      -2.275   1.218   0.103  1.00  0.00     0.156 A 
HETATM    8  N7  UNL     1      -2.657   2.506   0.050  1.00  0.00    -0.292 N 
ATOM      9  H7  UNL     1      -2.127   3.322   0.357  1.00  0.00     0.172 HD
HETATM   10  C8  UNL     1      -3.892   2.490  -0.496  1.00  0.00     0.326 A 
HETATM   11  O3  UNL     1      -4.603   3.519  -0.717  1.00  0.00    -0.247 OA
HETATM   12  N8  UNL     1      -4.262   1.226  -0.772  1.00  0.00    -0.302 N 
ATOM     13  H8  UNL     1      -5.149   0.942  -1.188  1.00  0.00     0.171 HD
HETATM   14  C9  UNL     1      -3.253   0.390  -0.403  1.00  0.00     0.133 A 
ENDROOT
BRANCH   4  15
HETATM   15  N2  UNL     1       0.108  -1.253   0.931  1.00  0.00    -0.224 N 
ATOM     16  H2  UNL     1       0.170  -2.269   0.866  1.00  0.00     0.177 HD
BRANCH  15  17
HETATM   17  C4  UNL     1       1.222  -0.559   1.485  1.00  0.00     0.166 C 
BRANCH  17  18
HETATM   18  C5  UNL     1       2.174   0.006   0.455  1.00  0.00     0.221 C 
BRANCH  18  19
HETATM   19  O2  UNL     1       3.196   0.646   1.123  1.00  0.00    -0.276 OA
BRANCH  19  20
HETATM   20  N3  UNL     1       4.089   1.178   0.260  1.00  0.00    -0.239 N 
HETATM   21  C6  UNL     1       5.303   0.548  -0.119  1.00  0.00     0.205 C 
HETATM   22  N4  UNL     1       6.450   1.124  -0.082  1.00  0.00    -0.372 N 
HETATM   23  N5  UNL     1       5.259  -0.801  -0.569  1.00  0.00    -0.062 NA
ATOM     24  H42 UNL     1       6.482   2.091   0.241  1.00  0.00     0.158 HD
ATOM     25  H41 UNL     1       7.322   0.671  -0.354  1.00  0.00     0.158 HD
ATOM     26  H3  UNL     1       3.877   2.090  -0.145  1.00  0.00     0.197 HD
ENDBRANCH  19  20
ENDBRANCH  18  19
ENDBRANCH  17  18
ENDBRANCH  15  17
ENDBRANCH   4  15
BRANCH   1  27
HETATM   27  O1  UNL     1      -4.137  -1.743  -0.984  1.00  0.00    -0.339 OA
HETATM   28  C1  UNL     1      -3.998  -3.143  -1.048  1.00  0.00     0.211 C 
ENDBRANCH   1  27
TORSDOF 6
