REMARK  6 active torsions:
REMARK  status: ('A' for Active; 'I' for Inactive)
REMARK    1  A    between atoms: C3_5  and  C4_6 
REMARK    2  A    between atoms: C4_6  and  C5_10 
REMARK       I    between atoms: C5_10  and  N3_12 
REMARK    3  A    between atoms: N4_16  and  C10_18 
REMARK    4  A    between atoms: C10_18  and  C11_19 
REMARK    5  A    between atoms: C12_20  and  C13_21 
REMARK    6  A    between atoms: C13_21  and  N5_22 
ROOT
HETATM    1  C5  UNL     1      -3.592  -0.501   0.603  1.00  0.00     0.272 C 
HETATM    2  O1  UNL     1      -3.923  -0.619   1.846  1.00  0.00    -0.266 OA
HETATM    3  N3  UNL     1      -2.342  -1.022   0.237  1.00  0.00    -0.345 N 
HETATM    4  C6  UNL     1      -1.939  -0.903  -1.141  1.00  0.00     0.128 C 
HETATM    5  C7  UNL     1      -0.518  -1.544  -1.217  1.00  0.00     0.048 C 
HETATM    6  C8  UNL     1       0.388  -0.583  -0.494  1.00  0.00     0.240 C 
HETATM    7  N4  UNL     1       0.740  -1.013   0.837  1.00  0.00    -0.059 N 
HETATM    8  C9  UNL     1       1.327  -2.315   0.890  1.00  0.00     0.273 C 
HETATM    9  C18 UNL     1      -0.389  -0.852   1.727  1.00  0.00     0.257 C 
HETATM   10  C19 UNL     1      -1.583  -1.644   1.348  1.00  0.00     0.154 C 
ENDROOT
BRANCH   1  11
HETATM   11  C4  UNL     1      -4.494   0.142  -0.322  1.00  0.00     0.121 C 
HETATM   12  N2  UNL     1      -4.207   0.281  -1.568  1.00  0.00    -0.393 N 
ATOM     13  H22 UNL     1      -4.845   0.735  -2.222  1.00  0.00     0.156 HD
ATOM     14  H21 UNL     1      -3.304  -0.090  -1.863  1.00  0.00     0.156 HD
BRANCH  11  15
HETATM   15  C3  UNL     1      -5.812   0.683   0.108  1.00  0.00     0.066 A 
HETATM   16  N1  UNL     1      -6.708   1.296  -0.700  1.00  0.00    -0.357 N 
HETATM   17  C2  UNL     1      -7.791   1.664  -0.003  1.00  0.00     0.023 A 
ATOM     18  H1  UNL     1      -6.577   1.455  -1.699  1.00  0.00     0.166 HD
HETATM   19  C1  UNL     1      -9.006   2.370  -0.532  1.00  0.00     0.069 C 
HETATM   20  C21 UNL     1      -7.636   1.298   1.304  1.00  0.00     0.035 A 
HETATM   21  C20 UNL     1      -6.372   0.677   1.350  1.00  0.00     0.053 A 
HETATM   22 BR1  UNL     1      -8.816   1.538   2.786  1.00  0.00    -0.049 Br
ENDBRANCH  11  15
ENDBRANCH   1  11
BRANCH   7  23
HETATM   23  C10 UNL     1       1.757  -0.072   1.320  1.00  0.00     0.330 C 
BRANCH  23  24
HETATM   24  C11 UNL     1       2.893  -0.017   0.408  1.00  0.00    -0.077 C 
HETATM   25  C12 UNL     1       3.836   0.020  -0.373  1.00  0.00    -0.077 C 
BRANCH  25  26
HETATM   26  C13 UNL     1       4.941   0.064  -1.322  1.00  0.00     0.330 C 
BRANCH  26  27
HETATM   27  N5  UNL     1       6.153   0.386  -0.636  1.00  0.00    -0.061 N 
HETATM   28  C14 UNL     1       7.307   0.089  -1.476  1.00  0.00     0.273 C 
HETATM   29  C15 UNL     1       6.216   1.756  -0.114  1.00  0.00     0.239 C 
HETATM   30  C16 UNL     1       7.007   1.192   1.053  1.00  0.00     0.056 C 
HETATM   31  C17 UNL     1       6.303  -0.100   0.700  1.00  0.00     0.239 C 
ENDBRANCH  26  27
ENDBRANCH  25  26
ENDBRANCH  23  24
ENDBRANCH   7  23
TORSDOF 6
