REMARK  7 active torsions:
REMARK  status: ('A' for Active; 'I' for Inactive)
REMARK    1  A    between atoms: C3_5  and  C4_6 
REMARK    2  A    between atoms: C4_6  and  C6_8 
REMARK    3  A    between atoms: C9_11  and  S1_12 
REMARK    4  A    between atoms: S1_12  and  C11_14 
REMARK    5  A    between atoms: C11_14  and  C12_15 
REMARK       I    between atoms: C12_15  and  N2_17 
REMARK    6  A    between atoms: N2_17  and  C13_19 
REMARK    7  A    between atoms: C13_19  and  C14_20 
ROOT
HETATM    1  C6  UNL     1       4.783   1.964   0.264  1.00  0.00    -0.070 C 
HETATM    2  C7  UNL     1       5.660   2.771   0.238  1.00  0.00    -0.106 C 
HETATM    3  C8  UNL     1       6.744   3.745   0.229  1.00  0.00     0.112 C 
ENDROOT
BRANCH   1   4
HETATM    4  C4  UNL     1       3.722   0.945   0.309  1.00  0.00     0.021 C 
HETATM    5  C5  UNL     1       2.369   1.496   0.241  1.00  0.00     0.061 C 
BRANCH   4   6
HETATM    6  C3  UNL     1       4.112  -0.303   0.404  1.00  0.00     0.081 A 
HETATM    7  N1  UNL     1       5.429  -0.673   0.469  1.00  0.00    -0.340 N 
HETATM    8  C2  UNL     1       5.579  -1.967   0.656  1.00  0.00     0.096 A 
ATOM      9  H1  UNL     1       6.207  -0.019   0.382  1.00  0.00     0.167 HD
HETATM   10  C1  UNL     1       6.687  -2.672   0.770  1.00  0.00     0.063 C 
HETATM   11  N3  UNL     1       4.313  -2.474   0.715  1.00  0.00    -0.336 N 
HETATM   12  C9  UNL     1       3.428  -1.477   0.558  1.00  0.00     0.090 A 
ATOM     13  H3  UNL     1       4.077  -3.456   0.856  1.00  0.00     0.168 HD
BRANCH  12  14
HETATM   14  S1  UNL     1       1.792  -1.674   0.341  1.00  0.00    -0.163 SA
HETATM   15  C10 UNL     1       1.267  -3.487   0.710  1.00  0.00     0.086 C 
BRANCH  14  16
HETATM   16  C11 UNL     1       1.162  -1.260  -1.388  1.00  0.00     0.172 C 
BRANCH  16  17
HETATM   17  C12 UNL     1      -0.335  -1.386  -1.302  1.00  0.00     0.230 C 
HETATM   18  O1  UNL     1      -0.983  -1.418  -2.396  1.00  0.00    -0.272 OA
HETATM   19  N2  UNL     1      -1.004  -1.464  -0.076  1.00  0.00    -0.339 N 
ATOM     20  H2  UNL     1      -0.383  -1.448   0.733  1.00  0.00     0.167 HD
BRANCH  19  21
HETATM   21  C13 UNL     1      -2.363  -1.560   0.256  1.00  0.00     0.073 C 
BRANCH  21  22
HETATM   22  C14 UNL     1      -3.221  -0.367   0.063  1.00  0.00    -0.006 C 
HETATM   23  C15 UNL     1      -4.638  -0.800   0.502  1.00  0.00     0.019 C 
HETATM   24  C16 UNL     1      -5.564   0.376   0.504  1.00  0.00    -0.012 C 
HETATM   25  C17 UNL     1      -5.541   0.972  -0.898  1.00  0.00     0.009 C 
HETATM   26  C21 UNL     1      -5.118   1.344   1.557  1.00  0.00     0.025 C 
HETATM   27  C18 UNL     1      -4.169   1.483  -1.229  1.00  0.00    -0.012 C 
HETATM   28  C19 UNL     1      -3.698   2.453  -0.170  1.00  0.00     0.025 C 
HETATM   29  C23 UNL     1      -3.211   0.282  -1.246  1.00  0.00     0.019 C 
HETATM   30  C20 UNL     1      -3.718   1.794   1.171  1.00  0.00     0.020 C 
HETATM   31 BR1  UNL     1      -3.034   3.072   2.465  1.00  0.00    -0.085 Br
HETATM   32  C22 UNL     1      -2.807   0.620   1.178  1.00  0.00     0.036 C 
ENDBRANCH  21  22
ENDBRANCH  19  21
ENDBRANCH  16  17
ENDBRANCH  14  16
ENDBRANCH  12  14
ENDBRANCH   4   6
ENDBRANCH   1   4
TORSDOF 7
