REMARK  10 active torsions:
REMARK  status: ('A' for Active; 'I' for Inactive)
REMARK    1  A    between atoms: C4_6  and  C5_7 
REMARK    2  A    between atoms: C6_8  and  C7_9 
REMARK    3  A    between atoms: N2_13  and  C11_14 
REMARK    4  A    between atoms: C11_14  and  C12_15 
REMARK    5  A    between atoms: C13_16  and  N3_17 
REMARK    6  A    between atoms: N7_29  and  C18_30 
REMARK    7  A    between atoms: C18_30  and  C19_31 
REMARK    8  A    between atoms: C19_31  and  C20_32 
REMARK    9  A    between atoms: C20_32  and  C21_33 
REMARK   10  A    between atoms: C21_33  and  N8_34 
ROOT
HETATM    1  C5  UNL     1       0.233  -0.689   0.883  1.00  0.00    -0.059 C 
HETATM    2  C6  UNL     1       1.024   0.226   1.009  1.00  0.00    -0.060 C 
ENDROOT
BRANCH   2   3
HETATM    3  C7  UNL     1       1.975   1.290   1.164  1.00  0.00     0.033 A 
HETATM    4  C8  UNL     1       2.079   2.028   2.331  1.00  0.00     0.023 A 
HETATM    5  C9  UNL     1       3.016   3.040   2.419  1.00  0.00     0.019 A 
HETATM    6  C10 UNL     1       3.842   3.315   1.355  1.00  0.00     0.091 A 
HETATM    7  N2  UNL     1       3.747   2.602   0.218  1.00  0.00    -0.354 N 
HETATM    8  C16 UNL     1       2.830   1.611   0.130  1.00  0.00     0.112 A 
BRANCH   7   9
HETATM    9  C11 UNL     1       4.581   2.836  -0.939  1.00  0.00     0.223 C 
BRANCH   9  10
HETATM   10  C12 UNL     1       5.801   2.030  -0.878  1.00  0.00    -0.061 C 
HETATM   11  C13 UNL     1       6.804   1.349  -0.841  1.00  0.00     0.037 C 
BRANCH  11  12
HETATM   12  N3  UNL     1       7.957   0.540  -0.809  1.00  0.00    -0.193 N 
HETATM   13  C14 UNL     1       8.686   0.159  -1.889  1.00  0.00     0.234 A 
HETATM   14  N4  UNL     1       9.712  -0.603  -1.513  1.00  0.00    -0.184 N 
HETATM   15  C15 UNL     1       9.634  -0.706  -0.178  1.00  0.00     0.692 A 
ATOM     16  H4  UNL     1      10.416  -1.024  -2.119  1.00  0.00     0.185 HD
HETATM   17  N5  UNL     1      10.485  -1.384   0.535  1.00  0.00    -0.233 N 
HETATM   18  N6  UNL     1       8.560  -0.004   0.234  1.00  0.00    -0.117 N 
ATOM     19  H52 UNL     1      11.298  -1.915   0.223  1.00  0.00     0.174 HD
ATOM     20  H51 UNL     1      10.426  -1.462   1.550  1.00  0.00     0.174 HD
ATOM     21  H6  UNL     1       8.258   0.093   1.203  1.00  0.00     0.207 HD
ENDBRANCH  11  12
ENDBRANCH   9  10
ENDBRANCH   7   9
ENDBRANCH   2   3
BRANCH   1  22
HETATM   22  C4  UNL     1      -0.684  -1.788   0.737  1.00  0.00     0.049 A 
HETATM   23  C3  UNL     1      -0.730  -2.838   1.628  1.00  0.00     0.111 A 
HETATM   24  N1  UNL     1      -1.590  -3.852   1.475  1.00  0.00    -0.354 N 
HETATM   25  C2  UNL     1      -2.447  -3.888   0.447  1.00  0.00     0.079 A 
ATOM     26  H1  UNL     1      -1.593  -4.612   2.155  1.00  0.00     0.166 HD
HETATM   27  C1  UNL     1      -3.381  -5.044   0.331  1.00  0.00     0.089 C 
HETATM   28  N7  UNL     1      -2.433  -2.887  -0.439  1.00  0.00    -0.345 N 
HETATM   29  C17 UNL     1      -1.583  -1.860  -0.312  1.00  0.00     0.114 A 
BRANCH  28  30
HETATM   30  C18 UNL     1      -3.334  -2.893  -1.554  1.00  0.00     0.130 C 
BRANCH  30  31
HETATM   31  C19 UNL     1      -4.650  -2.236  -1.311  1.00  0.00     0.022 C 
BRANCH  31  32
HETATM   32  C20 UNL     1      -4.558  -0.776  -0.936  1.00  0.00     0.022 C 
BRANCH  32  33
HETATM   33  C21 UNL     1      -5.978  -0.286  -0.733  1.00  0.00     0.128 C 
BRANCH  33  34
HETATM   34  N8  UNL     1      -6.055   1.093  -0.371  1.00  0.00    -0.366 N 
HETATM   35  C22 UNL     1      -6.030   1.427   0.935  1.00  0.00     0.090 A 
HETATM   36  C23 UNL     1      -6.102   2.749   1.335  1.00  0.00     0.017 A 
HETATM   37  C24 UNL     1      -6.202   3.767   0.428  1.00  0.00     0.003 A 
HETATM   38  C25 UNL     1      -6.228   3.421  -0.922  1.00  0.00     0.017 A 
HETATM   39  C26 UNL     1      -6.154   2.097  -1.265  1.00  0.00     0.090 A 
ENDBRANCH  33  34
ENDBRANCH  32  33
ENDBRANCH  31  32
ENDBRANCH  30  31
ENDBRANCH  28  30
ENDBRANCH   1  22
TORSDOF 10
