REMARK  10 active torsions:
REMARK  status: ('A' for Active; 'I' for Inactive)
REMARK    1  A    between atoms: N1_2  and  C2_3 
REMARK    2  A    between atoms: C2_3  and  C3_4 
REMARK    3  A    between atoms: C5_6  and  N2_7 
REMARK       I    between atoms: N2_7  and  C6_9 
REMARK    4  A    between atoms: C11_16  and  O2_17 
REMARK    5  A    between atoms: C11_16  and  C12_19 
REMARK    6  A    between atoms: C12_19  and  C13_20 
REMARK    7  A    between atoms: C14_21  and  C15_22 
REMARK    8  A    between atoms: C15_22  and  C16_23 
REMARK    9  A    between atoms: C16_23  and  C17_24 
REMARK   10  A    between atoms: C17_24  and  N4_25 
ROOT
HETATM    1  C3  UNL     1      -4.014  -0.870   0.401  1.00  0.00     0.009 C 
HETATM    2  C4  UNL     1      -2.972  -0.137   0.675  1.00  0.00    -0.017 C 
HETATM    3  C5  UNL     1      -3.265   0.873   1.748  1.00  0.00     0.141 C 
HETATM    4  C7  UNL     1      -2.352   1.997   1.827  1.00  0.00     0.003 C 
HETATM    5  C8  UNL     1      -1.036   2.051   1.729  1.00  0.00    -0.002 C 
HETATM    6  C9  UNL     1      -0.160   0.903   1.501  1.00  0.00    -0.001 C 
HETATM    7  C10 UNL     1      -0.492  -0.133   0.756  1.00  0.00     0.016 C 
HETATM    8  C11 UNL     1      -1.727  -0.463  -0.026  1.00  0.00     0.111 C 
ENDROOT
BRANCH   8   9
HETATM    9  O2  UNL     1      -1.625  -1.835  -0.258  1.00  0.00    -0.380 OA
ATOM     10  H2  UNL     1      -0.818  -2.046  -0.712  1.00  0.00     0.211 HD
ENDBRANCH   8   9
BRANCH   8  11
HETATM   11  C12 UNL     1      -1.690   0.240  -1.361  1.00  0.00     0.141 C 
BRANCH  11  12
HETATM   12  C13 UNL     1      -0.418  -0.086  -2.067  1.00  0.00    -0.103 C 
HETATM   13  C14 UNL     1       0.618  -0.345  -2.618  1.00  0.00    -0.106 C 
BRANCH  13  14
HETATM   14  C15 UNL     1       1.896  -0.639  -3.285  1.00  0.00     0.095 C 
BRANCH  14  15
HETATM   15  C16 UNL     1       2.985  -0.826  -2.252  1.00  0.00     0.040 C 
BRANCH  15  16
HETATM   16  C17 UNL     1       3.159   0.425  -1.409  1.00  0.00     0.238 C 
BRANCH  16  17
HETATM   17  N4  UNL     1       4.189   0.249  -0.432  1.00  0.00    -0.062 N 
HETATM   18  C18 UNL     1       4.443   1.566   0.170  1.00  0.00     0.265 C 
HETATM   19  C19 UNL     1       5.281   1.319   1.405  1.00  0.00     0.265 C 
HETATM   20  N5  UNL     1       6.070   0.105   1.211  1.00  0.00    -0.066 N 
HETATM   21  C20 UNL     1       7.090   0.046   2.220  1.00  0.00     0.272 C 
HETATM   22  C21 UNL     1       6.600   0.111  -0.138  1.00  0.00     0.265 C 
HETATM   23  C23 UNL     1       5.171  -1.024   1.323  1.00  0.00     0.265 C 
HETATM   24  C22 UNL     1       5.426  -0.130  -1.087  1.00  0.00     0.265 C 
HETATM   25  C24 UNL     1       3.856  -0.638   0.641  1.00  0.00     0.265 C 
ENDBRANCH  16  17
ENDBRANCH  15  16
ENDBRANCH  14  15
ENDBRANCH  13  14
ENDBRANCH  11  12
ENDBRANCH   8  11
BRANCH   1  26
HETATM   26  C2  UNL     1      -4.289  -1.955  -0.530  1.00  0.00     0.265 C 
BRANCH  26  27
HETATM   27  N1  UNL     1      -5.499  -1.583  -1.307  1.00  0.00    -0.065 N 
HETATM   28  C1  UNL     1      -5.364  -0.887  -2.542  1.00  0.00     0.273 C 
HETATM   29  C25 UNL     1      -6.561  -2.589  -1.319  1.00  0.00     0.265 A 
HETATM   30  C26 UNL     1      -6.660  -1.359  -0.466  1.00  0.00     0.265 A 
ENDBRANCH  26  27
ENDBRANCH   1  26
BRANCH   3  31
HETATM   31  N2  UNL     1      -4.590   1.411   1.504  1.00  0.00    -0.334 N 
HETATM   32  C6  UNL     1      -5.604   1.406   2.504  1.00  0.00     0.329 C 
HETATM   33  N3  UNL     1      -6.888   1.934   2.250  1.00  0.00    -0.040 NA
HETATM   34  O1  UNL     1      -5.338   0.924   3.619  1.00  0.00    -0.251 OA
ATOM     35  H2  UNL     1      -4.802   1.805   0.587  1.00  0.00     0.164 HD
ENDBRANCH   3  31
TORSDOF 10
