REMARK  2 active torsions:
REMARK  status: ('A' for Active; 'I' for Inactive)
REMARK    1  A    between atoms: C13_16  and  C14_17 
REMARK    2  A    between atoms: C14_17  and  N1_18 
ROOT
HETATM    1  C1  UNL     1      -2.323   1.476   0.556  1.00  0.00     0.051 C 
HETATM    2  C2  UNL     1      -2.807   0.038   0.636  1.00  0.00     0.087 C 
HETATM    3  C3  UNL     1      -3.787  -0.149   1.770  1.00  0.00     0.045 C 
HETATM    4  C4  UNL     1      -4.919  -1.008   1.310  1.00  0.00     0.041 C 
HETATM    5  C5  UNL     1      -5.703  -0.367   0.191  1.00  0.00     0.174 C 
HETATM    6  F1  UNL     1      -6.726  -1.233  -0.147  1.00  0.00    -0.249 F 
HETATM    7  C6  UNL     1      -4.832  -0.031  -0.992  1.00  0.00     0.074 C 
HETATM    8  C7  UNL     1      -3.374  -0.327  -0.673  1.00  0.00    -0.039 C 
HETATM    9  C8  UNL     1      -2.415  -0.897  -1.387  1.00  0.00     0.082 C 
HETATM   10  C9  UNL     1      -1.195  -0.907  -0.532  1.00  0.00     0.336 C 
HETATM   11  O1  UNL     1      -0.567  -2.136  -0.730  1.00  0.00    -0.164 OA
HETATM   12  O2  UNL     1       0.252  -1.829  -1.739  1.00  0.00    -0.195 OA
HETATM   13  C10 UNL     1       0.867  -0.679  -1.188  1.00  0.00     0.204 C 
HETATM   14  C11 UNL     1       1.645  -0.011  -2.262  1.00  0.00     0.072 C 
HETATM   15  C12 UNL     1       2.544   1.036  -1.696  1.00  0.00     0.012 C 
HETATM   16  C13 UNL     1       3.520   0.358  -0.738  1.00  0.00     0.019 C 
HETATM   17  C15 UNL     1       2.780  -0.276   0.396  1.00  0.00    -0.037 C 
HETATM   18  C16 UNL     1       2.267   0.779   1.381  1.00  0.00     0.015 C 
HETATM   19  C17 UNL     1       3.761  -1.156   1.171  1.00  0.00     0.015 C 
HETATM   20  C18 UNL     1       1.632  -1.116  -0.005  1.00  0.00     0.081 C 
HETATM   21  O3  UNL     1      -0.286   0.067  -0.855  1.00  0.00    -0.288 OA
HETATM   22  O4  UNL     1      -1.700  -0.787   0.770  1.00  0.00    -0.312 OA
ENDROOT
BRANCH  16  23
HETATM   23  C14 UNL     1       4.450   1.441  -0.245  1.00  0.00     0.234 C 
BRANCH  23  24
HETATM   24  N1  UNL     1       5.440   0.983   0.671  1.00  0.00    -0.079 N 
ATOM     25  H13 UNL     1       5.004   0.500   1.457  1.00  0.00     0.274 HD
ATOM     26  H12 UNL     1       5.971   0.211   0.268  1.00  0.00     0.274 HD
ATOM     27  H11 UNL     1       6.068   1.714   1.004  1.00  0.00     0.274 HD
ENDBRANCH  23  24
ENDBRANCH  16  23
TORSDOF 2
