REMARK  3 active torsions:
REMARK  status: ('A' for Active; 'I' for Inactive)
REMARK    1  A    between atoms: C2_2  and  C4_5 
REMARK    2  A    between atoms: C5_6  and  C6_7 
REMARK    3  A    between atoms: C12_17  and  N3_18 
ROOT
HETATM    1  C6  UNL     1       0.114   1.698   0.537  1.00  0.00     0.100 A 
HETATM    2  N1  UNL     1       0.212   2.983   0.911  1.00  0.00    -0.357 N 
ATOM      3  H1  UNL     1       1.148   3.379   0.995  1.00  0.00     0.166 HD
HETATM    4  C7  UNL     1      -0.828   3.787   1.183  1.00  0.00     0.113 A 
HETATM    5  C8  UNL     1      -2.089   3.219   1.060  1.00  0.00     0.078 A 
HETATM    6  C9  UNL     1      -3.298   3.985   1.327  1.00  0.00     0.102 C 
HETATM    7  N2  UNL     1      -4.257   4.596   1.541  1.00  0.00    -0.191 NA
HETATM    8  C10 UNL     1      -2.189   1.895   0.675  1.00  0.00     0.043 A 
HETATM    9  S1  UNL     1      -3.547   0.883   0.425  1.00  0.00    -0.082 SA
HETATM   10  C11 UNL     1      -2.744  -0.552  -0.024  1.00  0.00     0.077 A 
HETATM   11  C12 UNL     1      -3.168  -1.829  -0.384  1.00  0.00     0.119 A 
HETATM   12  N4  UNL     1      -2.289  -2.795  -0.698  1.00  0.00    -0.338 N 
ATOM     13  H4  UNL     1      -2.578  -3.736  -0.965  1.00  0.00     0.168 HD
HETATM   14  C13 UNL     1      -0.998  -2.423  -0.633  1.00  0.00     0.182 A 
HETATM   15  N5  UNL     1      -0.580  -1.226  -0.297  1.00  0.00    -0.350 N 
ATOM     16  H5  UNL     1       0.425  -1.052  -0.282  1.00  0.00     0.166 HD
HETATM   17  C14 UNL     1      -1.423  -0.196   0.035  1.00  0.00     0.068 A 
HETATM   18  C15 UNL     1      -1.137   1.066   0.395  1.00  0.00     0.046 A 
ENDROOT
BRANCH   1  19
HETATM   19  C5  UNL     1       1.308   0.919   0.267  1.00  0.00    -0.046 C 
HETATM   20  C4  UNL     1       2.313   0.282   0.057  1.00  0.00    -0.074 C 
BRANCH  20  21
HETATM   21  C2  UNL     1       3.541  -0.479  -0.179  1.00  0.00     0.093 C 
HETATM   22  C1  UNL     1       3.402  -1.869   0.377  1.00  0.00     0.046 C 
HETATM   23  C3  UNL     1       3.855  -0.476  -1.663  1.00  0.00     0.046 C 
HETATM   24 CL1  UNL     1       4.934   0.280   0.647  1.00  0.00    -0.106 Cl
ENDBRANCH  20  21
ENDBRANCH   1  19
BRANCH  11  25
HETATM   25  N3  UNL     1      -4.417  -2.112  -0.423  1.00  0.00    -0.384 N 
ATOM     26  H32 UNL     1      -5.084  -1.378  -0.185  1.00  0.00     0.157 HD
ATOM     27  H31 UNL     1      -4.727  -3.047  -0.687  1.00  0.00     0.157 HD
ENDBRANCH  11  25
TORSDOF 3
