REMARK  9 active torsions:
REMARK  status: ('A' for Active; 'I' for Inactive)
REMARK    1  A    between atoms: C6_6  and  C7_7 
REMARK    2  A    between atoms: C7_7  and  N1_8 
REMARK    3  A    between atoms: N1_8  and  N2_9 
REMARK    4  A    between atoms: N2_9  and  C8_11 
REMARK    5  A    between atoms: C8_11  and  C9_12 
REMARK    6  A    between atoms: C12_17  and  C13_18 
REMARK    7  A    between atoms: C13_18  and  C14_19 
REMARK    8  A    between atoms: C14_19  and  C15_20 
REMARK    9  A    between atoms: C15_20  and  C17_22 
REMARK       I    between atoms: N4_26  and  C21_27 
ROOT
HETATM    1  C1  UNL     1      -1.341  -4.141   1.799  1.00  0.00     0.016 C 
HETATM    2  C2  UNL     1      -0.462  -3.171   1.379  1.00  0.00    -0.065 C 
HETATM    3  C3  UNL     1       0.965  -3.346   1.509  1.00  0.00     0.040 C 
HETATM    4  C4  UNL     1       1.793  -2.357   0.740  1.00  0.00     0.039 C 
HETATM    5  C5  UNL     1       1.155  -1.008   0.606  1.00  0.00    -0.066 C 
HETATM    6  C6  UNL     1       1.939  -0.075   0.119  1.00  0.00     0.037 C 
HETATM    7  C10 UNL     1      -0.217  -0.751   0.977  1.00  0.00     0.013 C 
HETATM    8  C11 UNL     1      -0.206  -0.269   2.428  1.00  0.00     0.023 C 
HETATM    9  C12 UNL     1      -0.957   0.248   0.071  1.00  0.00     0.045 C 
HETATM   10  C19 UNL     1      -1.358  -0.669  -1.070  1.00  0.00     0.092 C 
HETATM   11  C20 UNL     1      -0.387  -0.632  -2.230  1.00  0.00     0.033 C 
HETATM   12  N4  UNL     1      -1.431  -2.019  -0.564  1.00  0.00    -0.341 N 
HETATM   13  C21 UNL     1      -1.743  -3.180  -1.303  1.00  0.00     0.185 C 
HETATM   14  N5  UNL     1      -0.830  -4.108  -1.504  1.00  0.00    -0.374 N 
ATOM     15  H51 UNL     1      -1.056  -4.947  -2.038  1.00  0.00     0.158 HD
ATOM     16  H52 UNL     1       0.085  -3.918  -1.095  1.00  0.00     0.158 HD
HETATM   17  N6  UNL     1      -3.008  -3.442  -1.868  1.00  0.00    -0.064 NA
HETATM   18  C22 UNL     1      -1.113  -1.960   0.826  1.00  0.00     0.129 C 
ENDROOT
BRANCH   6  19
HETATM   19  C7  UNL     1       3.317  -0.324  -0.263  1.00  0.00     0.209 C 
BRANCH  19  20
HETATM   20  N1  UNL     1       4.095   0.594  -0.596  1.00  0.00    -0.343 NA
BRANCH  20  21
HETATM   21  N2  UNL     1       4.772   1.635  -0.705  1.00  0.00    -0.264 N 
ATOM     22  H2  UNL     1       4.872   2.113  -1.600  1.00  0.00     0.195 HD
BRANCH  21  23
HETATM   23  C8  UNL     1       5.408   2.134   0.488  1.00  0.00     0.253 C 
BRANCH  23  24
HETATM   24  C9  UNL     1       6.790   1.598   0.548  1.00  0.00     0.251 C 
HETATM   25  N3  UNL     1       7.675   1.928   1.603  1.00  0.00    -0.061 NA
HETATM   26  O1  UNL     1       7.159   0.825  -0.389  1.00  0.00    -0.275 OA
ENDBRANCH  23  24
ENDBRANCH  21  23
ENDBRANCH  20  21
ENDBRANCH  19  20
ENDBRANCH   6  19
BRANCH   9  27
HETATM   27  C13 UNL     1      -2.095   0.803   0.843  1.00  0.00    -0.019 C 
BRANCH  27  28
HETATM   28  C14 UNL     1      -2.996   1.800   0.347  1.00  0.00    -0.001 C 
BRANCH  28  29
HETATM   29  C15 UNL     1      -3.092   2.613  -0.658  1.00  0.00    -0.084 C 
HETATM   30  C16 UNL     1      -2.151   2.785  -1.769  1.00  0.00     0.043 C 
BRANCH  29  31
HETATM   31  C17 UNL     1      -4.330   3.509  -0.718  1.00  0.00     0.029 C 
HETATM   32  C18 UNL     1      -3.948   4.949  -0.686  1.00  0.00     0.010 C 
ENDBRANCH  29  31
ENDBRANCH  28  29
ENDBRANCH  27  28
ENDBRANCH   9  27
TORSDOF 9
