REMARK  5 active torsions:
REMARK  status: ('A' for Active; 'I' for Inactive)
REMARK    1  A    between atoms: C5_6  and  C6_7 
REMARK    2  A    between atoms: C6_7  and  C7_8 
REMARK    3  A    between atoms: C7_8  and  C8_9 
REMARK    4  A    between atoms: C8_9  and  N2_10 
REMARK    5  A    between atoms: N2_10  and  C9_12 
ROOT
HETATM    1  C1  UNL     1      -3.293  -1.025  -0.996  1.00  0.00     0.052 C 
HETATM    2  C2  UNL     1      -2.333  -0.483  -0.008  1.00  0.00    -0.014 A 
HETATM    3  C3  UNL     1      -1.072  -0.098  -0.374  1.00  0.00     0.087 A 
HETATM    4  C4  UNL     1      -0.611  -0.200  -1.742  1.00  0.00     0.103 C 
HETATM    5  N1  UNL     1      -0.257  -0.292  -2.846  1.00  0.00    -0.191 NA
HETATM    6  C5  UNL     1      -0.154   0.414   0.538  1.00  0.00     0.110 A 
HETATM    7  N3  UNL     1      -0.580   0.510   1.812  1.00  0.00    -0.333 N 
ATOM      8  H3  UNL     1       0.060   0.880   2.515  1.00  0.00     0.168 HD
HETATM    9  C10 UNL     1      -1.810   0.140   2.195  1.00  0.00     0.121 A 
HETATM   10  N4  UNL     1      -2.137   0.265   3.432  1.00  0.00    -0.384 N 
ATOM     11  H41 UNL     1      -3.073  -0.017   3.723  1.00  0.00     0.157 HD
ATOM     12  H42 UNL     1      -1.458   0.641   4.094  1.00  0.00     0.157 HD
HETATM   13  C11 UNL     1      -2.720  -0.364   1.307  1.00  0.00     0.095 A 
HETATM   14  C12 UNL     1      -4.056  -0.765   1.730  1.00  0.00     0.104 C 
HETATM   15  N5  UNL     1      -5.114  -1.093   2.050  1.00  0.00    -0.191 NA
ENDROOT
BRANCH   6  16
HETATM   16  C6  UNL     1       1.160   0.806   0.111  1.00  0.00    -0.045 C 
BRANCH  16  17
HETATM   17  C7  UNL     1       2.270   1.116  -0.247  1.00  0.00    -0.080 C 
BRANCH  17  18
HETATM   18  C8  UNL     1       3.635   1.472  -0.692  1.00  0.00     0.216 C 
BRANCH  18  19
HETATM   19  N2  UNL     1       4.090   0.545  -1.722  1.00  0.00    -0.358 N 
ATOM     20  H2  UNL     1       4.341   0.877  -2.653  1.00  0.00     0.162 HD
BRANCH  19  21
HETATM   21  C9  UNL     1       4.174  -0.845  -1.388  1.00  0.00     0.349 C 
HETATM   22  O1  UNL     1       3.870  -1.267  -0.255  1.00  0.00    -0.284 OA
ENDBRANCH  19  21
ENDBRANCH  18  19
ENDBRANCH  17  18
ENDBRANCH  16  17
ENDBRANCH   6  16
TORSDOF 5
