REMARK  6 active torsions:
REMARK  status: ('A' for Active; 'I' for Inactive)
REMARK    1  A    between atoms: N1_2  and  C2_4 
REMARK    2  A    between atoms: C3_7  and  C4_8 
REMARK    3  A    between atoms: C8_14  and  N4_15 
REMARK    4  A    between atoms: N4_15  and  C9_17 
REMARK    5  A    between atoms: C9_17  and  C10_18 
REMARK    6  A    between atoms: C10_18  and  O1_19 
ROOT
HETATM    1  C2  UNL     1      -0.120   1.754   0.344  1.00  0.00     0.693 A 
HETATM    2  N2  UNL     1      -1.127   0.884   0.117  1.00  0.00    -0.179 N 
ATOM      3  H2  UNL     1      -2.072   1.249  -0.006  1.00  0.00     0.185 HD
HETATM    4  C3  UNL     1      -0.933  -0.443   0.047  1.00  0.00     0.121 A 
HETATM    5  N3  UNL     1       0.320  -0.891   0.214  1.00  0.00    -0.179 N 
ATOM      6  H3  UNL     1       0.488  -1.896   0.165  1.00  0.00     0.185 HD
HETATM    7  C8  UNL     1       1.361  -0.079   0.442  1.00  0.00     0.694 A 
HETATM    8  N5  UNL     1       1.134   1.232   0.505  1.00  0.00    -0.022 N 
ATOM      9  H5  UNL     1       1.916   1.863   0.678  1.00  0.00     0.203 HD
ENDROOT
BRANCH   7  10
HETATM   10  N4  UNL     1       2.526  -0.563   0.593  1.00  0.00    -0.224 N 
ATOM     11  H4  UNL     1       2.588  -1.579   0.527  1.00  0.00     0.177 HD
BRANCH  10  12
HETATM   12  C9  UNL     1       3.754   0.104   0.840  1.00  0.00     0.164 C 
BRANCH  12  13
HETATM   13  C10 UNL     1       4.653  -0.098  -0.386  1.00  0.00     0.184 C 
BRANCH  13  14
HETATM   14  O1  UNL     1       4.865  -1.463  -0.563  1.00  0.00    -0.399 OA
ATOM     15  H1  UNL     1       5.422  -1.588  -1.322  1.00  0.00     0.209 HD
ENDBRANCH  13  14
ENDBRANCH  12  13
ENDBRANCH  10  12
ENDBRANCH   7  10
BRANCH   4  16
HETATM   16  C4  UNL     1      -2.076  -1.352  -0.210  1.00  0.00     0.009 C 
HETATM   17  C5  UNL     1      -1.824  -1.913  -1.617  1.00  0.00     0.022 C 
HETATM   18  C6  UNL     1      -2.177  -2.476   0.784  1.00  0.00     0.022 C 
HETATM   19  C7  UNL     1      -3.371  -0.600  -0.285  1.00  0.00     0.022 C 
ENDBRANCH   4  16
BRANCH   1  20
HETATM   20  N1  UNL     1      -0.282   3.028   0.413  1.00  0.00    -0.230 N 
HETATM   21  C1  UNL     1      -1.518   3.734   0.265  1.00  0.00     0.165 C 
ATOM     22  H1  UNL     1       0.551   3.589   0.590  1.00  0.00     0.177 HD
ENDBRANCH   1  20
TORSDOF 6
