REMARK  4 active torsions:
REMARK  status: ('A' for Active; 'I' for Inactive)
REMARK    1  A    between atoms: C2_2  and  N1_3 
REMARK    2  A    between atoms: C2_2  and  C8_21 
REMARK    3  A    between atoms: N1_3  and  C3_5 
REMARK    4  A    between atoms: C5_13  and  O2_14 
ROOT
HETATM    1  C3  UNL     1      -0.039   0.775   0.232  1.00  0.00     0.186 A 
HETATM    2  N2  UNL     1       0.514  -0.290  -0.366  1.00  0.00    -0.269 N 
ATOM      3  H2  UNL     1      -0.098  -0.960  -0.832  1.00  0.00     0.189 HD
HETATM    4  N3  UNL     1       1.821  -0.510  -0.378  1.00  0.00    -0.182 N 
HETATM    5  C4  UNL     1       2.606  -1.481  -0.898  1.00  0.00     0.349 A 
HETATM    6  O1  UNL     1       2.201  -2.491  -1.550  1.00  0.00    -0.244 OA
HETATM    7  N4  UNL     1       3.890  -1.221  -0.620  1.00  0.00    -0.284 N 
ATOM      8  H4  UNL     1       4.692  -1.790  -0.892  1.00  0.00     0.172 HD
HETATM    9  C5  UNL     1       3.932  -0.076   0.081  1.00  0.00     0.191 A 
HETATM   10  C6  UNL     1       2.653   0.377   0.239  1.00  0.00     0.186 A 
HETATM   11  N5  UNL     1       2.165   1.465   0.857  1.00  0.00    -0.301 N 
ATOM     12  H5  UNL     1       2.784   2.130   1.320  1.00  0.00     0.171 HD
HETATM   13  C7  UNL     1       0.835   1.648   0.845  1.00  0.00     0.292 A 
HETATM   14  O3  UNL     1       0.364   2.665   1.421  1.00  0.00    -0.264 OA
ENDROOT
BRANCH   1  15
HETATM   15  N1  UNL     1      -1.458   1.023   0.248  1.00  0.00    -0.358 N 
ATOM     16  H1  UNL     1      -1.799   1.860   0.721  1.00  0.00     0.162 HD
BRANCH  15  17
HETATM   17  C2  UNL     1      -2.409   0.157  -0.364  1.00  0.00     0.168 C 
HETATM   18  C1  UNL     1      -3.796   0.782  -0.174  1.00  0.00     0.042 C 
BRANCH  17  19
HETATM   19  C8  UNL     1      -2.483  -1.187   0.256  1.00  0.00     0.253 C 
HETATM   20  N6  UNL     1      -3.388  -2.137  -0.277  1.00  0.00    -0.060 NA
HETATM   21  O4  UNL     1      -1.746  -1.452   1.232  1.00  0.00    -0.275 OA
ENDBRANCH  17  19
ENDBRANCH  15  17
ENDBRANCH   1  15
BRANCH   9  22
HETATM   22  O2  UNL     1       5.100   0.535   0.562  1.00  0.00    -0.343 OA
ATOM     23  H2  UNL     1       5.130   1.345   1.058  1.00  0.00     0.219 HD
ENDBRANCH   9  22
TORSDOF 4
