REMARK  4 active torsions:
REMARK  status: ('A' for Active; 'I' for Inactive)
REMARK    1  A    between atoms: N1_1  and  C1_4 
REMARK    2  A    between atoms: C4_13  and  N4_14 
REMARK    3  A    between atoms: N4_14  and  N5_16 
REMARK    4  A    between atoms: C5_18  and  C6_19 
ROOT
HETATM    1  C1  UNL     1      -3.976   0.252   0.199  1.00  0.00     0.681 C 
HETATM    2  N2  UNL     1      -4.160  -0.763  -0.678  1.00  0.00    -0.141 N 
ATOM      3  H2  UNL     1      -5.095  -1.171  -0.696  1.00  0.00     0.189 HD
HETATM    4  C2  UNL     1      -3.259  -1.308  -1.538  1.00  0.00     0.341 C 
HETATM    5  O1  UNL     1      -3.670  -2.284  -2.216  1.00  0.00    -0.246 OA
HETATM    6  N3  UNL     1      -1.984  -0.944  -1.763  1.00  0.00    -0.272 N 
ATOM      7  H3  UNL     1      -1.506  -1.422  -2.526  1.00  0.00     0.174 HD
HETATM    8  C3  UNL     1      -1.271  -0.026  -1.100  1.00  0.00     0.295 C 
HETATM    9  O2  UNL     1      -0.141   0.232  -1.590  1.00  0.00    -0.264 OA
HETATM   10  C4  UNL     1      -1.589   0.684   0.045  1.00  0.00     0.204 C 
HETATM   11  N9  UNL     1      -2.825   0.873   0.520  1.00  0.00    -0.170 N 
ATOM     12  H9  UNL     1      -2.908   1.597   1.233  1.00  0.00     0.186 HD
ENDROOT
BRANCH  10  13
HETATM   13  N4  UNL     1      -0.598   1.209   0.711  1.00  0.00    -0.281 N 
ATOM     14  H4  UNL     1      -0.763   1.744   1.564  1.00  0.00     0.188 HD
BRANCH  13  15
HETATM   15  N5  UNL     1       0.695   1.016   0.221  1.00  0.00    -0.308 N 
HETATM   16  C5  UNL     1       1.628   0.535   0.946  1.00  0.00     0.140 C 
ATOM     17  H5  UNL     1       0.900   1.267  -0.746  1.00  0.00     0.186 HD
BRANCH  16  18
HETATM   18  C6  UNL     1       2.971   0.348   0.394  1.00  0.00     0.091 A 
HETATM   19  N6  UNL     1       3.358   0.641  -0.859  1.00  0.00    -0.348 N 
HETATM   20  C7  UNL     1       4.661   0.318  -0.951  1.00  0.00     0.182 A 
ATOM     21  H6  UNL     1       2.776   1.033  -1.599  1.00  0.00     0.167 HD
HETATM   22  N7  UNL     1       5.093  -0.170   0.221  1.00  0.00    -0.339 N 
HETATM   23  C8  UNL     1       4.050  -0.162   1.082  1.00  0.00     0.145 A 
ATOM     24  H7  UNL     1       6.039  -0.490   0.426  1.00  0.00     0.167 HD
HETATM   25  N8  UNL     1       4.044  -0.593   2.446  1.00  0.00    -0.080 NA
ENDBRANCH  16  18
ENDBRANCH  13  15
ENDBRANCH  10  13
BRANCH   1  26
HETATM   26  N1  UNL     1      -5.025   0.685   0.807  1.00  0.00    -0.234 N 
ATOM     27  H12 UNL     1      -5.897   0.215   0.564  1.00  0.00     0.174 HD
ATOM     28  H11 UNL     1      -4.886   1.450   1.468  1.00  0.00     0.174 HD
ENDBRANCH   1  26
TORSDOF 4
