REMARK  4 active torsions:
REMARK  status: ('A' for Active; 'I' for Inactive)
REMARK       I    between atoms: N1_1  and  C1_4 
REMARK       I    between atoms: C1_4  and  N3_6 
REMARK    1  A    between atoms: N3_6  and  N4_8 
REMARK       I    between atoms: N4_8  and  C2_10 
REMARK    2  A    between atoms: C2_10  and  C3_12 
REMARK    3  A    between atoms: C3_12  and  N5_13 
REMARK    4  A    between atoms: C6_18  and  N7_19 
ROOT
HETATM    1  N5  UNL     1       1.300  -1.189  -0.957  1.00  0.00    -0.318 N 
HETATM    2  C4  UNL     1       1.797  -0.918  -2.181  1.00  0.00     0.185 A 
HETATM    3  N6  UNL     1       2.583   0.171  -2.127  1.00  0.00    -0.346 N 
ATOM      4  H6  UNL     1       3.083   0.592  -2.910  1.00  0.00     0.167 HD
HETATM    5  C5  UNL     1       2.591   0.609  -0.845  1.00  0.00     0.122 A 
HETATM    6  C6  UNL     1       3.209   1.665  -0.200  1.00  0.00     0.131 A 
HETATM    7  N8  UNL     1       3.026   1.850   1.112  1.00  0.00    -0.337 N 
ATOM      8  H8  UNL     1       3.479   2.626   1.595  1.00  0.00     0.168 HD
HETATM    9  C7  UNL     1       2.236   0.996   1.782  1.00  0.00     0.183 A 
HETATM   10  N9  UNL     1       1.608  -0.047   1.214  1.00  0.00    -0.336 N 
ATOM     11  H9  UNL     1       1.017  -0.669   1.766  1.00  0.00     0.168 HD
HETATM   12  C8  UNL     1       1.786  -0.249  -0.126  1.00  0.00     0.141 A 
ENDROOT
BRANCH   1  13
HETATM   13  C3  UNL     1       0.414  -2.281  -0.603  1.00  0.00     0.235 C 
BRANCH  13  14
HETATM   14  C2  UNL     1      -1.011  -1.885  -0.737  1.00  0.00     0.254 C 
HETATM   15  N4  UNL     1      -1.748  -1.333   0.350  1.00  0.00    -0.266 N 
ATOM     16  H4  UNL     1      -1.293  -1.200   1.253  1.00  0.00     0.190 HD
HETATM   17  O1  UNL     1      -1.586  -2.039  -1.836  1.00  0.00    -0.270 OA
BRANCH  15  18
HETATM   18  N3  UNL     1      -3.085  -0.973   0.191  1.00  0.00    -0.271 N 
HETATM   19  C1  UNL     1      -3.529   0.346   0.443  1.00  0.00     0.200 C 
HETATM   20  N1  UNL     1      -2.687   1.252   0.806  1.00  0.00    -0.372 N 
HETATM   21  N2  UNL     1      -4.898   0.713   0.306  1.00  0.00    -0.062 NA
ATOM     22  H12 UNL     1      -3.007   2.203   0.988  1.00  0.00     0.158 HD
ATOM     23  H11 UNL     1      -1.706   0.989   0.904  1.00  0.00     0.158 HD
ATOM     24  H3  UNL     1      -3.758  -1.676  -0.114  1.00  0.00     0.189 HD
ENDBRANCH  15  18
ENDBRANCH  13  14
ENDBRANCH   1  13
BRANCH   6  25
HETATM   25  N7  UNL     1       3.949   2.426  -0.938  1.00  0.00    -0.383 N 
ATOM     26  H72 UNL     1       4.089   2.285  -1.939  1.00  0.00     0.157 HD
ATOM     27  H71 UNL     1       4.405   3.205  -0.462  1.00  0.00     0.157 HD
ENDBRANCH   6  25
TORSDOF 4
