REMARK  4 active torsions:
REMARK  status: ('A' for Active; 'I' for Inactive)
REMARK    1  A    between atoms: N2_4  and  N3_6 
REMARK    2  A    between atoms: N3_6  and  S1_8 
REMARK    3  A    between atoms: S1_8  and  C3_11 
REMARK    4  A    between atoms: C5_16  and  N6_17 
ROOT
HETATM    1  C3  UNL     1      -1.377   0.402  -0.751  1.00  0.00     0.190 A 
HETATM    2  C4  UNL     1      -1.906  -0.693  -0.137  1.00  0.00     0.160 A 
HETATM    3  N4  UNL     1      -1.194  -1.912  -0.166  1.00  0.00    -0.080 NA
HETATM    4  N5  UNL     1      -3.092  -0.584   0.480  1.00  0.00    -0.177 N 
ATOM      5  H5  UNL     1      -3.485  -1.406   0.938  1.00  0.00     0.185 HD
HETATM    6  C5  UNL     1      -3.782   0.569   0.517  1.00  0.00     0.680 A 
HETATM    7  N7  UNL     1      -3.282   1.660  -0.080  1.00  0.00    -0.155 N 
ATOM      8  H7  UNL     1      -3.800   2.538  -0.057  1.00  0.00     0.187 HD
HETATM    9  C6  UNL     1      -2.083   1.592  -0.716  1.00  0.00     0.286 A 
HETATM   10  O3  UNL     1      -1.643   2.648  -1.270  1.00  0.00    -0.266 OA
ENDROOT
BRANCH   1  11
HETATM   11  S1  UNL     1       0.164   0.336  -1.575  1.00  0.00     0.285 S 
HETATM   12  O1  UNL     1       0.413  -1.034  -2.131  1.00  0.00    -0.199 OA
HETATM   13  O2  UNL     1       0.093   1.334  -2.712  1.00  0.00    -0.199 OA
BRANCH  11  14
HETATM   14  N3  UNL     1       1.394   0.722  -0.458  1.00  0.00    -0.222 N 
ATOM     15  H3  UNL     1       1.692   1.689  -0.328  1.00  0.00     0.200 HD
BRANCH  14  16
HETATM   16  N2  UNL     1       1.984  -0.306   0.273  1.00  0.00    -0.282 N 
HETATM   17  C2  UNL     1       3.249  -0.270   0.477  1.00  0.00     0.104 C 
HETATM   18  C1  UNL     1       3.905  -1.355   1.254  1.00  0.00     0.086 C 
HETATM   19  N1  UNL     1       4.005   0.807  -0.044  1.00  0.00    -0.087 NA
ATOM     20  H2  UNL     1       1.420  -1.073   0.639  1.00  0.00     0.188 HD
ENDBRANCH  14  16
ENDBRANCH  11  14
ENDBRANCH   1  11
BRANCH   6  21
HETATM   21  N6  UNL     1      -4.918   0.645   1.116  1.00  0.00    -0.234 N 
ATOM     22  H62 UNL     1      -5.298  -0.185   1.570  1.00  0.00     0.174 HD
ATOM     23  H61 UNL     1      -5.442   1.520   1.144  1.00  0.00     0.174 HD
ENDBRANCH   6  21
TORSDOF 4
