REMARK  4 active torsions:
REMARK  status: ('A' for Active; 'I' for Inactive)
REMARK    1  A    between atoms: C2_2  and  C3_3 
REMARK    2  A    between atoms: C3_3  and  N1_4 
REMARK    3  A    between atoms: N1_4  and  C4_7 
REMARK    4  A    between atoms: C4_7  and  C5_8 
ROOT
HETATM    1  N1  UNL     1       1.255  -0.633   1.502  1.00  0.00    -0.069 N 
ATOM      2  H11 UNL     1       1.069  -0.655   2.505  1.00  0.00     0.277 HD
ATOM      3  H12 UNL     1       0.865  -1.548   1.278  1.00  0.00     0.277 HD
ENDROOT
BRANCH   1   4
HETATM    4  C3  UNL     1       2.675  -0.520   1.184  1.00  0.00     0.259 C 
BRANCH   4   5
HETATM    5  C2  UNL     1       2.825  -0.826  -0.254  1.00  0.00    -0.010 C 
HETATM    6  C1  UNL     1       3.329   0.055  -1.111  1.00  0.00     0.008 C 
ENDBRANCH   4   5
ENDBRANCH   1   4
BRANCH   1   7
HETATM    7  C4  UNL     1       0.580   0.459   0.819  1.00  0.00     0.260 C 
BRANCH   7   8
HETATM    8  C5  UNL     1      -0.869   0.362   1.131  1.00  0.00     0.003 C 
HETATM    9  C6  UNL     1      -1.779   0.204   0.178  1.00  0.00    -0.082 C 
HETATM   10  C7  UNL     1      -1.741   0.081  -1.301  1.00  0.00     0.034 C 
HETATM   11  C9  UNL     1      -3.257   0.070   0.100  1.00  0.00     0.034 C 
HETATM   12  C8  UNL     1      -3.171   0.504  -1.347  1.00  0.00     0.009 C 
ENDBRANCH   7   8
ENDBRANCH   1   7
TORSDOF 4
