REMARK  5 active torsions:
REMARK  status: ('A' for Active; 'I' for Inactive)
REMARK    1  A    between atoms: C2_2  and  C3_3 
REMARK    2  A    between atoms: C3_3  and  N1_4 
REMARK    3  A    between atoms: N1_4  and  C4_6 
REMARK    4  A    between atoms: C4_6  and  C5_7 
REMARK    5  A    between atoms: C8_10  and  C9_11 
ROOT
HETATM    1  C5  UNL     1      -0.666  -1.042   0.441  1.00  0.00     0.010 C 
HETATM    2  C6  UNL     1      -1.796  -1.905  -0.197  1.00  0.00     0.007 C 
HETATM    3  C7  UNL     1      -2.762  -0.848   0.323  1.00  0.00     0.009 C 
HETATM    4  C8  UNL     1      -1.557   0.119   0.147  1.00  0.00     0.013 C 
ENDROOT
BRANCH   1   5
HETATM    5  C4  UNL     1       0.574  -1.277  -0.305  1.00  0.00     0.119 C 
BRANCH   5   6
HETATM    6  N1  UNL     1       1.698  -0.564   0.221  1.00  0.00    -0.418 N 
ATOM      7  H1  UNL     1       2.478  -1.042   0.673  1.00  0.00     0.153 HD
BRANCH   6   8
HETATM    8  C3  UNL     1       1.663   0.845   0.076  1.00  0.00     0.140 C 
BRANCH   8   9
HETATM    9  C2  UNL     1       2.917   1.467   0.593  1.00  0.00    -0.018 C 
HETATM   10  C1  UNL     1       3.853   0.690   1.082  1.00  0.00     0.008 C 
ENDBRANCH   8   9
ENDBRANCH   6   8
ENDBRANCH   5   6
ENDBRANCH   1   5
BRANCH   4  11
HETATM   11  C9  UNL     1      -1.619   0.679  -1.195  1.00  0.00    -0.032 C 
HETATM   12  C10 UNL     1      -1.738   1.991  -1.340  1.00  0.00     0.007 C 
ENDBRANCH   4  11
TORSDOF 5
