REMARK  15 active torsions:
REMARK  status: ('A' for Active; 'I' for Inactive)
REMARK    1  A    between atoms: O1_2  and  C2_3 
REMARK    2  A    between atoms: C2_3  and  C3_4 
REMARK    3  A    between atoms: C2_3  and  C20_26 
REMARK    4  A    between atoms: C3_4  and  C4_5 
REMARK    5  A    between atoms: C4_5  and  O2_6 
REMARK    6  A    between atoms: C4_5  and  C5_8 
REMARK    7  A    between atoms: C5_8  and  C6_9 
REMARK    8  A    between atoms: C8_11  and  C9_12 
REMARK    9  A    between atoms: C9_12  and  C10_13 
REMARK   10  A    between atoms: C10_13  and  C11_14 
REMARK   11  A    between atoms: C13_16  and  C14_17 
REMARK   12  A    between atoms: C14_17  and  O3_18 
REMARK   13  A    between atoms: C14_17  and  C16_22 
REMARK   14  A    between atoms: C23_29  and  C24_30 
REMARK   15  A    between atoms: C29_35  and  C30_36 
ROOT
HETATM    1  C14 UNL     1       7.492  -0.034  -1.644  1.00  0.00     0.183 C 
HETATM    2  C15 UNL     1       7.179   0.927  -2.697  1.00  0.00     0.106 C 
HETATM    3  N1  UNL     1       6.973   1.723  -3.539  1.00  0.00    -0.193 NA
ENDROOT
BRANCH   1   4
HETATM    4  C13 UNL     1       6.444  -0.432  -0.742  1.00  0.00     0.033 C 
HETATM    5  C11 UNL     1       5.178  -0.144  -0.632  1.00  0.00    -0.083 C 
HETATM    6  C12 UNL     1       4.511   0.521  -1.799  1.00  0.00     0.043 C 
BRANCH   5   7
HETATM    7  C10 UNL     1       4.387  -0.717   0.446  1.00  0.00     0.037 C 
BRANCH   7   8
HETATM    8  C9  UNL     1       2.906  -0.052   0.427  1.00  0.00     0.032 C 
BRANCH   8   9
HETATM    9  C8  UNL     1       2.467  -0.775   1.568  1.00  0.00    -0.012 C 
HETATM   10  C6  UNL     1       1.225  -0.744   2.073  1.00  0.00    -0.022 C 
HETATM   11  C7  UNL     1       1.110  -1.555   3.350  1.00  0.00     0.057 C 
BRANCH  10  12
HETATM   12  C5  UNL     1       0.119  -0.030   1.534  1.00  0.00    -0.118 C 
BRANCH  12  13
HETATM   13  C4  UNL     1      -0.860   0.573   1.107  1.00  0.00     0.192 C 
BRANCH  13  14
HETATM   14  C3  UNL     1      -0.889   1.312  -0.214  1.00  0.00     0.081 C 
BRANCH  14  15
HETATM   15  C2  UNL     1      -1.904   0.500  -1.068  1.00  0.00     0.157 C 
BRANCH  15  16
HETATM   16  O1  UNL     1      -1.876   1.248  -2.282  1.00  0.00    -0.386 OA
HETATM   17  C1  UNL     1      -1.470   0.568  -3.373  1.00  0.00     0.202 C 
ENDBRANCH  15  16
BRANCH  15  18
HETATM   18  C20 UNL     1      -3.250   0.598  -0.512  1.00  0.00    -0.023 A 
HETATM   19  C21 UNL     1      -3.847   1.796  -0.241  1.00  0.00     0.011 A 
HETATM   20  C22 UNL     1      -5.185   1.936   0.188  1.00  0.00     0.008 A 
HETATM   21  C23 UNL     1      -5.934   0.789   0.335  1.00  0.00    -0.050 A 
HETATM   22  C28 UNL     1      -5.341  -0.424   0.064  1.00  0.00     0.016 A 
HETATM   23  C29 UNL     1      -4.043  -0.559  -0.350  1.00  0.00    -0.045 A 
BRANCH  21  24
HETATM   24  C24 UNL     1      -7.358   0.838   0.787  1.00  0.00    -0.024 C 
HETATM   25  C25 UNL     1      -7.596  -0.231   1.833  1.00  0.00     0.019 C 
HETATM   26  C26 UNL     1      -7.826   2.120   1.319  1.00  0.00     0.019 C 
HETATM   27  C27 UNL     1      -8.199   0.399  -0.415  1.00  0.00     0.019 C 
ENDBRANCH  21  24
BRANCH  23  28
HETATM   28  C30 UNL     1      -3.514  -1.925  -0.603  1.00  0.00     0.011 C 
HETATM   29  C31 UNL     1      -4.354  -2.916   0.255  1.00  0.00     0.015 C 
HETATM   30  C32 UNL     1      -3.852  -2.312  -2.065  1.00  0.00     0.015 C 
ENDBRANCH  23  28
ENDBRANCH  15  18
ENDBRANCH  14  15
ENDBRANCH  13  14
BRANCH  13  31
HETATM   31  O2  UNL     1      -2.096   0.622   1.850  1.00  0.00    -0.384 OA
ATOM     32  H2  UNL     1      -2.078   0.158   2.679  1.00  0.00     0.211 HD
ENDBRANCH  13  31
ENDBRANCH  12  13
ENDBRANCH  10  12
ENDBRANCH   8   9
ENDBRANCH   7   8
ENDBRANCH   5   7
ENDBRANCH   1   4
BRANCH   1  33
HETATM   33  O3  UNL     1       8.042  -1.195  -2.273  1.00  0.00    -0.369 OA
ATOM     34  H3  UNL     1       8.734  -0.932  -2.869  1.00  0.00     0.212 HD
ENDBRANCH   1  33
BRANCH   1  35
HETATM   35  C16 UNL     1       8.651   0.592  -0.878  1.00  0.00     0.032 C 
HETATM   36  C17 UNL     1       9.109   0.409   0.291  1.00  0.00    -0.087 C 
HETATM   37  C18 UNL     1      10.332   1.311   0.594  1.00  0.00     0.043 C 
HETATM   38  C19 UNL     1       8.722  -0.472   1.396  1.00  0.00     0.043 C 
ENDBRANCH   1  35
TORSDOF 15
