REMARK  13 active torsions:
REMARK  status: ('A' for Active; 'I' for Inactive)
REMARK    1  A    between atoms: C2_2  and  C3_3 
REMARK    2  A    between atoms: C3_3  and  C4_4 
REMARK    3  A    between atoms: C4_4  and  C5_5 
REMARK    4  A    between atoms: C8_8  and  C9_9 
REMARK    5  A    between atoms: C10_10  and  C11_11 
REMARK    6  A    between atoms: C13_13  and  C14_14 
REMARK    7  A    between atoms: C15_15  and  C16_16 
REMARK    8  A    between atoms: C24_25  and  C25_26 
REMARK    9  A    between atoms: C25_26  and  O2_28 
REMARK   10  A    between atoms: C25_26  and  C27_30 
REMARK   11  A    between atoms: C27_30  and  C28_31 
REMARK   12  A    between atoms: C28_31  and  C29_32 
REMARK   13  A    between atoms: C31_35  and  O4_36 
ROOT
HETATM    1  C16 UNL     1      -2.445  -1.483   0.686  1.00  0.00     0.028 C 
HETATM    2  C17 UNL     1      -1.911  -2.325   1.905  1.00  0.00     0.088 C 
HETATM    3  C18 UNL     1      -2.750  -1.981   2.978  1.00  0.00     0.136 C 
HETATM    4  O1  UNL     1      -2.875  -2.676   4.022  1.00  0.00    -0.297 OA
HETATM    5  C19 UNL     1      -3.456  -0.693   2.726  1.00  0.00     0.028 C 
HETATM    6  C20 UNL     1      -4.902  -1.055   2.955  1.00  0.00     0.024 C 
HETATM    7  C21 UNL     1      -2.931   0.167   3.866  1.00  0.00     0.018 C 
HETATM    8  C22 UNL     1      -1.779   0.847   3.248  1.00  0.00     0.002 C 
HETATM    9  C23 UNL     1      -1.917   0.746   1.753  1.00  0.00     0.014 C 
HETATM   10  C24 UNL     1      -3.020  -0.237   1.460  1.00  0.00     0.012 C 
ENDROOT
BRANCH   1  11
HETATM   11  C15 UNL     1      -1.346  -1.356  -0.132  1.00  0.00    -0.021 C 
HETATM   12  C14 UNL     1      -0.026  -1.235  -0.160  1.00  0.00    -0.003 C 
BRANCH  12  13
HETATM   13  C13 UNL     1       0.607  -1.181  -1.499  1.00  0.00     0.006 C 
HETATM   14  C11 UNL     1       1.830  -1.014  -1.753  1.00  0.00    -0.062 C 
HETATM   15  C12 UNL     1       2.239  -1.094  -3.211  1.00  0.00     0.048 C 
BRANCH  14  16
HETATM   16  C10 UNL     1       2.874  -0.797  -0.791  1.00  0.00     0.007 C 
HETATM   17  C9  UNL     1       4.159  -0.710  -1.185  1.00  0.00     0.002 C 
BRANCH  17  18
HETATM   18  C8  UNL     1       5.174  -0.462  -0.216  1.00  0.00     0.019 C 
HETATM   19  C3  UNL     1       6.488  -0.486  -0.470  1.00  0.00     0.004 C 
BRANCH  19  20
HETATM   20  C2  UNL     1       6.853  -0.831  -1.851  1.00  0.00     0.009 C 
HETATM   21  C1  UNL     1       8.069  -0.952  -2.288  1.00  0.00     0.013 C 
ENDBRANCH  19  20
BRANCH  19  22
HETATM   22  C4  UNL     1       7.300   0.100   0.511  1.00  0.00    -0.140 C 
BRANCH  22  23
HETATM   23  C5  UNL     1       8.022   0.606   1.359  1.00  0.00     0.049 C 
HETATM   24  C6  UNL     1       7.210   1.295   2.518  1.00  0.00     0.022 C 
HETATM   25  C7  UNL     1       9.468   0.743   1.479  1.00  0.00     0.022 C 
ENDBRANCH  22  23
ENDBRANCH  19  22
ENDBRANCH  17  18
ENDBRANCH  14  16
ENDBRANCH  12  13
ENDBRANCH   1  11
BRANCH  10  26
HETATM   26  C25 UNL     1      -3.956   0.446   0.486  1.00  0.00     0.064 C 
HETATM   27  C26 UNL     1      -4.721   1.585   0.983  1.00  0.00     0.046 C 
BRANCH  26  28
HETATM   28  O2  UNL     1      -3.034   1.061  -0.440  1.00  0.00    -0.389 OA
ATOM     29  H2  UNL     1      -3.621   1.490  -1.051  1.00  0.00     0.210 HD
ENDBRANCH  26  28
BRANCH  26  30
HETATM   30  C27 UNL     1      -4.720  -0.442  -0.392  1.00  0.00     0.043 C 
BRANCH  30  31
HETATM   31  C28 UNL     1      -5.677   0.108  -1.371  1.00  0.00     0.043 C 
BRANCH  31  32
HETATM   32  C29 UNL     1      -5.215   1.057  -2.393  1.00  0.00    -0.031 A 
HETATM   33  C30 UNL     1      -4.607   0.834  -3.575  1.00  0.00     0.152 A 
HETATM   34  O3  UNL     1      -4.414   1.978  -4.190  1.00  0.00    -0.300 OA
HETATM   35  C31 UNL     1      -4.868   2.964  -3.469  1.00  0.00     0.183 A 
HETATM   36  C32 UNL     1      -5.386   2.448  -2.324  1.00  0.00     0.073 A 
BRANCH  35  37
HETATM   37  O4  UNL     1      -4.811   4.324  -3.839  1.00  0.00    -0.341 OA
ATOM     38  H4  UNL     1      -5.142   5.043  -3.313  1.00  0.00     0.220 HD
ENDBRANCH  35  37
ENDBRANCH  31  32
ENDBRANCH  30  31
ENDBRANCH  26  30
ENDBRANCH  10  26
TORSDOF 13
