REMARK  9 active torsions:
REMARK  status: ('A' for Active; 'I' for Inactive)
REMARK    1  A    between atoms: C2_2  and  C3_3 
REMARK    2  A    between atoms: C3_3  and  C4_4 
REMARK    3  A    between atoms: C4_4  and  C5_5 
REMARK    4  A    between atoms: C5_5  and  N1_6 
REMARK    5  A    between atoms: C7_11  and  C8_12 
REMARK    6  A    between atoms: C7_11  and  C9_15 
REMARK    7  A    between atoms: C8_12  and  O1_13 
REMARK    8  A    between atoms: C9_15  and  S1_17 
REMARK    9  A    between atoms: C11_25  and  O4_26 
ROOT
HETATM    1  C5  UNL     1       0.463  -0.859   0.452  1.00  0.00     0.175 C 
HETATM    2  C6  UNL     1      -0.490   0.209   0.044  1.00  0.00     0.060 C 
HETATM    3  C7  UNL     1      -1.881  -0.268  -0.252  1.00  0.00     0.054 C 
HETATM    4  C10 UNL     1      -1.876  -1.538  -1.105  1.00  0.00     0.251 C 
HETATM    5  N2  UNL     1      -0.530  -1.987  -1.382  1.00  0.00    -0.046 N 
ATOM      6  H21 UNL     1      -0.026  -1.344  -1.993  1.00  0.00     0.280 HD
ATOM      7  H22 UNL     1      -0.514  -2.807  -1.989  1.00  0.00     0.280 HD
HETATM    8  C11 UNL     1       0.166  -2.215  -0.134  1.00  0.00     0.354 C 
ENDROOT
BRANCH   3   9
HETATM    9  C8  UNL     1      -2.542  -0.594   1.069  1.00  0.00     0.179 C 
BRANCH   9  10
HETATM   10  O1  UNL     1      -3.856  -1.051   0.898  1.00  0.00    -0.400 OA
ATOM     11  H1  UNL     1      -4.271  -1.256   1.728  1.00  0.00     0.209 HD
ENDBRANCH   9  10
ENDBRANCH   3   9
BRANCH   3  12
HETATM   12  C9  UNL     1      -2.606   0.768  -1.037  1.00  0.00     0.335 C 
HETATM   13  F1  UNL     1      -1.964   1.028  -2.236  1.00  0.00    -0.229 F 
BRANCH  12  14
HETATM   14  S1  UNL     1      -2.884   2.292  -0.232  1.00  0.00     0.333 S 
HETATM   15  O2  UNL     1      -1.649   3.000   0.175  1.00  0.00    -0.191 OA
HETATM   16  O3  UNL     1      -3.891   2.185   0.904  1.00  0.00    -0.191 OA
HETATM   17  F2  UNL     1      -3.655   3.305  -1.361  1.00  0.00    -0.102 F 
ENDBRANCH  12  14
ENDBRANCH   3  12
BRANCH   1  18
HETATM   18  C4  UNL     1       1.841  -0.472  -0.090  1.00  0.00     0.043 C 
BRANCH  18  19
HETATM   19  C3  UNL     1       2.302   0.848   0.476  1.00  0.00     0.002 C 
BRANCH  19  20
HETATM   20  C2  UNL     1       3.664   1.134  -0.121  1.00  0.00    -0.004 C 
HETATM   21  C1  UNL     1       4.235   2.437   0.372  1.00  0.00     0.005 C 
ENDBRANCH  19  20
ENDBRANCH  18  19
ENDBRANCH   1  18
BRANCH   1  22
HETATM   22  N1  UNL     1       0.617  -0.953   1.895  1.00  0.00    -0.066 N 
ATOM     23  H13 UNL     1       1.362  -1.586   2.186  1.00  0.00     0.275 HD
ATOM     24  H12 UNL     1       1.001  -0.109   2.320  1.00  0.00     0.275 HD
ATOM     25  H11 UNL     1      -0.301  -1.211   2.256  1.00  0.00     0.275 HD
ENDBRANCH   1  22
BRANCH   8  26
HETATM   26  O4  UNL     1       1.361  -2.891  -0.438  1.00  0.00    -0.368 OA
ATOM     27  H4  UNL     1       1.174  -3.746  -0.807  1.00  0.00     0.212 HD
ENDBRANCH   8  26
TORSDOF 9
