REMARK  11 active torsions:
REMARK  status: ('A' for Active; 'I' for Inactive)
REMARK    1  A    between atoms: O1_1  and  C1_3 
REMARK    2  A    between atoms: C1_3  and  C2_4 
REMARK    3  A    between atoms: C2_4  and  O2_5 
REMARK    4  A    between atoms: C2_4  and  C3_7 
REMARK    5  A    between atoms: C3_7  and  O3_8 
REMARK    6  A    between atoms: O3_8  and  C4_9 
REMARK    7  A    between atoms: N1_16  and  C8_17 
REMARK    8  A    between atoms: C8_17  and  C9_18 
REMARK    9  A    between atoms: C8_17  and  C10_21 
REMARK   10  A    between atoms: C9_18  and  O4_19 
REMARK   11  A    between atoms: C10_21  and  O5_22 
ROOT
HETATM    1  C4  UNL     1      -0.267  -0.728  -0.606  1.00  0.00     0.170 A 
HETATM    2  C5  UNL     1       0.031  -1.739  -1.477  1.00  0.00     0.110 A 
HETATM    3 CL1  UNL     1       1.386  -2.879  -1.456  1.00  0.00    -0.078 Cl
HETATM    4  C6  UNL     1      -0.978  -1.767  -2.409  1.00  0.00     0.098 A 
HETATM    5 CL2  UNL     1      -1.092  -2.887  -3.763  1.00  0.00    -0.079 Cl
HETATM    6  C7  UNL     1      -1.869  -0.752  -2.061  1.00  0.00     0.132 A 
HETATM    7 CL3  UNL     1      -3.310  -0.442  -3.028  1.00  0.00    -0.062 Cl
HETATM    8  N1  UNL     1      -1.450  -0.114  -0.967  1.00  0.00    -0.306 N 
ENDROOT
BRANCH   1   9
HETATM    9  O3  UNL     1       0.462  -0.347   0.453  1.00  0.00    -0.332 OA
BRANCH   9  10
HETATM   10  C3  UNL     1       1.669  -0.572   1.006  1.00  0.00     0.211 C 
BRANCH  10  11
HETATM   11  C2  UNL     1       2.896  -0.109   0.253  1.00  0.00     0.166 C 
BRANCH  11  12
HETATM   12  C1  UNL     1       4.127  -0.317   1.139  1.00  0.00     0.198 C 
BRANCH  12  13
HETATM   13  O1  UNL     1       5.236   0.285   0.525  1.00  0.00    -0.398 OA
ATOM     14  H1  UNL     1       6.000   0.156   1.075  1.00  0.00     0.209 HD
ENDBRANCH  12  13
ENDBRANCH  11  12
BRANCH  11  15
HETATM   15  O2  UNL     1       2.741   1.308   0.152  1.00  0.00    -0.391 OA
ATOM     16  H2  UNL     1       1.977   1.437  -0.398  1.00  0.00     0.210 HD
ENDBRANCH  11  15
ENDBRANCH  10  11
ENDBRANCH   9  10
ENDBRANCH   1   9
BRANCH   8  17
HETATM   17  C8  UNL     1      -2.065   0.980  -0.279  1.00  0.00     0.140 C 
BRANCH  17  18
HETATM   18  C9  UNL     1      -3.548   1.128  -0.541  1.00  0.00     0.192 C 
BRANCH  18  19
HETATM   19  O4  UNL     1      -4.242  -0.024  -0.163  1.00  0.00    -0.399 OA
ATOM     20  H4  UNL     1      -5.173   0.069  -0.327  1.00  0.00     0.209 HD
ENDBRANCH  18  19
ENDBRANCH  17  18
BRANCH  17  21
HETATM   21  C10 UNL     1      -1.917   0.948   1.225  1.00  0.00     0.192 C 
BRANCH  21  22
HETATM   22  O5  UNL     1      -2.595   2.052   1.794  1.00  0.00    -0.399 OA
ATOM     23  H5  UNL     1      -2.502   2.032   2.739  1.00  0.00     0.209 HD
ENDBRANCH  21  22
ENDBRANCH  17  21
ENDBRANCH   8  17
TORSDOF 11
