REMARK  10 active torsions:
REMARK  status: ('A' for Active; 'I' for Inactive)
REMARK    1  A    between atoms: N1_1  and  C1_5 
REMARK    2  A    between atoms: C1_5  and  C2_6 
REMARK    3  A    between atoms: C1_5  and  C9_21 
REMARK    4  A    between atoms: C2_6  and  S1_7 
REMARK    5  A    between atoms: S1_7  and  O1_8 
REMARK    6  A    between atoms: O1_8  and  C3_9 
REMARK    7  A    between atoms: C4_10  and  O2_11 
REMARK    8  A    between atoms: C6_14  and  C7_15 
REMARK    9  A    between atoms: C7_15  and  O3_16 
REMARK   10  A    between atoms: C8_18  and  O4_19 
ROOT
HETATM    1  C3  UNL     1       0.773   0.572   0.158  1.00  0.00     0.195 C 
HETATM    2  C4  UNL     1       1.903   0.777   1.143  1.00  0.00     0.151 C 
HETATM    3  C5  UNL     1       3.008   1.216   0.177  1.00  0.00     0.043 C 
HETATM    4  C6  UNL     1       2.801   0.286  -0.989  1.00  0.00     0.043 C 
HETATM    5  C8  UNL     1       1.431  -0.333  -0.844  1.00  0.00     0.157 C 
ENDROOT
BRANCH   1   6
HETATM    6  O1  UNL     1      -0.372   0.075   0.733  1.00  0.00    -0.309 OA
BRANCH   6   7
HETATM    7  S1  UNL     1      -1.710   1.106   0.631  1.00  0.00    -0.009 SA
BRANCH   7   8
HETATM    8  C2  UNL     1      -3.153   0.301   1.349  1.00  0.00     0.142 C 
BRANCH   8   9
HETATM    9  C1  UNL     1      -3.604  -0.906   0.546  1.00  0.00     0.248 C 
BRANCH   9  10
HETATM   10  N1  UNL     1      -4.770  -1.451   1.241  1.00  0.00    -0.070 N 
ATOM     11  H13 UNL     1      -4.594  -1.661   2.223  1.00  0.00     0.274 HD
ATOM     12  H12 UNL     1      -5.510  -0.765   1.390  1.00  0.00     0.274 HD
ATOM     13  H11 UNL     1      -5.073  -2.262   0.702  1.00  0.00     0.274 HD
ENDBRANCH   9  10
BRANCH   9  14
HETATM   14  C9  UNL     1      -4.111  -0.455  -0.821  1.00  0.00     0.217 C 
HETATM   15 CL1  UNL     1      -4.783  -1.847  -1.679  1.00  0.00    -0.081 Cl
HETATM   16 CL2  UNL     1      -5.443   0.713  -0.576  1.00  0.00    -0.081 Cl
HETATM   17 CL3  UNL     1      -2.865   0.348  -1.778  1.00  0.00    -0.081 Cl
ENDBRANCH   9  14
ENDBRANCH   8   9
ENDBRANCH   7   8
ENDBRANCH   6   7
ENDBRANCH   1   6
BRANCH   2  18
HETATM   18  O2  UNL     1       2.357  -0.413   1.709  1.00  0.00    -0.393 OA
ATOM     19  H2  UNL     1       3.067  -0.284   2.327  1.00  0.00     0.210 HD
ENDBRANCH   2  18
BRANCH   5  20
HETATM   20  O4  UNL     1       0.754  -0.372  -2.060  1.00  0.00    -0.392 OA
ATOM     21  H4  UNL     1       1.170  -0.944  -2.694  1.00  0.00     0.210 HD
ENDBRANCH   5  20
BRANCH   4  22
HETATM   22  C7  UNL     1       3.841  -0.811  -1.052  1.00  0.00     0.171 C 
BRANCH  22  23
HETATM   23  O3  UNL     1       5.102  -0.226  -1.177  1.00  0.00    -0.400 OA
ATOM     24  H3  UNL     1       5.755  -0.915  -1.217  1.00  0.00     0.209 HD
ENDBRANCH  22  23
ENDBRANCH   4  22
TORSDOF 10
