REMARK  7 active torsions:
REMARK  status: ('A' for Active; 'I' for Inactive)
REMARK    1  A    between atoms: C6_13  and  C7_14 
REMARK    2  A    between atoms: C7_14  and  O1_15 
REMARK    3  A    between atoms: C7_14  and  N4_17 
REMARK    4  A    between atoms: N4_17  and  O2_18 
REMARK    5  A    between atoms: N4_17  and  C10_23 
REMARK    6  A    between atoms: O2_18  and  C8_19 
REMARK    7  A    between atoms: C8_19  and  C9_20 
ROOT
HETATM    1  C1  UNL     1       1.405  -2.256   1.215  1.00  0.00     0.069 C 
HETATM    2  C2  UNL     1       2.006  -0.962   0.864  1.00  0.00     0.019 A 
HETATM    3  N1  UNL     1       3.098  -0.507   1.497  1.00  0.00    -0.345 N 
ATOM      4  H1  UNL     1       3.506  -1.085   2.232  1.00  0.00     0.167 HD
HETATM    5  C3  UNL     1       3.682   0.669   1.214  1.00  0.00     0.123 A 
HETATM    6  N2  UNL     1       4.736   1.080   1.835  1.00  0.00    -0.384 N 
ATOM      7  H21 UNL     1       5.179   1.973   1.620  1.00  0.00     0.157 HD
ATOM      8  H22 UNL     1       5.163   0.520   2.573  1.00  0.00     0.157 HD
HETATM    9  C4  UNL     1       3.103   1.428   0.214  1.00  0.00     0.102 A 
HETATM   10 CL1  UNL     1       3.834   2.968  -0.185  1.00  0.00    -0.078 Cl
HETATM   11  C5  UNL     1       1.967   0.980  -0.461  1.00  0.00     0.084 A 
HETATM   12  N3  UNL     1       1.434   1.805  -1.467  1.00  0.00    -0.100 NA
HETATM   13  C6  UNL     1       1.386  -0.231  -0.153  1.00  0.00     0.035 A 
ENDROOT
BRANCH  13  14
HETATM   14  C7  UNL     1       0.190  -0.772  -0.827  1.00  0.00     0.256 C 
BRANCH  14  15
HETATM   15  O1  UNL     1       0.338  -0.584  -2.220  1.00  0.00    -0.375 OA
ATOM     16  H1  UNL     1      -0.432  -0.932  -2.654  1.00  0.00     0.212 HD
ENDBRANCH  14  15
BRANCH  14  17
HETATM   17  N4  UNL     1      -1.064  -0.321  -0.330  1.00  0.00    -0.159 NA
BRANCH  17  18
HETATM   18  O2  UNL     1      -1.260   0.988  -0.404  1.00  0.00    -0.295 OA
BRANCH  18  19
HETATM   19  C8  UNL     1      -2.345   1.448   0.295  1.00  0.00     0.265 C 
BRANCH  19  20
HETATM   20  C9  UNL     1      -2.532   2.940   0.184  1.00  0.00     0.378 C 
HETATM   21  F1  UNL     1      -1.478   3.668   0.647  1.00  0.00    -0.212 F 
HETATM   22  F2  UNL     1      -3.683   3.326   0.858  1.00  0.00    -0.212 F 
ENDBRANCH  19  20
ENDBRANCH  18  19
ENDBRANCH  17  18
BRANCH  17  23
HETATM   23  C10 UNL     1      -2.107  -1.138  -0.876  1.00  0.00     0.089 A 
HETATM   24  C11 UNL     1      -2.129  -2.584  -0.548  1.00  0.00     0.024 A 
HETATM   25  C12 UNL     1      -3.205  -1.708  -0.028  1.00  0.00     0.024 A 
ENDBRANCH  17  23
ENDBRANCH  14  17
ENDBRANCH  13  14
TORSDOF 7
