REMARK  9 active torsions:
REMARK  status: ('A' for Active; 'I' for Inactive)
REMARK    1  A    between atoms: O1_2  and  C2_3 
REMARK    2  A    between atoms: C2_3  and  C3_5 
REMARK    3  A    between atoms: C3_5  and  N1_6 
REMARK    4  A    between atoms: C3_5  and  C6_11 
REMARK       I    between atoms: N1_6  and  C4_8 
REMARK    5  A    between atoms: C6_11  and  N2_12 
REMARK    6  A    between atoms: C6_11  and  C15_22 
REMARK    7  A    between atoms: N2_12  and  C7_14 
REMARK    8  A    between atoms: C15_22  and  O4_23 
REMARK    9  A    between atoms: N3_25  and  O5_27 
ROOT
HETATM    1  C6  UNL     1      -0.892   0.318  -0.743  1.00  0.00     0.186 C 
ENDROOT
BRANCH   1   2
HETATM    2  C3  UNL     1      -1.692  -0.502   0.190  1.00  0.00     0.214 C 
BRANCH   2   3
HETATM    3  C2  UNL     1      -3.135  -0.625  -0.296  1.00  0.00     0.283 C 
HETATM    4  O2  UNL     1      -4.051  -0.133   0.404  1.00  0.00    -0.263 OA
BRANCH   3   5
HETATM    5  O1  UNL     1      -3.489  -1.246  -1.452  1.00  0.00    -0.325 OA
HETATM    6  C1  UNL     1      -4.819  -1.377  -1.921  1.00  0.00     0.213 C 
ENDBRANCH   3   5
ENDBRANCH   2   3
BRANCH   2   7
HETATM    7  N1  UNL     1      -1.905   0.143   1.508  1.00  0.00    -0.345 N 
HETATM    8  C4  UNL     1      -1.974  -0.612   2.689  1.00  0.00     0.214 C 
HETATM    9  C5  UNL     1      -2.187   0.032   4.001  1.00  0.00     0.117 C 
HETATM   10  O3  UNL     1      -1.852  -1.854   2.635  1.00  0.00    -0.274 OA
ATOM     11  H1  UNL     1      -2.003   1.157   1.557  1.00  0.00     0.163 HD
ENDBRANCH   2   7
ENDBRANCH   1   2
BRANCH   1  12
HETATM   12  N2  UNL     1       0.444   0.596  -0.627  1.00  0.00    -0.404 N 
ATOM     13  H2  UNL     1       0.973   0.242  -1.424  1.00  0.00     0.154 HD
BRANCH  12  14
HETATM   14  C7  UNL     1       1.246   1.219   0.270  1.00  0.00     0.081 C 
HETATM   15  C8  UNL     1       1.518   0.582   1.603  1.00  0.00     0.025 C 
HETATM   16  C9  UNL     1       1.706  -0.915   1.545  1.00  0.00     0.002 C 
HETATM   17  C10 UNL     1       3.217  -1.140   1.381  1.00  0.00     0.000 C 
HETATM   18  C11 UNL     1       3.561  -0.526   0.039  1.00  0.00     0.000 C 
HETATM   19  C12 UNL     1       3.753   0.945   0.063  1.00  0.00     0.006 C 
HETATM   20  C13 UNL     1       2.555   1.769  -0.319  1.00  0.00     0.004 C 
HETATM   21  C14 UNL     1       2.505   1.919  -1.800  1.00  0.00     0.012 C 
ENDBRANCH  12  14
ENDBRANCH   1  12
BRANCH   1  22
HETATM   22  C15 UNL     1      -1.168  -0.306  -2.135  1.00  0.00     0.161 C 
HETATM   23  N3  UNL     1      -1.661   0.371  -3.079  1.00  0.00    -0.249 N 
ATOM     24  H3  UNL     1      -1.892   1.356  -2.947  1.00  0.00     0.196 HD
BRANCH  22  25
HETATM   25  O4  UNL     1      -0.844  -1.639  -2.296  1.00  0.00    -0.346 OA
ATOM     26  H4  UNL     1      -1.013  -2.021  -3.149  1.00  0.00     0.219 HD
ENDBRANCH  22  25
BRANCH  23  27
HETATM   27  O5  UNL     1      -1.880  -0.243  -4.286  1.00  0.00    -0.288 OA
ATOM     28  H5  UNL     1      -2.251   0.267  -4.997  1.00  0.00     0.244 HD
ENDBRANCH  23  27
ENDBRANCH   1  22
TORSDOF 9
