REMARK  7 active torsions:
REMARK  status: ('A' for Active; 'I' for Inactive)
REMARK    1  A    between atoms: N1_2  and  C3_4 
REMARK    2  A    between atoms: C3_4  and  C4_5 
REMARK    3  A    between atoms: C6_9  and  N3_10 
REMARK    4  A    between atoms: C11_18  and  N4_19 
REMARK    5  A    between atoms: N4_19  and  C12_22 
REMARK    6  A    between atoms: C12_22  and  C13_23 
REMARK       I    between atoms: C13_23  and  N5_25 
REMARK    7  A    between atoms: N5_25  and  C14_27 
ROOT
HETATM    1  C3  UNL     1      -1.784  -0.434   0.306  1.00  0.00     0.221 C 
HETATM    2  C7  UNL     1      -2.525  -1.348   1.300  1.00  0.00     0.050 C 
HETATM    3  C8  UNL     1      -1.989  -2.730   1.341  1.00  0.00     0.003 C 
HETATM    4  C9  UNL     1      -0.482  -2.674   1.249  1.00  0.00     0.002 C 
HETATM    5  C10 UNL     1      -0.051  -1.343   1.844  1.00  0.00     0.036 C 
HETATM    6  C11 UNL     1      -0.440  -0.216   0.867  1.00  0.00     0.230 C 
ENDROOT
BRANCH   1   7
HETATM    7  N1  UNL     1      -1.838  -1.108  -0.967  1.00  0.00     0.097 N 
HETATM    8  C1  UNL     1      -3.191  -1.295  -1.431  1.00  0.00     0.310 C 
HETATM    9  C2  UNL     1      -1.158  -0.431  -2.046  1.00  0.00     0.310 C 
ENDBRANCH   1   7
BRANCH   1  10
HETATM   10  C4  UNL     1      -2.659   0.773   0.187  1.00  0.00     0.042 A 
HETATM   11  C5  UNL     1      -2.408   2.064  -0.144  1.00  0.00     0.107 A 
HETATM   12  N2  UNL     1      -3.408   2.916  -0.182  1.00  0.00    -0.346 N 
HETATM   13  C6  UNL     1      -4.629   2.475   0.110  1.00  0.00     0.142 A 
ATOM     14  H2  UNL     1      -3.252   3.893  -0.430  1.00  0.00     0.167 HD
HETATM   15  S1  UNL     1      -4.374   0.819   0.446  1.00  0.00    -0.055 SA
BRANCH  13  16
HETATM   16  N3  UNL     1      -5.772   3.138   0.132  1.00  0.00    -0.380 N 
ATOM     17  H32 UNL     1      -5.924   4.126  -0.069  1.00  0.00     0.158 HD
ATOM     18  H31 UNL     1      -6.708   2.800   0.356  1.00  0.00     0.158 HD
ENDBRANCH  13  16
ENDBRANCH   1  10
BRANCH   6  19
HETATM   19  N4  UNL     1       0.634  -0.173  -0.072  1.00  0.00    -0.060 N 
ATOM     20  H42 UNL     1       0.876  -1.102  -0.416  1.00  0.00     0.278 HD
ATOM     21  H41 UNL     1       0.349   0.246  -0.957  1.00  0.00     0.278 HD
BRANCH  19  22
HETATM   22  C12 UNL     1       1.769   0.500   0.500  1.00  0.00     0.335 C 
BRANCH  22  23
HETATM   23  C13 UNL     1       2.924   0.504  -0.479  1.00  0.00     0.243 C 
HETATM   24  O1  UNL     1       2.801   0.002  -1.613  1.00  0.00    -0.272 OA
HETATM   25  N5  UNL     1       4.133   1.086  -0.062  1.00  0.00    -0.355 N 
ATOM     26  H5  UNL     1       4.223   1.493   0.869  1.00  0.00     0.162 HD
BRANCH  25  27
HETATM   27  C14 UNL     1       5.257   1.094  -0.992  1.00  0.00     0.084 A 
HETATM   28  C15 UNL     1       6.602   1.568  -0.569  1.00  0.00     0.027 A 
HETATM   29  C16 UNL     1       6.351   0.113  -0.553  1.00  0.00     0.027 A 
ENDBRANCH  25  27
ENDBRANCH  22  23
ENDBRANCH  19  22
ENDBRANCH   6  19
TORSDOF 7
