REMARK  10 active torsions:
REMARK  status: ('A' for Active; 'I' for Inactive)
REMARK    1  A    between atoms: C6_6  and  C7_7 
REMARK    2  A    between atoms: C7_7  and  C8_8 
REMARK    3  A    between atoms: C8_8  and  C9_9 
REMARK    4  A    between atoms: C9_9  and  C10_10 
REMARK    5  A    between atoms: C10_10  and  N1_11 
REMARK    6  A    between atoms: C11_13  and  O2_14 
REMARK    7  A    between atoms: C12_16  and  O3_17 
REMARK    8  A    between atoms: C13_19  and  O4_20 
REMARK    9  A    between atoms: C14_22  and  C15_23 
REMARK   10  A    between atoms: C15_23  and  O5_24 
ROOT
HETATM    1  N1  UNL     1      -2.818  -0.062   0.268  1.00  0.00    -0.282 N 
HETATM    2  O1  UNL     1      -2.906   1.035  -0.468  1.00  0.00    -0.247 OA
HETATM    3  C11 UNL     1      -3.991   1.139  -1.298  1.00  0.00     0.317 C 
HETATM    4  C12 UNL     1      -5.208   1.285  -0.418  1.00  0.00     0.206 C 
HETATM    5  C13 UNL     1      -5.235   0.275   0.674  1.00  0.00     0.178 C 
HETATM    6  C14 UNL     1      -4.012  -0.557   0.840  1.00  0.00     0.163 C 
ENDROOT
BRANCH   1   7
HETATM    7  C10 UNL     1      -1.834  -0.997  -0.129  1.00  0.00     0.150 C 
BRANCH   7   8
HETATM    8  C9  UNL     1      -0.633  -0.239  -0.675  1.00  0.00     0.022 C 
BRANCH   8   9
HETATM    9  C8  UNL     1      -0.097   0.624   0.442  1.00  0.00     0.002 C 
BRANCH   9  10
HETATM   10  C7  UNL     1       1.100   1.407  -0.036  1.00  0.00     0.005 C 
BRANCH  10  11
HETATM   11  C6  UNL     1       2.206   0.513  -0.495  1.00  0.00    -0.014 C 
HETATM   12  C5  UNL     1       2.730  -0.414   0.552  1.00  0.00     0.005 C 
HETATM   13  C4  UNL     1       4.103   0.023   1.073  1.00  0.00     0.009 C 
HETATM   14  C2  UNL     1       5.094  -0.193  -0.025  1.00  0.00    -0.048 C 
HETATM   15  C1  UNL     1       5.387  -1.656  -0.162  1.00  0.00     0.015 C 
HETATM   16  C3  UNL     1       6.418   0.499   0.320  1.00  0.00     0.015 C 
HETATM   17  C17 UNL     1       4.540   0.418  -1.286  1.00  0.00     0.009 C 
HETATM   18  C16 UNL     1       3.370   1.341  -0.996  1.00  0.00     0.005 C 
ENDBRANCH  10  11
ENDBRANCH   9  10
ENDBRANCH   8   9
ENDBRANCH   7   8
ENDBRANCH   1   7
BRANCH   6  19
HETATM   19  C15 UNL     1      -4.354  -1.980   0.465  1.00  0.00     0.194 C 
BRANCH  19  20
HETATM   20  O5  UNL     1      -3.428  -2.919   0.829  1.00  0.00    -0.399 OA
ATOM     21  H5  UNL     1      -3.643  -3.814   0.593  1.00  0.00     0.209 HD
ENDBRANCH  19  20
ENDBRANCH   6  19
BRANCH   3  22
HETATM   22  O2  UNL     1      -4.098   0.190  -2.274  1.00  0.00    -0.367 OA
ATOM     23  H2  UNL     1      -4.850   0.262  -2.850  1.00  0.00     0.212 HD
ENDBRANCH   3  22
BRANCH   5  24
HETATM   24  O4  UNL     1      -5.583   0.944   1.872  1.00  0.00    -0.391 OA
ATOM     25  H4  UNL     1      -5.600   0.299   2.569  1.00  0.00     0.210 HD
ENDBRANCH   5  24
BRANCH   4  26
HETATM   26  O3  UNL     1      -6.395   1.304  -1.160  1.00  0.00    -0.388 OA
ATOM     27  H3  UNL     1      -7.161   1.396  -0.606  1.00  0.00     0.210 HD
ENDBRANCH   4  26
TORSDOF 10
