REMARK  8 active torsions:
REMARK  status: ('A' for Active; 'I' for Inactive)
REMARK    1  A    between atoms: C2_2  and  C4_4 
REMARK    2  A    between atoms: C4_4  and  O1_5 
REMARK    3  A    between atoms: O1_5  and  C5_6 
REMARK    4  A    between atoms: C7_12  and  N3_13 
REMARK    5  A    between atoms: N3_13  and  C8_15 
REMARK    6  A    between atoms: C8_15  and  C9_16 
REMARK    7  A    between atoms: C9_16  and  N4_17 
REMARK    8  A    between atoms: N6_25  and  C12_26 
ROOT
HETATM    1  C5  UNL     1      -1.187  -0.431   0.774  1.00  0.00     0.228 A 
HETATM    2  N1  UNL     1      -0.358   0.622   0.882  1.00  0.00    -0.305 N 
ATOM      3  H1  UNL     1      -0.615   1.550   1.219  1.00  0.00     0.171 HD
HETATM    4  C6  UNL     1       0.872   0.246   0.469  1.00  0.00     0.157 A 
HETATM    5  N2  UNL     1       2.036   0.918   0.382  1.00  0.00    -0.174 N 
ATOM      6  H2  UNL     1       2.094   1.899   0.657  1.00  0.00     0.186 HD
HETATM    7  C7  UNL     1       3.117   0.269  -0.074  1.00  0.00     0.682 A 
HETATM    8  N5  UNL     1       3.064  -1.018  -0.442  1.00  0.00    -0.154 N 
ATOM      9  H5  UNL     1       3.903  -1.485  -0.786  1.00  0.00     0.187 HD
HETATM   10  C10 UNL     1       1.896  -1.700  -0.358  1.00  0.00     0.290 A 
HETATM   11  O2  UNL     1       1.809  -2.913  -0.695  1.00  0.00    -0.265 OA
HETATM   12  C11 UNL     1       0.744  -1.078   0.109  1.00  0.00     0.152 A 
HETATM   13  N6  UNL     1      -0.523  -1.495   0.296  1.00  0.00    -0.291 N 
ENDROOT
BRANCH   7  14
HETATM   14  N3  UNL     1       4.224   0.906  -0.158  1.00  0.00    -0.221 N 
ATOM     15  H3  UNL     1       4.272   1.886   0.119  1.00  0.00     0.178 HD
BRANCH  14  16
HETATM   16  C8  UNL     1       5.406   0.234  -0.646  1.00  0.00     0.182 C 
BRANCH  16  17
HETATM   17  C9  UNL     1       6.562   1.183  -0.656  1.00  0.00     0.073 C 
BRANCH  17  18
HETATM   18  N4  UNL     1       6.505   2.193   0.115  1.00  0.00    -0.410 N 
ATOM     19  H42 UNL     1       5.692   2.336   0.713  1.00  0.00     0.155 HD
ATOM     20  H41 UNL     1       7.293   2.840   0.108  1.00  0.00     0.155 HD
ENDBRANCH  17  18
ENDBRANCH  16  17
ENDBRANCH  14  16
ENDBRANCH   7  14
BRANCH   1  21
HETATM   21  O1  UNL     1      -2.524  -0.416   1.106  1.00  0.00    -0.321 OA
BRANCH  21  22
HETATM   22  C4  UNL     1      -3.244   0.676   1.604  1.00  0.00     0.182 C 
BRANCH  22  23
HETATM   23  C2  UNL     1      -3.272   1.869   0.686  1.00  0.00     0.002 C 
HETATM   24  C1  UNL     1      -4.062   2.995   1.289  1.00  0.00     0.011 C 
HETATM   25  C3  UNL     1      -4.012   1.436  -0.580  1.00  0.00     0.011 C 
ENDBRANCH  22  23
ENDBRANCH  21  22
ENDBRANCH   1  21
BRANCH  13  26
HETATM   26  C12 UNL     1      -0.990  -2.830   0.016  1.00  0.00     0.209 A 
HETATM   27  C13 UNL     1      -2.397  -3.132  -0.257  1.00  0.00     0.273 A 
HETATM   28  F1  UNL     1      -2.835  -4.434   0.000  1.00  0.00    -0.241 F 
HETATM   29  C14 UNL     1      -1.435  -3.029  -1.426  1.00  0.00     0.299 A 
HETATM   30  F2  UNL     1      -1.066  -4.156  -2.094  1.00  0.00    -0.201 F 
HETATM   31  F3  UNL     1      -1.574  -1.911  -2.224  1.00  0.00    -0.201 F 
ENDBRANCH  13  26
TORSDOF 8
