REMARK  6 active torsions:
REMARK  status: ('A' for Active; 'I' for Inactive)
REMARK    1  A    between atoms: N1_1  and  C1_4 
REMARK    2  A    between atoms: C2_7  and  N3_8 
REMARK    3  A    between atoms: N3_8  and  C3_10 
REMARK    4  A    between atoms: C3_10  and  C4_11 
REMARK    5  A    between atoms: C4_11  and  C5_12 
REMARK    6  A    between atoms: C5_12  and  N4_13 
ROOT
HETATM    1  C1  UNL     1       2.779   0.216   0.535  1.00  0.00     0.706 A 
HETATM    2  N2  UNL     1       1.546   0.236  -0.001  1.00  0.00    -0.020 N 
ATOM      3  H2  UNL     1       0.750   0.411   0.613  1.00  0.00     0.203 HD
HETATM    4  C2  UNL     1       1.316   0.036  -1.310  1.00  0.00     0.708 A 
HETATM    5  N5  UNL     1       2.426  -0.192  -2.063  1.00  0.00    -0.117 N 
ATOM      6  H5  UNL     1       2.312  -0.351  -3.064  1.00  0.00     0.207 HD
HETATM    7  N6  UNL     1       3.644  -0.216  -1.555  1.00  0.00    -0.214 N 
ATOM      8  H6  UNL     1       4.444  -0.391  -2.164  1.00  0.00     0.209 HD
HETATM    9  N7  UNL     1       3.834  -0.015  -0.265  1.00  0.00    -0.117 N 
ATOM     10  H7  UNL     1       4.777  -0.035   0.123  1.00  0.00     0.207 HD
ENDROOT
BRANCH   4  11
HETATM   11  N3  UNL     1       0.028   0.052  -1.900  1.00  0.00    -0.224 N 
ATOM     12  H3  UNL     1      -0.047  -0.107  -2.905  1.00  0.00     0.177 HD
BRANCH  11  13
HETATM   13  C3  UNL     1      -1.180   0.282  -1.151  1.00  0.00     0.140 C 
BRANCH  13  14
HETATM   14  C4  UNL     1      -1.472  -0.780  -0.143  1.00  0.00     0.047 C 
BRANCH  14  15
HETATM   15  C5  UNL     1      -2.733  -0.537   0.637  1.00  0.00     0.231 C 
BRANCH  15  16
HETATM   16  N4  UNL     1      -2.740   0.677   1.383  1.00  0.00    -0.079 N 
ATOM     17  H43 UNL     1      -1.928   0.721   1.998  1.00  0.00     0.274 HD
ATOM     18  H42 UNL     1      -2.541   1.470   0.773  1.00  0.00     0.274 HD
ATOM     19  H41 UNL     1      -3.596   0.842   1.913  1.00  0.00     0.274 HD
ENDBRANCH  15  16
ENDBRANCH  14  15
ENDBRANCH  13  14
ENDBRANCH  11  13
ENDBRANCH   4  11
BRANCH   1  20
HETATM   20  N1  UNL     1       3.007   0.407   1.791  1.00  0.00    -0.233 N 
ATOM     21  H12 UNL     1       2.206   0.582   2.398  1.00  0.00     0.174 HD
ATOM     22  H11 UNL     1       3.942   0.392   2.198  1.00  0.00     0.174 HD
ENDBRANCH   1  20
TORSDOF 6
