REMARK  7 active torsions:
REMARK  status: ('A' for Active; 'I' for Inactive)
REMARK    1  A    between atoms: C2_2  and  C3_3 
REMARK    2  A    between atoms: C3_3  and  N1_4 
REMARK       I    between atoms: N1_4  and  C4_6 
REMARK       I    between atoms: C4_6  and  N3_10 
REMARK    3  A    between atoms: N3_10  and  C5_12 
REMARK    4  A    between atoms: C5_12  and  C6_13 
REMARK    5  A    between atoms: N4_15  and  C8_16 
REMARK    6  A    between atoms: C8_16  and  C9_17 
REMARK    7  A    between atoms: C10_18  and  C11_19 
ROOT
HETATM    1  C6  UNL     1      -1.048  -1.220  -0.864  1.00  0.00     0.045 A 
HETATM    2  C7  UNL     1      -2.217  -0.457  -0.945  1.00  0.00     0.119 A 
HETATM    3  N4  UNL     1      -3.190  -0.509  -0.041  1.00  0.00    -0.337 N 
HETATM    4  C12 UNL     1      -3.019  -1.352   1.003  1.00  0.00     0.105 A 
HETATM    5 BR2  UNL     1      -4.359  -1.508   2.366  1.00  0.00    -0.029 Br
HETATM    6  C13 UNL     1      -1.895  -2.128   1.141  1.00  0.00     0.042 A 
HETATM    7  C14 UNL     1      -1.720  -3.049   2.292  1.00  0.00     0.071 C 
HETATM    8  N5  UNL     1      -0.922  -2.043   0.192  1.00  0.00    -0.353 N 
HETATM    9  C15 UNL     1       0.238  -2.858   0.354  1.00  0.00     0.156 C 
ENDROOT
BRANCH   1  10
HETATM   10  C5  UNL     1       0.013  -1.135  -1.887  1.00  0.00     0.196 C 
BRANCH  10  11
HETATM   11  N3  UNL     1       0.993  -0.113  -1.572  1.00  0.00    -0.221 N 
HETATM   12  C4  UNL     1       2.084   0.130  -2.418  1.00  0.00     0.667 C 
HETATM   13  N1  UNL     1       3.224   0.885  -2.050  1.00  0.00    -0.227 N 
HETATM   14  N2  UNL     1       2.057  -0.367  -3.625  1.00  0.00    -0.235 N 
ATOM     15  H1  UNL     1       3.759   1.377  -2.766  1.00  0.00     0.177 HD
ATOM     16  H22 UNL     1       2.851  -0.190  -4.241  1.00  0.00     0.174 HD
ATOM     17  H21 UNL     1       1.236  -0.911  -3.890  1.00  0.00     0.174 HD
ATOM     18  H3  UNL     1       0.886   0.438  -0.720  1.00  0.00     0.178 HD
BRANCH  13  19
HETATM   19  C3  UNL     1       3.634   0.963  -0.665  1.00  0.00     0.137 C 
BRANCH  19  20
HETATM   20  C2  UNL     1       4.877   1.827  -0.527  1.00  0.00     0.016 C 
HETATM   21  C1  UNL     1       5.297   1.903   0.915  1.00  0.00     0.006 C 
ENDBRANCH  19  20
ENDBRANCH  13  19
ENDBRANCH  10  11
ENDBRANCH   1  10
BRANCH   3  22
HETATM   22  C8  UNL     1      -4.403   0.248  -0.076  1.00  0.00     0.223 C 
BRANCH  22  23
HETATM   23  C9  UNL     1      -4.181   1.500   0.628  1.00  0.00    -0.086 C 
HETATM   24  C10 UNL     1      -3.980   2.531   1.222  1.00  0.00    -0.094 C 
BRANCH  24  25
HETATM   25  C11 UNL     1      -3.711   3.781   1.936  1.00  0.00     0.178 C 
HETATM   26 BR1  UNL     1      -4.885   3.977   3.474  1.00  0.00    -0.083 Br
ENDBRANCH  24  25
ENDBRANCH  22  23
ENDBRANCH   3  22
TORSDOF 7
