REMARK  7 active torsions:
REMARK  status: ('A' for Active; 'I' for Inactive)
REMARK    1  A    between atoms: N1_2  and  C2_6 
REMARK    2  A    between atoms: C2_6  and  C3_7 
REMARK    3  A    between atoms: C3_7  and  C4_8 
REMARK    4  A    between atoms: C4_8  and  C5_9 
REMARK    5  A    between atoms: C5_9  and  C6_10 
REMARK    6  A    between atoms: C6_10  and  N3_11 
REMARK    7  A    between atoms: C9_16  and  O1_17 
ROOT
HETATM    1  N3  UNL     1       1.745   0.763  -0.389  1.00  0.00    -0.394 N 
ATOM      2  H3  UNL     1       1.772   1.781  -0.331  1.00  0.00     0.159 HD
HETATM    3  C7  UNL     1       2.770   0.108  -0.050  1.00  0.00     0.015 C 
HETATM    4  C8  UNL     1       4.051   0.660   0.439  1.00  0.00     0.134 C 
HETATM    5 BR1  UNL     1       4.933   1.745  -0.915  1.00  0.00    -0.082 Br
HETATM    6  C9  UNL     1       4.965  -0.564   0.630  1.00  0.00     0.154 C 
HETATM    7  C10 UNL     1       4.392  -1.469  -0.442  1.00  0.00     0.108 C 
HETATM    8 BR2  UNL     1       5.038  -3.244  -0.383  1.00  0.00    -0.087 Br
HETATM    9  C11 UNL     1       2.904  -1.361  -0.074  1.00  0.00     0.121 C 
HETATM   10 BR3  UNL     1       2.630  -2.108   1.702  1.00  0.00    -0.084 Br
ENDROOT
BRANCH   1  11
HETATM   11  C6  UNL     1       0.531   0.123  -0.858  1.00  0.00     0.119 C 
BRANCH  11  12
HETATM   12  C5  UNL     1      -0.610   0.903  -0.232  1.00  0.00     0.020 C 
BRANCH  12  13
HETATM   13  C4  UNL     1      -1.956   0.329  -0.646  1.00  0.00     0.007 C 
BRANCH  13  14
HETATM   14  C3  UNL     1      -2.989   1.181   0.032  1.00  0.00     0.046 C 
BRANCH  14  15
HETATM   15  C2  UNL     1      -4.407   0.824  -0.221  1.00  0.00     0.082 C 
BRANCH  15  16
HETATM   16  N1  UNL     1      -4.835  -0.442   0.196  1.00  0.00    -0.318 N 
HETATM   17  C1  UNL     1      -6.185  -0.839  -0.089  1.00  0.00     0.176 C 
HETATM   18  N2  UNL     1      -4.099  -1.213   0.808  1.00  0.00    -0.344 N 
ATOM     19  H22 UNL     1      -4.411  -2.135   1.112  1.00  0.00     0.177 HD
ATOM     20  H21 UNL     1      -3.140  -0.931   1.010  1.00  0.00     0.177 HD
ENDBRANCH  15  16
ENDBRANCH  14  15
ENDBRANCH  13  14
ENDBRANCH  12  13
ENDBRANCH  11  12
ENDBRANCH   1  11
BRANCH   6  21
HETATM   21  O1  UNL     1       6.286  -0.247   0.333  1.00  0.00    -0.393 OA
ATOM     22  H1  UNL     1       6.850  -1.002   0.451  1.00  0.00     0.210 HD
ENDBRANCH   6  21
TORSDOF 7
