REMARK  7 active torsions:
REMARK  status: ('A' for Active; 'I' for Inactive)
REMARK    1  A    between atoms: C3_3  and  N1_4 
REMARK       I    between atoms: N1_4  and  C4_6 
REMARK    2  A    between atoms: C4_6  and  C5_8 
REMARK    3  A    between atoms: C5_8  and  C6_10 
REMARK    4  A    between atoms: C6_10  and  N3_17 
REMARK    5  A    between atoms: C7_11  and  N2_12 
REMARK    6  A    between atoms: N2_12  and  C10_15 
REMARK    7  A    between atoms: N3_17  and  C12_19 
ROOT
HETATM    1  C1  UNL     1       5.631  -0.121  -4.337  1.00  0.00     0.014 C 
HETATM    2  C2  UNL     1       4.466  -0.119  -3.997  1.00  0.00    -0.098 C 
HETATM    3  C3  UNL     1       3.071  -0.137  -3.588  1.00  0.00     0.216 C 
ENDROOT
BRANCH   3   4
HETATM    4  N1  UNL     1       2.937  -0.238  -2.147  1.00  0.00    -0.349 N 
HETATM    5  C4  UNL     1       1.666  -0.272  -1.529  1.00  0.00     0.238 C 
HETATM    6  O1  UNL     1       0.637  -0.215  -2.233  1.00  0.00    -0.272 OA
ATOM      7  H1  UNL     1       3.776  -0.285  -1.569  1.00  0.00     0.163 HD
BRANCH   5   8
HETATM    8  C5  UNL     1       1.517  -0.375  -0.061  1.00  0.00     0.201 C 
HETATM    9 BR1  UNL     1       2.363  -2.021   0.491  1.00  0.00    -0.074 Br
BRANCH   8  10
HETATM   10  C6  UNL     1       0.085  -0.338   0.331  1.00  0.00     0.058 C 
HETATM   11  C7  UNL     1      -0.508  -1.319   0.974  1.00  0.00     0.233 C 
BRANCH  11  12
HETATM   12  N2  UNL     1      -1.847  -1.350   1.372  1.00  0.00    -0.034 N 
HETATM   13  C8  UNL     1      -2.719  -0.928   0.285  1.00  0.00     0.284 C 
HETATM   14  C9  UNL     1      -2.133  -0.525   2.523  1.00  0.00     0.284 C 
BRANCH  12  15
HETATM   15  C10 UNL     1      -2.204  -2.720   1.670  1.00  0.00     0.197 C 
HETATM   16  C11 UNL     1      -2.387  -3.566   0.669  1.00  0.00     0.038 C 
ENDBRANCH  12  15
ENDBRANCH  11  12
BRANCH  10  17
HETATM   17  N3  UNL     1      -0.646   0.822  -0.020  1.00  0.00    -0.342 N 
ATOM     18  H3  UNL     1      -1.305   0.743  -0.795  1.00  0.00     0.167 HD
BRANCH  17  19
HETATM   19  C12 UNL     1      -0.549   1.954   0.551  1.00  0.00     0.122 A 
HETATM   20  C13 UNL     1      -1.267   3.076   0.198  1.00  0.00     0.088 A 
HETATM   21  C14 UNL     1      -0.900   4.129   1.044  1.00  0.00     0.098 A 
HETATM   22 BR2  UNL     1      -1.583   5.910   1.001  1.00  0.00    -0.030 Br
HETATM   23  N4  UNL     1       0.023   3.606   1.874  1.00  0.00    -0.292 N 
HETATM   24  N5  UNL     1       0.226   2.330   1.581  1.00  0.00    -0.284 N 
ATOM     25  H4  UNL     1       0.496   4.117   2.619  1.00  0.00     0.187 HD
ATOM     26  H5  UNL     1       0.880   1.718   2.070  1.00  0.00     0.188 HD
ENDBRANCH  17  19
ENDBRANCH  10  17
ENDBRANCH   8  10
ENDBRANCH   5   8
ENDBRANCH   3   4
TORSDOF 7
