REMARK  7 active torsions:
REMARK  status: ('A' for Active; 'I' for Inactive)
REMARK    1  A    between atoms: C2_2  and  N1_3 
REMARK    2  A    between atoms: C2_2  and  C3_7 
REMARK    3  A    between atoms: C3_7  and  N2_8 
REMARK    4  A    between atoms: N3_13  and  C7_14 
REMARK    5  A    between atoms: C7_14  and  O1_15 
REMARK    6  A    between atoms: C7_14  and  C8_17 
REMARK    7  A    between atoms: C11_20  and  C12_21 
ROOT
HETATM    1  N2  UNL     1       1.474  -0.687  -0.050  1.00  0.00    -0.344 N 
HETATM    2  C4  UNL     1       0.709  -0.394   0.990  1.00  0.00    -0.068 C 
HETATM    3  C5  UNL     1      -0.120   0.013   2.062  1.00  0.00     0.164 C 
HETATM    4  C6  UNL     1      -1.073   1.110   1.409  1.00  0.00     0.289 C 
HETATM    5  F1  UNL     1      -2.209   1.225   2.025  1.00  0.00    -0.225 F 
HETATM    6  N3  UNL     1      -1.025   0.907  -0.042  1.00  0.00    -0.295 N 
HETATM    7  C11 UNL     1       0.057   1.125  -0.965  1.00  0.00     0.100 C 
HETATM    8  C13 UNL     1       0.998   0.024  -1.267  1.00  0.00     0.194 C 
ENDROOT
BRANCH   1   9
HETATM    9  C3  UNL     1       2.525  -1.532  -0.154  1.00  0.00     0.164 C 
BRANCH   9  10
HETATM   10  C2  UNL     1       3.719  -1.001   0.651  1.00  0.00     0.198 C 
HETATM   11  C1  UNL     1       4.900  -1.943   0.538  1.00  0.00     0.041 C 
BRANCH  10  12
HETATM   12  N1  UNL     1       4.144   0.270   0.095  1.00  0.00    -0.074 N 
ATOM     13  H13 UNL     1       4.993   0.635   0.528  1.00  0.00     0.274 HD
ATOM     14  H12 UNL     1       4.507   0.192  -0.855  1.00  0.00     0.274 HD
ATOM     15  H11 UNL     1       3.349   0.904   0.171  1.00  0.00     0.274 HD
ENDBRANCH  10  12
ENDBRANCH   9  10
ENDBRANCH   1   9
BRANCH   7  16
HETATM   16  C12 UNL     1      -0.270   1.869  -2.171  1.00  0.00     0.279 C 
HETATM   17  N4  UNL     1      -1.342   2.768  -2.390  1.00  0.00    -0.056 NA
HETATM   18  O2  UNL     1       0.509   1.708  -3.180  1.00  0.00    -0.270 OA
ENDBRANCH   7  16
BRANCH   6  19
HETATM   19  C7  UNL     1      -2.196   0.385  -0.582  1.00  0.00     0.123 C 
BRANCH  19  20
HETATM   20  O1  UNL     1      -2.131   0.141  -1.870  1.00  0.00    -0.349 OA
ATOM     21  H1  UNL     1      -2.931  -0.215  -2.239  1.00  0.00     0.219 HD
ENDBRANCH  19  20
BRANCH  19  22
HETATM   22  C8  UNL     1      -3.494   0.041  -0.031  1.00  0.00     0.052 C 
HETATM   23  C9  UNL     1      -3.587  -1.179   0.810  1.00  0.00     0.018 C 
HETATM   24  C10 UNL     1      -4.535  -0.177  -1.171  1.00  0.00     0.018 C 
ENDBRANCH  19  22
ENDBRANCH   6  19
TORSDOF 7
