REMARK  4 active torsions:
REMARK  status: ('A' for Active; 'I' for Inactive)
REMARK    1  A    between atoms: C2_2  and  C3_4 
REMARK       I    between atoms: C3_4  and  N1_6 
REMARK    2  A    between atoms: N1_6  and  N2_8 
REMARK    3  A    between atoms: C4_10  and  C5_11 
REMARK    4  A    between atoms: C4_10  and  C6_14 
ROOT
HETATM    1  N2  UNL     1       0.528  -0.277   0.378  1.00  0.00    -0.297 N 
ATOM      2  H2  UNL     1       0.253  -1.259   0.353  1.00  0.00     0.187 HD
HETATM    3  C4  UNL     1      -0.418   0.575   0.550  1.00  0.00     0.094 C 
ENDROOT
BRANCH   1   4
HETATM    4  N1  UNL     1       1.870  -0.014   0.224  1.00  0.00    -0.269 N 
HETATM    5  C3  UNL     1       2.617  -0.473  -0.896  1.00  0.00     0.250 C 
HETATM    6  O1  UNL     1       1.998  -1.142  -1.763  1.00  0.00    -0.271 OA
ATOM      7  H1  UNL     1       2.348   0.532   0.941  1.00  0.00     0.190 HD
BRANCH   5   8
HETATM    8  C2  UNL     1       4.064  -0.186  -1.052  1.00  0.00     0.147 C 
HETATM    9  C1  UNL     1       4.874  -0.748   0.120  1.00  0.00     0.032 C 
HETATM   10 BR1  UNL     1       4.269   1.734  -1.140  1.00  0.00    -0.082 Br
ENDBRANCH   5   8
ENDBRANCH   1   4
BRANCH   3  11
HETATM   11  C5  UNL     1      -0.233   2.007   0.614  1.00  0.00     0.279 C 
HETATM   12  N3  UNL     1      -1.326   2.885   0.806  1.00  0.00    -0.056 NA
HETATM   13  O2  UNL     1       0.930   2.479   0.495  1.00  0.00    -0.270 OA
ENDBRANCH   3  11
BRANCH   3  14
HETATM   14  C6  UNL     1      -1.803   0.033   0.692  1.00  0.00     0.042 C 
HETATM   15  C7  UNL     1      -1.813  -1.478   0.601  1.00  0.00     0.011 C 
HETATM   16  C8  UNL     1      -3.230  -1.725   0.078  1.00  0.00     0.001 C 
HETATM   17  C9  UNL     1      -3.284  -0.736  -1.070  1.00  0.00     0.001 C 
HETATM   18  C10 UNL     1      -2.691   0.506  -0.444  1.00  0.00     0.011 C 
ENDBRANCH   3  14
TORSDOF 4
