REMARK  3 active torsions:
REMARK  status: ('A' for Active; 'I' for Inactive)
REMARK    1  A    between atoms: C2_2  and  C3_3 
REMARK    2  A    between atoms: C3_3  and  N1_4 
REMARK    3  A    between atoms: N1_4  and  C4_6 
ROOT
HETATM    1  C4  UNL     1       0.420  -0.879  -0.345  1.00  0.00     0.088 C 
HETATM    2  C5  UNL     1       1.143   0.081  -1.205  1.00  0.00     0.041 C 
HETATM    3  C6  UNL     1       2.617  -0.342  -1.330  1.00  0.00     0.041 C 
HETATM    4  C7  UNL     1       3.146   0.008   0.034  1.00  0.00     0.187 C 
HETATM    5  C8  UNL     1       2.371  -0.677   1.153  1.00  0.00     0.041 C 
HETATM    6  C9  UNL     1       0.974  -0.128   0.863  1.00  0.00     0.041 C 
HETATM    7  C10 UNL     1       1.193   1.043  -0.050  1.00  0.00     0.198 C 
HETATM    8  N2  UNL     1       2.605   1.373   0.171  1.00  0.00    -0.066 N 
ATOM      9  H21 UNL     1       3.010   2.091  -0.430  1.00  0.00     0.278 HD
ATOM     10  H22 UNL     1       2.832   1.874   1.030  1.00  0.00     0.278 HD
ENDROOT
BRANCH   1  11
HETATM   11  N1  UNL     1      -0.973  -0.952  -0.310  1.00  0.00    -0.416 N 
ATOM     12  H1  UNL     1      -1.441  -1.809  -0.603  1.00  0.00     0.153 HD
BRANCH  11  13
HETATM   13  C3  UNL     1      -1.740   0.148   0.127  1.00  0.00     0.113 C 
BRANCH  13  14
HETATM   14  C2  UNL     1      -3.207  -0.307   0.032  1.00  0.00     0.015 C 
HETATM   15  C1  UNL     1      -4.151   0.772   0.470  1.00  0.00     0.006 C 
ENDBRANCH  13  14
ENDBRANCH  11  13
ENDBRANCH   1  11
TORSDOF 3
