REMARK  4 active torsions:
REMARK  status: ('A' for Active; 'I' for Inactive)
REMARK    1  A    between atoms: C2_2  and  N1_3 
REMARK    2  A    between atoms: N1_3  and  N2_5 
REMARK    3  A    between atoms: C3_7  and  C4_8 
REMARK    4  A    between atoms: C4_8  and  N3_9 
ROOT
HETATM    1  N2  UNL     1       2.244  -1.462   0.612  1.00  0.00    -0.319 N 
ATOM      2  H2  UNL     1       2.709  -2.073   1.283  1.00  0.00     0.185 HD
HETATM    3  C3  UNL     1       1.099  -1.016   0.950  1.00  0.00     0.100 C 
ENDROOT
BRANCH   3   4
HETATM    4  C4  UNL     1       0.333  -0.127   0.067  1.00  0.00     0.172 C 
BRANCH   4   5
HETATM    5  N3  UNL     1      -0.997   0.057   0.524  1.00  0.00    -0.369 N 
HETATM    6  C5  UNL     1      -1.870  -1.049   0.473  1.00  0.00     0.063 C 
HETATM    7  C6  UNL     1      -3.330  -0.691   0.536  1.00  0.00     0.045 C 
HETATM    8  C7  UNL     1      -3.702   0.431  -0.378  1.00  0.00     0.010 C 
HETATM    9  C8  UNL     1      -2.706   1.564  -0.403  1.00  0.00     0.045 C 
HETATM   10  C9  UNL     1      -1.546   1.344   0.529  1.00  0.00     0.063 C 
ENDBRANCH   4   5
ENDBRANCH   3   4
BRANCH   1  11
HETATM   11  N1  UNL     1       2.929  -1.208  -0.569  1.00  0.00    -0.337 N 
ATOM     12  H1  UNL     1       2.499  -1.385  -1.477  1.00  0.00     0.180 HD
BRANCH  11  13
HETATM   13  C2  UNL     1       4.288  -0.678  -0.467  1.00  0.00     0.135 C 
HETATM   14  C1  UNL     1       4.251   0.651   0.257  1.00  0.00     0.028 C 
ENDBRANCH  11  13
ENDBRANCH   1  11
TORSDOF 4
