REMARK  3 active torsions:
REMARK  status: ('A' for Active; 'I' for Inactive)
REMARK    1  A    between atoms: C3_3  and  N1_4 
REMARK    2  A    between atoms: N1_4  and  C4_7 
REMARK    3  A    between atoms: C4_7  and  C5_8 
ROOT
HETATM    1  C1  UNL     1      -4.504   0.739  -0.468  1.00  0.00     0.013 C 
HETATM    2  C2  UNL     1      -3.774  -0.124  -0.019  1.00  0.00    -0.090 C 
HETATM    3  C3  UNL     1      -2.899  -1.167   0.471  1.00  0.00     0.324 C 
ENDROOT
BRANCH   3   4
HETATM    4  N1  UNL     1      -1.582  -0.666   0.808  1.00  0.00    -0.064 N 
ATOM      5  H12 UNL     1      -1.609   0.060   1.524  1.00  0.00     0.278 HD
ATOM      6  H11 UNL     1      -1.023  -1.347   1.322  1.00  0.00     0.278 HD
BRANCH   4   7
HETATM    7  C4  UNL     1      -0.939  -0.223  -0.410  1.00  0.00     0.244 C 
BRANCH   7   8
HETATM    8  C5  UNL     1       0.504   0.018  -0.234  1.00  0.00     0.009 C 
HETATM    9  C6  UNL     1       0.899   0.998   0.820  1.00  0.00     0.015 C 
HETATM   10  C7  UNL     1       2.368   0.642   1.086  1.00  0.00     0.034 C 
HETATM   11  C8  UNL     1       2.697  -0.402   0.041  1.00  0.00     0.186 C 
HETATM   12  C9  UNL     1       1.359  -1.181   0.064  1.00  0.00     0.046 C 
HETATM   13  N2  UNL     1       2.600   0.248  -1.251  1.00  0.00    -0.070 N 
HETATM   14  C10 UNL     1       1.191   0.502  -1.507  1.00  0.00     0.243 C 
ATOM     15  H22 UNL     1       3.174   1.088  -1.318  1.00  0.00     0.277 HD
ATOM     16  H21 UNL     1       3.051  -0.281  -1.997  1.00  0.00     0.277 HD
ENDBRANCH   7   8
ENDBRANCH   4   7
ENDBRANCH   3   4
TORSDOF 3
