REMARK  3 active torsions:
REMARK  status: ('A' for Active; 'I' for Inactive)
REMARK    1  A    between atoms: C2_2  and  C3_3 
REMARK    2  A    between atoms: C3_3  and  C4_4 
REMARK    3  A    between atoms: C4_4  and  C5_5 
ROOT
HETATM    1  C5  UNL     1       0.232  -0.217  -0.003  1.00  0.00     0.192 C 
HETATM    2  N1  UNL     1      -0.086  -0.669  -1.349  1.00  0.00    -0.070 N 
ATOM      3  H11 UNL     1       0.012  -1.671  -1.515  1.00  0.00     0.277 HD
ATOM      4  H12 UNL     1       0.577  -0.399  -2.076  1.00  0.00     0.277 HD
HETATM    5  C6  UNL     1      -1.441  -0.129  -1.490  1.00  0.00     0.239 C 
HETATM    6  C7  UNL     1      -2.097  -0.669  -0.257  1.00  0.00     0.044 C 
HETATM    7  C8  UNL     1      -3.298   0.098   0.185  1.00  0.00     0.239 C 
HETATM    8  N2  UNL     1      -2.730   1.294   0.753  1.00  0.00    -0.074 N 
ATOM      9  H21 UNL     1      -3.374   1.781   1.376  1.00  0.00     0.277 HD
ATOM     10  H22 UNL     1      -2.614   2.041   0.069  1.00  0.00     0.277 HD
HETATM   11  C9  UNL     1      -1.501   0.931   1.395  1.00  0.00     0.239 C 
HETATM   12  C10 UNL     1      -1.046  -0.383   0.796  1.00  0.00     0.049 C 
ENDROOT
BRANCH   1  13
HETATM   13  C4  UNL     1       1.375  -0.985   0.594  1.00  0.00     0.037 C 
BRANCH  13  14
HETATM   14  C3  UNL     1       2.576  -0.781  -0.294  1.00  0.00     0.028 C 
BRANCH  14  15
HETATM   15  C2  UNL     1       2.933   0.662  -0.379  1.00  0.00    -0.037 C 
HETATM   16  C1  UNL     1       4.148   1.046   0.037  1.00  0.00     0.007 C 
ENDBRANCH  14  15
ENDBRANCH  13  14
ENDBRANCH   1  13
TORSDOF 3
