REMARK  15 active torsions:
REMARK  status: ('A' for Active; 'I' for Inactive)
REMARK    1  A    between atoms: C2_2  and  C3_3 
REMARK    2  A    between atoms: C3_3  and  C4_4 
REMARK    3  A    between atoms: C4_4  and  C5_5 
REMARK    4  A    between atoms: C5_5  and  C6_6 
REMARK    5  A    between atoms: C6_6  and  C7_7 
REMARK    6  A    between atoms: C7_7  and  C8_8 
REMARK    7  A    between atoms: C12_12  and  C13_13 
REMARK    8  A    between atoms: C14_15  and  O2_16 
REMARK    9  A    between atoms: O2_16  and  C15_17 
REMARK   10  A    between atoms: C16_18  and  O3_19 
REMARK   11  A    between atoms: C18_23  and  O5_24 
REMARK   12  A    between atoms: C19_26  and  O6_27 
REMARK   13  A    between atoms: C20_29  and  O7_30 
REMARK   14  A    between atoms: C21_32  and  O8_33 
REMARK   15  A    between atoms: C22_35  and  O9_36 
ROOT
HETATM    1  C13 UNL     1      -0.695  -1.933  -0.822  1.00  0.00     0.160 C 
HETATM    2  O1  UNL     1      -0.981  -0.640  -1.160  1.00  0.00    -0.350 OA
HETATM    3  C14 UNL     1      -2.343  -0.451  -1.398  1.00  0.00     0.292 C 
HETATM    4  C20 UNL     1      -2.601  -1.122  -2.714  1.00  0.00     0.204 C 
HETATM    5  C21 UNL     1      -2.500  -2.610  -2.459  1.00  0.00     0.183 C 
HETATM    6  C22 UNL     1      -1.596  -2.976  -1.338  1.00  0.00     0.178 C 
ENDROOT
BRANCH   3   7
HETATM    7  O2  UNL     1      -2.741   0.849  -1.310  1.00  0.00    -0.346 OA
BRANCH   7   8
HETATM    8  C15 UNL     1      -3.651   1.148  -0.327  1.00  0.00     0.211 C 
HETATM    9  C16 UNL     1      -4.890   1.681  -1.017  1.00  0.00     0.288 C 
HETATM   10  O4  UNL     1      -4.647   2.976  -1.452  1.00  0.00    -0.356 OA
HETATM   11  C17 UNL     1      -4.631   3.896  -0.409  1.00  0.00     0.205 C 
HETATM   12  C18 UNL     1      -4.111   3.297   0.880  1.00  0.00     0.173 C 
HETATM   13  C19 UNL     1      -3.105   2.197   0.616  1.00  0.00     0.182 C 
BRANCH   9  14
HETATM   14  O3  UNL     1      -6.022   1.568  -0.234  1.00  0.00    -0.369 OA
ATOM     15  H3  UNL     1      -6.799   1.902  -0.667  1.00  0.00     0.212 HD
ENDBRANCH   9  14
BRANCH  12  16
HETATM   16  O5  UNL     1      -3.446   4.279   1.618  1.00  0.00    -0.391 OA
ATOM     17  H5  UNL     1      -3.120   3.903   2.427  1.00  0.00     0.210 HD
ENDBRANCH  12  16
BRANCH  13  18
HETATM   18  O6  UNL     1      -2.775   1.654   1.866  1.00  0.00    -0.390 OA
ATOM     19  H6  UNL     1      -2.432   2.313   2.458  1.00  0.00     0.210 HD
ENDBRANCH  13  18
ENDBRANCH   7   8
ENDBRANCH   3   7
BRANCH   4  20
HETATM   20  O7  UNL     1      -1.525  -0.804  -3.554  1.00  0.00    -0.388 OA
ATOM     21  H7  UNL     1      -1.688  -1.229  -4.388  1.00  0.00     0.210 HD
ENDBRANCH   4  20
BRANCH   1  22
HETATM   22  C12 UNL     1       0.725  -2.262  -1.276  1.00  0.00     0.021 C 
HETATM   23  C8  UNL     1       1.753  -1.385  -0.659  1.00  0.00    -0.008 C 
HETATM   24  C9  UNL     1       3.010  -2.204  -0.819  1.00  0.00     0.005 C 
HETATM   25  C10 UNL     1       2.603  -3.627  -0.544  1.00  0.00     0.001 C 
HETATM   26  C11 UNL     1       1.131  -3.662  -0.874  1.00  0.00     0.007 C 
BRANCH  23  27
HETATM   27  C7  UNL     1       1.470  -1.020   0.768  1.00  0.00     0.005 C 
BRANCH  27  28
HETATM   28  C6  UNL     1       2.539  -0.218   1.417  1.00  0.00     0.000 C 
BRANCH  28  29
HETATM   29  C5  UNL     1       2.797   1.088   0.730  1.00  0.00     0.000 C 
BRANCH  29  30
HETATM   30  C4  UNL     1       3.881   1.885   1.402  1.00  0.00     0.000 C 
BRANCH  30  31
HETATM   31  C3  UNL     1       5.201   1.145   1.428  1.00  0.00    -0.000 C 
BRANCH  31  32
HETATM   32  C2  UNL     1       6.225   2.019   2.118  1.00  0.00    -0.005 C 
HETATM   33  C1  UNL     1       5.853   2.360   3.522  1.00  0.00     0.005 C 
ENDBRANCH  31  32
ENDBRANCH  30  31
ENDBRANCH  29  30
ENDBRANCH  28  29
ENDBRANCH  27  28
ENDBRANCH  23  27
ENDBRANCH   1  22
BRANCH   5  34
HETATM   34  O8  UNL     1      -3.799  -3.086  -2.258  1.00  0.00    -0.390 OA
ATOM     35  H8  UNL     1      -3.736  -4.020  -2.098  1.00  0.00     0.210 HD
ENDBRANCH   5  34
BRANCH   6  36
HETATM   36  O9  UNL     1      -2.417  -3.424  -0.273  1.00  0.00    -0.390 OA
ATOM     37  H9  UNL     1      -2.999  -4.097  -0.606  1.00  0.00     0.210 HD
ENDBRANCH   6  36
TORSDOF 15
