REMARK  16 active torsions:
REMARK  status: ('A' for Active; 'I' for Inactive)
REMARK    1  A    between atoms: C3_3  and  C4_4 
REMARK    2  A    between atoms: C6_6  and  C7_7 
REMARK    3  A    between atoms: C7_7  and  O2_9 
REMARK    4  A    between atoms: O2_9  and  C8_10 
REMARK    5  A    between atoms: C9_11  and  C10_12 
REMARK    6  A    between atoms: C10_12  and  C11_13 
REMARK    7  A    between atoms: C11_13  and  C12_14 
REMARK    8  A    between atoms: C12_14  and  C13_15 
REMARK    9  A    between atoms: C13_15  and  C14_16 
REMARK   10  A    between atoms: C14_16  and  C15_17 
REMARK   11  A    between atoms: C16_19  and  O4_20 
REMARK   12  A    between atoms: C17_22  and  O5_23 
REMARK   13  A    between atoms: C18_25  and  O6_26 
REMARK   14  A    between atoms: C20_29  and  O7_30 
REMARK   15  A    between atoms: C21_32  and  O8_33 
REMARK   16  A    between atoms: C22_35  and  O9_36 
ROOT
HETATM    1  C8  UNL     1      -1.295  -1.176   0.433  1.00  0.00     0.167 C 
HETATM    2  C9  UNL     1      -0.468  -0.967  -0.795  1.00  0.00     0.020 C 
HETATM    3  C19 UNL     1      -1.139  -1.545  -2.022  1.00  0.00     0.041 C 
HETATM    4  C20 UNL     1      -1.626  -2.938  -1.810  1.00  0.00     0.150 C 
HETATM    5  C21 UNL     1      -2.367  -3.156  -0.537  1.00  0.00     0.178 C 
HETATM    6  C22 UNL     1      -1.678  -2.597   0.669  1.00  0.00     0.179 C 
ENDROOT
BRANCH   2   7
HETATM    7  C10 UNL     1       0.937  -1.503  -0.691  1.00  0.00     0.007 C 
BRANCH   7   8
HETATM    8  C11 UNL     1       1.682  -0.836   0.434  1.00  0.00     0.000 C 
BRANCH   8   9
HETATM    9  C12 UNL     1       3.104  -1.383   0.513  1.00  0.00     0.000 C 
BRANCH   9  10
HETATM   10  C13 UNL     1       3.875  -0.742   1.622  1.00  0.00     0.002 C 
BRANCH  10  11
HETATM   11  C14 UNL     1       4.002   0.751   1.478  1.00  0.00     0.035 C 
BRANCH  11  12
HETATM   12  C15 UNL     1       4.701   1.163   0.216  1.00  0.00     0.156 C 
HETATM   13  O3  UNL     1       5.980   0.689   0.097  1.00  0.00    -0.351 OA
HETATM   14  C16 UNL     1       6.834   1.520   0.792  1.00  0.00     0.288 C 
HETATM   15  C17 UNL     1       6.362   2.893   0.351  1.00  0.00     0.204 C 
HETATM   16  C18 UNL     1       4.865   2.667   0.239  1.00  0.00     0.180 C 
BRANCH  14  17
HETATM   17  O4  UNL     1       8.132   1.251   0.382  1.00  0.00    -0.369 OA
ATOM     18  H4  UNL     1       8.720   1.823   0.861  1.00  0.00     0.212 HD
ENDBRANCH  14  17
BRANCH  15  19
HETATM   19  O5  UNL     1       6.872   3.156  -0.912  1.00  0.00    -0.388 OA
ATOM     20  H5  UNL     1       6.576   4.016  -1.188  1.00  0.00     0.210 HD
ENDBRANCH  15  19
BRANCH  16  21
HETATM   21  O6  UNL     1       4.215   3.226   1.360  1.00  0.00    -0.390 OA
ATOM     22  H6  UNL     1       4.318   4.170   1.374  1.00  0.00     0.210 HD
ENDBRANCH  16  21
ENDBRANCH  11  12
ENDBRANCH  10  11
ENDBRANCH   9  10
ENDBRANCH   8   9
ENDBRANCH   7   8
ENDBRANCH   2   7
BRANCH   1  23
HETATM   23  O2  UNL     1      -2.507  -0.415   0.260  1.00  0.00    -0.310 OA
BRANCH  23  24
HETATM   24  C7  UNL     1      -2.794   0.649   1.089  1.00  0.00     0.283 C 
HETATM   25  O1  UNL     1      -1.921   0.891   1.997  1.00  0.00    -0.260 OA
BRANCH  24  26
HETATM   26  C6  UNL     1      -3.973   1.448   0.972  1.00  0.00     0.089 C 
HETATM   27  C4  UNL     1      -4.892   1.248   0.066  1.00  0.00    -0.057 C 
HETATM   28  C5  UNL     1      -4.815   0.168  -0.939  1.00  0.00     0.048 C 
BRANCH  27  29
HETATM   29  C3  UNL     1      -6.047   2.138   0.057  1.00  0.00     0.002 C 
HETATM   30  C2  UNL     1      -7.045   2.055  -0.793  1.00  0.00    -0.030 C 
HETATM   31  C1  UNL     1      -8.145   3.085  -0.622  1.00  0.00     0.036 C 
ENDBRANCH  27  29
ENDBRANCH  24  26
ENDBRANCH  23  24
ENDBRANCH   1  23
BRANCH   6  32
HETATM   32  O9  UNL     1      -2.548  -2.650   1.758  1.00  0.00    -0.390 OA
ATOM     33  H9  UNL     1      -2.792  -3.556   1.908  1.00  0.00     0.210 HD
ENDBRANCH   6  32
BRANCH   4  34
HETATM   34  O7  UNL     1      -0.602  -3.863  -1.991  1.00  0.00    -0.393 OA
ATOM     35  H7  UNL     1      -0.912  -4.751  -1.856  1.00  0.00     0.210 HD
ENDBRANCH   4  34
BRANCH   5  36
HETATM   36  O8  UNL     1      -2.506  -4.544  -0.376  1.00  0.00    -0.390 OA
ATOM     37  H8  UNL     1      -2.979  -4.683   0.436  1.00  0.00     0.210 HD
ENDBRANCH   5  36
TORSDOF 16
