REMARK  15 active torsions:
REMARK  status: ('A' for Active; 'I' for Inactive)
REMARK    1  A    between atoms: C2_2  and  C4_4 
REMARK    2  A    between atoms: C4_4  and  C5_5 
REMARK    3  A    between atoms: C5_5  and  C6_6 
REMARK    4  A    between atoms: C6_6  and  C7_7 
REMARK    5  A    between atoms: C9_9  and  C10_10 
REMARK    6  A    between atoms: C10_10  and  C11_11 
REMARK    7  A    between atoms: C12_12  and  O1_13 
REMARK    8  A    between atoms: C15_18  and  O3_19 
REMARK    9  A    between atoms: C16_21  and  O4_22 
REMARK   10  A    between atoms: O4_22  and  C17_23 
REMARK   11  A    between atoms: C18_25  and  C19_26 
REMARK   12  A    between atoms: C19_26  and  O6_27 
REMARK   13  A    between atoms: C20_29  and  O7_30 
REMARK   14  A    between atoms: C21_32  and  O8_33 
REMARK   15  A    between atoms: C22_35  and  O9_36 
ROOT
HETATM    1  C11 UNL     1      -0.018  -0.986  -2.170  1.00  0.00     0.076 C 
HETATM    2  C12 UNL     1      -0.116  -1.622  -3.550  1.00  0.00     0.264 C 
HETATM    3  O2  UNL     1      -0.440  -2.934  -3.353  1.00  0.00    -0.353 OA
HETATM    4  C13 UNL     1      -1.757  -3.060  -3.007  1.00  0.00     0.151 C 
HETATM    5  C14 UNL     1      -1.904  -4.467  -2.408  1.00  0.00     0.042 C 
HETATM    6  C15 UNL     1      -2.324  -2.020  -2.114  1.00  0.00     0.176 C 
HETATM    7  C16 UNL     1      -1.327  -1.137  -1.418  1.00  0.00     0.165 C 
ENDROOT
BRANCH   7   8
HETATM    8  O4  UNL     1      -1.829   0.139  -1.207  1.00  0.00    -0.350 OA
BRANCH   8   9
HETATM    9  C17 UNL     1      -1.935   0.510   0.120  1.00  0.00     0.292 C 
HETATM   10  O5  UNL     1      -3.301   0.627   0.387  1.00  0.00    -0.348 OA
HETATM   11  C18 UNL     1      -3.881   1.679  -0.315  1.00  0.00     0.179 C 
HETATM   12  C20 UNL     1      -3.201   2.996  -0.001  1.00  0.00     0.180 C 
HETATM   13  C21 UNL     1      -2.157   2.724   1.086  1.00  0.00     0.183 C 
HETATM   14  C22 UNL     1      -1.167   1.754   0.482  1.00  0.00     0.204 C 
BRANCH  11  15
HETATM   15  C19 UNL     1      -5.315   1.798   0.151  1.00  0.00     0.198 C 
BRANCH  15  16
HETATM   16  O6  UNL     1      -5.944   2.833  -0.521  1.00  0.00    -0.398 OA
ATOM     17  H6  UNL     1      -6.845   2.908  -0.228  1.00  0.00     0.209 HD
ENDBRANCH  15  16
ENDBRANCH  11  15
BRANCH  12  18
HETATM   18  O7  UNL     1      -4.079   3.987   0.384  1.00  0.00    -0.390 OA
ATOM     19  H7  UNL     1      -3.653   4.813   0.581  1.00  0.00     0.210 HD
ENDBRANCH  12  18
BRANCH  13  20
HETATM   20  O8  UNL     1      -2.835   2.136   2.152  1.00  0.00    -0.390 OA
ATOM     21  H8  UNL     1      -2.187   1.967   2.826  1.00  0.00     0.210 HD
ENDBRANCH  13  20
BRANCH  14  22
HETATM   22  O9  UNL     1      -0.212   1.510   1.468  1.00  0.00    -0.388 OA
ATOM     23  H9  UNL     1       0.272   2.295   1.696  1.00  0.00     0.210 HD
ENDBRANCH  14  22
ENDBRANCH   8   9
ENDBRANCH   7   8
BRANCH   1  24
HETATM   24  C10 UNL     1       1.094  -1.788  -1.482  1.00  0.00     0.039 C 
BRANCH  24  25
HETATM   25  C9  UNL     1       1.388  -1.351  -0.123  1.00  0.00    -0.024 C 
HETATM   26  C7  UNL     1       2.604  -0.943   0.202  1.00  0.00    -0.087 C 
HETATM   27  C8  UNL     1       3.686  -0.927  -0.821  1.00  0.00     0.043 C 
BRANCH  26  28
HETATM   28  C6  UNL     1       2.983  -0.478   1.580  1.00  0.00     0.034 C 
BRANCH  28  29
HETATM   29  C5  UNL     1       3.479   0.925   1.567  1.00  0.00     0.009 C 
BRANCH  29  30
HETATM   30  C4  UNL     1       3.858   1.535   2.858  1.00  0.00     0.033 C 
BRANCH  30  31
HETATM   31  C2  UNL     1       4.933   0.900   3.628  1.00  0.00    -0.093 C 
HETATM   32  C1  UNL     1       6.101   1.539   3.849  1.00  0.00     0.014 C 
HETATM   33  C3  UNL     1       4.831  -0.464   4.257  1.00  0.00     0.042 C 
ENDBRANCH  30  31
ENDBRANCH  29  30
ENDBRANCH  28  29
ENDBRANCH  26  28
ENDBRANCH  24  25
ENDBRANCH   1  24
BRANCH   6  34
HETATM   34  O3  UNL     1      -3.254  -1.257  -2.861  1.00  0.00    -0.390 OA
ATOM     35  H3  UNL     1      -3.617  -0.591  -2.289  1.00  0.00     0.210 HD
ENDBRANCH   6  34
BRANCH   2  36
HETATM   36  O1  UNL     1      -0.875  -0.919  -4.442  1.00  0.00    -0.371 OA
ATOM     37  H1  UNL     1      -0.936  -1.316  -5.303  1.00  0.00     0.212 HD
ENDBRANCH   2  36
TORSDOF 15
