REMARK  17 active torsions:
REMARK  status: ('A' for Active; 'I' for Inactive)
REMARK    1  A    between atoms: C2_2  and  C3_3 
REMARK    2  A    between atoms: C3_3  and  C4_4 
REMARK    3  A    between atoms: C4_4  and  N1_5 
REMARK    4  A    between atoms: N1_5  and  C5_7 
REMARK    5  A    between atoms: C5_7  and  C6_8 
REMARK    6  A    between atoms: C6_8  and  C7_9 
REMARK    7  A    between atoms: C7_9  and  N2_10 
REMARK       I    between atoms: N2_10  and  C8_12 
REMARK       I    between atoms: C8_12  and  N3_14 
REMARK    8  A    between atoms: N3_14  and  C9_16 
REMARK    9  A    between atoms: C10_17  and  N4_18 
REMARK       I    between atoms: N4_18  and  C11_20 
REMARK   10  A    between atoms: C11_20  and  C12_22 
REMARK   11  A    between atoms: C12_22  and  N5_23 
REMARK   12  A    between atoms: N5_23  and  C13_24 
REMARK   13  A    between atoms: C13_24  and  C14_25 
REMARK   14  A    between atoms: C14_25  and  C15_26 
REMARK   15  A    between atoms: C15_26  and  N6_27 
REMARK   16  A    between atoms: N6_27  and  C16_29 
REMARK   17  A    between atoms: N8_37  and  C22_39 
ROOT
HETATM    1  C9  UNL     1       0.002  -1.579  -0.507  1.00  0.00     0.315 C 
HETATM    2  C10 UNL     1       1.373  -1.201  -0.969  1.00  0.00     0.136 C 
HETATM    3  C19 UNL     1       1.914  -2.535  -1.484  1.00  0.00     0.057 C 
HETATM    4  C20 UNL     1       1.319  -3.481  -0.434  1.00  0.00     0.242 C 
HETATM    5  N8  UNL     1      -0.034  -3.028  -0.317  1.00  0.00    -0.048 N 
HETATM    6  C21 UNL     1      -0.816  -3.683  -1.361  1.00  0.00     0.275 C 
ENDROOT
BRANCH   2   7
HETATM    7  N4  UNL     1       2.222  -0.834   0.142  1.00  0.00    -0.351 N 
HETATM    8  C11 UNL     1       3.068   0.298   0.070  1.00  0.00     0.244 C 
HETATM    9  O2  UNL     1       3.070   0.975  -0.981  1.00  0.00    -0.272 OA
ATOM     10  H4  UNL     1       2.211  -1.400   0.991  1.00  0.00     0.163 HD
BRANCH   8  11
HETATM   11  C12 UNL     1       3.930   0.683   1.188  1.00  0.00     0.339 C 
BRANCH  11  12
HETATM   12  N5  UNL     1       4.730   1.876   0.878  1.00  0.00    -0.056 N 
HETATM   13  C17 UNL     1       4.056   3.070   0.466  1.00  0.00     0.266 A 
HETATM   14  C18 UNL     1       4.648   2.998   1.800  1.00  0.00     0.266 A 
BRANCH  12  15
HETATM   15  C13 UNL     1       6.028   1.547   0.349  1.00  0.00     0.239 C 
BRANCH  15  16
HETATM   16  C14 UNL     1       6.551   2.569  -0.634  1.00  0.00     0.047 C 
BRANCH  16  17
HETATM   17  C15 UNL     1       7.909   2.186  -1.169  1.00  0.00     0.122 C 
BRANCH  17  18
HETATM   18  N6  UNL     1       8.899   2.063  -0.146  1.00  0.00    -0.386 N 
ATOM     19  H6  UNL     1       8.622   2.237   0.820  1.00  0.00     0.160 HD
BRANCH  18  20
HETATM   20  C16 UNL     1      10.251   1.710  -0.408  1.00  0.00     0.168 C 
HETATM   21  N7  UNL     1      10.878   0.819   0.305  1.00  0.00    -0.396 N 
ATOM     22  H72 UNL     1      10.371   0.372   1.069  1.00  0.00     0.156 HD
ATOM     23  H71 UNL     1      11.848   0.566   0.117  1.00  0.00     0.156 HD
ENDBRANCH  18  20
ENDBRANCH  17  18
ENDBRANCH  16  17
ENDBRANCH  15  16
ENDBRANCH  12  15
ENDBRANCH  11  12
ENDBRANCH   8  11
ENDBRANCH   2   7
BRANCH   1  24
HETATM   24  N3  UNL     1      -1.049  -1.193  -1.451  1.00  0.00    -0.313 N 
HETATM   25  C8  UNL     1      -2.228  -0.513  -0.965  1.00  0.00     0.317 C 
HETATM   26  N2  UNL     1      -3.252  -0.138  -1.850  1.00  0.00    -0.343 N 
HETATM   27  O1  UNL     1      -2.311  -0.269   0.282  1.00  0.00    -0.247 OA
ATOM     28  H2  UNL     1      -3.151  -0.350  -2.843  1.00  0.00     0.164 HD
ATOM     29  H3  UNL     1      -0.950  -1.403  -2.444  1.00  0.00     0.166 HD
BRANCH  26  30
HETATM   30  C7  UNL     1      -4.468   0.552  -1.386  1.00  0.00     0.129 C 
BRANCH  30  31
HETATM   31  C6  UNL     1      -4.183   1.883  -0.785  1.00  0.00     0.064 C 
BRANCH  31  32
HETATM   32  C5  UNL     1      -5.315   2.720  -0.332  1.00  0.00     0.057 C 
BRANCH  32  33
HETATM   33  N1  UNL     1      -6.194   2.264   0.640  1.00  0.00    -0.402 N 
ATOM     34  H1  UNL     1      -6.123   2.658   1.578  1.00  0.00     0.158 HD
BRANCH  33  35
HETATM   35  C4  UNL     1      -7.172   1.293   0.402  1.00  0.00     0.118 C 
BRANCH  35  36
HETATM   36  C3  UNL     1      -7.911   0.941   1.708  1.00  0.00     0.019 C 
BRANCH  36  37
HETATM   37  C2  UNL     1      -8.940  -0.105   1.436  1.00  0.00    -0.003 C 
HETATM   38  C1  UNL     1      -9.935   0.409   0.428  1.00  0.00     0.005 C 
ENDBRANCH  36  37
ENDBRANCH  35  36
ENDBRANCH  33  35
ENDBRANCH  32  33
ENDBRANCH  31  32
ENDBRANCH  30  31
ENDBRANCH  26  30
ENDBRANCH   1  24
BRANCH   5  39
HETATM   39  C22 UNL     1      -0.673  -3.315   0.931  1.00  0.00     0.235 C 
HETATM   40  C23 UNL     1      -0.269  -4.587   1.590  1.00  0.00     0.035 C 
ENDBRANCH   5  39
TORSDOF 17
