REMARK  19 active torsions:
REMARK  status: ('A' for Active; 'I' for Inactive)
REMARK    1  A    between atoms: C2_2  and  C3_3 
REMARK    2  A    between atoms: C3_3  and  N1_4 
REMARK       I    between atoms: C4_6  and  N2_7 
REMARK       I    between atoms: C4_6  and  N5_12 
REMARK    3  A    between atoms: N5_12  and  C6_14 
REMARK    4  A    between atoms: C6_14  and  C7_15 
REMARK    5  A    between atoms: C7_15  and  C8_16 
REMARK    6  A    between atoms: C8_16  and  C9_17 
REMARK    7  A    between atoms: C9_17  and  N6_18 
REMARK    8  A    between atoms: N6_18  and  C10_19 
REMARK    9  A    between atoms: C10_19  and  C11_20 
REMARK   10  A    between atoms: C11_20  and  N7_21 
REMARK   11  A    between atoms: N7_21  and  C12_23 
REMARK   12  A    between atoms: C12_23  and  C13_25 
REMARK   13  A    between atoms: C13_25  and  N8_26 
REMARK   14  A    between atoms: N8_26  and  C14_29 
REMARK   15  A    between atoms: C14_29  and  C15_30 
REMARK   16  A    between atoms: C15_30  and  C16_31 
REMARK   17  A    between atoms: C16_31  and  C17_32 
REMARK   18  A    between atoms: C17_32  and  C18_33 
REMARK   19  A    between atoms: C18_33  and  N9_34 
ROOT
HETATM    1  N6  UNL     1       0.026   2.913  -0.001  1.00  0.00    -0.066 N 
HETATM    2  C19 UNL     1       0.001   3.190   1.391  1.00  0.00     0.237 C 
HETATM    3  C20 UNL     1      -0.551   4.550   1.640  1.00  0.00     0.029 C 
HETATM    4  C21 UNL     1      -0.444   5.227   0.313  1.00  0.00     0.029 C 
HETATM    5  C22 UNL     1       0.252   4.250  -0.587  1.00  0.00     0.237 C 
ENDROOT
BRANCH   1   6
HETATM    6  C9  UNL     1      -1.158   2.406  -0.576  1.00  0.00     0.237 C 
BRANCH   6   7
HETATM    7  C8  UNL     1      -2.071   1.651   0.337  1.00  0.00     0.029 C 
BRANCH   7   8
HETATM    8  C7  UNL     1      -3.268   1.203  -0.482  1.00  0.00     0.022 C 
BRANCH   8   9
HETATM    9  C6  UNL     1      -4.257   0.427   0.334  1.00  0.00     0.138 C 
BRANCH   9  10
HETATM   10  N5  UNL     1      -5.357   0.038  -0.507  1.00  0.00    -0.226 N 
HETATM   11  C4  UNL     1      -6.467  -0.716  -0.024  1.00  0.00     0.676 C 
HETATM   12  N1  UNL     1      -7.626  -0.165  -0.049  1.00  0.00    -0.226 N 
HETATM   13  N2  UNL     1      -6.348  -2.025   0.476  1.00  0.00    -0.166 N 
ATOM     14  H1  UNL     1      -7.685   0.785  -0.416  1.00  0.00     0.177 HD
HETATM   15  C5  UNL     1      -5.958  -3.050  -0.186  1.00  0.00     0.215 C 
ATOM     16  H2  UNL     1      -6.595  -2.172   1.455  1.00  0.00     0.186 HD
HETATM   17  N3  UNL     1      -5.900  -4.303   0.492  1.00  0.00    -0.066 NA
HETATM   18  N4  UNL     1      -5.582  -3.016  -1.547  1.00  0.00    -0.066 NA
ATOM     19  H5  UNL     1      -5.343   0.313  -1.489  1.00  0.00     0.177 HD
BRANCH  12  20
HETATM   20  C3  UNL     1      -8.840  -0.772   0.395  1.00  0.00     0.137 C 
BRANCH  20  21
HETATM   21  C2  UNL     1      -9.803  -1.038  -0.753  1.00  0.00     0.016 C 
HETATM   22  C1  UNL     1     -11.077  -1.680  -0.259  1.00  0.00     0.006 C 
ENDBRANCH  20  21
ENDBRANCH  12  20
ENDBRANCH   9  10
ENDBRANCH   8   9
ENDBRANCH   7   8
ENDBRANCH   6   7
ENDBRANCH   1   6
BRANCH   1  23
HETATM   23  C10 UNL     1       1.246   2.183  -0.388  1.00  0.00     0.257 C 
BRANCH  23  24
HETATM   24  C11 UNL     1       1.302   0.809   0.160  1.00  0.00     0.148 C 
BRANCH  24  25
HETATM   25  N7  UNL     1       2.526   0.160  -0.262  1.00  0.00    -0.381 N 
ATOM     26  H7  UNL     1       2.439  -0.597  -0.940  1.00  0.00     0.160 HD
BRANCH  25  27
HETATM   27  C12 UNL     1       3.821   0.476   0.176  1.00  0.00     0.099 C 
HETATM   28  S1  UNL     1       4.007   1.663   1.295  1.00  0.00    -0.064 SA
BRANCH  27  29
HETATM   29  C13 UNL     1       5.000  -0.261  -0.347  1.00  0.00     0.301 C 
BRANCH  29  30
HETATM   30  N8  UNL     1       4.933  -1.668  -0.053  1.00  0.00    -0.069 N 
ATOM     31  H82 UNL     1       4.819  -1.824   0.949  1.00  0.00     0.277 HD
ATOM     32  H81 UNL     1       4.055  -2.066  -0.386  1.00  0.00     0.277 HD
BRANCH  30  33
HETATM   33  C14 UNL     1       6.049  -2.406  -0.558  1.00  0.00     0.232 C 
BRANCH  33  34
HETATM   34  C15 UNL     1       7.360  -2.092   0.127  1.00  0.00     0.027 C 
BRANCH  34  35
HETATM   35  C16 UNL     1       8.482  -2.908  -0.462  1.00  0.00     0.003 C 
BRANCH  35  36
HETATM   36  C17 UNL     1       9.814  -2.633   0.184  1.00  0.00     0.027 C 
BRANCH  36  37
HETATM   37  C18 UNL     1      10.257  -1.204   0.059  1.00  0.00     0.229 C 
BRANCH  37  38
HETATM   38  N9  UNL     1      11.546  -1.050   0.711  1.00  0.00    -0.079 N 
ATOM     39  H93 UNL     1      11.532  -1.369   1.680  1.00  0.00     0.274 HD
ATOM     40  H92 UNL     1      12.242  -1.705   0.355  1.00  0.00     0.274 HD
ATOM     41  H91 UNL     1      11.847  -0.079   0.626  1.00  0.00     0.274 HD
ENDBRANCH  37  38
ENDBRANCH  36  37
ENDBRANCH  35  36
ENDBRANCH  34  35
ENDBRANCH  33  34
ENDBRANCH  30  33
ENDBRANCH  29  30
ENDBRANCH  27  29
ENDBRANCH  25  27
ENDBRANCH  24  25
ENDBRANCH  23  24
ENDBRANCH   1  23
TORSDOF 19
