REMARK  18 active torsions:
REMARK  status: ('A' for Active; 'I' for Inactive)
REMARK    1  A    between atoms: C4_4  and  C5_5 
REMARK    2  A    between atoms: C5_5  and  N1_6 
REMARK       I    between atoms: N1_6  and  C6_8 
REMARK       I    between atoms: C6_8  and  N2_10 
REMARK    3  A    between atoms: N2_10  and  C7_12 
REMARK    4  A    between atoms: C7_12  and  C8_13 
REMARK    5  A    between atoms: C8_13  and  C9_14 
REMARK    6  A    between atoms: C9_14  and  N3_15 
REMARK    7  A    between atoms: N3_15  and  C12_18 
REMARK    8  A    between atoms: C12_18  and  C13_19 
REMARK       I    between atoms: C13_19  and  N4_21 
REMARK    9  A    between atoms: N4_21  and  C14_23 
REMARK   10  A    between atoms: C14_23  and  C15_24 
REMARK   11  A    between atoms: C15_24  and  C16_25 
REMARK   12  A    between atoms: C16_25  and  C17_26 
REMARK   13  A    between atoms: C17_26  and  C18_27 
REMARK   14  A    between atoms: C18_27  and  N5_28 
REMARK   15  A    between atoms: N5_28  and  C19_31 
REMARK   16  A    between atoms: C19_31  and  C20_32 
REMARK   17  A    between atoms: C20_32  and  C21_33 
REMARK   18  A    between atoms: C21_33  and  N6_34 
REMARK       I    between atoms: N6_34  and  C22_36 
REMARK       I    between atoms: C22_36  and  N7_38 
ROOT
HETATM    1  C1  UNL     1      13.592   1.165  -1.145  1.00  0.00     0.113 C 
HETATM    2  C2  UNL     1      12.433   1.549  -1.174  1.00  0.00    -0.098 C 
HETATM    3  C3  UNL     1      11.093   2.001  -1.232  1.00  0.00    -0.027 C 
HETATM    4  C4  UNL     1       9.950   2.394  -1.308  1.00  0.00    -0.074 C 
ENDROOT
BRANCH   4   5
HETATM    5  C5  UNL     1       8.566   2.877  -1.429  1.00  0.00     0.219 C 
BRANCH   5   6
HETATM    6  N1  UNL     1       7.637   1.821  -1.716  1.00  0.00    -0.332 N 
HETATM    7  C6  UNL     1       7.485   0.750  -0.811  1.00  0.00     0.320 C 
HETATM    8  O1  UNL     1       8.155   0.712   0.252  1.00  0.00    -0.247 OA
HETATM    9  N2  UNL     1       6.576  -0.326  -1.053  1.00  0.00    -0.323 N 
ATOM     10  H2  UNL     1       6.028  -0.316  -1.913  1.00  0.00     0.169 HD
ATOM     11  H1  UNL     1       7.087   1.845  -2.575  1.00  0.00     0.165 HD
BRANCH   9  12
HETATM   12  C7  UNL     1       6.404  -1.391  -0.166  1.00  0.00     0.067 C 
BRANCH  12  13
HETATM   13  C8  UNL     1       5.874  -1.222   1.204  1.00  0.00     0.072 C 
BRANCH  13  14
HETATM   14  C9  UNL     1       4.501  -0.790   1.443  1.00  0.00     0.242 C 
BRANCH  14  15
HETATM   15  N3  UNL     1       3.938   0.434   1.112  1.00  0.00    -0.066 N 
HETATM   16  C10 UNL     1       4.772   1.569   1.560  1.00  0.00     0.272 C 
HETATM   17  C11 UNL     1       3.605   0.637  -0.267  1.00  0.00     0.272 C 
BRANCH  15  18
HETATM   18  C12 UNL     1       2.664   0.544   1.844  1.00  0.00     0.338 C 
BRANCH  18  19
HETATM   19  C13 UNL     1       1.562  -0.262   1.342  1.00  0.00     0.243 C 
HETATM   20  O2  UNL     1       1.642  -1.016   0.356  1.00  0.00    -0.272 OA
HETATM   21  N4  UNL     1       0.307  -0.166   2.042  1.00  0.00    -0.360 N 
ATOM     22  H4  UNL     1       0.231   0.439   2.859  1.00  0.00     0.162 HD
BRANCH  21  23
HETATM   23  C14 UNL     1      -0.834  -0.909   1.605  1.00  0.00     0.122 C 
BRANCH  23  24
HETATM   24  C15 UNL     1      -1.253  -0.486   0.245  1.00  0.00     0.020 C 
BRANCH  24  25
HETATM   25  C16 UNL     1      -2.495  -1.227  -0.269  1.00  0.00     0.003 C 
BRANCH  25  26
HETATM   26  C17 UNL     1      -3.658  -0.989   0.630  1.00  0.00     0.027 C 
BRANCH  26  27
HETATM   27  C18 UNL     1      -4.903  -1.667   0.123  1.00  0.00     0.232 C 
BRANCH  27  28
HETATM   28  N5  UNL     1      -5.226  -1.169  -1.180  1.00  0.00    -0.075 N 
ATOM     29  H52 UNL     1      -5.187  -0.150  -1.191  1.00  0.00     0.277 HD
ATOM     30  H51 UNL     1      -4.475  -1.379  -1.837  1.00  0.00     0.277 HD
BRANCH  28  31
HETATM   31  C19 UNL     1      -6.500  -1.633  -1.702  1.00  0.00     0.234 C 
BRANCH  31  32
HETATM   32  C20 UNL     1      -7.607  -0.995  -0.879  1.00  0.00     0.047 C 
BRANCH  32  33
HETATM   33  C21 UNL     1      -8.931  -1.453  -1.441  1.00  0.00     0.126 C 
BRANCH  33  34
HETATM   34  N6  UNL     1     -10.054  -0.908  -0.727  1.00  0.00    -0.343 N 
HETATM   35  C22 UNL     1     -10.305   0.477  -0.621  1.00  0.00     0.315 C 
HETATM   36  O3  UNL     1      -9.568   1.328  -1.154  1.00  0.00    -0.247 OA
HETATM   37  N7  UNL     1     -11.428   0.964   0.114  1.00  0.00    -0.347 N 
HETATM   38  C23 UNL     1     -11.688   2.387   0.235  1.00  0.00     0.151 C 
ATOM     39  H7  UNL     1     -12.059   0.300   0.562  1.00  0.00     0.163 HD
ATOM     40  H6  UNL     1     -10.701  -1.554  -0.275  1.00  0.00     0.164 HD
ENDBRANCH  33  34
ENDBRANCH  32  33
ENDBRANCH  31  32
ENDBRANCH  28  31
ENDBRANCH  27  28
ENDBRANCH  26  27
ENDBRANCH  25  26
ENDBRANCH  24  25
ENDBRANCH  23  24
ENDBRANCH  21  23
ENDBRANCH  18  19
ENDBRANCH  15  18
ENDBRANCH  14  15
ENDBRANCH  13  14
ENDBRANCH  12  13
ENDBRANCH   9  12
ENDBRANCH   5   6
ENDBRANCH   4   5
TORSDOF 18
