REMARK  17 active torsions:
REMARK  status: ('A' for Active; 'I' for Inactive)
REMARK    1  A    between atoms: C3_3  and  C4_4 
REMARK    2  A    between atoms: C4_4  and  N1_5 
REMARK       I    between atoms: N1_5  and  C5_7 
REMARK       I    between atoms: C5_7  and  N2_8 
REMARK    3  A    between atoms: N3_11  and  C6_13 
REMARK    4  A    between atoms: C6_13  and  C7_14 
REMARK    5  A    between atoms: C7_14  and  C8_15 
REMARK    6  A    between atoms: C8_15  and  C9_16 
REMARK    7  A    between atoms: C9_16  and  N4_17 
REMARK    8  A    between atoms: N6_21  and  C12_22 
REMARK    9  A    between atoms: C12_22  and  C13_23 
REMARK   10  A    between atoms: C13_23  and  C14_24 
REMARK       I    between atoms: C14_24  and  N7_26 
REMARK   11  A    between atoms: N7_26  and  C15_27 
REMARK   12  A    between atoms: C15_27  and  C16_28 
REMARK   13  A    between atoms: C16_28  and  C17_29 
REMARK   14  A    between atoms: C17_29  and  N8_30 
REMARK   15  A    between atoms: N8_30  and  C18_32 
REMARK   16  A    between atoms: C18_32  and  C19_33 
REMARK   17  A    between atoms: C19_33  and  C20_34 
ROOT
HETATM    1  C1  UNL     1       9.096   3.408  -0.456  1.00  0.00     0.012 C 
HETATM    2  C2  UNL     1       9.429   2.496   0.264  1.00  0.00    -0.116 C 
HETATM    3  C3  UNL     1       9.832   1.432   1.158  1.00  0.00     0.113 C 
ENDROOT
BRANCH   3   4
HETATM    4  C4  UNL     1      10.315   0.185   0.509  1.00  0.00     0.150 C 
BRANCH   4   5
HETATM    5  N1  UNL     1       9.279  -0.448  -0.286  1.00  0.00    -0.226 N 
HETATM    6  C5  UNL     1       8.751   0.022  -1.487  1.00  0.00     0.667 C 
HETATM    7  N2  UNL     1       9.651   0.329  -2.439  1.00  0.00    -0.235 N 
HETATM    8  N3  UNL     1       7.436   0.263  -1.767  1.00  0.00    -0.227 N 
ATOM      9  H22 UNL     1      10.633   0.149  -2.230  1.00  0.00     0.174 HD
ATOM     10  H21 UNL     1       9.265   0.673  -3.318  1.00  0.00     0.174 HD
ATOM     11  H3  UNL     1       7.201   0.738  -2.638  1.00  0.00     0.177 HD
ATOM     12  H1  UNL     1       8.899  -1.325   0.070  1.00  0.00     0.177 HD
BRANCH   8  13
HETATM   13  C6  UNL     1       6.334  -0.138  -0.856  1.00  0.00     0.138 C 
BRANCH  13  14
HETATM   14  C7  UNL     1       5.108   0.655  -1.260  1.00  0.00     0.022 C 
BRANCH  14  15
HETATM   15  C8  UNL     1       3.916   0.335  -0.435  1.00  0.00     0.030 C 
BRANCH  15  16
HETATM   16  C9  UNL     1       3.455  -1.069  -0.624  1.00  0.00     0.239 C 
BRANCH  16  17
HETATM   17  N4  UNL     1       2.239  -1.362   0.112  1.00  0.00    -0.038 N 
HETATM   18  C10 UNL     1       2.423  -2.058   1.336  1.00  0.00     0.257 C 
HETATM   19  C11 UNL     1       1.510  -1.609   2.434  1.00  0.00     0.170 C 
HETATM   20  N5  UNL     1       0.233  -1.107   2.026  1.00  0.00    -0.043 NA
HETATM   21  N6  UNL     1       0.109  -0.874   0.650  1.00  0.00     0.037 N 
HETATM   22  C22 UNL     1       0.063  -2.121  -0.030  1.00  0.00     0.290 C 
HETATM   23  C24 UNL     1       1.391  -0.228   0.275  1.00  0.00     0.496 C 
HETATM   24  C23 UNL     1       1.415  -2.212  -0.744  1.00  0.00     0.269 C 
BRANCH  21  25
HETATM   25  C12 UNL     1      -0.900   0.078   0.382  1.00  0.00     0.273 C 
BRANCH  25  26
HETATM   26  C13 UNL     1      -2.282  -0.387   0.100  1.00  0.00     0.148 C 
BRANCH  26  27
HETATM   27  C14 UNL     1      -3.110   0.885  -0.123  1.00  0.00     0.288 C 
HETATM   28  O1  UNL     1      -2.528   1.897  -0.305  1.00  0.00    -0.258 OA
HETATM   29  N7  UNL     1      -4.527   0.620  -0.071  1.00  0.00    -0.415 NA
BRANCH  29  30
HETATM   30  C15 UNL     1      -5.787   0.392  -0.025  1.00  0.00     0.227 C 
BRANCH  30  31
HETATM   31  C16 UNL     1      -6.095  -1.114  -0.013  1.00  0.00     0.078 C 
BRANCH  31  32
HETATM   32  C17 UNL     1      -7.517  -1.459  -0.130  1.00  0.00     0.062 C 
BRANCH  32  33
HETATM   33  N8  UNL     1      -8.496  -1.063   0.752  1.00  0.00    -0.382 N 
ATOM     34  H8  UNL     1      -8.901  -1.769   1.367  1.00  0.00     0.163 HD
BRANCH  33  35
HETATM   35  C18 UNL     1      -8.972   0.256   0.856  1.00  0.00     0.060 C 
BRANCH  35  36
HETATM   36  C19 UNL     1      -9.748   0.713  -0.379  1.00  0.00     0.044 C 
BRANCH  36  37
HETATM   37  C20 UNL     1     -10.144   2.162  -0.084  1.00  0.00     0.001 C 
HETATM   38  C21 UNL     1     -10.889   2.717  -1.251  1.00  0.00     0.005 C 
ENDBRANCH  36  37
ENDBRANCH  35  36
ENDBRANCH  33  35
ENDBRANCH  32  33
ENDBRANCH  31  32
ENDBRANCH  30  31
ENDBRANCH  29  30
ENDBRANCH  26  27
ENDBRANCH  25  26
ENDBRANCH  21  25
ENDBRANCH  16  17
ENDBRANCH  15  16
ENDBRANCH  14  15
ENDBRANCH  13  14
ENDBRANCH   8  13
ENDBRANCH   4   5
ENDBRANCH   3   4
TORSDOF 17
