REMARK  19 active torsions:
REMARK  status: ('A' for Active; 'I' for Inactive)
REMARK    1  A    between atoms: C3_3  and  C4_4 
REMARK    2  A    between atoms: C6_11  and  N3_12 
REMARK    3  A    between atoms: N3_12  and  C7_14 
REMARK    4  A    between atoms: N4_15  and  C8_16 
REMARK    5  A    between atoms: N4_15  and  C11_19 
REMARK    6  A    between atoms: C8_16  and  C9_17 
REMARK    7  A    between atoms: C11_19  and  C12_20 
REMARK    8  A    between atoms: C12_20  and  N5_21 
REMARK    9  A    between atoms: N5_21  and  C14_24 
REMARK   10  A    between atoms: C14_24  and  C15_25 
REMARK   11  A    between atoms: C15_25  and  N6_26 
REMARK   12  A    between atoms: N6_26  and  C16_28 
REMARK   13  A    between atoms: C16_28  and  O3_29 
REMARK   14  A    between atoms: N7_31  and  C17_33 
REMARK   15  A    between atoms: C17_33  and  C18_34 
REMARK   16  A    between atoms: C18_34  and  C19_35 
REMARK   17  A    between atoms: C19_35  and  N8_36 
REMARK   18  A    between atoms: N8_36  and  C20_38 
REMARK   19  A    between atoms: C20_38  and  C21_39 
ROOT
HETATM    1  C1  UNL     1      -9.618  -1.004   1.484  1.00  0.00     0.097 C 
HETATM    2  C2  UNL     1      -9.486  -0.185   0.582  1.00  0.00    -0.181 C 
HETATM    3  C3  UNL     1      -9.359   0.802  -0.482  1.00  0.00     0.140 C 
ENDROOT
BRANCH   3   4
HETATM    4  C4  UNL     1      -8.275   0.457  -1.415  1.00  0.00     0.068 A 
HETATM    5  N1  UNL     1      -8.522  -0.071  -2.653  1.00  0.00    -0.308 N 
HETATM    6  C5  UNL     1      -7.342  -0.255  -3.240  1.00  0.00     0.326 A 
ATOM      7  H1  UNL     1      -9.437  -0.283  -3.051  1.00  0.00     0.170 HD
HETATM    8  O1  UNL     1      -7.224  -0.731  -4.399  1.00  0.00    -0.247 OA
HETATM    9  N2  UNL     1      -6.362   0.149  -2.390  1.00  0.00    -0.293 N 
HETATM   10  C6  UNL     1      -6.921   0.595  -1.249  1.00  0.00     0.134 A 
ATOM     11  H2  UNL     1      -5.361   0.119  -2.585  1.00  0.00     0.172 HD
BRANCH  10  12
HETATM   12  N3  UNL     1      -6.268   1.087  -0.096  1.00  0.00    -0.337 N 
ATOM     13  H3  UNL     1      -6.857   1.360   0.691  1.00  0.00     0.168 HD
BRANCH  12  14
HETATM   14  C7  UNL     1      -4.865   1.235   0.064  1.00  0.00     0.184 C 
HETATM   15  N4  UNL     1      -4.092   0.711   0.905  1.00  0.00    -0.355 N 
BRANCH  15  16
HETATM   16  C8  UNL     1      -4.410  -0.190   1.933  1.00  0.00     0.064 C 
BRANCH  16  17
HETATM   17  C9  UNL     1      -5.530  -1.142   1.824  1.00  0.00     0.040 C 
HETATM   18  C10 UNL     1      -5.343  -2.166   0.714  1.00  0.00     0.010 C 
ENDBRANCH  16  17
ENDBRANCH  15  16
BRANCH  15  19
HETATM   19  C11 UNL     1      -2.678   1.187   0.917  1.00  0.00     0.165 C 
BRANCH  19  20
HETATM   20  C12 UNL     1      -1.745   0.077   0.509  1.00  0.00     0.331 C 
BRANCH  20  21
HETATM   21  N5  UNL     1      -0.380   0.496   0.650  1.00  0.00     0.012 N 
HETATM   22  C13 UNL     1       0.331  -0.692   1.178  1.00  0.00     0.356 C 
HETATM   23  O2  UNL     1      -0.317   1.489   1.583  1.00  0.00    -0.065 OA
BRANCH  21  24
HETATM   24  C14 UNL     1       0.312   0.934  -0.511  1.00  0.00     0.331 C 
BRANCH  24  25
HETATM   25  C15 UNL     1       1.770   1.053  -0.133  1.00  0.00     0.159 C 
BRANCH  25  26
HETATM   26  N6  UNL     1       2.638   1.499  -1.181  1.00  0.00    -0.354 N 
ATOM     27  H6  UNL     1       2.282   1.776  -2.096  1.00  0.00     0.163 HD
BRANCH  26  28
HETATM   28  C16 UNL     1       4.055   1.534  -0.865  1.00  0.00     0.212 C 
HETATM   29  N7  UNL     1       4.485   0.534  -0.205  1.00  0.00    -0.356 N 
ATOM     30  H7  UNL     1       3.784  -0.172   0.021  1.00  0.00     0.163 HD
BRANCH  28  31
HETATM   31  O3  UNL     1       4.883   2.546  -1.234  1.00  0.00    -0.333 OA
ATOM     32  H3  UNL     1       5.810   2.569  -1.027  1.00  0.00     0.220 HD
ENDBRANCH  28  31
BRANCH  29  33
HETATM   33  C17 UNL     1       5.817   0.253   0.270  1.00  0.00     0.128 C 
BRANCH  33  34
HETATM   34  C18 UNL     1       5.939  -1.234   0.416  1.00  0.00     0.064 C 
BRANCH  34  35
HETATM   35  C19 UNL     1       7.152  -1.822   0.982  1.00  0.00     0.057 C 
BRANCH  35  36
HETATM   36  N8  UNL     1       8.390  -1.631   0.376  1.00  0.00    -0.402 N 
ATOM     37  H8  UNL     1       8.811  -2.415  -0.122  1.00  0.00     0.158 HD
BRANCH  36  38
HETATM   38  C20 UNL     1       9.087  -0.418   0.415  1.00  0.00     0.118 C 
BRANCH  38  39
HETATM   39  C21 UNL     1      10.420  -0.605  -0.333  1.00  0.00     0.015 C 
HETATM   40  C22 UNL     1      11.222   0.648  -0.336  1.00  0.00     0.006 C 
ENDBRANCH  38  39
ENDBRANCH  36  38
ENDBRANCH  35  36
ENDBRANCH  34  35
ENDBRANCH  33  34
ENDBRANCH  29  33
ENDBRANCH  26  28
ENDBRANCH  25  26
ENDBRANCH  24  25
ENDBRANCH  21  24
ENDBRANCH  20  21
ENDBRANCH  19  20
ENDBRANCH  15  19
ENDBRANCH  12  14
ENDBRANCH  10  12
ENDBRANCH   3   4
TORSDOF 19
