REMARK  19 active torsions:
REMARK  status: ('A' for Active; 'I' for Inactive)
REMARK    1  A    between atoms: C2_2  and  C3_3 
REMARK    2  A    between atoms: C3_3  and  C4_4 
REMARK    3  A    between atoms: C4_4  and  C5_5 
REMARK    4  A    between atoms: C5_5  and  N1_6 
REMARK    5  A    between atoms: C9_12  and  C10_13 
REMARK    6  A    between atoms: C10_13  and  C11_14 
REMARK    7  A    between atoms: C11_14  and  N3_15 
REMARK    8  A    between atoms: N3_15  and  C12_16 
REMARK    9  A    between atoms: C12_16  and  C13_17 
REMARK   10  A    between atoms: C13_17  and  C14_18 
REMARK   11  A    between atoms: C14_18  and  N4_19 
REMARK   12  A    between atoms: N4_19  and  C15_21 
REMARK   13  A    between atoms: C15_21  and  C16_22 
REMARK   14  A    between atoms: C16_22  and  N5_23 
REMARK       I    between atoms: N5_23  and  C17_25 
REMARK   15  A    between atoms: N7_27  and  C18_29 
REMARK   16  A    between atoms: C18_29  and  C19_30 
REMARK   17  A    between atoms: C19_30  and  C20_31 
REMARK   18  A    between atoms: C20_31  and  C21_32 
REMARK   19  A    between atoms: C21_32  and  N8_33 
ROOT
HETATM    1  C12 UNL     1       0.221  -1.504   0.681  1.00  0.00     0.253 C 
ENDROOT
BRANCH   1   2
HETATM    2  N3  UNL     1      -0.792  -0.678  -0.011  1.00  0.00     0.030 N 
HETATM    3  C22 UNL     1      -1.029  -1.314  -1.297  1.00  0.00     0.376 C 
HETATM    4  N9  UNL     1      -0.083  -0.335  -1.810  1.00  0.00    -0.312 N 
HETATM    5  C23 UNL     1      -0.176   0.428  -0.596  1.00  0.00     0.418 C 
ATOM      6  H9  UNL     1       0.437  -0.232  -2.681  1.00  0.00     0.165 HD
HETATM    7  O1  UNL     1       0.197   1.597  -0.347  1.00  0.00    -0.239 OA
BRANCH   2   8
HETATM    8  C11 UNL     1      -1.932  -0.539   0.804  1.00  0.00     0.259 C 
BRANCH   8   9
HETATM    9  C10 UNL     1      -2.876   0.563   0.654  1.00  0.00     0.105 C 
BRANCH   9  10
HETATM   10  C9  UNL     1      -3.611   0.701  -0.645  1.00  0.00     0.089 A 
HETATM   11  N1  UNL     1      -4.764   0.076  -0.933  1.00  0.00    -0.321 N 
HETATM   12  C6  UNL     1      -5.139   0.477  -2.186  1.00  0.00     0.122 A 
HETATM   13  C7  UNL     1      -4.197   1.344  -2.633  1.00  0.00     0.022 A 
HETATM   14  C8  UNL     1      -4.206   2.035  -3.975  1.00  0.00     0.069 C 
HETATM   15  N2  UNL     1      -3.266   1.474  -1.681  1.00  0.00    -0.348 N 
ATOM     16  H2  UNL     1      -2.435   2.062  -1.736  1.00  0.00     0.167 HD
BRANCH  11  17
HETATM   17  C5  UNL     1      -5.503  -0.897  -0.185  1.00  0.00     0.093 C 
BRANCH  17  18
HETATM   18  C4  UNL     1      -6.432  -0.525   0.880  1.00  0.00    -0.009 C 
BRANCH  18  19
HETATM   19  C3  UNL     1      -7.596   0.337   0.710  1.00  0.00     0.028 C 
BRANCH  19  20
HETATM   20  C2  UNL     1      -7.444   1.764   0.349  1.00  0.00    -0.001 C 
HETATM   21  C1  UNL     1      -8.836   2.447   0.279  1.00  0.00     0.005 C 
ENDBRANCH  19  20
ENDBRANCH  18  19
ENDBRANCH  17  18
ENDBRANCH  11  17
ENDBRANCH   9  10
ENDBRANCH   8   9
ENDBRANCH   2   8
ENDBRANCH   1   2
BRANCH   1  22
HETATM   22  C13 UNL     1       0.979  -0.712   1.710  1.00  0.00     0.048 C 
BRANCH  22  23
HETATM   23  C14 UNL     1       1.975  -1.692   2.337  1.00  0.00     0.120 C 
BRANCH  23  24
HETATM   24  N4  UNL     1       2.835  -2.170   1.322  1.00  0.00    -0.401 N 
ATOM     25  H4  UNL     1       2.744  -1.832   0.364  1.00  0.00     0.158 HD
BRANCH  24  26
HETATM   26  C15 UNL     1       3.816  -3.118   1.654  1.00  0.00     0.075 C 
BRANCH  26  27
HETATM   27  C16 UNL     1       4.945  -2.654   2.515  1.00  0.00     0.166 C 
BRANCH  27  28
HETATM   28  N5  UNL     1       5.716  -1.634   1.887  1.00  0.00    -0.360 N 
HETATM   29  C17 UNL     1       5.297  -0.314   1.639  1.00  0.00     0.184 C 
HETATM   30  N6  UNL     1       4.916   0.580   2.698  1.00  0.00    -0.064 NA
HETATM   31  N7  UNL     1       5.266   0.140   0.433  1.00  0.00    -0.365 N 
ATOM     32  H7  UNL     1       4.957   1.100   0.278  1.00  0.00     0.162 HD
ATOM     33  H5  UNL     1       6.659  -1.884   1.590  1.00  0.00     0.162 HD
BRANCH  31  34
HETATM   34  C18 UNL     1       5.650  -0.655  -0.702  1.00  0.00     0.122 C 
BRANCH  34  35
HETATM   35  C19 UNL     1       6.024   0.138  -1.907  1.00  0.00     0.021 C 
BRANCH  35  36
HETATM   36  C20 UNL     1       7.185   1.048  -1.795  1.00  0.00     0.029 C 
BRANCH  36  37
HETATM   37  C21 UNL     1       7.121   2.147  -0.801  1.00  0.00     0.229 C 
BRANCH  37  38
HETATM   38  N8  UNL     1       8.391   2.900  -0.921  1.00  0.00    -0.079 N 
ATOM     39  H83 UNL     1       9.219   2.313  -0.820  1.00  0.00     0.274 HD
ATOM     40  H82 UNL     1       8.579   3.225  -1.869  1.00  0.00     0.274 HD
ATOM     41  H81 UNL     1       8.347   3.656  -0.237  1.00  0.00     0.274 HD
ENDBRANCH  37  38
ENDBRANCH  36  37
ENDBRANCH  35  36
ENDBRANCH  34  35
ENDBRANCH  31  34
ENDBRANCH  27  28
ENDBRANCH  26  27
ENDBRANCH  24  26
ENDBRANCH  23  24
ENDBRANCH  22  23
ENDBRANCH   1  22
TORSDOF 19
