REMARK  6 active torsions:
REMARK  status: ('A' for Active; 'I' for Inactive)
REMARK    1  A    between atoms: O1_2  and  C2_3 
REMARK    2  A    between atoms: C4_5  and  C5_6 
REMARK       I    between atoms: C5_6  and  N1_8 
REMARK    3  A    between atoms: C6_10  and  N2_12 
REMARK    4  A    between atoms: N2_12  and  C7_14 
REMARK    5  A    between atoms: C17_24  and  O3_25 
REMARK    6  A    between atoms: C19_27  and  O4_28 
ROOT
HETATM    1  C5  UNL     1       1.472  -1.619  -0.647  1.00  0.00     0.257 C 
HETATM    2  O2  UNL     1       1.218  -2.868  -0.584  1.00  0.00    -0.267 OA
HETATM    3  N1  UNL     1       0.454  -0.681  -0.940  1.00  0.00    -0.303 N 
ATOM      4  H1  UNL     1       0.222  -0.467  -1.910  1.00  0.00     0.171 HD
HETATM    5  C6  UNL     1      -0.177  -0.101   0.012  1.00  0.00     0.154 C 
HETATM    6  S1  UNL     1       0.254  -0.500   1.693  1.00  0.00    -0.013 SA
ENDROOT
BRANCH   1   7
HETATM    7  C4  UNL     1       2.825  -1.120  -0.417  1.00  0.00     0.037 A 
HETATM    8  C3  UNL     1       3.874  -1.974  -0.125  1.00  0.00     0.057 A 
HETATM    9  C2  UNL     1       5.121  -1.468   0.082  1.00  0.00     0.105 A 
HETATM   10  C19 UNL     1       5.365  -0.102   0.006  1.00  0.00     0.135 A 
HETATM   11  C17 UNL     1       4.330   0.755  -0.283  1.00  0.00     0.105 A 
HETATM   12  C16 UNL     1       3.063   0.235  -0.493  1.00  0.00     0.057 A 
BRANCH   9  13
HETATM   13  O1  UNL     1       6.153  -2.326   0.371  1.00  0.00    -0.353 OA
HETATM   14  C1  UNL     1       5.967  -3.715   0.461  1.00  0.00     0.210 C 
ENDBRANCH   9  13
BRANCH  10  15
HETATM   15  O4  UNL     1       6.614   0.458   0.209  1.00  0.00    -0.351 OA
HETATM   16  C20 UNL     1       7.455   0.609  -0.928  1.00  0.00     0.210 C 
ENDBRANCH  10  15
BRANCH  11  17
HETATM   17  O3  UNL     1       4.546   2.093  -0.362  1.00  0.00    -0.353 OA
HETATM   18  C18 UNL     1       3.617   3.086  -0.643  1.00  0.00     0.210 C 
ENDBRANCH  11  17
ENDBRANCH   1   7
BRANCH   5  19
HETATM   19  N2  UNL     1      -1.206   0.847  -0.210  1.00  0.00    -0.365 N 
ATOM     20  H2  UNL     1      -1.063   1.561  -0.924  1.00  0.00     0.162 HD
BRANCH  19  21
HETATM   21  C7  UNL     1      -2.451   0.849   0.530  1.00  0.00     0.083 C 
HETATM   22  C8  UNL     1      -3.296   1.951   0.064  1.00  0.00     0.025 C 
HETATM   23  C9  UNL     1      -4.268   2.525   1.036  1.00  0.00     0.002 C 
HETATM   24  C10 UNL     1      -5.234   1.588   1.648  1.00  0.00     0.000 C 
HETATM   25  C11 UNL     1      -5.966   0.748   0.626  1.00  0.00     0.000 C 
HETATM   26  C12 UNL     1      -5.920  -0.712   0.932  1.00  0.00     0.000 C 
HETATM   27  C13 UNL     1      -5.191  -1.551  -0.054  1.00  0.00     0.000 C 
HETATM   28  C14 UNL     1      -3.888  -0.945  -0.542  1.00  0.00     0.002 C 
HETATM   29  C15 UNL     1      -3.001  -0.523   0.558  1.00  0.00     0.025 C 
ENDBRANCH  19  21
ENDBRANCH   5  19
TORSDOF 6
