REMARK  8 active torsions:
REMARK  status: ('A' for Active; 'I' for Inactive)
REMARK    1  A    between atoms: C13_13  and  C14_15 
REMARK    2  A    between atoms: C14_15  and  O1_17 
REMARK    3  A    between atoms: C14_15  and  C16_19 
REMARK    4  A    between atoms: C16_19  and  C17_20 
REMARK    5  A    between atoms: C17_20  and  C18_21 
REMARK    6  A    between atoms: C19_22  and  O2_24 
REMARK    7  A    between atoms: C21_26  and  O3_27 
REMARK    8  A    between atoms: O3_27  and  C22_28 
ROOT
HETATM    1  C1  UNL     1      -2.447   2.919  -0.035  1.00  0.00     0.017 C 
HETATM    2  C2  UNL     1      -2.124   1.728   0.386  1.00  0.00    -0.056 C 
HETATM    3  C3  UNL     1      -2.968   0.527   0.336  1.00  0.00     0.042 C 
HETATM    4  C4  UNL     1      -2.222  -0.536  -0.401  1.00  0.00     0.009 C 
HETATM    5  C5  UNL     1      -3.075  -1.754  -0.611  1.00  0.00    -0.043 C 
HETATM    6  C6  UNL     1      -3.516  -2.477   0.602  1.00  0.00     0.015 C 
HETATM    7  C7  UNL     1      -4.368  -1.196  -1.249  1.00  0.00     0.015 C 
HETATM    8  C8  UNL     1      -2.522  -2.700  -1.613  1.00  0.00     0.009 C 
HETATM    9  C9  UNL     1      -1.101  -2.298  -1.909  1.00  0.00     0.002 C 
HETATM   10  C10 UNL     1      -0.354  -1.996  -0.592  1.00  0.00     0.013 C 
HETATM   11  C11 UNL     1      -0.824  -0.835   0.135  1.00  0.00     0.003 C 
HETATM   12  C12 UNL     1      -0.921  -1.138   1.650  1.00  0.00     0.019 C 
HETATM   13  C13 UNL     1      -0.043   0.476   0.108  1.00  0.00     0.171 C 
HETATM   14  F1  UNL     1      -0.425   0.981  -1.196  1.00  0.00    -0.236 F 
HETATM   15  C21 UNL     1      -0.729   1.442   1.020  1.00  0.00     0.203 C 
ENDROOT
BRANCH  13  16
HETATM   16  C14 UNL     1       1.418   0.424   0.068  1.00  0.00     0.094 C 
HETATM   17  C15 UNL     1       2.056   1.841   0.187  1.00  0.00     0.049 C 
BRANCH  16  18
HETATM   18  O1  UNL     1       2.097  -0.350   0.955  1.00  0.00    -0.387 OA
ATOM     19  H1  UNL     1       3.046  -0.384   0.929  1.00  0.00     0.210 HD
ENDBRANCH  16  18
BRANCH  16  20
HETATM   20  C16 UNL     1       1.908   0.083  -1.350  1.00  0.00     0.044 C 
BRANCH  20  21
HETATM   21  C17 UNL     1       3.374  -0.097  -1.511  1.00  0.00     0.032 C 
BRANCH  21  22
HETATM   22  C18 UNL     1       3.955  -1.182  -0.684  1.00  0.00     0.005 C 
HETATM   23  C19 UNL     1       4.959  -1.028   0.126  1.00  0.00     0.035 C 
HETATM   24  C20 UNL     1       5.646   0.257   0.318  1.00  0.00     0.075 C 
BRANCH  23  25
HETATM   25  O2  UNL     1       5.413  -2.131   0.853  1.00  0.00    -0.366 OA
ATOM     26  H2  UNL     1       6.147  -2.018   1.445  1.00  0.00     0.217 HD
ENDBRANCH  23  25
ENDBRANCH  21  22
ENDBRANCH  20  21
ENDBRANCH  16  20
ENDBRANCH  13  16
BRANCH  15  27
HETATM   27  O3  UNL     1      -0.142   2.670   1.135  1.00  0.00    -0.308 OA
BRANCH  27  28
HETATM   28  C22 UNL     1      -0.113   3.413   2.333  1.00  0.00     0.255 C 
HETATM   29  C23 UNL     1       0.540   4.738   2.387  1.00  0.00     0.126 C 
HETATM   30  O4  UNL     1      -0.676   2.857   3.310  1.00  0.00    -0.266 OA
ENDBRANCH  27  28
ENDBRANCH  15  27
TORSDOF 8
