REMARK  7 active torsions:
REMARK  status: ('A' for Active; 'I' for Inactive)
REMARK    1  A    between atoms: O1_2  and  C2_3 
REMARK    2  A    between atoms: C7_8  and  O2_9 
REMARK    3  A    between atoms: C9_11  and  O3_12 
REMARK    4  A    between atoms: C10_14  and  C11_15 
REMARK    5  A    between atoms: C11_15  and  C12_16 
REMARK    6  A    between atoms: C15_20  and  C16_21 
REMARK    7  A    between atoms: C16_21  and  O5_22 
ROOT
HETATM    1  C2  UNL     1      -2.851  -0.320   1.278  1.00  0.00     0.102 A 
HETATM    2  C3  UNL     1      -1.581   0.118   1.583  1.00  0.00     0.048 A 
HETATM    3  C4  UNL     1      -0.534   0.138   0.647  1.00  0.00    -0.036 A 
HETATM    4  C5  UNL     1      -0.805  -0.307  -0.641  1.00  0.00    -0.019 A 
HETATM    5  C6  UNL     1      -2.054  -0.739  -0.951  1.00  0.00     0.050 A 
HETATM    6  C7  UNL     1      -3.090  -0.754  -0.007  1.00  0.00     0.102 A 
HETATM    7  C9  UNL     1       0.332  -0.354  -1.633  1.00  0.00     0.156 C 
HETATM    8  C10 UNL     1       1.507  -0.940  -0.910  1.00  0.00     0.027 C 
HETATM    9  C14 UNL     1       1.880  -0.155   0.281  1.00  0.00     0.024 C 
HETATM   10  C15 UNL     1       0.791   0.584   0.990  1.00  0.00     0.077 C 
ENDROOT
BRANCH  10  11
HETATM   11  C16 UNL     1       1.117   2.018   0.922  1.00  0.00     0.065 C 
HETATM   12  C17 UNL     1       0.476   3.068   0.597  1.00  0.00     0.014 C 
HETATM   13  C18 UNL     1       1.159   4.403   0.654  1.00  0.00     0.059 C 
HETATM   14 BR1  UNL     1      -1.314   3.096   0.029  1.00  0.00    -0.053 Br
BRANCH  11  15
HETATM   15  O5  UNL     1       2.488   2.265   1.323  1.00  0.00    -0.363 OA
ATOM     16  H5  UNL     1       2.698   3.190   1.279  1.00  0.00     0.217 HD
ENDBRANCH  11  15
ENDBRANCH  10  11
BRANCH   8  17
HETATM   17  C11 UNL     1       2.669  -1.093  -1.886  1.00  0.00     0.085 C 
BRANCH  17  18
HETATM   18  C12 UNL     1       3.813  -1.676  -1.148  1.00  0.00     0.123 C 
HETATM   19  C13 UNL     1       4.137  -3.131  -1.184  1.00  0.00     0.091 C 
HETATM   20  O4  UNL     1       4.510  -0.924  -0.487  1.00  0.00    -0.298 OA
ENDBRANCH  17  18
ENDBRANCH   8  17
BRANCH   1  21
HETATM   21  O1  UNL     1      -3.881  -0.338   2.210  1.00  0.00    -0.353 OA
HETATM   22  C1  UNL     1      -3.719   0.089   3.548  1.00  0.00     0.210 C 
ENDBRANCH   1  21
BRANCH   7  23
HETATM   23  O3  UNL     1       0.573   0.828  -2.269  1.00  0.00    -0.390 OA
ATOM     24  H3  UNL     1       1.288   0.798  -2.893  1.00  0.00     0.210 HD
ENDBRANCH   7  23
BRANCH   6  25
HETATM   25  O2  UNL     1      -4.312  -1.202  -0.399  1.00  0.00    -0.353 OA
HETATM   26  C8  UNL     1      -4.711  -1.666  -1.639  1.00  0.00     0.210 C 
ENDBRANCH   6  25
TORSDOF 7
