REMARK  18 active torsions:
REMARK  status: ('A' for Active; 'I' for Inactive)
REMARK    1  A    between atoms: N1_2  and  C3_4 
REMARK    2  A    between atoms: C4_7  and  N3_8 
REMARK    3  A    between atoms: N3_8  and  C5_10 
REMARK    4  A    between atoms: C5_10  and  O1_11 
REMARK    5  A    between atoms: C5_10  and  N4_13 
REMARK    6  A    between atoms: N4_13  and  C6_15 
REMARK    7  A    between atoms: C6_15  and  N5_16 
REMARK    8  A    between atoms: N5_16  and  S1_18 
REMARK    9  A    between atoms: C10_31  and  N8_32 
REMARK   10  A    between atoms: N8_32  and  C11_34 
REMARK   11  A    between atoms: C11_34  and  C12_35 
REMARK   12  A    between atoms: C12_35  and  S3_36 
REMARK   13  A    between atoms: S3_36  and  S4_37 
REMARK   14  A    between atoms: S4_37  and  C13_38 
REMARK   15  A    between atoms: C13_38  and  C14_39 
REMARK   16  A    between atoms: C14_39  and  N9_40 
REMARK   17  A    between atoms: C17_45  and  N11_46 
REMARK   18  A    between atoms: N11_46  and  N12_48 
ROOT
HETATM    1  C3  UNL     1      -3.008   0.486   0.474  1.00  0.00     0.682 C 
HETATM    2  N2  UNL     1      -4.201  -0.123   0.342  1.00  0.00    -0.174 N 
ATOM      3  H2  UNL     1      -4.923   0.231   0.969  1.00  0.00     0.186 HD
HETATM    4  C4  UNL     1      -4.611  -1.114  -0.469  1.00  0.00     0.148 C 
HETATM    5  C7  UNL     1      -3.831  -2.019  -1.226  1.00  0.00     0.100 A 
HETATM    6  N6  UNL     1      -4.346  -3.120  -1.687  1.00  0.00    -0.333 N 
ATOM      7  H6  UNL     1      -5.324  -3.347  -1.508  1.00  0.00     0.168 HD
HETATM    8  C8  UNL     1      -3.579  -3.949  -2.397  1.00  0.00     0.143 A 
HETATM    9  N7  UNL     1      -3.924  -5.098  -2.938  1.00  0.00    -0.380 N 
ATOM     10  H71 UNL     1      -3.338  -5.732  -3.481  1.00  0.00     0.158 HD
ATOM     11  H72 UNL     1      -4.824  -5.578  -2.926  1.00  0.00     0.158 HD
HETATM   12  S2  UNL     1      -2.072  -3.145  -2.417  1.00  0.00    -0.048 SA
HETATM   13  C9  UNL     1      -2.511  -1.771  -1.501  1.00  0.00     0.083 A 
HETATM   14  C10 UNL     1      -1.679  -0.693  -1.152  1.00  0.00     0.136 C 
HETATM   15  N15 UNL     1      -1.944   0.355  -0.347  1.00  0.00    -0.175 N 
ATOM     16  H15 UNL     1      -1.275   1.125  -0.359  1.00  0.00     0.186 HD
ENDROOT
BRANCH  14  17
HETATM   17  N8  UNL     1      -0.539  -0.784  -1.707  1.00  0.00    -0.374 N 
ATOM     18  H8  UNL     1      -0.393  -1.596  -2.306  1.00  0.00     0.161 HD
BRANCH  17  19
HETATM   19  C11 UNL     1       0.560   0.119  -1.589  1.00  0.00     0.132 C 
BRANCH  19  20
HETATM   20  C12 UNL     1       1.856  -0.585  -2.022  1.00  0.00     0.105 C 
BRANCH  20  21
HETATM   21  S3  UNL     1       2.149  -2.022  -0.969  1.00  0.00    -0.096 SA
BRANCH  21  22
HETATM   22  S4  UNL     1       2.525  -1.430   1.022  1.00  0.00    -0.096 SA
BRANCH  22  23
HETATM   23  C13 UNL     1       4.274  -1.163   1.369  1.00  0.00     0.106 C 
BRANCH  23  24
HETATM   24  C14 UNL     1       4.750   0.050   0.568  1.00  0.00     0.142 C 
BRANCH  24  25
HETATM   25  N9  UNL     1       6.127   0.335   0.796  1.00  0.00    -0.326 N 
HETATM   26  C15 UNL     1       6.567   1.088   1.834  1.00  0.00     0.185 A 
HETATM   27  N10 UNL     1       7.897   1.181   1.844  1.00  0.00    -0.346 N 
HETATM   28  C16 UNL     1       8.376   0.485   0.803  1.00  0.00     0.124 A 
ATOM     29  H10 UNL     1       8.455   1.694   2.527  1.00  0.00     0.167 HD
HETATM   30  C17 UNL     1       9.643   0.241   0.331  1.00  0.00     0.151 A 
HETATM   31  C20 UNL     1       7.259  -0.034   0.162  1.00  0.00     0.142 A 
HETATM   32  N13 UNL     1       9.779  -0.505  -0.759  1.00  0.00    -0.335 N 
HETATM   33  C18 UNL     1       8.688  -0.997  -1.365  1.00  0.00     0.185 A 
ATOM     34  H13 UNL     1      10.707  -0.703  -1.133  1.00  0.00     0.168 HD
HETATM   35  N14 UNL     1       7.423  -0.783  -0.937  1.00  0.00    -0.332 N 
HETATM   36  C19 UNL     1       6.316  -1.333  -1.656  1.00  0.00     0.158 C 
BRANCH  30  37
HETATM   37  N11 UNL     1      10.669   0.722   0.929  1.00  0.00    -0.290 N 
ATOM     38  H11 UNL     1      11.608   0.538   0.574  1.00  0.00     0.188 HD
BRANCH  37  39
HETATM   39  N12 UNL     1      10.485   1.499   2.070  1.00  0.00    -0.344 N 
ATOM     40 2H12 UNL     1       9.540   1.673   2.412  1.00  0.00     0.176 HD
ATOM     41 1H12 UNL     1      11.302   1.882   2.546  1.00  0.00     0.176 HD
ENDBRANCH  37  39
ENDBRANCH  30  37
ENDBRANCH  24  25
ENDBRANCH  23  24
ENDBRANCH  22  23
ENDBRANCH  21  22
ENDBRANCH  20  21
ENDBRANCH  19  20
ENDBRANCH  17  19
ENDBRANCH  14  17
BRANCH   1  42
HETATM   42  N1  UNL     1      -2.842   1.365   1.600  1.00  0.00    -0.226 N 
HETATM   43  C1  UNL     1      -3.162   2.754   1.556  1.00  0.00     0.168 C 
HETATM   44  C2  UNL     1      -2.324   0.767   2.813  1.00  0.00     0.168 C 
ENDBRANCH   1  42
BRANCH   4  45
HETATM   45  N3  UNL     1      -5.882  -1.253  -0.563  1.00  0.00    -0.331 N 
ATOM     46  H3  UNL     1      -6.199  -2.004  -1.176  1.00  0.00     0.165 HD
BRANCH  45  47
HETATM   47  C5  UNL     1      -6.905  -0.506   0.069  1.00  0.00     0.328 C 
BRANCH  47  48
HETATM   48  O1  UNL     1      -6.497   0.772   0.405  1.00  0.00    -0.359 OA
ATOM     49  H1  UNL     1      -7.184   1.273   0.829  1.00  0.00     0.214 HD
ENDBRANCH  47  48
BRANCH  47  50
HETATM   50  N4  UNL     1      -8.049  -0.472  -0.840  1.00  0.00    -0.343 N 
ATOM     51  H4  UNL     1      -8.115  -1.184  -1.567  1.00  0.00     0.164 HD
BRANCH  50  52
HETATM   52  C6  UNL     1      -8.981   0.422  -0.762  1.00  0.00     0.193 C 
BRANCH  52  53
HETATM   53  N5  UNL     1      -8.991   1.456   0.207  1.00  0.00    -0.262 N 
ATOM     54  H5  UNL     1      -8.847   1.239   1.193  1.00  0.00     0.182 HD
BRANCH  53  55
HETATM   55  S1  UNL     1      -9.247   3.074  -0.296  1.00  0.00     0.209 S 
HETATM   56  O2  UNL     1      -9.934   3.899   0.768  1.00  0.00    -0.578 OA
HETATM   57  O3  UNL     1     -10.087   3.049  -1.557  1.00  0.00    -0.578 OA
HETATM   58  O4  UNL     1      -7.770   3.783  -0.632  1.00  0.00    -0.578 OA
ENDBRANCH  53  55
ENDBRANCH  52  53
ENDBRANCH  50  52
ENDBRANCH  47  50
ENDBRANCH  45  47
ENDBRANCH   4  45
TORSDOF 18
