REMARK  16 active torsions:
REMARK  status: ('A' for Active; 'I' for Inactive)
REMARK    1  A    between atoms: O1_2  and  C2_3 
REMARK    2  A    between atoms: C2_3  and  C3_5 
REMARK    3  A    between atoms: C3_5  and  C11_23 
REMARK    4  A    between atoms: N1_6  and  O3_8 
REMARK    5  A    between atoms: O3_8  and  C4_9 
REMARK    6  A    between atoms: C4_9  and  C5_10 
REMARK    7  A    between atoms: C5_10  and  O4_11 
REMARK    8  A    between atoms: O4_11  and  C6_12 
REMARK    9  A    between atoms: C6_12  and  C7_13 
REMARK   10  A    between atoms: C9_15  and  N2_16 
REMARK   11  A    between atoms: C10_19  and  O7_20 
REMARK   12  A    between atoms: C18_38  and  C19_39 
REMARK   13  A    between atoms: C19_39  and  O10_41 
REMARK   14  A    between atoms: C21_45  and  O11_46 
REMARK   15  A    between atoms: C22_48  and  C23_49 
REMARK   16  A    between atoms: C23_49  and  N7_50 
ROOT
HETATM    1  C11 UNL     1       0.035   0.782  -0.164  1.00  0.00     0.283 C 
HETATM    2  N3  UNL     1      -0.145   2.182  -0.521  1.00  0.00    -0.328 N 
ATOM      3  H3  UNL     1       0.555   2.586  -1.143  1.00  0.00     0.165 HD
HETATM    4  C12 UNL     1      -1.176   3.036  -0.103  1.00  0.00     0.237 C 
HETATM    5  O8  UNL     1      -0.876   4.136   0.491  1.00  0.00    -0.272 OA
HETATM    6  C13 UNL     1      -2.634   2.822  -0.268  1.00  0.00     0.224 C 
HETATM    7  N4  UNL     1      -3.436   3.675   0.592  1.00  0.00    -0.359 N 
ATOM      8  H4  UNL     1      -3.391   4.682   0.436  1.00  0.00     0.162 HD
HETATM    9  C14 UNL     1      -4.276   3.207   1.633  1.00  0.00     0.168 C 
HETATM   10  S2  UNL     1      -4.240   4.076   3.048  1.00  0.00    -0.041 SA
HETATM   11  N5  UNL     1      -5.119   2.074   1.550  1.00  0.00    -0.367 N 
ATOM     12  H5  UNL     1      -5.101   1.432   2.343  1.00  0.00     0.161 HD
HETATM   13  C15 UNL     1      -5.999   1.732   0.465  1.00  0.00     0.122 C 
HETATM   14  C16 UNL     1      -5.692   0.448  -0.232  1.00  0.00     0.022 C 
HETATM   15  C17 UNL     1      -5.608  -0.719   0.686  1.00  0.00     0.037 C 
HETATM   16  C18 UNL     1      -4.669  -1.791   0.075  1.00  0.00     0.179 C 
HETATM   17  N6  UNL     1      -3.426  -1.129  -0.115  1.00  0.00    -0.382 N 
ATOM     18  H6  UNL     1      -3.272  -0.186   0.242  1.00  0.00     0.156 HD
HETATM   19  C21 UNL     1      -2.404  -1.821  -0.818  1.00  0.00     0.245 C 
HETATM   20  C22 UNL     1      -1.054  -1.294  -0.304  1.00  0.00     0.198 C 
HETATM   21  O12 UNL     1      -1.120   0.060  -0.263  1.00  0.00    -0.349 OA
ENDROOT
BRANCH   1  22
HETATM   22  C3  UNL     1       0.701   0.684   1.179  1.00  0.00     0.155 C 
HETATM   23  N1  UNL     1       1.983   0.581   1.210  1.00  0.00    -0.261 N 
ATOM     24  H1  UNL     1       2.460   0.531   2.110  1.00  0.00     0.194 HD
BRANCH  22  25
HETATM   25  C2  UNL     1       0.010   0.725   2.436  1.00  0.00     0.311 C 
HETATM   26  O2  UNL     1       0.625   0.664   3.528  1.00  0.00    -0.258 OA
BRANCH  25  27
HETATM   27  O1  UNL     1      -1.365   0.833   2.507  1.00  0.00    -0.321 OA
HETATM   28  C1  UNL     1      -2.021   0.870   3.766  1.00  0.00     0.213 C 
ENDBRANCH  25  27
ENDBRANCH  22  25
BRANCH  23  29
HETATM   29  O3  UNL     1       2.717   0.537   0.059  1.00  0.00    -0.278 OA
BRANCH  29  30
HETATM   30  C4  UNL     1       4.128   0.298   0.089  1.00  0.00     0.227 C 
BRANCH  30  31
HETATM   31  C5  UNL     1       4.579   0.324  -1.351  1.00  0.00     0.196 C 
BRANCH  31  32
HETATM   32  O4  UNL     1       5.921   0.101  -1.437  1.00  0.00    -0.384 OA
BRANCH  32  33
HETATM   33  C6  UNL     1       6.639   1.052  -0.766  1.00  0.00     0.214 C 
BRANCH  33  34
HETATM   34  C7  UNL     1       8.127   0.790  -0.902  1.00  0.00     0.011 A 
HETATM   35  C8  UNL     1       8.729  -0.245  -1.562  1.00  0.00     0.056 A 
HETATM   36  C9  UNL     1      10.068  -0.286  -1.559  1.00  0.00     0.144 A 
HETATM   37  C10 UNL     1      10.720   0.718  -0.892  1.00  0.00     0.141 A 
HETATM   38  S1  UNL     1       9.446   1.679  -0.295  1.00  0.00    -0.066 SA
BRANCH  36  39
HETATM   39  N2  UNL     1      10.836  -1.328  -2.223  1.00  0.00    -0.112 N 
HETATM   40  O5  UNL     1      10.359  -1.911  -3.211  1.00  0.00    -0.532 OA
HETATM   41  O6  UNL     1      12.075  -1.657  -1.758  1.00  0.00    -0.532 OA
ENDBRANCH  36  39
BRANCH  37  42
HETATM   42  O7  UNL     1      12.114   0.894  -0.747  1.00  0.00    -0.352 OA
ATOM     43  H7  UNL     1      12.566   1.590  -0.285  1.00  0.00     0.218 HD
ENDBRANCH  37  42
ENDBRANCH  33  34
ENDBRANCH  32  33
ENDBRANCH  31  32
ENDBRANCH  30  31
ENDBRANCH  29  30
ENDBRANCH  23  29
ENDBRANCH   1  22
BRANCH  20  44
HETATM   44  C23 UNL     1       0.074  -1.889  -1.109  1.00  0.00     0.265 C 
BRANCH  44  45
HETATM   45  N7  UNL     1       0.021  -3.347  -1.093  1.00  0.00    -0.077 N 
ATOM     46  H73 UNL     1       0.007  -3.711  -0.140  1.00  0.00     0.274 HD
ATOM     47  H72 UNL     1      -0.886  -3.693  -1.406  1.00  0.00     0.274 HD
ATOM     48  H71 UNL     1       0.784  -3.749  -1.637  1.00  0.00     0.274 HD
ENDBRANCH  44  45
ENDBRANCH  20  44
BRANCH  19  49
HETATM   49  O11 UNL     1      -2.528  -3.181  -0.562  1.00  0.00    -0.374 OA
ATOM     50  H11 UNL     1      -1.844  -3.644  -1.032  1.00  0.00     0.212 HD
ENDBRANCH  19  49
BRANCH  16  51
HETATM   51  C19 UNL     1      -5.275  -2.389  -1.108  1.00  0.00     0.281 C 
HETATM   52  O9  UNL     1      -4.721  -2.307  -2.224  1.00  0.00    -0.263 OA
BRANCH  51  53
HETATM   53  O10 UNL     1      -6.481  -3.060  -1.016  1.00  0.00    -0.325 OA
HETATM   54  C20 UNL     1      -7.082  -3.646  -2.156  1.00  0.00     0.213 C 
ENDBRANCH  51  53
ENDBRANCH  16  51
TORSDOF 16
