REMARK  13 active torsions:
REMARK  status: ('A' for Active; 'I' for Inactive)
REMARK    1  A    between atoms: C2_2  and  C4_4 
REMARK    2  A    between atoms: N1_8  and  C7_9 
REMARK    3  A    between atoms: C7_9  and  C8_10 
REMARK    4  A    between atoms: C8_10  and  C9_11 
REMARK    5  A    between atoms: C9_11  and  C10_12 
REMARK    6  A    between atoms: C9_11  and  C12_16 
REMARK    7  A    between atoms: C10_12  and  C11_13 
REMARK    8  A    between atoms: C12_16  and  O4_17 
REMARK    9  A    between atoms: C12_16  and  N2_19 
REMARK   10  A    between atoms: N2_19  and  C13_21 
REMARK   11  A    between atoms: C13_21  and  C14_22 
REMARK   12  A    between atoms: C13_21  and  C21_29 
REMARK   13  A    between atoms: C14_22  and  C15_23 
ROOT
HETATM    1  C12 UNL     1      -0.611  -1.342   0.716  1.00  0.00     0.143 C 
ENDROOT
BRANCH   1   2
HETATM    2  C9  UNL     1      -1.615  -2.196   0.212  1.00  0.00     0.000 C 
BRANCH   2   3
HETATM    3  C8  UNL     1      -2.163  -2.239  -0.942  1.00  0.00     0.015 C 
BRANCH   3   4
HETATM    4  C7  UNL     1      -2.067  -1.487  -2.183  1.00  0.00     0.304 C 
BRANCH   4   5
HETATM    5  N1  UNL     1      -3.349  -0.925  -2.571  1.00  0.00     0.126 N 
HETATM    6  C4  UNL     1      -3.869   0.134  -1.782  1.00  0.00     0.388 C 
HETATM    7  O1  UNL     1      -2.713   0.904  -1.615  1.00  0.00    -0.352 OA
HETATM    8  C5  UNL     1      -2.313   1.087  -2.953  1.00  0.00     0.201 C 
HETATM    9  C6  UNL     1      -2.940  -0.071  -3.746  1.00  0.00     0.303 C 
BRANCH   6  10
HETATM   10  C2  UNL     1      -4.656  -0.142  -0.613  1.00  0.00    -0.035 C 
HETATM   11  C1  UNL     1      -5.316  -1.253  -0.335  1.00  0.00     0.018 C 
HETATM   12  C3  UNL     1      -4.778   0.987   0.396  1.00  0.00     0.047 C 
ENDBRANCH   6  10
ENDBRANCH   4   5
ENDBRANCH   3   4
ENDBRANCH   2   3
BRANCH   2  13
HETATM   13  C10 UNL     1      -2.105  -3.273   1.192  1.00  0.00     0.155 C 
BRANCH  13  14
HETATM   14  C11 UNL     1      -2.738  -2.625   2.331  1.00  0.00     0.177 C 
HETATM   15  O2  UNL     1      -2.924  -1.400   2.391  1.00  0.00    -0.648 OA
HETATM   16  O3  UNL     1      -3.166  -3.396   3.424  1.00  0.00    -0.648 OA
ENDBRANCH  13  14
ENDBRANCH   2  13
ENDBRANCH   1   2
BRANCH   1  17
HETATM   17  O4  UNL     1      -0.228  -1.560   1.951  1.00  0.00    -0.346 OA
ATOM     18  H4  UNL     1       0.448  -0.985   2.290  1.00  0.00     0.219 HD
ENDBRANCH   1  17
BRANCH   1  19
HETATM   19  N2  UNL     1       0.074  -0.276   0.126  1.00  0.00    -0.356 N 
ATOM     20  H2  UNL     1      -0.132  -0.002  -0.835  1.00  0.00     0.162 HD
BRANCH  19  21
HETATM   21  C13 UNL     1       1.134   0.476   0.932  1.00  0.00     0.185 C 
BRANCH  21  22
HETATM   22  C14 UNL     1       2.435   0.146   0.320  1.00  0.00     0.040 C 
BRANCH  22  23
HETATM   23  C15 UNL     1       3.702   0.700   0.831  1.00  0.00    -0.012 C 
HETATM   24  C16 UNL     1       4.880   0.079   0.013  1.00  0.00     0.005 C 
HETATM   25  C17 UNL     1       6.126   0.428   0.797  1.00  0.00     0.000 C 
HETATM   26  C18 UNL     1       6.397   1.901   0.522  1.00  0.00     0.000 C 
HETATM   27  C19 UNL     1       5.178   2.562  -0.071  1.00  0.00     0.000 C 
HETATM   28  C20 UNL     1       3.895   2.189   0.644  1.00  0.00     0.005 C 
ENDBRANCH  22  23
ENDBRANCH  21  22
BRANCH  21  29
HETATM   29  C21 UNL     1       0.673   1.839   1.038  1.00  0.00     0.196 C 
HETATM   30  O5  UNL     1      -0.273   2.280   0.274  1.00  0.00    -0.646 OA
HETATM   31  O6  UNL     1       1.130   2.819   1.921  1.00  0.00    -0.646 OA
ENDBRANCH  21  29
ENDBRANCH  19  21
ENDBRANCH   1  19
TORSDOF 13
