REMARK  11 active torsions:
REMARK  status: ('A' for Active; 'I' for Inactive)
REMARK    1  A    between atoms: C2_2  and  C3_3 
REMARK    2  A    between atoms: C3_3  and  C5_5 
REMARK    3  A    between atoms: C5_5  and  N1_6 
REMARK    4  A    between atoms: C5_5  and  C13_17 
REMARK       I    between atoms: N1_6  and  C6_8 
REMARK    5  A    between atoms: C6_8  and  C7_10 
REMARK    6  A    between atoms: C8_11  and  C9_12 
REMARK    7  A    between atoms: C13_17  and  C14_19 
REMARK       I    between atoms: C14_19  and  N2_21 
REMARK    8  A    between atoms: N2_21  and  C15_23 
REMARK    9  A    between atoms: C15_23  and  C16_24 
REMARK   10  A    between atoms: C15_23  and  C20_28 
REMARK   11  A    between atoms: C16_24  and  C17_25 
ROOT
HETATM    1  C5  UNL     1       0.393  -0.308  -1.001  1.00  0.00     0.168 C 
ENDROOT
BRANCH   1   2
HETATM    2  C3  UNL     1       0.577  -0.676  -2.442  1.00  0.00     0.012 C 
HETATM    3  C4  UNL     1      -0.569  -1.479  -3.019  1.00  0.00     0.012 C 
BRANCH   2   4
HETATM    4  C2  UNL     1       0.937   0.491  -3.309  1.00  0.00     0.002 C 
HETATM    5  C1  UNL     1       1.339  -0.018  -4.685  1.00  0.00     0.005 C 
ENDBRANCH   2   4
ENDBRANCH   1   2
BRANCH   1   6
HETATM    6  N1  UNL     1       1.673   0.243  -0.543  1.00  0.00    -0.345 N 
HETATM    7  C6  UNL     1       2.450  -0.419   0.439  1.00  0.00     0.241 C 
HETATM    8  O1  UNL     1       2.093  -1.507   0.968  1.00  0.00    -0.269 OA
ATOM      9  H1  UNL     1       2.010   1.120  -0.940  1.00  0.00     0.163 HD
BRANCH   7  10
HETATM   10  C7  UNL     1       3.706   0.167   0.861  1.00  0.00     0.071 C 
HETATM   11  C8  UNL     1       4.458  -0.414   1.773  1.00  0.00    -0.006 C 
BRANCH  11  12
HETATM   12  C9  UNL     1       5.718   0.177   2.194  1.00  0.00     0.070 C 
HETATM   13  C10 UNL     1       6.824  -0.872   2.366  1.00  0.00     0.020 C 
HETATM   14  C11 UNL     1       8.114  -0.075   2.392  1.00  0.00     0.012 C 
HETATM   15  C12 UNL     1       8.212   0.628   1.041  1.00  0.00     0.074 C 
HETATM   16  S1  UNL     1       6.465   1.162   0.834  1.00  0.00    -0.160 SA
ENDBRANCH  11  12
ENDBRANCH   7  10
ENDBRANCH   1   6
BRANCH   1  17
HETATM   17  C13 UNL     1      -0.696   0.673  -0.763  1.00  0.00     0.239 C 
HETATM   18  O2  UNL     1      -0.343   1.900  -0.831  1.00  0.00    -0.285 OA
BRANCH  17  19
HETATM   19  C14 UNL     1      -2.057   0.283  -0.471  1.00  0.00     0.290 C 
HETATM   20  O3  UNL     1      -2.321  -0.935  -0.381  1.00  0.00    -0.264 OA
HETATM   21  N2  UNL     1      -3.070   1.227  -0.290  1.00  0.00    -0.340 N 
ATOM     22  H2  UNL     1      -2.806   2.208  -0.377  1.00  0.00     0.163 HD
BRANCH  21  23
HETATM   23  C15 UNL     1      -4.460   0.947   0.010  1.00  0.00     0.186 C 
BRANCH  23  24
HETATM   24  C16 UNL     1      -4.638   0.199   1.278  1.00  0.00     0.040 C 
BRANCH  24  25
HETATM   25  C17 UNL     1      -6.060  -0.123   1.661  1.00  0.00    -0.020 C 
HETATM   26  C18 UNL     1      -6.921   1.109   1.830  1.00  0.00     0.009 C 
HETATM   27  C19 UNL     1      -6.066  -0.792   3.054  1.00  0.00     0.009 C 
ENDBRANCH  24  25
ENDBRANCH  23  24
BRANCH  23  28
HETATM   28  C20 UNL     1      -5.014   0.270  -1.186  1.00  0.00     0.196 C 
HETATM   29  O4  UNL     1      -4.338   0.000  -2.205  1.00  0.00    -0.646 OA
HETATM   30  O5  UNL     1      -6.352  -0.113  -1.248  1.00  0.00    -0.646 OA
ENDBRANCH  23  28
ENDBRANCH  21  23
ENDBRANCH  17  19
ENDBRANCH   1  17
TORSDOF 11
