REMARK  14 active torsions:
REMARK  status: ('A' for Active; 'I' for Inactive)
REMARK    1  A    between atoms: C2_2  and  C4_4 
REMARK    2  A    between atoms: C4_4  and  C5_5 
REMARK    3  A    between atoms: C5_5  and  C6_6 
REMARK    4  A    between atoms: C6_6  and  O1_7 
REMARK    5  A    between atoms: C6_6  and  C19_30 
REMARK    6  A    between atoms: O1_7  and  C7_8 
REMARK    7  A    between atoms: C7_8  and  C8_9 
REMARK    8  A    between atoms: C10_12  and  O3_13 
REMARK    9  A    between atoms: O3_13  and  C11_14 
REMARK   10  A    between atoms: C15_18  and  O4_19 
REMARK   11  A    between atoms: C16_21  and  O5_22 
REMARK   12  A    between atoms: C17_24  and  O6_25 
REMARK   13  A    between atoms: C18_27  and  O7_28 
REMARK   14  A    between atoms: C21_32  and  O8_33 
ROOT
HETATM    1  C8  UNL     1       0.066   0.107  -0.950  1.00  0.00     0.176 C 
HETATM    2  O2  UNL     1       0.571  -0.459   0.193  1.00  0.00    -0.378 OA
HETATM    3  C9  UNL     1       1.814  -0.082   0.598  1.00  0.00     0.203 C 
HETATM    4  C10 UNL     1       2.926  -0.756  -0.218  1.00  0.00     0.177 C 
HETATM    5  C16 UNL     1       2.227  -1.818  -1.046  1.00  0.00     0.180 C 
HETATM    6  C17 UNL     1       1.744  -1.190  -2.304  1.00  0.00     0.180 C 
HETATM    7  C18 UNL     1       0.969   0.080  -2.145  1.00  0.00     0.180 C 
ENDROOT
BRANCH   1   8
HETATM    8  C7  UNL     1      -0.466   1.492  -0.755  1.00  0.00     0.203 C 
BRANCH   8   9
HETATM    9  O1  UNL     1      -1.505   1.601   0.155  1.00  0.00    -0.377 OA
BRANCH   9  10
HETATM   10  C6  UNL     1      -2.647   0.921  -0.146  1.00  0.00     0.172 C 
BRANCH  10  11
HETATM   11  C5  UNL     1      -3.002  -0.079   0.938  1.00  0.00     0.039 C 
BRANCH  11  12
HETATM   12  C4  UNL     1      -4.271  -0.829   0.596  1.00  0.00     0.007 C 
BRANCH  12  13
HETATM   13  C2  UNL     1      -4.610  -1.820   1.686  1.00  0.00    -0.023 C 
HETATM   14  C1  UNL     1      -4.826  -1.185   3.022  1.00  0.00     0.009 C 
HETATM   15  C3  UNL     1      -3.539  -2.891   1.820  1.00  0.00     0.009 C 
ENDBRANCH  12  13
ENDBRANCH  11  12
ENDBRANCH  10  11
BRANCH  10  16
HETATM   16  C19 UNL     1      -3.763   1.912  -0.327  1.00  0.00     0.059 A 
HETATM   17  C20 UNL     1      -4.018   2.979   0.505  1.00  0.00     0.086 A 
HETATM   18  C21 UNL     1      -5.116   3.631  -0.010  1.00  0.00     0.158 A 
HETATM   19  N1  UNL     1      -5.498   2.967  -1.116  1.00  0.00    -0.276 N 
HETATM   20  C22 UNL     1      -6.638   3.388  -1.918  1.00  0.00     0.180 C 
HETATM   21  N2  UNL     1      -4.690   1.954  -1.292  1.00  0.00    -0.298 N 
ATOM     22  H2  UNL     1      -4.757   1.286  -2.060  1.00  0.00     0.187 HD
BRANCH  18  23
HETATM   23  O8  UNL     1      -5.720   4.763   0.512  1.00  0.00    -0.345 OA
ATOM     24  H8  UNL     1      -6.478   5.213   0.157  1.00  0.00     0.219 HD
ENDBRANCH  18  23
ENDBRANCH  10  16
ENDBRANCH   9  10
ENDBRANCH   8   9
ENDBRANCH   1   8
BRANCH   7  25
HETATM   25  O7  UNL     1       1.775   1.188  -2.307  1.00  0.00    -0.390 OA
ATOM     26  H7  UNL     1       2.348   1.171  -3.065  1.00  0.00     0.210 HD
ENDBRANCH   7  25
BRANCH   6  27
HETATM   27  O6  UNL     1       2.852  -0.899  -3.132  1.00  0.00    -0.390 OA
ATOM     28  H6  UNL     1       2.543  -0.498  -3.936  1.00  0.00     0.210 HD
ENDBRANCH   6  27
BRANCH   4  29
HETATM   29  O3  UNL     1       3.912  -1.271   0.584  1.00  0.00    -0.373 OA
BRANCH  29  30
HETATM   30  C11 UNL     1       5.149  -0.761   0.236  1.00  0.00     0.151 C 
HETATM   31  C12 UNL     1       6.165  -1.825  -0.065  1.00  0.00     0.034 C 
HETATM   32  C13 UNL     1       7.463  -1.020  -0.060  1.00  0.00     0.005 C 
HETATM   33  C14 UNL     1       7.259   0.046   0.966  1.00  0.00     0.034 C 
HETATM   34  C15 UNL     1       5.807  -0.049   1.423  1.00  0.00     0.147 C 
BRANCH  34  35
HETATM   35  O4  UNL     1       5.790  -0.883   2.525  1.00  0.00    -0.393 OA
ATOM     36  H4  UNL     1       6.198  -0.442   3.261  1.00  0.00     0.210 HD
ENDBRANCH  34  35
ENDBRANCH  29  30
ENDBRANCH   4  29
BRANCH   5  37
HETATM   37  O5  UNL     1       3.108  -2.846  -1.387  1.00  0.00    -0.390 OA
ATOM     38  H5  UNL     1       2.670  -3.511  -1.905  1.00  0.00     0.210 HD
ENDBRANCH   5  37
TORSDOF 14
