REMARK  13 active torsions:
REMARK  status: ('A' for Active; 'I' for Inactive)
REMARK    1  A    between atoms: O1_1  and  C1_3 
REMARK    2  A    between atoms: C1_3  and  C2_4 
REMARK    3  A    between atoms: C3_6  and  O3_7 
REMARK    4  A    between atoms: O3_7  and  C4_8 
REMARK    5  A    between atoms: C4_8  and  C5_9 
REMARK    6  A    between atoms: C9_16  and  S1_17 
REMARK    7  A    between atoms: S1_17  and  C10_18 
REMARK    8  A    between atoms: C10_18  and  C11_19 
REMARK    9  A    between atoms: C12_20  and  C13_21 
REMARK   10  A    between atoms: C13_21  and  C14_22 
REMARK   11  A    between atoms: C16_25  and  O7_26 
REMARK   12  A    between atoms: C17_28  and  O8_29 
REMARK   13  A    between atoms: C18_31  and  O9_32 
ROOT
HETATM    1  C4  UNL     1      -1.225   0.229  -0.235  1.00  0.00     0.203 C 
ENDROOT
BRANCH   1   2
HETATM    2  O3  UNL     1      -2.557   0.364  -0.203  1.00  0.00    -0.356 OA
BRANCH   2   3
HETATM    3  C3  UNL     1      -3.453  -0.608  -0.095  1.00  0.00     0.291 C 
HETATM    4  O2  UNL     1      -4.112  -0.472   1.129  1.00  0.00    -0.348 OA
HETATM    5  C2  UNL     1      -5.081   0.477   1.179  1.00  0.00     0.179 C 
HETATM    6  C18 UNL     1      -6.183   0.304   0.142  1.00  0.00     0.180 C 
HETATM    7  C17 UNL     1      -5.482   0.374  -1.207  1.00  0.00     0.183 C 
HETATM    8  C16 UNL     1      -4.446  -0.691  -1.244  1.00  0.00     0.204 C 
BRANCH   5   9
HETATM    9  C1  UNL     1      -4.622   1.905   1.144  1.00  0.00     0.198 C 
BRANCH   9  10
HETATM   10  O1  UNL     1      -5.793   2.699   1.209  1.00  0.00    -0.398 OA
ATOM     11  H1  UNL     1      -5.502   3.603   1.187  1.00  0.00     0.209 HD
ENDBRANCH   9  10
ENDBRANCH   5   9
BRANCH   6  12
HETATM   12  O9  UNL     1      -6.795  -0.915   0.305  1.00  0.00    -0.390 OA
ATOM     13  H9  UNL     1      -7.482  -1.023  -0.342  1.00  0.00     0.210 HD
ENDBRANCH   6  12
BRANCH   7  14
HETATM   14  O8  UNL     1      -6.430   0.078  -2.195  1.00  0.00    -0.390 OA
ATOM     15  H8  UNL     1      -7.092   0.759  -2.171  1.00  0.00     0.210 HD
ENDBRANCH   7  14
BRANCH   8  16
HETATM   16  O7  UNL     1      -3.758  -0.610  -2.438  1.00  0.00    -0.388 OA
ATOM     17  H7  UNL     1      -4.378  -0.662  -3.156  1.00  0.00     0.210 HD
ENDBRANCH   8  16
ENDBRANCH   2   3
ENDBRANCH   1   2
BRANCH   1  18
HETATM   18  C5  UNL     1      -0.515  -0.336   0.939  1.00  0.00     0.155 C 
HETATM   19  O4  UNL     1      -0.934  -1.652   1.141  1.00  0.00    -0.381 OA
HETATM   20  C6  UNL     1      -0.111  -2.485   0.385  1.00  0.00     0.200 C 
HETATM   21  C7  UNL     1       1.139  -1.743   0.049  1.00  0.00     0.158 C 
HETATM   22  O5  UNL     1       1.311  -1.427  -1.284  1.00  0.00    -0.359 OA
HETATM   23  C15 UNL     1       0.957  -0.478   0.860  1.00  0.00     0.087 C 
HETATM   24  C8  UNL     1       2.499  -0.716  -1.382  1.00  0.00     0.339 C 
HETATM   25  O6  UNL     1       2.406   0.519  -0.816  1.00  0.00    -0.351 OA
HETATM   26  C9  UNL     1       1.756   0.666   0.361  1.00  0.00     0.194 C 
BRANCH  26  27
HETATM   27  S1  UNL     1       2.821   1.292   1.668  1.00  0.00    -0.133 SA
BRANCH  27  28
HETATM   28  C10 UNL     1       4.174   0.265   2.148  1.00  0.00     0.103 C 
BRANCH  28  29
HETATM   29  C11 UNL     1       5.314   0.303   1.234  1.00  0.00    -0.021 C 
HETATM   30  C12 UNL     1       5.513   1.032   0.175  1.00  0.00    -0.029 C 
BRANCH  30  31
HETATM   31  C13 UNL     1       6.745   0.945  -0.658  1.00  0.00     0.038 C 
BRANCH  31  32
HETATM   32  C14 UNL     1       7.734  -0.058  -0.165  1.00  0.00     0.090 C 
HETATM   33  S2  UNL     1       9.171  -0.019  -1.304  1.00  0.00    -0.097 SA
ENDBRANCH  31  32
ENDBRANCH  30  31
ENDBRANCH  28  29
ENDBRANCH  27  28
ENDBRANCH  26  27
ENDBRANCH   1  18
TORSDOF 13
