REMARK  0 active torsions:
REMARK  status: ('A' for Active; 'I' for Inactive)
ROOT
HETATM    1  N1  UNL     1       2.853   1.934   0.409  1.00  0.00    -0.190 NA
HETATM    2  C1  UNL     1       1.819   1.386   0.298  1.00  0.00     0.120 C 
HETATM    3  C2  UNL     1       0.556   0.724   0.139  1.00  0.00     0.147 A 
HETATM    4  N2  UNL     1      -0.594   1.444   0.215  1.00  0.00    -0.298 N 
ATOM      5  H2  UNL     1      -0.542   2.448   0.385  1.00  0.00     0.171 HD
HETATM    6  C3  UNL     1      -1.798   0.864   0.072  1.00  0.00     0.328 A 
HETATM    7  O1  UNL     1      -2.859   1.556   0.146  1.00  0.00    -0.247 OA
HETATM    8  N3  UNL     1      -1.831  -0.462  -0.151  1.00  0.00    -0.274 N 
ATOM      9  H3  UNL     1      -2.738  -0.916  -0.262  1.00  0.00     0.173 HD
HETATM   10  C4  UNL     1      -0.714  -1.218  -0.234  1.00  0.00     0.276 A 
HETATM   11  O2  UNL     1      -0.763  -2.464  -0.444  1.00  0.00    -0.266 OA
HETATM   12  C5  UNL     1       0.522  -0.637  -0.089  1.00  0.00     0.151 A 
HETATM   13  N4  UNL     1       1.745  -1.366  -0.164  1.00  0.00    -0.093 NA
ENDROOT
TORSDOF 0
