REMARK  0 active torsions:
REMARK  status: ('A' for Active; 'I' for Inactive)
ROOT
HETATM    1  O1  UNL     1      -3.149  -0.603  -0.148  1.00  0.00    -0.245 OA
HETATM    2  C1  UNL     1      -1.922  -0.252  -0.053  1.00  0.00     0.354 A 
HETATM    3  N1  UNL     1      -1.421   0.917   0.313  1.00  0.00    -0.137 N 
ATOM      4  H1  UNL     1      -1.959   1.741   0.584  1.00  0.00     0.189 HD
HETATM    5  C2  UNL     1      -0.078   0.830   0.266  1.00  0.00     0.726 A 
HETATM    6  N2  UNL     1       1.100   1.464   0.453  1.00  0.00    -0.126 N 
ATOM      7  H2  UNL     1       1.192   2.432   0.762  1.00  0.00     0.206 HD
HETATM    8  N3  UNL     1       2.115   0.667   0.183  1.00  0.00    -0.235 N 
ATOM      9  H3  UNL     1       3.106   0.899   0.242  1.00  0.00     0.192 HD
HETATM   10  C3  UNL     1       1.586  -0.509  -0.185  1.00  0.00     0.375 A 
HETATM   11  O2  UNL     1       2.200  -1.550  -0.527  1.00  0.00    -0.243 OA
HETATM   12  N4  UNL     1       0.224  -0.417  -0.137  1.00  0.00    -0.025 N 
HETATM   13  N5  UNL     1      -0.904  -1.080  -0.332  1.00  0.00    -0.225 N 
ATOM     14  H5  UNL     1      -0.985  -2.049  -0.640  1.00  0.00     0.193 HD
ENDROOT
TORSDOF 0
