REMARK  3 active torsions:
REMARK  status: ('A' for Active; 'I' for Inactive)
REMARK    1  A    between atoms: C2_5  and  N3_6 
REMARK    2  A    between atoms: C4_11  and  N4_12 
REMARK    3  A    between atoms: N5_15  and  N6_16 
ROOT
HETATM    1  C1  UNL     1      -1.386  -1.780   0.198  1.00  0.00     0.202 C 
HETATM    2  N1  UNL     1      -0.357  -0.758   0.097  1.00  0.00    -0.214 N 
HETATM    3  N2  UNL     1       0.932  -1.059   0.220  1.00  0.00    -0.264 N 
ATOM      4  H2  UNL     1       1.193  -2.031   0.389  1.00  0.00     0.190 HD
HETATM    5  C2  UNL     1       1.908  -0.136   0.131  1.00  0.00     0.170 A 
HETATM    6  C3  UNL     1       1.516   1.169  -0.097  1.00  0.00     0.263 A 
HETATM    7  O1  UNL     1       2.373   2.091  -0.192  1.00  0.00    -0.280 OA
HETATM    8  C4  UNL     1       0.171   1.450  -0.220  1.00  0.00     0.194 A 
HETATM    9  N5  UNL     1      -0.774   0.489  -0.123  1.00  0.00    -0.166 N 
ENDROOT
BRANCH   5  10
HETATM   10  N3  UNL     1       3.167  -0.437   0.252  1.00  0.00    -0.381 N 
ATOM     11  H32 UNL     1       3.456  -1.400   0.420  1.00  0.00     0.157 HD
ATOM     12  H31 UNL     1       3.906   0.262   0.185  1.00  0.00     0.157 HD
ENDBRANCH   5  10
BRANCH   8  13
HETATM   13  N4  UNL     1      -0.261   2.654  -0.435  1.00  0.00    -0.379 N 
ATOM     14  H42 UNL     1       0.452   3.379  -0.508  1.00  0.00     0.158 HD
ATOM     15  H41 UNL     1      -1.255   2.862  -0.526  1.00  0.00     0.158 HD
ENDBRANCH   8  13
BRANCH   9  16
HETATM   16  N6  UNL     1      -2.136   0.762  -0.246  1.00  0.00    -0.321 N 
ATOM     17  H62 UNL     1      -2.849   0.037  -0.173  1.00  0.00     0.179 HD
ATOM     18  H61 UNL     1      -2.455   1.716  -0.414  1.00  0.00     0.179 HD
ENDBRANCH   9  16
TORSDOF 3
