REMARK  2 active torsions:
REMARK  status: ('A' for Active; 'I' for Inactive)
REMARK    1  A    between atoms: O1_1  and  N1_3 
REMARK    2  A    between atoms: N4_8  and  O2_9 
ROOT
HETATM    1  N1  UNL     1      -1.454   0.237  -0.025  1.00  0.00    -0.059 N 
HETATM    2  N2  UNL     1      -1.136  -0.990  -0.317  1.00  0.00    -0.185 N 
ATOM      3  H2  UNL     1      -1.807  -1.733  -0.511  1.00  0.00     0.214 HD
HETATM    4  N3  UNL     1       0.159  -1.139  -0.328  1.00  0.00    -0.185 N 
ATOM      5  H3  UNL     1       0.666  -2.001  -0.528  1.00  0.00     0.214 HD
HETATM    6  N4  UNL     1       0.692   0.026  -0.034  1.00  0.00    -0.059 N 
HETATM    7  N5  UNL     1      -0.303   0.878   0.153  1.00  0.00     0.072 NA
ENDROOT
BRANCH   1   8
HETATM    8  O1  UNL     1      -2.703   0.837   0.096  1.00  0.00    -0.254 OA
ATOM      9  H1  UNL     1      -2.935   1.733   0.309  1.00  0.00     0.248 HD
ENDBRANCH   1   8
BRANCH   6  10
HETATM   10  O2  UNL     1       2.040   0.234   0.044  1.00  0.00    -0.254 OA
ATOM     11  H2  UNL     1       2.425   1.076   0.256  1.00  0.00     0.248 HD
ENDBRANCH   6  10
TORSDOF 2
