REMARK  2 active torsions:
REMARK  status: ('A' for Active; 'I' for Inactive)
REMARK    1  A    between atoms: O1_1  and  N1_3 
REMARK    2  A    between atoms: N4_6  and  O2_7 
ROOT
HETATM    1  N1  UNL     1      -1.456   0.310  -0.050  1.00  0.00    -0.062 N 
HETATM    2  N2  UNL     1      -1.222  -0.991  -0.196  1.00  0.00     0.039 NA
HETATM    3  N3  UNL     1       0.102  -1.180  -0.210  1.00  0.00     0.039 NA
HETATM    4  N4  UNL     1       0.684   0.002  -0.073  1.00  0.00    -0.062 N 
HETATM    5  N5  UNL     1      -0.272   0.912   0.025  1.00  0.00     0.065 NA
ENDROOT
BRANCH   1   6
HETATM    6  O1  UNL     1      -2.598   0.781  -0.003  1.00  0.00    -0.257 OA
ATOM      7  H1  UNL     1      -2.765   1.710   0.101  1.00  0.00     0.248 HD
ENDBRANCH   1   6
BRANCH   4   8
HETATM    8  O2  UNL     1       2.017   0.326  -0.029  1.00  0.00    -0.257 OA
ATOM      9  H2  UNL     1       2.434   1.174   0.069  1.00  0.00     0.248 HD
ENDBRANCH   4   8
TORSDOF 2
