REMARK  5 active torsions:
REMARK  status: ('A' for Active; 'I' for Inactive)
REMARK    1  A    between atoms: N1_1  and  C1_5 
REMARK    2  A    between atoms: C1_5  and  C2_6 
REMARK    3  A    between atoms: C2_6  and  N2_7 
REMARK    4  A    between atoms: N2_7  and  N3_9 
REMARK    5  A    between atoms: N3_9  and  C3_11 
ROOT
HETATM    1  N3  UNL     1      -0.555   0.156  -1.326  1.00  0.00    -0.135 N 
ATOM      2  H3  UNL     1      -0.606   0.509  -2.282  1.00  0.00     0.205 HD
ENDROOT
BRANCH   1   3
HETATM    3  N2  UNL     1       0.673  -0.177  -0.750  1.00  0.00    -0.321 N 
ATOM      4  H2  UNL     1       1.154  -1.017  -1.071  1.00  0.00     0.180 HD
BRANCH   3   5
HETATM    5  C2  UNL     1       1.286   0.625   0.283  1.00  0.00     0.167 C 
BRANCH   5   6
HETATM    6  C1  UNL     1       2.600  -0.001   0.692  1.00  0.00     0.250 C 
BRANCH   6   7
HETATM    7  N1  UNL     1       3.480  -0.062  -0.474  1.00  0.00    -0.078 N 
ATOM      8  H13 UNL     1       3.048  -0.544  -1.262  1.00  0.00     0.274 HD
ATOM      9  H12 UNL     1       3.604   0.849  -0.915  1.00  0.00     0.274 HD
ATOM     10  H11 UNL     1       4.367  -0.484  -0.198  1.00  0.00     0.274 HD
ENDBRANCH   6   7
ENDBRANCH   5   6
ENDBRANCH   3   5
ENDBRANCH   1   3
BRANCH   1  11
HETATM   11  C3  UNL     1      -1.631   0.004  -0.612  1.00  0.00     0.712 A 
HETATM   12  N4  UNL     1      -1.716  -0.454   0.670  1.00  0.00    -0.184 N 
HETATM   13  C4  UNL     1      -3.007  -0.455   1.030  1.00  0.00     0.215 A 
ATOM     14  H4  UNL     1      -0.932  -0.745   1.254  1.00  0.00     0.185 HD
HETATM   15  N5  UNL     1      -3.735  -0.007  -0.002  1.00  0.00    -0.281 N 
HETATM   16  N6  UNL     1      -2.901   0.260  -0.965  1.00  0.00    -0.130 N 
ATOM     17  H5  UNL     1      -4.749   0.104  -0.028  1.00  0.00     0.188 HD
ATOM     18  H6  UNL     1      -3.179   0.620  -1.878  1.00  0.00     0.205 HD
ENDBRANCH   1  11
TORSDOF 5
