REMARK  5 active torsions:
REMARK  status: ('A' for Active; 'I' for Inactive)
REMARK    1  A    between atoms: C2_2  and  O1_3 
REMARK    2  A    between atoms: O1_3  and  C3_4 
REMARK    3  A    between atoms: C3_4  and  C4_5 
REMARK    4  A    between atoms: C5_9  and  N2_10 
REMARK    5  A    between atoms: N2_10  and  N3_11 
ROOT
HETATM    1  C4  UNL     1      -0.328  -0.157   1.016  1.00  0.00     0.353 C 
HETATM    2  N1  UNL     1      -1.024  -1.197   0.280  1.00  0.00    -0.004 N 
ATOM      3  H11 UNL     1      -1.282  -2.098   0.683  1.00  0.00     0.285 HD
ATOM      4  H12 UNL     1      -0.596  -1.741  -0.469  1.00  0.00     0.285 HD
HETATM    5  C5  UNL     1      -1.971  -0.117   0.051  1.00  0.00     0.442 C 
HETATM    6  O2  UNL     1      -0.838   0.731   0.047  1.00  0.00    -0.310 OA
ENDROOT
BRANCH   1   7
HETATM    7  C3  UNL     1       1.162  -0.277   1.045  1.00  0.00     0.235 C 
BRANCH   7   8
HETATM    8  O1  UNL     1       1.765  -0.247  -0.221  1.00  0.00    -0.360 OA
BRANCH   8   9
HETATM    9  C2  UNL     1       3.145  -0.353  -0.271  1.00  0.00     0.124 C 
HETATM   10  C1  UNL     1       3.955   0.677  -0.111  1.00  0.00     0.037 C 
ENDBRANCH   8   9
ENDBRANCH   7   8
ENDBRANCH   1   7
BRANCH   5  11
HETATM   11  N2  UNL     1      -2.668  -0.183  -1.207  1.00  0.00    -0.087 NA
BRANCH  11  12
HETATM   12  N3  UNL     1      -3.532   0.927  -1.257  1.00  0.00    -0.344 N 
ATOM     13  H32 UNL     1      -3.634   1.636  -0.531  1.00  0.00     0.172 HD
ATOM     14  H31 UNL     1      -4.026   0.880  -2.148  1.00  0.00     0.172 HD
ENDBRANCH  11  12
ENDBRANCH   5  11
TORSDOF 5
