REMARK  5 active torsions:
REMARK  status: ('A' for Active; 'I' for Inactive)
REMARK    1  A    between atoms: N1_1  and  C1_5 
REMARK    2  A    between atoms: C1_5  and  C2_6 
REMARK    3  A    between atoms: C2_6  and  C3_7 
REMARK    4  A    between atoms: C3_7  and  N2_8 
REMARK    5  A    between atoms: N2_8  and  C4_10 
ROOT
HETATM    1  N2  UNL     1       0.027   0.155   0.454  1.00  0.00    -0.362 N 
ATOM      2  H2  UNL     1       0.454   0.730   1.180  1.00  0.00     0.162 HD
ENDROOT
BRANCH   1   3
HETATM    3  C3  UNL     1       0.764  -0.868  -0.240  1.00  0.00     0.124 C 
BRANCH   3   4
HETATM    4  C2  UNL     1       2.193  -0.969   0.234  1.00  0.00     0.047 C 
BRANCH   4   5
HETATM    5  C1  UNL     1       2.863   0.366  -0.011  1.00  0.00     0.231 C 
BRANCH   5   6
HETATM    6  N1  UNL     1       4.247   0.312   0.434  1.00  0.00    -0.079 N 
ATOM      7  H13 UNL     1       4.326   0.016   1.407  1.00  0.00     0.274 HD
ATOM      8  H12 UNL     1       4.758  -0.458   0.004  1.00  0.00     0.274 HD
ATOM      9  H11 UNL     1       4.698   1.212   0.269  1.00  0.00     0.274 HD
ENDBRANCH   5   6
ENDBRANCH   4   5
ENDBRANCH   3   4
ENDBRANCH   1   3
BRANCH   1  10
HETATM   10  C4  UNL     1      -1.350   0.318   0.061  1.00  0.00     0.171 C 
HETATM   11  N3  UNL     1      -1.798   1.232  -0.717  1.00  0.00    -0.361 N 
HETATM   12  C5  UNL     1      -3.215   1.163  -0.942  1.00  0.00     0.142 C 
ATOM     13  H3  UNL     1      -1.202   1.944  -1.139  1.00  0.00     0.162 HD
HETATM   14  C6  UNL     1      -3.694   0.132   0.024  1.00  0.00     0.142 C 
HETATM   15  N4  UNL     1      -2.458  -0.478   0.446  1.00  0.00    -0.361 N 
ATOM     16  H4  UNL     1      -2.390  -1.361   0.952  1.00  0.00     0.162 HD
ENDBRANCH   1  10
TORSDOF 5
