REMARK  7 active torsions:
REMARK  status: ('A' for Active; 'I' for Inactive)
REMARK    1  A    between atoms: C2_2  and  C3_3 
REMARK    2  A    between atoms: C3_3  and  C4_4 
REMARK    3  A    between atoms: C6_9  and  C7_10 
REMARK    4  A    between atoms: C7_10  and  C8_11 
REMARK    5  A    between atoms: C14_17  and  O2_18 
REMARK    6  A    between atoms: C15_20  and  N2_21 
REMARK    7  A    between atoms: N3_23  and  N4_25 
ROOT
HETATM    1  C4  UNL     1       2.092   1.273  -0.112  1.00  0.00     0.104 C 
HETATM    2  C5  UNL     1       1.137   1.626   0.964  1.00  0.00     0.224 C 
HETATM    3  O1  UNL     1       1.576   2.253   1.978  1.00  0.00    -0.273 OA
HETATM    4  N1  UNL     1      -0.217   1.257   0.825  1.00  0.00    -0.353 N 
ATOM      5  H1  UNL     1      -0.942   1.834   1.252  1.00  0.00     0.163 HD
HETATM    6  C6  UNL     1      -0.585   0.098   0.102  1.00  0.00     0.115 C 
HETATM    7  C14 UNL     1       0.348  -0.301  -1.008  1.00  0.00     0.165 C 
HETATM    8  C15 UNL     1       1.792  -0.075  -0.715  1.00  0.00     0.144 C 
ENDROOT
BRANCH   6   9
HETATM    9  C7  UNL     1      -1.975   0.127  -0.478  1.00  0.00     0.032 C 
BRANCH   9  10
HETATM   10  C8  UNL     1      -3.069   0.275   0.518  1.00  0.00    -0.013 C 
HETATM   11  C9  UNL     1      -3.115  -0.832   1.529  1.00  0.00     0.005 C 
HETATM   12  C10 UNL     1      -4.454  -1.507   1.622  1.00  0.00     0.000 C 
HETATM   13  C11 UNL     1      -4.839  -1.931   0.224  1.00  0.00     0.000 C 
HETATM   14  C12 UNL     1      -5.127  -0.703  -0.567  1.00  0.00     0.000 C 
HETATM   15  C13 UNL     1      -4.360   0.507  -0.196  1.00  0.00     0.005 C 
ENDBRANCH   9  10
ENDBRANCH   6   9
BRANCH   7  16
HETATM   16  O2  UNL     1       0.025   0.336  -2.219  1.00  0.00    -0.391 OA
ATOM     17  H2  UNL     1       0.614   0.084  -2.920  1.00  0.00     0.210 HD
ENDBRANCH   7  16
BRANCH   8  18
HETATM   18  N2  UNL     1       2.304  -1.144   0.106  1.00  0.00    -0.314 N 
HETATM   19  N3  UNL     1       3.369  -1.778  -0.174  1.00  0.00    -0.250 N 
ATOM     20  H3  UNL     1       3.881  -1.516  -1.017  1.00  0.00     0.207 HD
ATOM     21  H2  UNL     1       1.789  -1.402   0.948  1.00  0.00     0.182 HD
BRANCH  19  22
HETATM   22  N4  UNL     1       3.871  -2.806   0.605  1.00  0.00    -0.323 N 
HETATM   23  C16 UNL     1       3.560  -3.023   1.994  1.00  0.00     0.172 C 
HETATM   24  C17 UNL     1       4.792  -3.748  -0.036  1.00  0.00     0.172 C 
ENDBRANCH  19  22
ENDBRANCH   8  18
BRANCH   1  25
HETATM   25  C3  UNL     1       2.131   2.366  -1.147  1.00  0.00     0.016 C 
BRANCH  25  26
HETATM   26  C2  UNL     1       2.568   3.687  -0.552  1.00  0.00    -0.004 C 
HETATM   27  C1  UNL     1       2.610   4.779  -1.598  1.00  0.00     0.005 C 
ENDBRANCH  25  26
ENDBRANCH   1  25
TORSDOF 7
