REMARK  6 active torsions:
REMARK  status: ('A' for Active; 'I' for Inactive)
REMARK    1  A    between atoms: C2_2  and  C3_3 
REMARK    2  A    between atoms: C3_3  and  C4_4 
REMARK    3  A    between atoms: C5_5  and  C6_6 
REMARK    4  A    between atoms: C6_6  and  C8_8 
REMARK    5  A    between atoms: C11_13  and  O1_14 
REMARK    6  A    between atoms: O1_14  and  S1_15 
ROOT
HETATM    1  C8  UNL     1       0.181  -0.986   0.477  1.00  0.00     0.103 C 
HETATM    2  N1  UNL     1      -0.234  -0.156   1.616  1.00  0.00    -0.386 N 
ATOM      3  H1  UNL     1       0.213   0.265   2.431  1.00  0.00     0.160 HD
HETATM    4  C9  UNL     1      -1.531  -0.207   1.069  1.00  0.00     0.014 C 
HETATM    5  C10 UNL     1      -2.820  -0.203   1.270  1.00  0.00     0.032 C 
HETATM    6  C11 UNL     1      -3.678  -0.299   0.039  1.00  0.00     0.169 C 
HETATM    7  C12 UNL     1      -3.132  -1.302  -0.938  1.00  0.00     0.039 C 
HETATM    8  C13 UNL     1      -1.674  -1.160  -1.225  1.00  0.00     0.020 C 
HETATM    9  C14 UNL     1      -0.922  -0.298  -0.267  1.00  0.00     0.019 C 
HETATM   10  C15 UNL     1      -0.577   1.061  -0.831  1.00  0.00     0.024 C 
ENDROOT
BRANCH   1  11
HETATM   11  C6  UNL     1       1.580  -0.716  -0.010  1.00  0.00     0.027 C 
HETATM   12  C7  UNL     1       1.850  -1.815  -1.056  1.00  0.00     0.016 C 
BRANCH  11  13
HETATM   13  C5  UNL     1       2.543  -0.975   1.092  1.00  0.00    -0.024 C 
HETATM   14  C4  UNL     1       3.340  -0.044   1.570  1.00  0.00    -0.030 C 
BRANCH  14  15
HETATM   15  C3  UNL     1       3.411   1.361   1.113  1.00  0.00     0.026 C 
BRANCH  15  16
HETATM   16  C2  UNL     1       4.817   1.682   0.593  1.00  0.00    -0.001 C 
HETATM   17  C1  UNL     1       5.103   0.744  -0.568  1.00  0.00     0.005 C 
ENDBRANCH  15  16
ENDBRANCH  14  15
ENDBRANCH  11  13
ENDBRANCH   1  11
BRANCH   6  18
HETATM   18  O1  UNL     1      -4.950  -0.648   0.432  1.00  0.00    -0.247 OA
BRANCH  18  19
HETATM   19  S1  UNL     1      -6.010   0.592   0.119  1.00  0.00     0.252 S 
HETATM   20  O2  UNL     1      -7.272   0.324   0.901  1.00  0.00    -0.572 OA
HETATM   21  O3  UNL     1      -6.366   0.617  -1.353  1.00  0.00    -0.572 OA
HETATM   22  O4  UNL     1      -5.422   2.082   0.604  1.00  0.00    -0.572 OA
ENDBRANCH  18  19
ENDBRANCH   6  18
TORSDOF 6
