REMARK  7 active torsions:
REMARK  status: ('A' for Active; 'I' for Inactive)
REMARK    1  A    between atoms: C2_2  and  C3_3 
REMARK    2  A    between atoms: C3_3  and  C4_4 
REMARK    3  A    between atoms: C4_4  and  C5_5 
REMARK    4  A    between atoms: C5_5  and  C6_6 
REMARK    5  A    between atoms: C10_14  and  N3_15 
REMARK    6  A    between atoms: N3_15  and  C11_17 
REMARK    7  A    between atoms: C11_17  and  C12_18 
ROOT
HETATM    1  C5  UNL     1       2.361  -0.342   0.244  1.00  0.00     0.083 C 
HETATM    2  C8  UNL     1       1.434  -1.215   1.121  1.00  0.00     0.159 C 
HETATM    3  N1  UNL     1       0.282  -1.579   0.317  1.00  0.00    -0.371 N 
ATOM      4  H1  UNL     1      -0.046  -2.545   0.292  1.00  0.00     0.161 HD
HETATM    5  C9  UNL     1      -0.386  -0.570  -0.438  1.00  0.00     0.152 A 
HETATM    6  N2  UNL     1      -1.654  -0.713  -0.866  1.00  0.00    -0.174 N 
ATOM      7  H2  UNL     1      -2.151  -1.575  -0.641  1.00  0.00     0.186 HD
HETATM    8  C10 UNL     1      -2.292   0.229  -1.576  1.00  0.00     0.679 A 
HETATM    9  N4  UNL     1      -1.626   1.357  -1.865  1.00  0.00    -0.199 N 
ATOM     10  H4  UNL     1      -2.104   2.079  -2.405  1.00  0.00     0.183 HD
HETATM   11  C16 UNL     1      -0.362   1.581  -1.478  1.00  0.00     0.146 A 
HETATM   12  C17 UNL     1       0.283   0.584  -0.738  1.00  0.00     0.130 A 
HETATM   13  O2  UNL     1       1.585   0.737  -0.301  1.00  0.00    -0.333 OA
ENDROOT
BRANCH   8  14
HETATM   14  N3  UNL     1      -3.495   0.105  -1.988  1.00  0.00    -0.224 N 
ATOM     15  H3  UNL     1      -3.870   0.891  -2.519  1.00  0.00     0.177 HD
BRANCH  14  16
HETATM   16  C11 UNL     1      -4.376  -0.998  -1.796  1.00  0.00     0.170 C 
BRANCH  16  17
HETATM   17  C12 UNL     1      -5.523  -0.678  -0.860  1.00  0.00     0.139 C 
HETATM   18  C13 UNL     1      -5.073  -0.353   0.533  1.00  0.00     0.035 C 
HETATM   19  C14 UNL     1      -6.223   0.550   1.000  1.00  0.00     0.029 C 
HETATM   20  C15 UNL     1      -6.616   1.197  -0.305  1.00  0.00     0.168 C 
HETATM   21  O1  UNL     1      -6.292   0.352  -1.324  1.00  0.00    -0.384 OA
ENDBRANCH  16  17
ENDBRANCH  14  16
ENDBRANCH   8  14
BRANCH   1  22
HETATM   22  C4  UNL     1       3.348   0.254   1.159  1.00  0.00     0.040 C 
BRANCH  22  23
HETATM   23  C3  UNL     1       4.397   1.145   0.581  1.00  0.00     0.003 C 
BRANCH  23  24
HETATM   24  C2  UNL     1       5.306   1.702   1.694  1.00  0.00    -0.004 C 
HETATM   25  C1  UNL     1       5.987   0.560   2.428  1.00  0.00     0.005 C 
ENDBRANCH  23  24
ENDBRANCH  22  23
ENDBRANCH   1  22
BRANCH   1  26
HETATM   26  C6  UNL     1       2.819  -1.226  -0.850  1.00  0.00     0.036 C 
HETATM   27  C7  UNL     1       3.730  -0.657  -1.871  1.00  0.00     0.008 C 
ENDBRANCH   1  26
TORSDOF 7
