REMARK  5 active torsions:
REMARK  status: ('A' for Active; 'I' for Inactive)
REMARK    1  A    between atoms: N1_1  and  C1_4 
REMARK    2  A    between atoms: C2_9  and  C3_10 
REMARK    3  A    between atoms: C3_10  and  O2_12 
REMARK    4  A    between atoms: O2_12  and  N4_13 
REMARK    5  A    between atoms: N4_13  and  N5_14 
ROOT
HETATM    1  C1  UNL     1      -2.951   0.079   0.582  1.00  0.00     0.693 A 
HETATM    2  N2  UNL     1      -2.354   1.241   0.830  1.00  0.00    -0.132 N 
ATOM      3  H2  UNL     1      -2.894   2.033   1.178  1.00  0.00     0.205 HD
HETATM    4  N3  UNL     1      -1.057   1.359   0.621  1.00  0.00    -0.276 N 
ATOM      5  H3  UNL     1      -0.612   2.256   0.815  1.00  0.00     0.188 HD
HETATM    6  C2  UNL     1      -0.292   0.345   0.162  1.00  0.00     0.194 A 
HETATM    7  C4  UNL     1      -0.919  -0.848  -0.091  1.00  0.00     0.294 A 
HETATM    8  O3  UNL     1      -0.267  -1.823  -0.517  1.00  0.00    -0.265 OA
HETATM    9  N6  UNL     1      -2.237  -0.990   0.115  1.00  0.00    -0.153 N 
ATOM     10  H6  UNL     1      -2.699  -1.880  -0.073  1.00  0.00     0.187 HD
ENDROOT
BRANCH   6  11
HETATM   11  C3  UNL     1       1.145   0.521  -0.056  1.00  0.00     0.336 C 
HETATM   12  O1  UNL     1       1.729   1.610   0.172  1.00  0.00    -0.256 OA
BRANCH  11  13
HETATM   13  O2  UNL     1       1.926  -0.519  -0.526  1.00  0.00    -0.180 OA
BRANCH  13  14
HETATM   14  N4  UNL     1       3.263  -0.416  -0.747  1.00  0.00     0.022 NA
BRANCH  14  15
HETATM   15  N5  UNL     1       3.967   0.185   0.276  1.00  0.00    -0.322 N 
ATOM     16  H52 UNL     1       3.507   0.519   1.123  1.00  0.00     0.174 HD
ATOM     17  H51 UNL     1       4.970   0.262   0.110  1.00  0.00     0.174 HD
ENDBRANCH  14  15
ENDBRANCH  13  14
ENDBRANCH  11  13
ENDBRANCH   6  11
BRANCH   1  18
HETATM   18  N1  UNL     1      -4.219  -0.119   0.760  1.00  0.00    -0.233 N 
ATOM     19  H12 UNL     1      -4.751   0.678   1.108  1.00  0.00     0.174 HD
ATOM     20  H11 UNL     1      -4.677  -1.010   0.570  1.00  0.00     0.174 HD
ENDBRANCH   1  18
TORSDOF 5
