REMARK  6 active torsions:
REMARK  status: ('A' for Active; 'I' for Inactive)
REMARK    1  A    between atoms: N1_2  and  C2_4 
REMARK    2  A    between atoms: C4_8  and  C5_9 
REMARK    3  A    between atoms: C5_9  and  N3_10 
REMARK    4  A    between atoms: N7_25  and  C13_26 
REMARK    5  A    between atoms: C13_26  and  C14_27 
REMARK    6  A    between atoms: C14_27  and  C15_28 
ROOT
HETATM    1  C2  UNL     1       1.419  -0.491  -0.020  1.00  0.00     0.138 A 
HETATM    2  C3  UNL     1       0.064  -0.287   0.182  1.00  0.00     0.123 A 
HETATM    3  N2  UNL     1      -0.952  -1.107   0.428  1.00  0.00    -0.338 N 
ATOM      4  H2  UNL     1      -0.881  -2.121   0.515  1.00  0.00     0.167 HD
HETATM    5  C4  UNL     1      -2.101  -0.388   0.546  1.00  0.00     0.112 A 
HETATM    6  N5  UNL     1      -1.772   0.893   0.367  1.00  0.00    -0.328 N 
ATOM      7  H5  UNL     1      -2.427   1.674   0.398  1.00  0.00     0.168 HD
HETATM    8  C10 UNL     1      -0.465   1.002   0.142  1.00  0.00     0.143 A 
HETATM    9  N6  UNL     1       0.393   2.012  -0.097  1.00  0.00    -0.287 N 
HETATM   10  C11 UNL     1      -0.124   3.350  -0.143  1.00  0.00     0.163 C 
HETATM   11  C12 UNL     1       1.706   1.791  -0.291  1.00  0.00     0.331 A 
HETATM   12  O1  UNL     1       2.480   2.782  -0.514  1.00  0.00    -0.246 OA
HETATM   13  N7  UNL     1       2.252   0.584  -0.262  1.00  0.00    -0.283 N 
ENDROOT
BRANCH   5  14
HETATM   14  C5  UNL     1      -3.434  -0.979   0.822  1.00  0.00     0.348 C 
BRANCH  14  15
HETATM   15  N3  UNL     1      -4.471   0.007   0.896  1.00  0.00     0.098 N 
HETATM   16  C6  UNL     1      -4.633   0.767  -0.307  1.00  0.00     0.300 C 
HETATM   17  C7  UNL     1      -6.114   1.090  -0.524  1.00  0.00     0.262 C 
HETATM   18  N4  UNL     1      -6.881  -0.075  -0.853  1.00  0.00    -0.072 N 
HETATM   19  C8  UNL     1      -6.370  -1.199  -0.083  1.00  0.00     0.262 C 
ATOM     20  H42 UNL     1      -7.883   0.066  -0.721  1.00  0.00     0.277 HD
ATOM     21  H41 UNL     1      -6.897  -0.263  -1.855  1.00  0.00     0.277 HD
HETATM   22  C9  UNL     1      -5.713  -0.696   1.209  1.00  0.00     0.300 C 
ENDBRANCH  14  15
ENDBRANCH   5  14
BRANCH   1  23
HETATM   23  N1  UNL     1       1.926  -1.651   0.010  1.00  0.00    -0.378 N 
HETATM   24  C1  UNL     1       1.506  -2.952   0.206  1.00  0.00     0.147 C 
ATOM     25  H1  UNL     1       2.931  -1.614  -0.159  1.00  0.00     0.160 HD
ENDBRANCH   1  23
BRANCH  13  26
HETATM   26  C13 UNL     1       3.641   0.293  -0.461  1.00  0.00     0.136 C 
BRANCH  26  27
HETATM   27  C14 UNL     1       4.432   0.307   0.827  1.00  0.00     0.024 C 
BRANCH  27  28
HETATM   28  C15 UNL     1       5.881   0.002   0.618  1.00  0.00    -0.021 C 
HETATM   29  C16 UNL     1       6.122  -1.354   0.005  1.00  0.00     0.009 C 
HETATM   30  C17 UNL     1       6.579   1.034  -0.230  1.00  0.00     0.009 C 
ENDBRANCH  27  28
ENDBRANCH  26  27
ENDBRANCH  13  26
TORSDOF 6
