REMARK  6 active torsions:
REMARK  status: ('A' for Active; 'I' for Inactive)
REMARK    1  A    between atoms: C2_2  and  S1_3 
REMARK    2  A    between atoms: S1_3  and  C3_4 
REMARK    3  A    between atoms: C3_4  and  C5_6 
REMARK       I    between atoms: C5_6  and  N1_8 
REMARK    4  A    between atoms: N1_8  and  C6_10 
REMARK    5  A    between atoms: C7_15  and  S2_16 
REMARK    6  A    between atoms: S2_16  and  N4_19 
REMARK       I    between atoms: N4_19  and  C8_21 
ROOT
HETATM    1  C6  UNL     1      -0.289  -0.130  -0.475  1.00  0.00     0.168 A 
HETATM    2  N2  UNL     1      -1.245  -0.164  -1.426  1.00  0.00    -0.278 N 
ATOM      3  H2  UNL     1      -1.064  -0.581  -2.339  1.00  0.00     0.189 HD
HETATM    4  N3  UNL     1      -2.374   0.338  -1.151  1.00  0.00    -0.281 N 
ATOM      5  H3  UNL     1      -3.106   0.318  -1.861  1.00  0.00     0.188 HD
HETATM    6  C7  UNL     1      -2.638   0.880   0.005  1.00  0.00     0.209 A 
HETATM    7  S3  UNL     1      -1.113   0.653   0.801  1.00  0.00    -0.020 SA
ENDROOT
BRANCH   1   8
HETATM    8  N1  UNL     1       0.919  -0.580  -0.568  1.00  0.00    -0.305 N 
HETATM    9  C5  UNL     1       1.822  -0.470   0.524  1.00  0.00     0.237 C 
HETATM   10  O1  UNL     1       1.427  -0.605   1.718  1.00  0.00    -0.272 OA
ATOM     11  H1  UNL     1       1.228  -1.019  -1.435  1.00  0.00     0.171 HD
BRANCH   9  12
HETATM   12  C3  UNL     1       3.269  -0.193   0.320  1.00  0.00     0.135 C 
HETATM   13  C4  UNL     1       3.854   0.295   1.623  1.00  0.00     0.031 C 
BRANCH  12  14
HETATM   14  S1  UNL     1       4.177  -1.554  -0.411  1.00  0.00    -0.155 SA
BRANCH  14  15
HETATM   15  C2  UNL     1       5.817  -0.958  -0.894  1.00  0.00     0.070 C 
HETATM   16  C1  UNL     1       5.637   0.029  -2.016  1.00  0.00     0.016 C 
ENDBRANCH  14  15
ENDBRANCH  12  14
ENDBRANCH   9  12
ENDBRANCH   1   8
BRANCH   6  17
HETATM   17  S2  UNL     1      -4.067   1.689   0.626  1.00  0.00     0.289 S 
HETATM   18  O2  UNL     1      -3.678   2.492   1.844  1.00  0.00    -0.198 OA
HETATM   19  O3  UNL     1      -4.599   2.567  -0.461  1.00  0.00    -0.198 OA
BRANCH  17  20
HETATM   20  N4  UNL     1      -5.183   0.484   1.130  1.00  0.00    -0.249 N 
HETATM   21  C8  UNL     1      -5.931  -0.175   0.133  1.00  0.00     0.227 C 
HETATM   22  C9  UNL     1      -6.911  -1.216   0.546  1.00  0.00     0.118 C 
HETATM   23  O4  UNL     1      -5.780   0.103  -1.067  1.00  0.00    -0.273 OA
ATOM     24  H4  UNL     1      -5.300   0.253   2.117  1.00  0.00     0.182 HD
ENDBRANCH  17  20
ENDBRANCH   6  17
TORSDOF 6
