REMARK  11 active torsions:
REMARK  status: ('A' for Active; 'I' for Inactive)
REMARK    1  A    between atoms: C4_6  and  N2_7 
REMARK    2  A    between atoms: N2_7  and  N3_8 
REMARK    3  A    between atoms: N2_7  and  O1_12 
REMARK    4  A    between atoms: N3_8  and  N4_9 
REMARK    5  A    between atoms: O1_12  and  C5_13 
REMARK    6  A    between atoms: N7_19  and  N8_20 
REMARK       I    between atoms: N8_20  and  C6_22 
REMARK    7  A    between atoms: N10_24  and  C7_26 
REMARK    8  A    between atoms: C7_26  and  C8_27 
REMARK    9  A    between atoms: C10_29  and  O4_30 
REMARK   10  A    between atoms: C11_32  and  O5_33 
REMARK   11  A    between atoms: C12_35  and  N11_36 
ROOT
HETATM    1  N8  UNL     1       0.011   0.291  -0.280  1.00  0.00    -0.256 N 
ATOM      2  H8  UNL     1       0.226   1.170  -0.750  1.00  0.00     0.191 HD
HETATM    3  C6  UNL     1       1.048  -0.659  -0.074  1.00  0.00     0.204 C 
HETATM    4  N9  UNL     1       0.992  -1.630   0.968  1.00  0.00    -0.062 NA
HETATM    5  N10 UNL     1       2.092  -0.654  -0.857  1.00  0.00    -0.358 N 
ATOM      6  H10 UNL     1       2.141   0.037  -1.605  1.00  0.00     0.162 HD
ENDROOT
BRANCH   1   7
HETATM    7  N7  UNL     1      -1.245   0.057   0.130  1.00  0.00    -0.185 N 
HETATM    8  C2  UNL     1      -2.209  -0.380  -0.798  1.00  0.00     0.149 C 
HETATM    9  C1  UNL     1      -2.312  -1.888  -0.788  1.00  0.00     0.066 C 
HETATM   10  C3  UNL     1      -1.853   0.073  -2.195  1.00  0.00     0.066 C 
HETATM   11  N1  UNL     1      -3.511   0.182  -0.484  1.00  0.00    -0.193 N 
HETATM   12  C4  UNL     1      -3.787   0.675   0.677  1.00  0.00     0.734 C 
ATOM     13  H1  UNL     1      -4.232   0.187  -1.205  1.00  0.00     0.180 HD
HETATM   14  N5  UNL     1      -2.770   0.660   1.670  1.00  0.00    -0.111 N 
HETATM   15  N6  UNL     1      -1.539   0.033   1.443  1.00  0.00     0.013 NA
ATOM     16  H5  UNL     1      -2.941   1.116   2.567  1.00  0.00     0.203 HD
BRANCH  12  17
HETATM   17  N2  UNL     1      -5.047   1.232   1.020  1.00  0.00     0.045 N 
BRANCH  17  18
HETATM   18  N3  UNL     1      -5.077   2.369   1.838  1.00  0.00     0.016 NA
BRANCH  18  19
HETATM   19  N4  UNL     1      -5.840   3.396   1.266  1.00  0.00    -0.326 N 
ATOM     20  H42 UNL     1      -6.309   3.311   0.364  1.00  0.00     0.174 HD
ATOM     21  H41 UNL     1      -5.862   4.224   1.862  1.00  0.00     0.174 HD
ENDBRANCH  18  19
ENDBRANCH  17  18
BRANCH  17  22
HETATM   22  O1  UNL     1      -6.247   0.730   0.604  1.00  0.00    -0.136 OA
BRANCH  22  23
HETATM   23  C5  UNL     1      -6.496  -0.632   0.694  1.00  0.00     0.357 C 
HETATM   24  O2  UNL     1      -5.581  -1.353   1.166  1.00  0.00    -0.622 OA
HETATM   25  O3  UNL     1      -7.721  -1.128   0.267  1.00  0.00    -0.622 OA
ENDBRANCH  22  23
ENDBRANCH  17  22
ENDBRANCH  12  17
ENDBRANCH   1   7
BRANCH   5  26
HETATM   26  C7  UNL     1       3.175  -1.585  -0.705  1.00  0.00     0.179 C 
BRANCH  26  27
HETATM   27  C8  UNL     1       4.389  -0.822  -0.313  1.00  0.00     0.031 A 
HETATM   28  C9  UNL     1       5.610  -1.431  -0.070  1.00  0.00     0.066 A 
HETATM   29  C10 UNL     1       6.731  -0.723   0.292  1.00  0.00     0.104 A 
HETATM   30  C11 UNL     1       6.651   0.648   0.422  1.00  0.00     0.149 A 
HETATM   31  C12 UNL     1       5.442   1.245   0.182  1.00  0.00     0.210 A 
HETATM   32  N12 UNL     1       4.357   0.534  -0.172  1.00  0.00    -0.337 N 
ATOM     33  H12 UNL     1       3.480   1.026  -0.341  1.00  0.00     0.167 HD
BRANCH  29  34
HETATM   34  O4  UNL     1       7.959  -1.342   0.535  1.00  0.00    -0.358 OA
ATOM     35  H4  UNL     1       8.734  -0.853   0.785  1.00  0.00     0.217 HD
ENDBRANCH  29  34
BRANCH  30  36
HETATM   36  O5  UNL     1       7.752   1.394   0.783  1.00  0.00    -0.355 OA
ATOM     37  H5  UNL     1       7.697   2.338   0.873  1.00  0.00     0.218 HD
ENDBRANCH  30  36
BRANCH  31  38
HETATM   38  N11 UNL     1       5.343   2.661   0.313  1.00  0.00    -0.095 N 
HETATM   39  O6  UNL     1       6.003   3.330   1.107  1.00  0.00    -0.530 OA
HETATM   40  O7  UNL     1       4.447   3.298  -0.512  1.00  0.00    -0.530 OA
ENDBRANCH  31  38
ENDBRANCH  26  27
ENDBRANCH   5  26
TORSDOF 11
