REMARK  4 active torsions:
REMARK  status: ('A' for Active; 'I' for Inactive)
REMARK    1  A    between atoms: N1_1  and  C1_5 
REMARK    2  A    between atoms: C4_8  and  O1_9 
REMARK    3  A    between atoms: C4_8  and  C5_11 
REMARK    4  A    between atoms: C5_11  and  C6_12 
ROOT
HETATM    1  C1  UNL     1      -4.300   0.056  -0.097  1.00  0.00     0.186 C 
HETATM    2  C2  UNL     1      -3.724  -1.154   0.571  1.00  0.00     0.036 C 
HETATM    3  C3  UNL     1      -2.229  -0.924   0.721  1.00  0.00     0.040 C 
HETATM    4  C4  UNL     1      -1.950   0.465   0.315  1.00  0.00     0.060 C 
HETATM    5  C14 UNL     1      -3.116   0.752  -0.661  1.00  0.00     0.070 C 
ENDROOT
BRANCH   4   6
HETATM    6  O1  UNL     1      -2.199   1.337   1.395  1.00  0.00    -0.390 OA
ATOM      7  H1  UNL     1      -2.019   2.232   1.133  1.00  0.00     0.210 HD
ENDBRANCH   4   6
BRANCH   4   8
HETATM    8  C5  UNL     1      -0.724   0.799  -0.413  1.00  0.00     0.042 C 
BRANCH   8   9
HETATM    9  C6  UNL     1       0.624   0.570   0.181  1.00  0.00    -0.012 C 
HETATM   10  C7  UNL     1       0.866  -0.865   0.479  1.00  0.00     0.005 C 
HETATM   11  C8  UNL     1       2.285  -1.198   0.909  1.00  0.00     0.000 C 
HETATM   12  C9  UNL     1       3.222  -1.465  -0.237  1.00  0.00     0.000 C 
HETATM   13  C10 UNL     1       4.353  -0.430  -0.226  1.00  0.00     0.000 C 
HETATM   14  C11 UNL     1       4.004   0.818  -0.960  1.00  0.00     0.000 C 
HETATM   15  C12 UNL     1       2.887   1.619  -0.291  1.00  0.00     0.000 C 
HETATM   16  C13 UNL     1       1.604   1.139  -0.865  1.00  0.00     0.005 C 
ENDBRANCH   8   9
ENDBRANCH   4   8
BRANCH   1  17
HETATM   17  N1  UNL     1      -5.171  -0.376  -1.184  1.00  0.00    -0.075 N 
ATOM     18  H13 UNL     1      -4.696  -0.995  -1.841  1.00  0.00     0.274 HD
ATOM     19  H12 UNL     1      -5.891  -1.028  -0.871  1.00  0.00     0.274 HD
ATOM     20  H11 UNL     1      -5.563   0.448  -1.639  1.00  0.00     0.274 HD
ENDBRANCH   1  17
TORSDOF 4
