REMARK  13 active torsions:
REMARK  status: ('A' for Active; 'I' for Inactive)
REMARK    1  A    between atoms: C3_3  and  C4_4 
REMARK       I    between atoms: C4_4  and  N1_6 
REMARK    2  A    between atoms: N1_6  and  N2_8 
REMARK    3  A    between atoms: N2_8  and  C5_10 
REMARK    4  A    between atoms: C5_10  and  N3_11 
REMARK    5  A    between atoms: C5_10  and  C6_14 
REMARK    6  A    between atoms: C7_15  and  C8_16 
REMARK    7  A    between atoms: C9_19  and  C10_20 
REMARK    8  A    between atoms: C10_20  and  C11_21 
REMARK    9  A    between atoms: C13_29  and  C14_30 
REMARK   10  A    between atoms: C14_30  and  C15_31 
REMARK   11  A    between atoms: C15_31  and  N6_32 
REMARK   12  A    between atoms: N9_40  and  C16_41 
REMARK   13  A    between atoms: C17_47  and  N12_48 
ROOT
HETATM    1  C5  UNL     1      -1.570  -0.781  -0.497  1.00  0.00     0.126 C 
ENDROOT
BRANCH   1   2
HETATM    2  N2  UNL     1      -0.631  -1.458  -1.385  1.00  0.00    -0.282 N 
ATOM      3  H2  UNL     1      -0.983  -1.867  -2.251  1.00  0.00     0.188 HD
BRANCH   2   4
HETATM    4  N1  UNL     1       0.730  -1.568  -1.095  1.00  0.00    -0.263 N 
HETATM    5  C4  UNL     1       1.679  -0.557  -1.202  1.00  0.00     0.290 C 
HETATM    6  O1  UNL     1       1.367   0.605  -1.605  1.00  0.00    -0.264 OA
ATOM      7  H1  UNL     1       1.060  -2.478  -0.774  1.00  0.00     0.190 HD
BRANCH   5   8
HETATM    8  C3  UNL     1       3.069  -0.771  -0.856  1.00  0.00     0.143 A 
HETATM    9  C2  UNL     1       4.081   0.187  -0.763  1.00  0.00     0.067 A 
HETATM   10  C1  UNL     1       3.823   1.621  -0.995  1.00  0.00     0.073 C 
HETATM   11  N9  UNL     1       5.224  -0.413  -0.430  1.00  0.00    -0.223 N 
HETATM   12  N8  UNL     1       4.970  -1.695  -0.312  1.00  0.00    -0.234 N 
HETATM   13  N7  UNL     1       3.684  -1.930  -0.563  1.00  0.00    -0.279 N 
ATOM     14  H8  UNL     1       5.657  -2.407  -0.064  1.00  0.00     0.209 HD
ATOM     15  H7  UNL     1       3.236  -2.846  -0.537  1.00  0.00     0.189 HD
BRANCH  11  16
HETATM   16  C16 UNL     1       6.474   0.258  -0.226  1.00  0.00     0.196 A 
HETATM   17  N10 UNL     1       7.132   0.398   0.950  1.00  0.00    -0.220 N 
HETATM   18  O5  UNL     1       8.211   1.062   0.722  1.00  0.00    -0.153 OA
ATOM     19  H10 UNL     1       6.827   0.041   1.855  1.00  0.00     0.198 HD
HETATM   20  N11 UNL     1       8.329   1.379  -0.525  1.00  0.00    -0.222 N 
HETATM   21  C17 UNL     1       7.257   0.893  -1.164  1.00  0.00     0.169 A 
ATOM     22  H11 UNL     1       9.097   1.903  -0.945  1.00  0.00     0.198 HD
BRANCH  21  23
HETATM   23  N12 UNL     1       7.036   1.023  -2.431  1.00  0.00    -0.381 N 
ATOM     24 2H12 UNL     1       6.220   0.653  -2.918  1.00  0.00     0.157 HD
ATOM     25 1H12 UNL     1       7.616   1.493  -3.126  1.00  0.00     0.157 HD
ENDBRANCH  21  23
ENDBRANCH  11  16
ENDBRANCH   5   8
ENDBRANCH   2   4
ENDBRANCH   1   2
BRANCH   1  26
HETATM   26  N3  UNL     1      -1.188   0.383  -0.253  1.00  0.00    -0.384 N 
ATOM     27  H32 UNL     1      -0.280   0.803  -0.454  1.00  0.00     0.157 HD
ATOM     28  H31 UNL     1      -1.844   0.856   0.368  1.00  0.00     0.157 HD
ENDBRANCH   1  26
BRANCH   1  29
HETATM   29  C6  UNL     1      -2.904  -1.398  -0.201  1.00  0.00     0.037 A 
HETATM   30  C7  UNL     1      -3.962  -0.681   0.287  1.00  0.00     0.039 A 
HETATM   31  C12 UNL     1      -5.056  -1.403   0.724  1.00  0.00     0.067 A 
HETATM   32  S1  UNL     1      -4.650  -3.000   0.463  1.00  0.00    -0.104 SA
HETATM   33  C13 UNL     1      -3.054  -2.761  -0.207  1.00  0.00    -0.001 A 
BRANCH  30  34
HETATM   34  C8  UNL     1      -4.159   0.806   0.165  1.00  0.00     0.183 A 
HETATM   35  N4  UNL     1      -4.880   1.571   1.039  1.00  0.00    -0.322 N 
HETATM   36  C9  UNL     1      -4.824   2.861   0.606  1.00  0.00     0.114 A 
ATOM     37  H4  UNL     1      -5.372   1.236   1.867  1.00  0.00     0.169 HD
HETATM   38  N5  UNL     1      -4.089   2.847  -0.493  1.00  0.00    -0.246 N 
HETATM   39  O4  UNL     1      -3.718   1.633  -0.721  1.00  0.00    -0.217 OA
ATOM     40  H5  UNL     1      -3.855   3.659  -1.064  1.00  0.00     0.196 HD
BRANCH  36  41
HETATM   41  C10 UNL     1      -5.419   4.070   1.221  1.00  0.00     0.191 C 
BRANCH  41  42
HETATM   42  C11 UNL     1      -4.363   4.663   2.086  1.00  0.00     0.179 C 
HETATM   43  O2  UNL     1      -3.234   4.132   2.173  1.00  0.00    -0.648 OA
HETATM   44  O3  UNL     1      -4.611   5.812   2.804  1.00  0.00    -0.648 OA
ENDBRANCH  41  42
ENDBRANCH  36  41
ENDBRANCH  30  34
BRANCH  33  45
HETATM   45  C14 UNL     1      -2.120  -3.911  -0.467  1.00  0.00     0.074 C 
BRANCH  45  46
HETATM   46  C15 UNL     1      -1.527  -4.432   0.809  1.00  0.00     0.234 C 
BRANCH  46  47
HETATM   47  N6  UNL     1      -0.842  -3.427   1.542  1.00  0.00    -0.079 N 
ATOM     48  H63 UNL     1      -0.133  -2.973   0.967  1.00  0.00     0.274 HD
ATOM     49  H62 UNL     1      -1.448  -2.626   1.719  1.00  0.00     0.274 HD
ATOM     50  H61 UNL     1      -0.439  -3.781   2.409  1.00  0.00     0.274 HD
ENDBRANCH  46  47
ENDBRANCH  45  46
ENDBRANCH  33  45
ENDBRANCH   1  29
TORSDOF 13
