REMARK  10 active torsions:
REMARK  status: ('A' for Active; 'I' for Inactive)
REMARK    1  A    between atoms: C2_2  and  O1_3 
REMARK    2  A    between atoms: O1_3  and  C3_4 
REMARK    3  A    between atoms: C3_4  and  C4_6 
REMARK    4  A    between atoms: C5_7  and  S1_8 
REMARK    5  A    between atoms: S1_8  and  C6_9 
REMARK    6  A    between atoms: C6_9  and  C7_10 
REMARK       I    between atoms: C7_10  and  N1_12 
REMARK       I    between atoms: N1_12  and  C8_13 
REMARK    7  A    between atoms: C11_24  and  N6_25 
REMARK    8  A    between atoms: C12_30  and  N8_31 
REMARK    9  A    between atoms: C13_36  and  C14_37 
REMARK   10  A    between atoms: C14_37  and  C15_39 
ROOT
HETATM    1  C4  UNL     1      -2.083  -2.402  -0.902  1.00  0.00     0.115 C 
HETATM    2  C5  UNL     1      -1.269  -1.870  -0.017  1.00  0.00     0.094 C 
HETATM    3  N4  UNL     1      -0.102  -1.132  -0.291  1.00  0.00    -0.344 N 
ATOM      4  H4  UNL     1       0.424  -0.781   0.509  1.00  0.00     0.167 HD
HETATM    5  C9  UNL     1       0.412  -0.831  -1.588  1.00  0.00     0.115 A 
HETATM    6  C10 UNL     1      -0.245  -1.261  -2.739  1.00  0.00     0.122 A 
HETATM    7  N5  UNL     1       0.249  -1.039  -3.936  1.00  0.00    -0.183 N 
ATOM      8  H5  UNL     1      -0.270  -1.372  -4.749  1.00  0.00     0.185 HD
HETATM    9  C11 UNL     1       1.385  -0.405  -4.130  1.00  0.00     0.678 A 
HETATM   10  N7  UNL     1       2.043   0.020  -3.032  1.00  0.00    -0.173 N 
ATOM     11  H7  UNL     1       2.927   0.512  -3.164  1.00  0.00     0.186 HD
HETATM   12  C12 UNL     1       1.599  -0.168  -1.752  1.00  0.00     0.175 A 
HETATM   13  S2  UNL     1      -1.793  -2.118  -2.625  1.00  0.00    -0.061 SA
ENDROOT
BRANCH  12  14
HETATM   14  N8  UNL     1       2.386   0.324  -0.657  1.00  0.00    -0.206 N 
HETATM   15  N9  UNL     1       2.577  -0.198   0.535  1.00  0.00    -0.232 N 
HETATM   16  N10 UNL     1       3.371   0.491   1.299  1.00  0.00    -0.279 N 
ATOM     17  H9  UNL     1       2.139  -1.069   0.834  1.00  0.00     0.209 HD
HETATM   18  C13 UNL     1       3.766   1.562   0.602  1.00  0.00     0.138 A 
ATOM     19  H10 UNL     1       3.643   0.258   2.254  1.00  0.00     0.189 HD
HETATM   20  C17 UNL     1       3.137   1.452  -0.641  1.00  0.00     0.173 A 
HETATM   21  N11 UNL     1       3.299   2.394  -1.654  1.00  0.00    -0.078 NA
BRANCH  18  22
HETATM   22  C14 UNL     1       4.707   2.603   1.014  1.00  0.00     0.180 C 
HETATM   23  O4  UNL     1       5.090   3.457   0.230  1.00  0.00    -0.291 OA
BRANCH  22  24
HETATM   24  C15 UNL     1       5.206   2.631   2.424  1.00  0.00     0.081 C 
HETATM   25  C16 UNL     1       6.267   1.616   2.687  1.00  0.00     0.013 C 
ENDBRANCH  22  24
ENDBRANCH  18  22
ENDBRANCH  12  14
BRANCH   9  26
HETATM   26  N6  UNL     1       1.900  -0.178  -5.286  1.00  0.00    -0.234 N 
ATOM     27  H62 UNL     1       1.402  -0.499  -6.116  1.00  0.00     0.174 HD
ATOM     28  H61 UNL     1       2.781   0.314  -5.436  1.00  0.00     0.174 HD
ENDBRANCH   9  26
BRANCH   2  29
HETATM   29  S1  UNL     1      -1.698  -2.243   1.702  1.00  0.00    -0.100 SA
BRANCH  29  30
HETATM   30  C6  UNL     1      -2.739  -0.912   2.338  1.00  0.00     0.200 C 
BRANCH  30  31
HETATM   31  C7  UNL     1      -1.826   0.327   2.485  1.00  0.00     0.304 C 
HETATM   32  O3  UNL     1      -0.823   0.070   3.207  1.00  0.00    -0.256 OA
HETATM   33  N1  UNL     1      -2.184   1.470   1.865  1.00  0.00    -0.337 NA
HETATM   34  C8  UNL     1      -2.534   2.645   1.239  1.00  0.00     0.264 C 
HETATM   35  N2  UNL     1      -3.602   2.677   0.588  1.00  0.00    -0.362 N 
HETATM   36  N3  UNL     1      -1.808   3.895   1.288  1.00  0.00    -0.049 NA
ATOM     37  H22 UNL     1      -4.114   1.795   0.553  1.00  0.00     0.159 HD
ATOM     38  H21 UNL     1      -3.861   3.548   0.124  1.00  0.00     0.159 HD
ENDBRANCH  30  31
ENDBRANCH  29  30
ENDBRANCH   2  29
BRANCH   1  39
HETATM   39  C3  UNL     1      -3.223  -3.217  -0.506  1.00  0.00     0.303 C 
HETATM   40  O2  UNL     1      -3.457  -3.437   0.729  1.00  0.00    -0.259 OA
BRANCH  39  41
HETATM   41  O1  UNL     1      -4.043  -3.762  -1.440  1.00  0.00    -0.317 OA
BRANCH  41  42
HETATM   42  C2  UNL     1      -5.156  -4.569  -1.212  1.00  0.00     0.174 C 
HETATM   43  C1  UNL     1      -6.219  -3.849  -0.438  1.00  0.00     0.034 C 
ENDBRANCH  41  42
ENDBRANCH  39  41
ENDBRANCH   1  39
TORSDOF 10
