REMARK  15 active torsions:
REMARK  status: ('A' for Active; 'I' for Inactive)
REMARK    1  A    between atoms: C2_2  and  C3_3 
REMARK    2  A    between atoms: C3_3  and  C4_4 
REMARK    3  A    between atoms: C4_4  and  C5_5 
REMARK    4  A    between atoms: C5_5  and  C6_6 
REMARK    5  A    between atoms: C10_10  and  C11_11 
REMARK    6  A    between atoms: C11_11  and  C12_12 
REMARK    7  A    between atoms: C11_11  and  O2_15 
REMARK    8  A    between atoms: C12_12  and  O1_13 
REMARK    9  A    between atoms: O2_15  and  C13_16 
REMARK   10  A    between atoms: C15_19  and  O4_20 
REMARK   11  A    between atoms: C16_22  and  O5_23 
REMARK   12  A    between atoms: C17_25  and  O6_26 
REMARK   13  A    between atoms: C18_28  and  N1_29 
REMARK   14  A    between atoms: C19_33  and  O7_34 
REMARK   15  A    between atoms: C21_37  and  O8_38 
ROOT
HETATM    1  C6  UNL     1      -3.547  -0.998   0.821  1.00  0.00     0.009 C 
HETATM    2  C7  UNL     1      -2.042  -0.931   1.115  1.00  0.00    -0.012 C 
HETATM    3  C8  UNL     1      -1.273  -0.220   0.307  1.00  0.00    -0.027 C 
HETATM    4  C9  UNL     1       0.144  -0.286   0.760  1.00  0.00     0.017 C 
HETATM    5  C10 UNL     1       1.263  -0.385   0.090  1.00  0.00    -0.016 C 
HETATM    6  C18 UNL     1       1.452  -0.477  -1.380  1.00  0.00     0.243 C 
HETATM    7  C19 UNL     1       0.074  -0.701  -2.032  1.00  0.00     0.156 C 
HETATM    8  C20 UNL     1      -0.749   0.536  -1.978  1.00  0.00     0.077 C 
HETATM    9  C21 UNL     1      -1.767   0.540  -0.853  1.00  0.00     0.087 C 
HETATM   10  C22 UNL     1      -3.128   0.147  -1.351  1.00  0.00     0.043 C 
HETATM   11  C23 UNL     1      -3.707  -1.043  -0.654  1.00  0.00     0.012 C 
ENDROOT
BRANCH   5  12
HETATM   12  C11 UNL     1       2.536  -0.425   0.855  1.00  0.00     0.179 C 
BRANCH  12  13
HETATM   13  C12 UNL     1       2.279  -0.372   2.351  1.00  0.00     0.201 C 
BRANCH  13  14
HETATM   14  O1  UNL     1       3.500  -0.465   3.051  1.00  0.00    -0.398 OA
ATOM     15  H1  UNL     1       3.339  -0.432   3.987  1.00  0.00     0.209 HD
ENDBRANCH  13  14
ENDBRANCH  12  13
BRANCH  12  16
HETATM   16  O2  UNL     1       3.373   0.652   0.475  1.00  0.00    -0.347 OA
BRANCH  16  17
HETATM   17  C13 UNL     1       4.593   0.256  -0.003  1.00  0.00     0.291 C 
HETATM   18  O3  UNL     1       4.784   0.645  -1.352  1.00  0.00    -0.356 OA
HETATM   19  C14 UNL     1       5.785  -0.189  -1.841  1.00  0.00     0.205 C 
HETATM   20  C15 UNL     1       7.097  -0.029  -1.149  1.00  0.00     0.173 C 
HETATM   21  C16 UNL     1       6.986   0.022   0.358  1.00  0.00     0.182 C 
HETATM   22  C17 UNL     1       5.773   0.869   0.723  1.00  0.00     0.204 C 
BRANCH  20  23
HETATM   23  O4  UNL     1       7.905  -1.119  -1.532  1.00  0.00    -0.391 OA
ATOM     24  H4  UNL     1       8.740  -1.017  -1.091  1.00  0.00     0.210 HD
ENDBRANCH  20  23
BRANCH  21  25
HETATM   25  O5  UNL     1       8.166   0.580   0.836  1.00  0.00    -0.390 OA
ATOM     26  H5  UNL     1       8.096   0.612   1.783  1.00  0.00     0.210 HD
ENDBRANCH  21  25
BRANCH  22  27
HETATM   27  O6  UNL     1       5.991   2.142   0.156  1.00  0.00    -0.388 OA
ATOM     28  H6  UNL     1       6.731   2.526   0.611  1.00  0.00     0.210 HD
ENDBRANCH  22  27
ENDBRANCH  16  17
ENDBRANCH  12  16
ENDBRANCH   5  12
BRANCH   6  29
HETATM   29  N1  UNL     1       2.169  -1.715  -1.627  1.00  0.00    -0.069 N 
ATOM     30  H13 UNL     1       3.041  -1.788  -1.102  1.00  0.00     0.275 HD
ATOM     31  H12 UNL     1       1.711  -2.534  -1.227  1.00  0.00     0.275 HD
ATOM     32  H11 UNL     1       2.299  -1.778  -2.637  1.00  0.00     0.275 HD
ENDBRANCH   6  29
BRANCH   7  33
HETATM   33  O7  UNL     1       0.265  -1.210  -3.295  1.00  0.00    -0.393 OA
ATOM     34  H7  UNL     1      -0.585  -1.348  -3.697  1.00  0.00     0.210 HD
ENDBRANCH   7  33
BRANCH   9  35
HETATM   35  O8  UNL     1      -1.891   1.923  -0.513  1.00  0.00    -0.385 OA
ATOM     36  H8  UNL     1      -2.210   2.413  -1.262  1.00  0.00     0.211 HD
ENDBRANCH   9  35
BRANCH   1  37
HETATM   37  C5  UNL     1      -4.215  -0.016   1.649  1.00  0.00     0.008 C 
BRANCH  37  38
HETATM   38  C4  UNL     1      -5.657   0.213   1.659  1.00  0.00     0.001 C 
BRANCH  38  39
HETATM   39  C3  UNL     1      -6.362   0.741   0.462  1.00  0.00    -0.000 C 
BRANCH  39  40
HETATM   40  C2  UNL     1      -7.864   0.907   0.743  1.00  0.00    -0.005 C 
HETATM   41  C1  UNL     1      -8.495   1.443  -0.516  1.00  0.00     0.005 C 
ENDBRANCH  39  40
ENDBRANCH  38  39
ENDBRANCH  37  38
ENDBRANCH   1  37
TORSDOF 15
