REMARK  16 active torsions:
REMARK  status: ('A' for Active; 'I' for Inactive)
REMARK    1  A    between atoms: S1_2  and  C2_3 
REMARK    2  A    between atoms: C2_3  and  C3_4 
REMARK    3  A    between atoms: C3_4  and  C4_5 
REMARK    4  A    between atoms: C4_5  and  C5_6 
REMARK    5  A    between atoms: C5_6  and  O1_7 
REMARK    6  A    between atoms: C5_6  and  C19_29 
REMARK    7  A    between atoms: O1_7  and  C6_8 
REMARK    8  A    between atoms: C10_12  and  O2_13 
REMARK    9  A    between atoms: C16_20  and  O3_21 
REMARK   10  A    between atoms: C16_20  and  C17_23 
REMARK   11  A    between atoms: C18_26  and  O6_27 
REMARK   12  A    between atoms: C19_29  and  O7_30 
REMARK   13  A    between atoms: C19_29  and  C20_32 
REMARK   14  A    between atoms: C20_32  and  O8_33 
REMARK   15  A    between atoms: C20_32  and  C21_35 
REMARK   16  A    between atoms: C21_35  and  O9_36 
ROOT
HETATM    1  C6  UNL     1       0.368  -0.727   0.221  1.00  0.00     0.133 C 
HETATM    2  C7  UNL     1       0.979  -1.195  -1.045  1.00  0.00     0.016 C 
HETATM    3  C8  UNL     1       1.880  -2.375  -0.673  1.00  0.00     0.010 C 
HETATM    4  C9  UNL     1       2.579  -2.199   0.619  1.00  0.00     0.041 C 
HETATM    5  C10 UNL     1       2.673  -0.786   1.127  1.00  0.00     0.093 C 
HETATM    6  C11 UNL     1       1.357  -0.066   1.160  1.00  0.00     0.052 C 
HETATM    7  C12 UNL     1       1.498   1.418   0.949  1.00  0.00     0.011 C 
HETATM    8  C13 UNL     1       1.618   1.825  -0.464  1.00  0.00     0.009 C 
HETATM    9  C14 UNL     1       2.415   0.900  -1.330  1.00  0.00     0.034 C 
HETATM   10  C15 UNL     1       1.639  -0.214  -1.917  1.00  0.00     0.015 C 
HETATM   11  C16 UNL     1       3.762   0.517  -0.787  1.00  0.00     0.178 C 
HETATM   12  C18 UNL     1       3.819  -0.024   0.562  1.00  0.00     0.198 C 
ENDROOT
BRANCH   1  13
HETATM   13  O1  UNL     1      -0.786  -0.052   0.015  1.00  0.00    -0.377 OA
BRANCH  13  14
HETATM   14  C5  UNL     1      -1.945  -0.527   0.524  1.00  0.00     0.153 C 
BRANCH  14  15
HETATM   15  C4  UNL     1      -2.415   0.397   1.612  1.00  0.00     0.035 C 
BRANCH  15  16
HETATM   16  C3  UNL     1      -2.628   1.804   1.265  1.00  0.00     0.013 C 
BRANCH  16  17
HETATM   17  C2  UNL     1      -3.587   2.179   0.198  1.00  0.00     0.073 C 
BRANCH  17  18
HETATM   18  S1  UNL     1      -3.653   4.037   0.131  1.00  0.00    -0.173 SA
HETATM   19  C1  UNL     1      -4.388   4.581   1.698  1.00  0.00     0.089 C 
ENDBRANCH  17  18
ENDBRANCH  16  17
ENDBRANCH  15  16
ENDBRANCH  14  15
BRANCH  14  20
HETATM   20  C19 UNL     1      -3.065  -0.957  -0.322  1.00  0.00     0.177 C 
BRANCH  20  21
HETATM   21  O7  UNL     1      -4.119  -1.340   0.576  1.00  0.00    -0.390 OA
ATOM     22  H7  UNL     1      -4.844  -1.618   0.029  1.00  0.00     0.210 HD
ENDBRANCH  20  21
BRANCH  20  23
HETATM   23  C20 UNL     1      -2.815  -2.261  -1.074  1.00  0.00     0.172 C 
BRANCH  23  24
HETATM   24  O8  UNL     1      -2.429  -3.298  -0.237  1.00  0.00    -0.391 OA
ATOM     25  H8  UNL     1      -2.273  -4.110  -0.705  1.00  0.00     0.210 HD
ENDBRANCH  23  24
BRANCH  23  26
HETATM   26  C21 UNL     1      -4.124  -2.667  -1.714  1.00  0.00     0.198 C 
BRANCH  26  27
HETATM   27  O9  UNL     1      -5.142  -2.916  -0.809  1.00  0.00    -0.398 OA
ATOM     28  H9  UNL     1      -5.964  -3.171  -1.211  1.00  0.00     0.209 HD
ENDBRANCH  26  27
ENDBRANCH  23  26
ENDBRANCH  20  23
ENDBRANCH  14  20
ENDBRANCH  13  14
ENDBRANCH   1  13
BRANCH   5  29
HETATM   29  O2  UNL     1       3.042  -0.946   2.499  1.00  0.00    -0.387 OA
ATOM     30  H2  UNL     1       3.101  -0.054   2.820  1.00  0.00     0.210 HD
ENDBRANCH   5  29
BRANCH  12  31
HETATM   31  O6  UNL     1       4.936  -0.900   0.646  1.00  0.00    -0.389 OA
ATOM     32  H6  UNL     1       5.668  -0.413   0.285  1.00  0.00     0.210 HD
ENDBRANCH  12  31
BRANCH  11  33
HETATM   33  O3  UNL     1       4.301  -0.376  -1.736  1.00  0.00    -0.376 OA
ATOM     34  H3  UNL     1       5.153  -0.618  -1.393  1.00  0.00     0.211 HD
ENDBRANCH  11  33
BRANCH  11  35
HETATM   35  C17 UNL     1       4.621   1.727  -0.853  1.00  0.00     0.212 C 
HETATM   36  O4  UNL     1       4.448   2.754  -0.140  1.00  0.00    -0.646 OA
HETATM   37  O5  UNL     1       5.687   1.780  -1.732  1.00  0.00    -0.646 OA
ENDBRANCH  11  35
TORSDOF 16
