REMARK  16 active torsions:
REMARK  status: ('A' for Active; 'I' for Inactive)
REMARK    1  A    between atoms: C2_2  and  C4_4 
REMARK    2  A    between atoms: C4_4  and  O1_5 
REMARK    3  A    between atoms: C4_4  and  C5_7 
REMARK    4  A    between atoms: C5_7  and  O2_8 
REMARK    5  A    between atoms: C5_7  and  C6_10 
REMARK    6  A    between atoms: C6_10  and  C7_11 
REMARK    7  A    between atoms: C6_10  and  C8_14 
REMARK    8  A    between atoms: C7_11  and  O3_12 
REMARK    9  A    between atoms: C8_14  and  C9_15 
REMARK   10  A    between atoms: C9_15  and  C10_16 
REMARK   11  A    between atoms: C10_16  and  O4_17 
REMARK   12  A    between atoms: C10_16  and  C11_19 
REMARK   13  A    between atoms: C11_19  and  C12_20 
REMARK   14  A    between atoms: C18_27  and  O6_28 
REMARK   15  A    between atoms: C19_30  and  O7_32 
REMARK   16  A    between atoms: C21_34  and  O8_35 
ROOT
HETATM    1  C12 UNL     1      -1.730  -2.010   0.104  1.00  0.00     0.139 C 
HETATM    2  C13 UNL     1      -1.914  -3.444  -0.385  1.00  0.00     0.059 C 
HETATM    3  O5  UNL     1      -2.918  -1.827   0.821  1.00  0.00    -0.355 OA
HETATM    4  C14 UNL     1      -3.583  -0.680   0.773  1.00  0.00     0.093 C 
HETATM    5  C15 UNL     1      -5.068  -1.103   0.605  1.00  0.00     0.049 C 
HETATM    6  C16 UNL     1      -3.564  -0.081   2.186  1.00  0.00     0.043 C 
HETATM    7  C17 UNL     1      -4.260   1.227   2.280  1.00  0.00     0.038 C 
HETATM    8  C18 UNL     1      -3.566   2.199   1.349  1.00  0.00     0.155 C 
HETATM    9  C19 UNL     1      -3.755   1.700  -0.045  1.00  0.00     0.114 C 
HETATM   10  C20 UNL     1      -5.196   1.973  -0.462  1.00  0.00     0.052 C 
HETATM   11  C21 UNL     1      -3.340   0.301  -0.300  1.00  0.00     0.128 C 
HETATM   12  C22 UNL     1      -1.886   0.322  -0.801  1.00  0.00     0.126 C 
HETATM   13  C23 UNL     1      -1.661  -1.155  -1.075  1.00  0.00     0.168 C 
HETATM   14  O9  UNL     1      -1.457  -1.445  -2.217  1.00  0.00    -0.294 OA
ENDROOT
BRANCH   1  15
HETATM   15  C11 UNL     1      -0.626  -1.813   1.036  1.00  0.00     0.050 C 
BRANCH  15  16
HETATM   16  C10 UNL     1       0.769  -2.110   0.764  1.00  0.00     0.043 C 
BRANCH  16  17
HETATM   17  C9  UNL     1       1.460  -1.383  -0.375  1.00  0.00     0.065 C 
BRANCH  17  18
HETATM   18  C8  UNL     1       2.932  -1.424  -0.140  1.00  0.00     0.016 C 
BRANCH  18  19
HETATM   19  C6  UNL     1       3.803  -0.795  -1.192  1.00  0.00     0.041 C 
BRANCH  19  20
HETATM   20  C5  UNL     1       3.606   0.627  -1.466  1.00  0.00     0.157 C 
BRANCH  20  21
HETATM   21  C4  UNL     1       3.889   1.679  -0.492  1.00  0.00     0.175 C 
BRANCH  21  22
HETATM   22  C2  UNL     1       5.248   1.849   0.033  1.00  0.00    -0.062 C 
HETATM   23  C1  UNL     1       5.445   1.874   1.354  1.00  0.00     0.016 C 
HETATM   24  C3  UNL     1       6.436   2.048  -0.835  1.00  0.00     0.045 C 
ENDBRANCH  21  22
BRANCH  21  25
HETATM   25  O1  UNL     1       3.642   2.919  -1.195  1.00  0.00    -0.389 OA
ATOM     26  H1  UNL     1       2.762   2.809  -1.535  1.00  0.00     0.210 HD
ENDBRANCH  21  25
ENDBRANCH  20  21
BRANCH  20  27
HETATM   27  O2  UNL     1       2.277   0.790  -1.922  1.00  0.00    -0.392 OA
ATOM     28  H2  UNL     1       2.093   0.106  -2.555  1.00  0.00     0.210 HD
ENDBRANCH  20  27
ENDBRANCH  19  20
BRANCH  19  29
HETATM   29  C7  UNL     1       5.266  -1.173  -0.905  1.00  0.00     0.171 C 
BRANCH  29  30
HETATM   30  O3  UNL     1       5.210  -2.582  -0.707  1.00  0.00    -0.400 OA
ATOM     31  H3  UNL     1       6.114  -2.815  -0.530  1.00  0.00     0.209 HD
ENDBRANCH  29  30
ENDBRANCH  19  29
ENDBRANCH  18  19
ENDBRANCH  17  18
ENDBRANCH  16  17
BRANCH  16  32
HETATM   32  O4  UNL     1       1.162  -3.447   0.837  1.00  0.00    -0.365 OA
ATOM     33  H4  UNL     1       0.729  -3.902   1.550  1.00  0.00     0.217 HD
ENDBRANCH  16  32
ENDBRANCH  15  16
ENDBRANCH   1  15
BRANCH  11  34
HETATM   34  O8  UNL     1      -4.074  -0.132  -1.436  1.00  0.00    -0.383 OA
ATOM     35  H8  UNL     1      -3.917   0.500  -2.128  1.00  0.00     0.210 HD
ENDBRANCH  11  34
BRANCH   9  36
HETATM   36  O7  UNL     1      -2.975   2.536  -0.879  1.00  0.00    -0.384 OA
ATOM     37  H7  UNL     1      -3.095   2.218  -1.766  1.00  0.00     0.210 HD
ENDBRANCH   9  36
BRANCH   8  38
HETATM   38  O6  UNL     1      -4.161   3.467   1.429  1.00  0.00    -0.392 OA
ATOM     39  H6  UNL     1      -3.726   4.077   0.845  1.00  0.00     0.210 HD
ENDBRANCH   8  38
TORSDOF 16
