REMARK  16 active torsions:
REMARK  status: ('A' for Active; 'I' for Inactive)
REMARK    1  A    between atoms: C4_5  and  O2_6 
REMARK    2  A    between atoms: O2_6  and  C5_7 
REMARK    3  A    between atoms: C7_9  and  C8_10 
REMARK    4  A    between atoms: C8_10  and  N1_11 
REMARK    5  A    between atoms: N1_11  and  C9_13 
REMARK    6  A    between atoms: C9_13  and  C10_14 
REMARK    7  A    between atoms: C10_14  and  C11_15 
REMARK    8  A    between atoms: C11_15  and  C12_16 
REMARK    9  A    between atoms: C12_16  and  C13_17 
REMARK   10  A    between atoms: C13_17  and  C14_18 
REMARK   11  A    between atoms: C14_18  and  N2_19 
REMARK   12  A    between atoms: C15_23  and  O3_24 
REMARK   13  A    between atoms: C16_26  and  O4_27 
REMARK   14  A    between atoms: C17_29  and  N3_30 
REMARK   15  A    between atoms: C18_34  and  O5_35 
REMARK   16  A    between atoms: C23_41  and  N4_42 
ROOT
HETATM    1  C5  UNL     1      -1.387   1.452  -0.960  1.00  0.00     0.158 C 
HETATM    2  C6  UNL     1      -0.098   0.834  -1.486  1.00  0.00     0.043 C 
HETATM    3  C7  UNL     1       1.108   1.685  -1.345  1.00  0.00     0.037 C 
HETATM    4  C15 UNL     1       0.936   3.063  -1.944  1.00  0.00     0.154 C 
HETATM    5  C16 UNL     1      -0.520   3.366  -2.214  1.00  0.00     0.180 C 
HETATM    6  C17 UNL     1      -1.427   2.921  -1.086  1.00  0.00     0.243 C 
ENDROOT
BRANCH   1   7
HETATM    7  O2  UNL     1      -1.521   0.916   0.317  1.00  0.00    -0.351 OA
BRANCH   7   8
HETATM    8  C4  UNL     1      -2.533   0.029   0.460  1.00  0.00     0.296 C 
HETATM    9  O1  UNL     1      -1.998  -1.303   0.592  1.00  0.00    -0.346 OA
HETATM   10  C2  UNL     1      -3.021  -2.203   0.483  1.00  0.00     0.085 C 
HETATM   11  C1  UNL     1      -2.932  -2.918  -0.876  1.00  0.00     0.048 C 
HETATM   12  C3  UNL     1      -2.881  -3.328   1.519  1.00  0.00     0.048 C 
HETATM   13  C23 UNL     1      -4.405  -1.678   0.601  1.00  0.00     0.224 C 
HETATM   14  C22 UNL     1      -4.610  -0.533   1.528  1.00  0.00     0.058 C 
HETATM   15  C18 UNL     1      -3.302   0.235   1.709  1.00  0.00     0.113 C 
HETATM   16  C21 UNL     1      -5.491   0.534   0.866  1.00  0.00     0.010 C 
HETATM   17  C19 UNL     1      -3.678   1.651   1.926  1.00  0.00     0.043 C 
HETATM   18  C20 UNL     1      -5.124   1.794   1.587  1.00  0.00     0.004 C 
BRANCH  13  19
HETATM   19  N4  UNL     1      -5.277  -2.769   1.069  1.00  0.00    -0.072 N 
ATOM     20  H43 UNL     1      -5.221  -3.598   0.477  1.00  0.00     0.274 HD
ATOM     21  H42 UNL     1      -4.944  -3.194   1.934  1.00  0.00     0.274 HD
ATOM     22  H41 UNL     1      -6.228  -2.408   1.150  1.00  0.00     0.274 HD
ENDBRANCH  13  19
BRANCH  15  23
HETATM   23  O5  UNL     1      -2.584  -0.301   2.795  1.00  0.00    -0.384 OA
ATOM     24  H5  UNL     1      -3.077  -0.169   3.596  1.00  0.00     0.210 HD
ENDBRANCH  15  23
ENDBRANCH   7   8
ENDBRANCH   1   7
BRANCH   6  25
HETATM   25  N3  UNL     1      -2.749   3.387  -1.467  1.00  0.00    -0.070 N 
ATOM     26  H33 UNL     1      -3.074   2.930  -2.319  1.00  0.00     0.274 HD
ATOM     27  H32 UNL     1      -3.464   3.048  -0.823  1.00  0.00     0.274 HD
ATOM     28  H31 UNL     1      -2.777   4.403  -1.554  1.00  0.00     0.274 HD
ENDBRANCH   6  25
BRANCH   3  29
HETATM   29  C8  UNL     1       1.596   1.829   0.073  1.00  0.00     0.121 C 
BRANCH  29  30
HETATM   30  N1  UNL     1       1.960   0.604   0.709  1.00  0.00    -0.421 N 
ATOM     31  H1  UNL     1       1.431   0.211   1.487  1.00  0.00     0.153 HD
BRANCH  30  32
HETATM   32  C9  UNL     1       3.123  -0.030   0.172  1.00  0.00     0.113 C 
BRANCH  32  33
HETATM   33  C10 UNL     1       3.390  -1.299   0.951  1.00  0.00     0.019 C 
BRANCH  33  34
HETATM   34  C11 UNL     1       4.598  -2.038   0.450  1.00  0.00     0.002 C 
BRANCH  34  35
HETATM   35  C12 UNL     1       5.872  -1.260   0.516  1.00  0.00     0.002 C 
BRANCH  35  36
HETATM   36  C13 UNL     1       6.970  -2.157  -0.024  1.00  0.00     0.027 C 
BRANCH  36  37
HETATM   37  C14 UNL     1       8.315  -1.468  -0.006  1.00  0.00     0.229 C 
BRANCH  37  38
HETATM   38  N2  UNL     1       9.307  -2.396  -0.537  1.00  0.00    -0.079 N 
ATOM     39  H23 UNL     1       9.315  -3.289  -0.044  1.00  0.00     0.274 HD
ATOM     40  H22 UNL     1       9.059  -2.752  -1.460  1.00  0.00     0.274 HD
ATOM     41  H21 UNL     1      10.215  -1.931  -0.525  1.00  0.00     0.274 HD
ENDBRANCH  37  38
ENDBRANCH  36  37
ENDBRANCH  35  36
ENDBRANCH  34  35
ENDBRANCH  33  34
ENDBRANCH  32  33
ENDBRANCH  30  32
ENDBRANCH  29  30
ENDBRANCH   3  29
BRANCH   5  42
HETATM   42  O4  UNL     1      -0.929   2.805  -3.397  1.00  0.00    -0.391 OA
ATOM     43  H4  UNL     1      -1.844   2.995  -3.567  1.00  0.00     0.210 HD
ENDBRANCH   5  42
BRANCH   4  44
HETATM   44  O3  UNL     1       1.675   3.184  -3.112  1.00  0.00    -0.393 OA
ATOM     45  H3  UNL     1       1.567   4.050  -3.488  1.00  0.00     0.210 HD
ENDBRANCH   4  44
TORSDOF 16
