REMARK  8 active torsions:
REMARK  status: ('A' for Active; 'I' for Inactive)
REMARK    1  A    between atoms: N1_2  and  C2_3 
REMARK    2  A    between atoms: N1_2  and  O1_9 
REMARK    3  A    between atoms: C2_3  and  C3_4 
REMARK    4  A    between atoms: C3_4  and  N2_5 
REMARK    5  A    between atoms: O1_9  and  C4_10 
REMARK    6  A    between atoms: C4_10  and  N3_11 
REMARK    7  A    between atoms: C4_10  and  C5_15 
REMARK    8  A    between atoms: N3_11  and  N4_12 
ROOT
HETATM    1  C5  UNL     1       1.293  -0.243  -0.005  1.00  0.00     0.103 A 
HETATM    2  C6  UNL     1       2.556   0.218   0.235  1.00  0.00     0.090 A 
HETATM    3  N5  UNL     1       2.792   1.572   0.540  1.00  0.00    -0.100 NA
HETATM    4  C7  UNL     1       3.642  -0.625   0.193  1.00  0.00     0.111 A 
HETATM    5  C8  UNL     1       4.980  -0.121   0.446  1.00  0.00     0.105 C 
HETATM    6  N6  UNL     1       6.041   0.266   0.662  1.00  0.00    -0.191 NA
HETATM    7  C9  UNL     1       3.492  -1.963  -0.091  1.00  0.00     0.140 A 
HETATM    8  N7  UNL     1       4.634  -2.825  -0.134  1.00  0.00    -0.081 NA
HETATM    9  N8  UNL     1       2.244  -2.425  -0.328  1.00  0.00    -0.329 N 
ATOM     10  H8  UNL     1       2.106  -3.413  -0.540  1.00  0.00     0.168 HD
HETATM   11  C10 UNL     1       1.192  -1.611  -0.289  1.00  0.00     0.118 A 
HETATM   12  N9  UNL     1       0.034  -2.083  -0.512  1.00  0.00    -0.385 N 
ATOM     13  H91 UNL     1      -0.040  -3.079  -0.719  1.00  0.00     0.157 HD
ATOM     14  H92 UNL     1      -0.772  -1.459  -0.482  1.00  0.00     0.157 HD
ENDROOT
BRANCH   1  15
HETATM   15  C4  UNL     1       0.089   0.623   0.013  1.00  0.00     0.279 C 
BRANCH  15  16
HETATM   16  O1  UNL     1      -1.125  -0.033  -0.262  1.00  0.00    -0.201 OA
BRANCH  16  17
HETATM   17  N1  UNL     1      -2.262   0.631  -0.215  1.00  0.00    -0.267 N 
HETATM   18  C1  UNL     1      -2.491   1.761  -1.021  1.00  0.00     0.184 C 
BRANCH  17  19
HETATM   19  C2  UNL     1      -3.165   0.373   0.833  1.00  0.00     0.117 C 
BRANCH  19  20
HETATM   20  C3  UNL     1      -4.555  -0.011   0.405  1.00  0.00     0.276 C 
BRANCH  20  21
HETATM   21  N2  UNL     1      -4.635  -1.190  -0.396  1.00  0.00    -0.075 N 
ATOM     22  H23 UNL     1      -4.027  -1.105  -1.210  1.00  0.00     0.274 HD
ATOM     23  H22 UNL     1      -4.185  -1.971   0.081  1.00  0.00     0.274 HD
ATOM     24  H21 UNL     1      -5.578  -1.450  -0.686  1.00  0.00     0.274 HD
ENDBRANCH  20  21
ENDBRANCH  19  20
ENDBRANCH  17  19
ENDBRANCH  16  17
ENDBRANCH  15  16
BRANCH  15  25
HETATM   25  N3  UNL     1       0.104   1.773   0.234  1.00  0.00    -0.304 NA
BRANCH  25  26
HETATM   26  N4  UNL     1       0.123   3.047   0.480  1.00  0.00    -0.278 N 
ATOM     27  H42 UNL     1       0.203   2.041   0.332  1.00  0.00     0.191 HD
ATOM     28  H41 UNL     1       0.136   4.049   0.672  1.00  0.00     0.191 HD
ENDBRANCH  25  26
ENDBRANCH  15  25
ENDBRANCH   1  15
TORSDOF 8
