REMARK  7 active torsions:
REMARK  status: ('A' for Active; 'I' for Inactive)
REMARK    1  A    between atoms: C2_2  and  N1_3 
REMARK    2  A    between atoms: C2_2  and  C3_8 
REMARK    3  A    between atoms: N1_3  and  N2_5 
REMARK       I    between atoms: C3_8  and  N3_10 
REMARK    4  A    between atoms: N3_10  and  C4_12 
REMARK    5  A    between atoms: C6_15  and  N5_16 
REMARK    6  A    between atoms: N5_16  and  N6_18 
REMARK    7  A    between atoms: N6_18  and  C7_20 
ROOT
HETATM    1  C4  UNL     1       0.790  -1.092   0.122  1.00  0.00     0.094 A 
HETATM    2  C5  UNL     1       1.843  -0.254   0.483  1.00  0.00     0.128 A 
HETATM    3  N4  UNL     1       1.600   0.966   1.166  1.00  0.00    -0.095 NA
HETATM    4  C6  UNL     1       3.105  -0.683   0.139  1.00  0.00     0.193 A 
HETATM    5  O3  UNL     1       3.303  -1.814  -0.492  1.00  0.00    -0.253 OA
HETATM    6  C8  UNL     1       2.352  -2.621  -0.845  1.00  0.00     0.316 A 
HETATM    7  O4  UNL     1       2.537  -3.716  -1.455  1.00  0.00    -0.257 OA
HETATM    8  C9  UNL     1       1.046  -2.285  -0.547  1.00  0.00     0.150 A 
HETATM    9  N7  UNL     1      -0.047  -3.120  -0.903  1.00  0.00    -0.093 NA
ENDROOT
BRANCH   1  10
HETATM   10  N3  UNL     1      -0.530  -0.718   0.442  1.00  0.00    -0.322 N 
HETATM   11  C3  UNL     1      -1.312   0.061  -0.471  1.00  0.00     0.246 C 
HETATM   12  O1  UNL     1      -0.800   0.406  -1.563  1.00  0.00    -0.271 OA
ATOM     13  H3  UNL     1      -0.933  -1.005   1.334  1.00  0.00     0.169 HD
BRANCH  11  14
HETATM   14  C2  UNL     1      -2.687   0.470  -0.175  1.00  0.00     0.186 C 
HETATM   15  C1  UNL     1      -2.819   1.173   1.155  1.00  0.00     0.044 C 
BRANCH  14  16
HETATM   16  N1  UNL     1      -3.217   1.232  -1.256  1.00  0.00    -0.329 N 
ATOM     17  H1  UNL     1      -2.643   1.527  -2.046  1.00  0.00     0.180 HD
BRANCH  16  18
HETATM   18  N2  UNL     1      -4.553   1.543  -1.164  1.00  0.00    -0.349 N 
ATOM     19  H22 UNL     1      -5.114   1.241  -0.368  1.00  0.00     0.176 HD
ATOM     20  H21 UNL     1      -4.932   2.089  -1.938  1.00  0.00     0.176 HD
ENDBRANCH  16  18
ENDBRANCH  14  16
ENDBRANCH  11  14
ENDBRANCH   1  10
BRANCH   4  21
HETATM   21  N5  UNL     1       4.229   0.143   0.487  1.00  0.00    -0.276 N 
ATOM     22  H5  UNL     1       5.170  -0.162   0.238  1.00  0.00     0.189 HD
BRANCH  21  23
HETATM   23  N6  UNL     1       4.059   1.341   1.151  1.00  0.00    -0.275 N 
ATOM     24  H6  UNL     1       3.560   1.372   2.040  1.00  0.00     0.189 HD
BRANCH  23  25
HETATM   25  C7  UNL     1       4.530   2.401   0.644  1.00  0.00     0.368 C 
HETATM   26  O2  UNL     1       4.827   3.422   0.007  1.00  0.00    -0.282 OA
ENDBRANCH  23  25
ENDBRANCH  21  23
ENDBRANCH   4  21
TORSDOF 7
