REMARK  5 active torsions:
REMARK  status: ('A' for Active; 'I' for Inactive)
REMARK    1  A    between atoms: N1_1  and  C1_4 
REMARK    2  A    between atoms: C2_7  and  C3_8 
REMARK    3  A    between atoms: C4_12  and  C5_13 
REMARK    4  A    between atoms: N4_19  and  O3_21 
REMARK    5  A    between atoms: C8_23  and  N5_24 
ROOT
HETATM    1  C1  UNL     1       3.146  -0.863  -1.369  1.00  0.00     0.679 A 
HETATM    2  N2  UNL     1       1.850  -0.600  -1.285  1.00  0.00    -0.191 N 
ATOM      3  H2  UNL     1       1.259  -0.888  -2.065  1.00  0.00     0.184 HD
HETATM    4  C2  UNL     1       1.241   0.031  -0.226  1.00  0.00     0.102 A 
HETATM    5  C8  UNL     1       2.063   0.396   0.791  1.00  0.00     0.196 A 
HETATM    6  C9  UNL     1       3.442   0.111   0.690  1.00  0.00     0.294 A 
HETATM    7  O6  UNL     1       4.214   0.452   1.641  1.00  0.00    -0.265 OA
HETATM    8  N6  UNL     1       3.953  -0.501  -0.365  1.00  0.00    -0.154 N 
ATOM      9  H6  UNL     1       4.953  -0.695  -0.413  1.00  0.00     0.187 HD
ENDROOT
BRANCH   4  10
HETATM   10  C3  UNL     1      -0.191   0.265  -0.271  1.00  0.00     0.297 C 
HETATM   11  N3  UNL     1      -0.987  -0.720   0.413  1.00  0.00    -0.044 N 
HETATM   12  C4  UNL     1      -2.315  -0.819  -0.242  1.00  0.00     0.296 C 
ATOM     13  H32 UNL     1      -0.517  -1.623   0.472  1.00  0.00     0.279 HD
ATOM     14  H31 UNL     1      -1.062  -0.530   1.412  1.00  0.00     0.279 HD
HETATM   15  C6  UNL     1      -3.232   0.232   0.371  1.00  0.00     0.125 C 
HETATM   16  S1  UNL     1      -2.209   1.579   1.072  1.00  0.00    -0.110 SA
HETATM   17  C7  UNL     1      -0.699   1.602   0.046  1.00  0.00     0.105 C 
HETATM   18  N4  UNL     1      -0.204   2.720  -0.359  1.00  0.00    -0.264 N 
ATOM     19  H4  UNL     1       0.619   2.744  -0.960  1.00  0.00     0.194 HD
BRANCH  12  20
HETATM   20  C5  UNL     1      -2.850  -2.187  -0.088  1.00  0.00     0.205 C 
HETATM   21  O1  UNL     1      -2.221  -3.074   0.531  1.00  0.00    -0.646 OA
HETATM   22  O2  UNL     1      -4.075  -2.533  -0.631  1.00  0.00    -0.646 OA
ENDBRANCH  12  20
BRANCH  18  23
HETATM   23  O3  UNL     1      -0.819   3.878   0.044  1.00  0.00    -0.289 OA
ATOM     24  H3  UNL     1      -0.454   4.703  -0.255  1.00  0.00     0.244 HD
ENDBRANCH  18  23
ENDBRANCH   4  10
BRANCH   5  25
HETATM   25  N5  UNL     1       1.634   1.026   1.981  1.00  0.00    -0.108 N 
HETATM   26  O4  UNL     1       0.979   0.418   2.818  1.00  0.00    -0.532 OA
HETATM   27  O5  UNL     1       1.980   2.320   2.209  1.00  0.00    -0.532 OA
ENDBRANCH   5  25
BRANCH   1  28
HETATM   28  N1  UNL     1       3.629  -1.471  -2.429  1.00  0.00    -0.234 N 
ATOM     29  H12 UNL     1       3.014  -1.747  -3.194  1.00  0.00     0.174 HD
ATOM     30  H11 UNL     1       4.627  -1.673  -2.494  1.00  0.00     0.174 HD
ENDBRANCH   1  28
TORSDOF 5
