REMARK  11 active torsions:
REMARK  status: ('A' for Active; 'I' for Inactive)
REMARK    1  A    between atoms: C2_2  and  C3_3 
REMARK    2  A    between atoms: C3_3  and  O1_4 
REMARK    3  A    between atoms: C3_3  and  N1_6 
REMARK    4  A    between atoms: N1_6  and  C4_8 
REMARK    5  A    between atoms: C5_11  and  N3_12 
REMARK    6  A    between atoms: N3_12  and  C6_14 
REMARK    7  A    between atoms: N4_17  and  C9_18 
REMARK    8  A    between atoms: C9_18  and  C10_19 
REMARK    9  A    between atoms: C10_19  and  O2_20 
REMARK   10  A    between atoms: C13_26  and  N6_27 
REMARK   11  A    between atoms: C15_33  and  C16_34 
ROOT
HETATM    1  C4  UNL     1      -0.921   0.799  -1.274  1.00  0.00     0.148 C 
HETATM    2  N2  UNL     1       0.384   0.688  -0.988  1.00  0.00    -0.175 N 
ATOM      3  H2  UNL     1       0.945   1.510  -1.211  1.00  0.00     0.186 HD
HETATM    4  C5  UNL     1       1.089  -0.368  -0.438  1.00  0.00     0.681 C 
HETATM    5  N5  UNL     1       0.609  -1.277   0.415  1.00  0.00    -0.175 N 
ATOM      6  H5  UNL     1       1.305  -1.913   0.805  1.00  0.00     0.186 HD
HETATM    7  C13 UNL     1      -0.676  -1.487   0.847  1.00  0.00     0.144 C 
HETATM    8  C14 UNL     1      -1.799  -0.768   0.494  1.00  0.00     0.109 A 
HETATM    9  N7  UNL     1      -3.024  -0.948   1.034  1.00  0.00    -0.341 N 
ATOM     10  H7  UNL     1      -3.254  -1.630   1.757  1.00  0.00     0.167 HD
HETATM   11  C15 UNL     1      -3.892  -0.091   0.473  1.00  0.00     0.086 A 
HETATM   12  N8  UNL     1      -3.193   0.623  -0.421  1.00  0.00    -0.341 N 
ATOM     13  H8  UNL     1      -3.586   1.359  -1.008  1.00  0.00     0.167 HD
HETATM   14  C22 UNL     1      -1.914   0.243  -0.441  1.00  0.00     0.109 A 
ENDROOT
BRANCH   4  15
HETATM   15  N3  UNL     1       2.291  -0.453  -0.793  1.00  0.00    -0.221 N 
ATOM     16  H3  UNL     1       2.610   0.264  -1.445  1.00  0.00     0.178 HD
BRANCH  15  17
HETATM   17  C6  UNL     1       3.267  -1.414  -0.409  1.00  0.00     0.102 C 
HETATM   18  C7  UNL     1       3.898  -1.033   0.925  1.00  0.00     0.056 C 
HETATM   19  C8  UNL     1       5.367  -1.479   0.833  1.00  0.00     0.274 C 
HETATM   20  N4  UNL     1       6.020  -0.504  -0.013  1.00  0.00     0.090 N 
HETATM   21  C11 UNL     1       5.439  -0.553  -1.315  1.00  0.00     0.274 C 
HETATM   22  C12 UNL     1       4.357  -1.564  -1.469  1.00  0.00     0.056 C 
BRANCH  20  23
HETATM   23  C9  UNL     1       7.445  -0.558   0.000  1.00  0.00     0.298 C 
BRANCH  23  24
HETATM   24  C10 UNL     1       7.945  -0.119   1.357  1.00  0.00     0.194 C 
BRANCH  24  25
HETATM   25  O2  UNL     1       7.528   1.189   1.629  1.00  0.00    -0.399 OA
ATOM     26  H2  UNL     1       7.842   1.465   2.482  1.00  0.00     0.209 HD
ENDBRANCH  24  25
ENDBRANCH  23  24
ENDBRANCH  20  23
ENDBRANCH  15  17
ENDBRANCH   4  15
BRANCH   1  27
HETATM   27  N1  UNL     1      -1.335   1.395  -2.299  1.00  0.00    -0.348 N 
ATOM     28  H1  UNL     1      -2.353   1.383  -2.353  1.00  0.00     0.163 HD
BRANCH  27  29
HETATM   29  C3  UNL     1      -0.773   2.069  -3.382  1.00  0.00     0.218 C 
BRANCH  29  30
HETATM   30  C2  UNL     1      -1.127   3.560  -3.251  1.00  0.00     0.049 C 
HETATM   31  C1  UNL     1      -0.462   4.158  -2.048  1.00  0.00     0.009 C 
ENDBRANCH  29  30
BRANCH  29  32
HETATM   32  O1  UNL     1       0.589   1.874  -3.515  1.00  0.00    -0.377 OA
ATOM     33  H1  UNL     1       0.808   0.953  -3.596  1.00  0.00     0.212 HD
ENDBRANCH  29  32
ENDBRANCH  27  29
ENDBRANCH   1  27
BRANCH   7  34
HETATM   34  N6  UNL     1      -0.821  -2.454   1.661  1.00  0.00    -0.383 N 
ATOM     35  H62 UNL     1       0.009  -2.986   1.922  1.00  0.00     0.157 HD
ATOM     36  H61 UNL     1      -1.776  -2.610   1.982  1.00  0.00     0.157 HD
ENDBRANCH   7  34
BRANCH  11  37
HETATM   37  C16 UNL     1      -5.353   0.027   0.800  1.00  0.00     0.053 C 
HETATM   38  C17 UNL     1      -6.087  -1.263   0.578  1.00  0.00     0.012 C 
HETATM   39  C18 UNL     1      -7.483  -1.085   1.159  1.00  0.00     0.001 C 
HETATM   40  C19 UNL     1      -7.380  -1.059   2.661  1.00  0.00     0.000 C 
HETATM   41  C20 UNL     1      -6.011  -0.627   3.107  1.00  0.00     0.001 C 
HETATM   42  C21 UNL     1      -5.526   0.489   2.230  1.00  0.00     0.012 C 
ENDBRANCH  11  37
TORSDOF 11
