REMARK  9 active torsions:
REMARK  status: ('A' for Active; 'I' for Inactive)
REMARK    1  A    between atoms: N1_1  and  C1_4 
REMARK    2  A    between atoms: C2_7  and  C3_8 
REMARK    3  A    between atoms: C3_8  and  N3_9 
REMARK    4  A    between atoms: C3_8  and  C9_20 
REMARK       I    between atoms: N3_9  and  C4_11 
REMARK    5  A    between atoms: C4_11  and  C5_13 
REMARK    6  A    between atoms: C9_20  and  O3_25 
REMARK    7  A    between atoms: N5_21  and  O2_23 
REMARK    8  A    between atoms: O3_25  and  C10_26 
REMARK    9  A    between atoms: C13_29  and  C14_30 
ROOT
HETATM    1  C3  UNL     1       1.457   1.456   0.070  1.00  0.00     0.231 C 
ENDROOT
BRANCH   1   2
HETATM    2  C2  UNL     1       0.959   2.234   1.216  1.00  0.00     0.143 A 
HETATM    3  N2  UNL     1       1.750   2.565   2.275  1.00  0.00    -0.176 N 
HETATM    4  C1  UNL     1       1.036   3.277   3.153  1.00  0.00     0.692 A 
ATOM      5  H2  UNL     1       2.732   2.310   2.381  1.00  0.00     0.185 HD
HETATM    6  N7  UNL     1      -0.198   3.386   2.639  1.00  0.00    -0.131 N 
HETATM    7  N6  UNL     1      -0.243   2.759   1.476  1.00  0.00    -0.272 N 
ATOM      8  H7  UNL     1      -0.979   3.875   3.076  1.00  0.00     0.205 HD
ATOM      9  H6  UNL     1      -1.063   2.687   0.874  1.00  0.00     0.189 HD
BRANCH   4  10
HETATM   10  N1  UNL     1       1.364   3.785   4.283  1.00  0.00    -0.233 N 
ATOM     11  H12 UNL     1       2.302   3.702   4.674  1.00  0.00     0.174 HD
ATOM     12  H11 UNL     1       0.819   4.328   4.953  1.00  0.00     0.174 HD
ENDBRANCH   4  10
ENDBRANCH   1   2
BRANCH   1  13
HETATM   13  N3  UNL     1       2.338   0.416   0.574  1.00  0.00    -0.341 N 
HETATM   14  C4  UNL     1       3.732   0.462   0.479  1.00  0.00     0.249 C 
HETATM   15  O1  UNL     1       4.301   1.440  -0.051  1.00  0.00    -0.271 OA
ATOM     16  H3  UNL     1       1.914  -0.396   1.024  1.00  0.00     0.163 HD
BRANCH  14  17
HETATM   17  C5  UNL     1       4.547  -0.648   1.009  1.00  0.00     0.277 C 
HETATM   18  C6  UNL     1       4.919  -1.609  -0.149  1.00  0.00     0.044 C 
HETATM   19  C7  UNL     1       6.042  -2.399   0.476  1.00  0.00     0.030 C 
HETATM   20  C8  UNL     1       6.521  -1.518   1.609  1.00  0.00     0.233 C 
HETATM   21  N4  UNL     1       5.886  -0.225   1.378  1.00  0.00    -0.062 N 
ATOM     22  H42 UNL     1       6.356   0.384   0.709  1.00  0.00     0.278 HD
ATOM     23  H41 UNL     1       5.942   0.438   2.151  1.00  0.00     0.278 HD
ENDBRANCH  14  17
ENDBRANCH   1  13
BRANCH   1  24
HETATM   24  C9  UNL     1       0.417   0.960  -0.822  1.00  0.00     0.169 C 
HETATM   25  N5  UNL     1       0.461   1.297  -2.091  1.00  0.00    -0.249 N 
ATOM     26  H5  UNL     1      -0.263   0.953  -2.722  1.00  0.00     0.196 HD
BRANCH  25  27
HETATM   27  O2  UNL     1       1.458   2.101  -2.591  1.00  0.00    -0.288 OA
ATOM     28  H2  UNL     1       1.490   2.345  -3.509  1.00  0.00     0.244 HD
ENDBRANCH  25  27
BRANCH  24  29
HETATM   29  O3  UNL     1      -0.644   0.162  -0.527  1.00  0.00    -0.330 OA
BRANCH  29  30
HETATM   30  C10 UNL     1      -1.915   0.291  -1.022  1.00  0.00     0.139 C 
HETATM   31  C11 UNL     1      -2.131   0.209  -2.474  1.00  0.00     0.034 C 
HETATM   32  C12 UNL     1      -3.600  -0.077  -2.739  1.00  0.00     0.018 C 
HETATM   33  C13 UNL     1      -4.480   0.500  -1.672  1.00  0.00     0.087 C 
HETATM   34  C15 UNL     1      -4.214  -0.165  -0.345  1.00  0.00     0.027 C 
HETATM   35  C16 UNL     1      -2.803  -0.685  -0.231  1.00  0.00    -0.013 C 
HETATM   36  C17 UNL     1      -2.638  -2.084  -0.680  1.00  0.00     0.012 C 
HETATM   37  C20 UNL     1      -2.338  -0.633   1.197  1.00  0.00     0.012 C 
HETATM   38  C18 UNL     1      -1.892  -2.854   0.379  1.00  0.00     0.001 C 
HETATM   39  C19 UNL     1      -2.165  -2.069   1.641  1.00  0.00     0.001 C 
BRANCH  33  40
HETATM   40  C14 UNL     1      -5.887   0.290  -2.065  1.00  0.00     0.177 C 
HETATM   41  O4  UNL     1      -6.618  -0.401  -1.309  1.00  0.00    -0.648 OA
HETATM   42  O5  UNL     1      -6.471   0.794  -3.204  1.00  0.00    -0.648 OA
ENDBRANCH  33  40
ENDBRANCH  29  30
ENDBRANCH  24  29
ENDBRANCH   1  24
TORSDOF 9
