REMARK  1 active torsions:
REMARK  status: ('A' for Active; 'I' for Inactive)
REMARK    1  A    between atoms: C13_15  and  N2_16 
ROOT
HETATM    1  C1  UNL     1      -0.096  -1.286   1.834  1.00  0.00     0.011 C 
HETATM    2  C2  UNL     1      -0.476  -1.506   0.386  1.00  0.00    -0.007 C 
HETATM    3  C3  UNL     1      -1.965  -1.602   0.271  1.00  0.00     0.016 C 
HETATM    4  C4  UNL     1      -2.616  -0.344  -0.201  1.00  0.00    -0.016 C 
HETATM    5  C5  UNL     1      -2.879  -0.444  -1.685  1.00  0.00     0.018 C 
HETATM    6  C6  UNL     1      -3.998  -0.188   0.453  1.00  0.00     0.018 C 
HETATM    7  C7  UNL     1      -1.869   0.909   0.097  1.00  0.00     0.185 C 
HETATM    8  F1  UNL     1      -2.600   1.910  -0.566  1.00  0.00    -0.248 F 
HETATM    9  C8  UNL     1      -0.453   0.865  -0.462  1.00  0.00     0.067 C 
HETATM   10  C9  UNL     1       0.143  -0.484  -0.517  1.00  0.00     0.053 C 
HETATM   11  C10 UNL     1       1.611  -0.554  -0.263  1.00  0.00     0.073 A 
HETATM   12  C11 UNL     1       2.369  -1.554  -0.827  1.00  0.00     0.113 A 
HETATM   13  C12 UNL     1       1.809  -2.555  -1.705  1.00  0.00     0.105 C 
HETATM   14  N1  UNL     1       1.355  -3.341  -2.420  1.00  0.00    -0.191 NA
HETATM   15  C13 UNL     1       3.724  -1.592  -0.552  1.00  0.00     0.124 A 
HETATM   16  N3  UNL     1       4.306  -0.689   0.241  1.00  0.00    -0.317 N 
ATOM     17  H3  UNL     1       5.307  -0.735   0.432  1.00  0.00     0.170 HD
HETATM   18  C14 UNL     1       3.548   0.287   0.787  1.00  0.00     0.204 A 
HETATM   19  S1  UNL     1       4.237   1.413   1.772  1.00  0.00    -0.038 SA
HETATM   20  N4  UNL     1       2.231   0.338   0.529  1.00  0.00    -0.196 N 
HETATM   21  O1  UNL     1       1.396   1.315   1.042  1.00  0.00    -0.260 OA
HETATM   22  C15 UNL     1       0.438   1.872   0.164  1.00  0.00     0.089 C 
HETATM   23  C16 UNL     1      -0.303   2.911   1.024  1.00  0.00     0.049 C 
HETATM   24  C17 UNL     1       1.119   2.748  -0.893  1.00  0.00     0.049 C 
ENDROOT
BRANCH  15  25
HETATM   25  N2  UNL     1       4.452  -2.519  -1.069  1.00  0.00    -0.384 N 
ATOM     26  H22 UNL     1       4.007  -3.209  -1.675  1.00  0.00     0.157 HD
ATOM     27  H21 UNL     1       5.451  -2.547  -0.866  1.00  0.00     0.157 HD
ENDBRANCH  15  25
TORSDOF 1
