REMARK  1 active torsions:
REMARK  status: ('A' for Active; 'I' for Inactive)
REMARK    1  A    between atoms: O1_2  and  C2_3 
REMARK       I    between atoms: C2_3  and  N1_5 
ROOT
HETATM    1  C2  UNL     1       3.921  -0.531  -0.170  1.00  0.00     0.364 C 
HETATM    2  O2  UNL     1       5.116  -0.879  -0.015  1.00  0.00    -0.238 OA
HETATM    3  N1  UNL     1       2.920  -1.475  -0.424  1.00  0.00    -0.298 N 
ATOM      4  H1  UNL     1       3.171  -2.272  -1.009  1.00  0.00     0.171 HD
HETATM    5  C3  UNL     1       1.719  -1.429   0.011  1.00  0.00     0.079 C 
HETATM    6  S1  UNL     1       0.954  -0.190   1.046  1.00  0.00    -0.071 SA
HETATM    7  C4  UNL     1      -0.755  -0.544   0.492  1.00  0.00     0.050 A 
HETATM    8  C5  UNL     1      -0.660  -1.714  -0.136  1.00  0.00     0.028 A 
HETATM    9  S2  UNL     1      -2.261  -2.005  -0.636  1.00  0.00    -0.084 SA
HETATM   10  C6  UNL     1      -3.024  -0.585  -0.011  1.00  0.00     0.101 A 
HETATM   11  C7  UNL     1      -4.338  -0.104  -0.022  1.00  0.00     0.267 A 
HETATM   12  O3  UNL     1      -5.174  -0.826  -0.599  1.00  0.00    -0.267 OA
HETATM   13  N2  UNL     1      -4.629   1.066   0.564  1.00  0.00    -0.299 N 
ATOM     14  H2  UNL     1      -5.575   1.447   0.575  1.00  0.00     0.171 HD
HETATM   15  C8  UNL     1      -3.599   1.701   1.134  1.00  0.00     0.179 A 
HETATM   16  S3  UNL     1      -3.969   3.143   1.853  1.00  0.00    -0.040 SA
HETATM   17  N3  UNL     1      -2.348   1.264   1.156  1.00  0.00    -0.331 N 
ATOM     18  H3  UNL     1      -1.638   1.831   1.619  1.00  0.00     0.168 HD
HETATM   19  C9  UNL     1      -1.971   0.068   0.574  1.00  0.00     0.075 A 
HETATM   20  C10 UNL     1       0.637  -2.375  -0.216  1.00  0.00     0.180 C 
HETATM   21 CL1  UNL     1       0.809  -3.184  -1.791  1.00  0.00    -0.112 Cl
ENDROOT
BRANCH   1  22
HETATM   22  O1  UNL     1       3.616   0.818  -0.083  1.00  0.00    -0.309 OA
HETATM   23  C1  UNL     1       4.657   1.741   0.175  1.00  0.00     0.215 C 
ENDBRANCH   1  22
TORSDOF 1
