REMARK  3 active torsions:
REMARK  status: ('A' for Active; 'I' for Inactive)
REMARK       I    between atoms: C1_4  and  N3_6 
REMARK    1  A    between atoms: N3_6  and  S1_8 
REMARK    2  A    between atoms: S1_8  and  N4_9 
REMARK    3  A    between atoms: S1_8  and  N5_13 
ROOT
HETATM    1  S1  UNL     1       0.666   0.002   0.490  1.00  0.00     0.178 S 
HETATM    2  O1  UNL     1       0.706   0.258   1.964  1.00  0.00    -0.211 OA
ENDROOT
BRANCH   1   3
HETATM    3  N3  UNL     1       1.999   0.723  -0.336  1.00  0.00    -0.263 N 
HETATM    4  C1  UNL     1       3.242   0.044  -0.311  1.00  0.00     0.195 C 
HETATM    5  N1  UNL     1       3.741  -0.596  -1.307  1.00  0.00    -0.373 N 
HETATM    6  N2  UNL     1       3.989   0.071   0.894  1.00  0.00    -0.063 NA
ATOM      7  H12 UNL     1       4.636  -1.085  -1.289  1.00  0.00     0.158 HD
ATOM      8  H11 UNL     1       3.204  -0.615  -2.174  1.00  0.00     0.158 HD
ATOM      9  H3  UNL     1       1.895   1.611  -0.827  1.00  0.00     0.181 HD
ENDBRANCH   1   3
BRANCH   1  10
HETATM   10  N4  UNL     1       0.779  -1.551   0.293  1.00  0.00    -0.332 N 
ATOM     11  H42 UNL     1       1.512  -2.031  -0.230  1.00  0.00     0.168 HD
ATOM     12  H41 UNL     1      -0.009  -1.977   0.781  1.00  0.00     0.168 HD
ENDBRANCH   1  10
BRANCH   1  13
HETATM   13  N5  UNL     1      -0.829   0.599  -0.156  1.00  0.00    -0.211 NA
HETATM   14  C2  UNL     1      -1.831   0.754   0.877  1.00  0.00     0.107 C 
HETATM   15  C3  UNL     1      -3.178   0.525   0.195  1.00  0.00     0.017 C 
HETATM   16  C4  UNL     1      -2.832  -0.056  -1.160  1.00  0.00     0.017 C 
HETATM   17  C5  UNL     1      -1.402  -0.483  -0.961  1.00  0.00     0.107 C 
ENDBRANCH   1  13
TORSDOF 3
