REMARK  2 active torsions:
REMARK  status: ('A' for Active; 'I' for Inactive)
REMARK    1  A    between atoms: C4_5  and  N2_6 
REMARK    2  A    between atoms: C7_14  and  N4_15 
ROOT
HETATM    1  N1  UNL     1      -0.311   4.227  -0.014  1.00  0.00    -0.190 NA
HETATM    2  C1  UNL     1      -0.510   3.087  -0.008  1.00  0.00     0.119 C 
HETATM    3  C2  UNL     1      -0.741   1.658   0.006  1.00  0.00     0.141 A 
HETATM    4  C3  UNL     1      -1.955   0.996   0.034  1.00  0.00     0.083 A 
HETATM    5  C4  UNL     1      -1.774  -0.371   0.039  1.00  0.00     0.151 A 
HETATM    6  C5  UNL     1      -0.405  -0.535   0.014  1.00  0.00     0.164 A 
HETATM    7  N3  UNL     1       0.347  -1.663   0.008  1.00  0.00    -0.303 N 
ATOM      8  H3  UNL     1      -0.116  -2.572   0.024  1.00  0.00     0.171 HD
HETATM    9  C6  UNL     1       1.693  -1.610  -0.018  1.00  0.00     0.292 A 
HETATM   10  O3  UNL     1       2.419  -2.660  -0.025  1.00  0.00    -0.264 OA
HETATM   11  C7  UNL     1       2.280  -0.353  -0.038  1.00  0.00     0.183 A 
HETATM   12  N5  UNL     1       1.507   0.748  -0.031  1.00  0.00    -0.272 N 
ATOM     13  H5  UNL     1       1.950   1.667  -0.045  1.00  0.00     0.189 HD
HETATM   14  N6  UNL     1       0.193   0.670  -0.006  1.00  0.00    -0.225 N 
ENDROOT
BRANCH   5  15
HETATM   15  N2  UNL     1      -2.752  -1.401   0.065  1.00  0.00    -0.112 N 
HETATM   16  O1  UNL     1      -2.552  -2.500   0.621  1.00  0.00    -0.532 OA
HETATM   17  O2  UNL     1      -3.981  -1.238  -0.527  1.00  0.00    -0.532 OA
ENDBRANCH   5  15
BRANCH  11  18
HETATM   18  N4  UNL     1       3.573  -0.271  -0.064  1.00  0.00    -0.380 N 
ATOM     19  H42 UNL     1       4.159  -1.106  -0.069  1.00  0.00     0.158 HD
ATOM     20  H41 UNL     1       4.005   0.653  -0.079  1.00  0.00     0.158 HD
ENDBRANCH  11  18
TORSDOF 2
