REMARK  3 active torsions:
REMARK  status: ('A' for Active; 'I' for Inactive)
REMARK    1  A    between atoms: C3_4  and  N2_5 
REMARK    2  A    between atoms: C8_12  and  N4_13 
REMARK    3  A    between atoms: N5_16  and  N6_17 
ROOT
HETATM    1  N1  UNL     1      -0.307  -3.062  -1.857  1.00  0.00    -0.191 NA
HETATM    2  C1  UNL     1       0.219  -2.153  -1.337  1.00  0.00     0.109 C 
HETATM    3  C2  UNL     1       0.901  -1.050  -0.720  1.00  0.00     0.159 A 
HETATM    4  C3  UNL     1       0.244  -0.042  -0.078  1.00  0.00     0.145 A 
HETATM    5  N3  UNL     1       1.036   0.933   0.432  1.00  0.00    -0.173 N 
ATOM      6  H3  UNL     1       0.588   1.708   0.921  1.00  0.00     0.186 HD
HETATM    7  C8  UNL     1       2.377   0.940   0.332  1.00  0.00     0.701 A 
HETATM    8  N5  UNL     1       3.036  -0.057  -0.304  1.00  0.00    -0.053 N 
HETATM    9  C9  UNL     1       2.309  -1.043  -0.825  1.00  0.00     0.306 A 
HETATM   10  O1  UNL     1       2.901  -1.989  -1.426  1.00  0.00    -0.264 OA
ENDROOT
BRANCH   4  11
HETATM   11  N2  UNL     1      -1.156  -0.048   0.053  1.00  0.00    -0.365 N 
HETATM   12  C4  UNL     1      -1.814   1.143   0.647  1.00  0.00     0.124 C 
HETATM   13  C5  UNL     1      -3.269   0.995   0.508  1.00  0.00     0.021 C 
HETATM   14  C6  UNL     1      -3.474  -0.492   0.388  1.00  0.00     0.021 C 
HETATM   15  C7  UNL     1      -2.181  -0.984  -0.245  1.00  0.00     0.124 C 
ENDBRANCH   4  11
BRANCH   8  16
HETATM   16  N6  UNL     1       4.435  -0.020  -0.390  1.00  0.00    -0.321 N 
ATOM     17  H62 UNL     1       4.992   0.735   0.009  1.00  0.00     0.178 HD
ATOM     18  H61 UNL     1       4.932  -0.771  -0.869  1.00  0.00     0.178 HD
ENDBRANCH   8  16
BRANCH   7  19
HETATM   19  N4  UNL     1       3.061   1.921   0.854  1.00  0.00    -0.233 N 
ATOM     20  H42 UNL     1       2.564   2.672   1.333  1.00  0.00     0.174 HD
ATOM     21  H41 UNL     1       4.078   1.926   0.778  1.00  0.00     0.174 HD
ENDBRANCH   7  19
TORSDOF 3
