REMARK  2 active torsions:
REMARK  status: ('A' for Active; 'I' for Inactive)
REMARK    1  A    between atoms: N1_1  and  C1_4 
REMARK    2  A    between atoms: C5_10  and  N3_11 
ROOT
HETATM    1  C1  UNL     1      -1.898   0.437  -0.109  1.00  0.00     0.686 A 
HETATM    2  N2  UNL     1      -2.395  -0.744   0.289  1.00  0.00    -0.202 N 
ATOM      3  H2  UNL     1      -3.407  -0.857   0.348  1.00  0.00     0.183 HD
HETATM    4  C2  UNL     1      -1.605  -1.784   0.613  1.00  0.00     0.108 A 
HETATM    5  C3  UNL     1      -0.241  -1.602   0.524  1.00  0.00     0.051 A 
HETATM    6  C4  UNL     1       0.279  -0.383   0.113  1.00  0.00     0.102 A 
HETATM    7  C5  UNL     1       1.658  -0.174   0.016  1.00  0.00     0.198 A 
HETATM    8  C6  UNL     1       2.162   1.039  -0.392  1.00  0.00     0.284 A 
HETATM    9  O3  UNL     1       3.405   1.184  -0.466  1.00  0.00    -0.265 OA
HETATM   10  N4  UNL     1       1.300   2.025  -0.697  1.00  0.00    -0.272 N 
ATOM     11  H4  UNL     1       1.646   2.935  -1.002  1.00  0.00     0.173 HD
HETATM   12  C7  UNL     1      -0.023   1.802  -0.597  1.00  0.00     0.348 A 
HETATM   13  O4  UNL     1      -0.800   2.747  -0.890  1.00  0.00    -0.245 OA
HETATM   14  N5  UNL     1      -0.550   0.629  -0.201  1.00  0.00    -0.094 N 
ENDROOT
BRANCH   1  15
HETATM   15  N1  UNL     1      -2.664   1.430  -0.419  1.00  0.00    -0.234 N 
ATOM     16  H12 UNL     1      -3.672   1.286  -0.350  1.00  0.00     0.174 HD
ATOM     17  H11 UNL     1      -2.286   2.328  -0.722  1.00  0.00     0.174 HD
ENDBRANCH   1  15
BRANCH   7  18
HETATM   18  N3  UNL     1       2.513  -1.258   0.354  1.00  0.00    -0.107 N 
HETATM   19  O1  UNL     1       2.665  -2.262  -0.382  1.00  0.00    -0.531 OA
HETATM   20  O2  UNL     1       3.250  -1.282   1.535  1.00  0.00    -0.531 OA
ENDBRANCH   7  18
TORSDOF 2
