REMARK  2 active torsions:
REMARK  status: ('A' for Active; 'I' for Inactive)
REMARK    1  A    between atoms: N1_1  and  C1_4 
REMARK    2  A    between atoms: C3_9  and  N3_10 
ROOT
HETATM    1  C1  UNL     1       0.590   1.842  -0.107  1.00  0.00     0.700 A 
HETATM    2  N2  UNL     1       1.905   1.639   0.048  1.00  0.00    -0.152 N 
ATOM      3  H2  UNL     1       2.520   2.451   0.102  1.00  0.00     0.187 HD
HETATM    4  C2  UNL     1       2.449   0.414   0.136  1.00  0.00     0.295 A 
HETATM    5  O1  UNL     1       3.670   0.219   0.280  1.00  0.00    -0.265 OA
HETATM    6  C3  UNL     1       1.594  -0.690   0.063  1.00  0.00     0.203 A 
HETATM    7  C4  UNL     1       0.264  -0.456  -0.093  1.00  0.00     0.158 A 
HETATM    8  N4  UNL     1      -0.258   0.803  -0.180  1.00  0.00    -0.085 N 
HETATM    9  N5  UNL     1      -1.625   0.966  -0.346  1.00  0.00    -0.315 N 
ATOM     10  H5  UNL     1      -1.945   1.850  -0.742  1.00  0.00     0.181 HD
HETATM   11  C5  UNL     1      -2.635  -0.010  -0.006  1.00  0.00     0.148 C 
HETATM   12  C6  UNL     1      -2.088  -1.357   0.285  1.00  0.00     0.106 C 
HETATM   13  C7  UNL     1      -0.674  -1.555  -0.150  1.00  0.00     0.182 C 
HETATM   14  O4  UNL     1      -0.302  -2.661  -0.559  1.00  0.00    -0.291 OA
ENDROOT
BRANCH   1  15
HETATM   15  N1  UNL     1       0.096   3.056  -0.190  1.00  0.00    -0.233 N 
ATOM     16  H12 UNL     1       0.740   3.845  -0.135  1.00  0.00     0.174 HD
ATOM     17  H11 UNL     1      -0.905   3.211  -0.308  1.00  0.00     0.174 HD
ENDBRANCH   1  15
BRANCH   6  18
HETATM   18  N3  UNL     1       2.170  -1.968   0.128  1.00  0.00    -0.107 N 
HETATM   19  O2  UNL     1       2.466  -2.467   1.219  1.00  0.00    -0.531 OA
HETATM   20  O3  UNL     1       2.415  -2.680  -1.008  1.00  0.00    -0.531 OA
ENDBRANCH   6  18
TORSDOF 2
