REMARK  5 active torsions:
REMARK  status: ('A' for Active; 'I' for Inactive)
REMARK    1  A    between atoms: C5_5  and  C6_6 
REMARK    2  A    between atoms: C6_6  and  C7_7 
REMARK    3  A    between atoms: C15_16  and  O1_18 
REMARK    4  A    between atoms: C17_21  and  O2_22 
REMARK    5  A    between atoms: C19_24  and  O3_25 
ROOT
HETATM    1  C1  UNL     1       5.122  -2.843   2.166  1.00  0.00     0.018 C 
HETATM    2  C2  UNL     1       4.447  -2.122   1.473  1.00  0.00    -0.075 C 
HETATM    3  C3  UNL     1       3.627  -1.259   0.639  1.00  0.00     0.053 A 
HETATM    4  C4  UNL     1       2.252  -1.360   0.630  1.00  0.00     0.035 A 
HETATM    5  C5  UNL     1       1.450  -0.555  -0.150  1.00  0.00    -0.030 A 
HETATM    6  C16 UNL     1       2.057   0.399  -0.962  1.00  0.00     0.051 A 
HETATM    7  C17 UNL     1       3.419   0.502  -0.956  1.00  0.00     0.103 A 
HETATM    8  C19 UNL     1       4.212  -0.306  -0.173  1.00  0.00     0.117 A 
ENDROOT
BRANCH   8   9
HETATM    9  O3  UNL     1       5.596  -0.165  -0.198  1.00  0.00    -0.357 OA
ATOM     10  H3  UNL     1       5.998   0.490  -0.756  1.00  0.00     0.218 HD
ENDBRANCH   8   9
BRANCH   5  11
HETATM   11  C6  UNL     1       0.048  -0.719  -0.232  1.00  0.00     0.041 C 
BRANCH  11  12
HETATM   12  C7  UNL     1      -1.142  -0.422   0.060  1.00  0.00     0.044 A 
HETATM   13  C8  UNL     1      -2.116  -1.260  -0.605  1.00  0.00     0.037 A 
HETATM   14  C9  UNL     1      -3.448  -1.024  -0.526  1.00  0.00    -0.048 A 
HETATM   15  C10 UNL     1      -4.429  -1.905  -1.220  1.00  0.00     0.049 C 
HETATM   16  C11 UNL     1      -3.901   0.035   0.198  1.00  0.00    -0.013 A 
HETATM   17  C12 UNL     1      -5.191   0.221   0.249  1.00  0.00     0.026 C 
HETATM   18  C13 UNL     1      -2.999   0.872   0.860  1.00  0.00     0.043 A 
HETATM   19  C14 UNL     1      -3.522   1.893   1.480  1.00  0.00     0.044 C 
HETATM   20  N1  UNL     1      -1.625   0.609   0.774  1.00  0.00    -0.281 N 
HETATM   21  C15 UNL     1      -0.887   1.269   1.556  1.00  0.00     0.236 C 
HETATM   22  N2  UNL     1       0.450   1.229   1.954  1.00  0.00    -0.056 NA
BRANCH  21  23
HETATM   23  O1  UNL     1      -1.514   2.363   2.254  1.00  0.00    -0.334 OA
ATOM     24  H1  UNL     1      -0.958   2.860   2.843  1.00  0.00     0.220 HD
ENDBRANCH  21  23
ENDBRANCH  11  12
ENDBRANCH   5  11
BRANCH   7  25
HETATM   25  O2  UNL     1       4.016   1.472  -1.783  1.00  0.00    -0.353 OA
HETATM   26  C18 UNL     1       3.222   2.313  -2.595  1.00  0.00     0.210 C 
ENDBRANCH   7  25
TORSDOF 5
