REMARK  6 active torsions:
REMARK  status: ('A' for Active; 'I' for Inactive)
REMARK       I    between atoms: N1_2  and  C3_4 
REMARK       I    between atoms: C3_4  and  N2_6 
REMARK    1  A    between atoms: N2_6  and  C4_8 
REMARK    2  A    between atoms: C8_13  and  C9_14 
REMARK    3  A    between atoms: C9_14  and  N3_15 
REMARK    4  A    between atoms: C9_14  and  C11_20 
REMARK    5  A    between atoms: N3_15  and  C10_16 
REMARK    6  A    between atoms: C10_16  and  N4_17 
ROOT
HETATM    1  C4  UNL     1       1.314   0.607   0.160  1.00  0.00     0.086 C 
HETATM    2  C5  UNL     1       0.658   0.447   1.492  1.00  0.00     0.028 C 
HETATM    3  C6  UNL     1      -0.756   0.883   1.559  1.00  0.00     0.034 C 
HETATM    4  C7  UNL     1      -1.288   1.523   0.319  1.00  0.00     0.126 C 
HETATM    5  O2  UNL     1      -2.665   1.571   0.418  1.00  0.00    -0.373 OA
HETATM    6  C8  UNL     1      -3.214   0.929  -0.655  1.00  0.00     0.192 C 
HETATM    7  C12 UNL     1      -2.145  -0.023  -1.205  1.00  0.00     0.046 C 
HETATM    8  C13 UNL     1      -0.919   0.841  -0.947  1.00  0.00     0.019 C 
HETATM    9  C14 UNL     1       0.346   0.041  -0.883  1.00  0.00     0.032 C 
ENDROOT
BRANCH   6  10
HETATM   10  C9  UNL     1      -4.473   0.207  -0.354  1.00  0.00     0.190 C 
BRANCH  10  11
HETATM   11  N3  UNL     1      -5.532   0.534  -0.937  1.00  0.00    -0.341 NA
BRANCH  11  12
HETATM   12  C10 UNL     1      -6.573   1.146  -1.257  1.00  0.00     0.132 C 
BRANCH  12  13
HETATM   13  N4  UNL     1      -7.672   1.712  -1.557  1.00  0.00    -0.340 N 
ATOM     14  H42 UNL     1      -7.902   0.811  -1.138  1.00  0.00     0.168 HD
ATOM     15  H41 UNL     1      -8.522   2.212  -1.818  1.00  0.00     0.168 HD
ENDBRANCH  12  13
ENDBRANCH  11  12
ENDBRANCH  10  11
BRANCH  10  16
HETATM   16  C11 UNL     1      -4.553  -0.884   0.599  1.00  0.00     0.294 C 
HETATM   17  N5  UNL     1      -4.416  -2.243   0.277  1.00  0.00    -0.055 NA
HETATM   18  O3  UNL     1      -4.764  -0.568   1.812  1.00  0.00    -0.268 OA
ENDBRANCH  10  16
ENDBRANCH   6  10
BRANCH   1  19
HETATM   19  N2  UNL     1       2.484  -0.254   0.134  1.00  0.00    -0.338 N 
HETATM   20  C3  UNL     1       3.769   0.274  -0.236  1.00  0.00     0.317 C 
HETATM   21  N1  UNL     1       4.922  -0.527  -0.272  1.00  0.00    -0.343 N 
HETATM   22  O1  UNL     1       3.850   1.492  -0.535  1.00  0.00    -0.247 OA
HETATM   23  C1  UNL     1       4.843  -1.929   0.069  1.00  0.00     0.154 C 
HETATM   24  C2  UNL     1       6.187   0.024  -0.645  1.00  0.00     0.154 C 
ATOM     25  H2  UNL     1       2.393  -1.240   0.380  1.00  0.00     0.164 HD
ENDBRANCH   1  19
TORSDOF 6
