REMARK  7 active torsions:
REMARK  status: ('A' for Active; 'I' for Inactive)
REMARK    1  A    between atoms: C2_2  and  S1_4 
REMARK    2  A    between atoms: S1_4  and  C4_5 
REMARK       I    between atoms: N3_11  and  C6_13 
REMARK    3  A    between atoms: C6_13  and  C7_15 
REMARK    4  A    between atoms: C7_15  and  C8_16 
REMARK    5  A    between atoms: C8_16  and  C9_17 
REMARK    6  A    between atoms: N4_20  and  C12_21 
REMARK    7  A    between atoms: C12_21  and  C13_22 
ROOT
HETATM    1  C4  UNL     1       4.992  -0.255   0.206  1.00  0.00     0.130 A 
HETATM    2  N1  UNL     1       3.789   0.250   0.437  1.00  0.00    -0.286 N 
ATOM      3  H1  UNL     1       3.514   0.487   1.390  1.00  0.00     0.188 HD
HETATM    4  N2  UNL     1       2.978   0.440  -0.518  1.00  0.00    -0.278 N 
ATOM      5  H2  UNL     1       2.052   0.829  -0.342  1.00  0.00     0.189 HD
HETATM    6  C5  UNL     1       3.357   0.122  -1.759  1.00  0.00     0.168 A 
HETATM    7  N3  UNL     1       2.681   0.237  -2.881  1.00  0.00    -0.306 N 
ATOM      8  H3  UNL     1       3.087  -0.044  -3.773  1.00  0.00     0.171 HD
HETATM    9  C6  UNL     1       1.366   0.766  -2.807  1.00  0.00     0.223 C 
HETATM   10  O1  UNL     1       1.218   2.002  -3.034  1.00  0.00    -0.273 OA
HETATM   11  S2  UNL     1       4.942  -0.467  -1.498  1.00  0.00    -0.026 SA
ENDROOT
BRANCH   9  12
HETATM   12  C7  UNL     1       0.218  -0.128  -2.472  1.00  0.00     0.103 C 
BRANCH  12  13
HETATM   13  C8  UNL     1      -1.026   0.731  -2.468  1.00  0.00     0.014 C 
BRANCH  13  14
HETATM   14  C9  UNL     1      -2.227  -0.106  -2.136  1.00  0.00    -0.011 C 
HETATM   15  C10 UNL     1      -3.470   0.776  -2.139  1.00  0.00     0.035 C 
HETATM   16  C11 UNL     1      -4.636  -0.182  -1.867  1.00  0.00     0.272 C 
HETATM   17  N4  UNL     1      -4.404  -0.925  -0.659  1.00  0.00     0.088 N 
HETATM   18  C16 UNL     1      -3.235  -0.505   0.066  1.00  0.00     0.272 C 
HETATM   19  C17 UNL     1      -2.021  -0.733  -0.784  1.00  0.00     0.035 C 
BRANCH  17  20
HETATM   20  C12 UNL     1      -5.541  -0.794   0.230  1.00  0.00     0.277 C 
BRANCH  20  21
HETATM   21  C13 UNL     1      -5.280  -1.586   1.504  1.00  0.00     0.014 A 
HETATM   22  C14 UNL     1      -6.369  -1.561   2.551  1.00  0.00     0.007 A 
HETATM   23  C15 UNL     1      -5.090  -0.851   2.786  1.00  0.00     0.007 A 
ENDBRANCH  20  21
ENDBRANCH  17  20
ENDBRANCH  13  14
ENDBRANCH  12  13
ENDBRANCH   9  12
BRANCH   1  24
HETATM   24  S1  UNL     1       6.315  -0.616   1.375  1.00  0.00    -0.099 SA
BRANCH  24  25
HETATM   25  C2  UNL     1       7.319   0.881   1.506  1.00  0.00     0.046 C 
HETATM   26  C1  UNL     1       8.468   0.720   2.455  1.00  0.00     0.021 C 
HETATM   27  C3  UNL     1       7.769   1.269   0.115  1.00  0.00     0.021 C 
ENDBRANCH  24  25
ENDBRANCH   1  24
TORSDOF 7
