REMARK  6 active torsions:
REMARK  status: ('A' for Active; 'I' for Inactive)
REMARK    1  A    between atoms: C10_10  and  C12_12 
REMARK    2  A    between atoms: C12_12  and  O2_14 
REMARK    3  A    between atoms: O2_14  and  C13_15 
REMARK    4  A    between atoms: C15_17  and  O3_18 
REMARK    5  A    between atoms: C17_21  and  C19_23 
REMARK    6  A    between atoms: C20_24  and  C21_25 
ROOT
HETATM    1  C1  UNL     1      -2.101   2.175   1.778  1.00  0.00     0.015 C 
HETATM    2  C2  UNL     1      -1.701   0.974   1.415  1.00  0.00    -0.077 C 
HETATM    3  C3  UNL     1      -0.314   0.725   1.963  1.00  0.00     0.035 C 
HETATM    4  C4  UNL     1       0.753   1.388   1.198  1.00  0.00     0.019 C 
HETATM    5  C5  UNL     1       1.210   0.838  -0.083  1.00  0.00    -0.001 C 
HETATM    6  C6  UNL     1       2.034   1.967  -0.772  1.00  0.00     0.021 C 
HETATM    7  C7  UNL     1       0.111   0.539  -1.037  1.00  0.00    -0.046 C 
HETATM    8  C8  UNL     1       0.561  -0.439  -1.860  1.00  0.00    -0.019 C 
HETATM    9  C9  UNL     1       1.957  -0.827  -1.500  1.00  0.00     0.048 C 
HETATM   10  C10 UNL     1       2.098  -0.353  -0.060  1.00  0.00     0.059 C 
HETATM   11  C11 UNL     1       1.632  -1.512   0.795  1.00  0.00     0.027 C 
HETATM   12  C15 UNL     1      -1.228   1.005  -1.342  1.00  0.00     0.149 C 
HETATM   13  C16 UNL     1      -2.382   0.200  -0.856  1.00  0.00     0.054 C 
HETATM   14  C17 UNL     1      -2.643   0.145   0.597  1.00  0.00    -0.001 C 
HETATM   15  C18 UNL     1      -2.456  -1.344   0.995  1.00  0.00     0.024 C 
ENDROOT
BRANCH  10  16
HETATM   16  C12 UNL     1       3.493  -0.119   0.357  1.00  0.00     0.268 C 
HETATM   17  O1  UNL     1       3.803   1.008   0.809  1.00  0.00    -0.264 OA
BRANCH  16  18
HETATM   18  O2  UNL     1       4.475  -1.100   0.271  1.00  0.00    -0.321 OA
BRANCH  18  19
HETATM   19  C13 UNL     1       5.777  -0.759   0.704  1.00  0.00     0.174 C 
HETATM   20  C14 UNL     1       6.737  -1.890   0.562  1.00  0.00     0.034 C 
ENDBRANCH  18  19
ENDBRANCH  16  18
ENDBRANCH  10  16
BRANCH  12  21
HETATM   21  O3  UNL     1      -1.487   2.345  -1.109  1.00  0.00    -0.391 OA
ATOM     22  H3  UNL     1      -2.364   2.650  -1.309  1.00  0.00     0.210 HD
ENDBRANCH  12  21
BRANCH  14  23
HETATM   23  C19 UNL     1      -4.036   0.446   1.018  1.00  0.00    -0.013 C 
HETATM   24  C20 UNL     1      -5.143  -0.010   0.519  1.00  0.00    -0.002 C 
BRANCH  24  25
HETATM   25  C21 UNL     1      -5.352  -0.928  -0.569  1.00  0.00     0.012 C 
HETATM   26  C22 UNL     1      -6.557  -1.296  -0.966  1.00  0.00     0.084 C 
HETATM   27 CL1  UNL     1      -6.837  -2.401  -2.276  1.00  0.00    -0.097 Cl
ENDBRANCH  24  25
ENDBRANCH  14  23
TORSDOF 6
