REMARK  4 active torsions:
REMARK  status: ('A' for Active; 'I' for Inactive)
REMARK    1  A    between atoms: N1_6  and  C6_7 
REMARK    2  A    between atoms: C6_7  and  C7_8 
REMARK    3  A    between atoms: C9_10  and  C10_11 
REMARK    4  A    between atoms: N2_14  and  C13_15 
ROOT
HETATM    1  C7  UNL     1      -2.476  -0.216  -0.302  1.00  0.00     0.038 A 
HETATM    2  C8  UNL     1      -1.195   0.344  -0.531  1.00  0.00     0.036 A 
HETATM    3  C9  UNL     1      -0.647   0.409  -1.790  1.00  0.00    -0.029 A 
HETATM    4  C21 UNL     1      -1.342  -0.084  -2.876  1.00  0.00     0.056 A 
HETATM    5 CL1  UNL     1      -0.678  -0.048  -4.521  1.00  0.00    -0.082 Cl
HETATM    6  C22 UNL     1      -2.586  -0.629  -2.633  1.00  0.00     0.112 A 
HETATM    7  N3  UNL     1      -3.101  -0.677  -1.398  1.00  0.00    -0.366 N 
ATOM      8  H3  UNL     1      -4.027  -1.090  -1.282  1.00  0.00     0.165 HD
ENDROOT
BRANCH   3   9
HETATM    9  C10 UNL     1       0.575   1.181  -2.118  1.00  0.00     0.027 C 
HETATM   10  C11 UNL     1       1.748   0.436  -2.634  1.00  0.00     0.030 C 
HETATM   11  C12 UNL     1       2.009  -0.769  -1.790  1.00  0.00     0.128 C 
HETATM   12  N2  UNL     1       2.628  -0.260  -0.571  1.00  0.00    -0.367 N 
HETATM   13  C19 UNL     1       2.006   0.813   0.012  1.00  0.00     0.064 C 
HETATM   14  C20 UNL     1       1.125   1.729  -0.770  1.00  0.00     0.054 C 
BRANCH  12  15
HETATM   15  C13 UNL     1       3.943  -0.679  -0.389  1.00  0.00    -0.012 C 
HETATM   16  C14 UNL     1       4.313  -1.260   0.956  1.00  0.00     0.052 C 
HETATM   17  C15 UNL     1       5.816  -1.138   1.114  1.00  0.00     0.006 C 
HETATM   18  C16 UNL     1       6.246   0.307   1.133  1.00  0.00     0.001 C 
HETATM   19  C17 UNL     1       5.701   1.085  -0.050  1.00  0.00     0.006 C 
HETATM   20  C18 UNL     1       5.051   0.119  -1.003  1.00  0.00     0.052 C 
ENDBRANCH  12  15
ENDBRANCH   3   9
BRANCH   1  21
HETATM   21  C6  UNL     1      -3.049  -0.204   1.068  1.00  0.00     0.329 C 
BRANCH  21  22
HETATM   22  N1  UNL     1      -4.433  -0.505   1.123  1.00  0.00     0.098 N 
HETATM   23  C2  UNL     1      -5.007  -0.232   2.409  1.00  0.00     0.219 C 
HETATM   24  C1  UNL     1      -5.464  -1.456   3.155  1.00  0.00     0.043 C 
HETATM   25  C3  UNL     1      -6.216   0.660   2.151  1.00  0.00     0.037 C 
HETATM   26  C4  UNL     1      -6.642   0.262   0.767  1.00  0.00     0.032 C 
HETATM   27  C5  UNL     1      -5.283  -0.041   0.102  1.00  0.00     0.273 C 
ENDBRANCH  21  22
ENDBRANCH   1  21
TORSDOF 4
