REMARK  5 active torsions:
REMARK  status: ('A' for Active; 'I' for Inactive)
REMARK    1  A    between atoms: C2_2  and  C4_4 
REMARK    2  A    between atoms: C5_5  and  C6_6 
REMARK    3  A    between atoms: C6_6  and  C7_7 
REMARK    4  A    between atoms: C12_15  and  C13_16 
REMARK    5  A    between atoms: C13_16  and  O3_17 
ROOT
HETATM    1  C7  UNL     1       1.215  -0.818   0.109  1.00  0.00     0.073 C 
HETATM    2  C8  UNL     1       1.678   0.164  -0.875  1.00  0.00     0.151 C 
HETATM    3  O1  UNL     1       2.483   0.162  -1.785  1.00  0.00    -0.296 OA
HETATM    4  C9  UNL     1       0.902   1.408  -0.557  1.00  0.00     0.160 C 
HETATM    5 CL1  UNL     1       1.603   2.417   0.663  1.00  0.00    -0.116 Cl
HETATM    6  C10 UNL     1      -0.424   0.754  -0.248  1.00  0.00     0.057 C 
HETATM    7  C11 UNL     1      -1.450   1.731   0.036  1.00  0.00     0.166 A 
HETATM    8  O2  UNL     1      -2.657   1.474   0.668  1.00  0.00    -0.366 OA
HETATM    9  C12 UNL     1      -2.692   1.858  -0.645  1.00  0.00     0.109 A 
HETATM   10  C14 UNL     1      -3.318   0.932  -1.587  1.00  0.00     0.043 C 
HETATM   11  C15 UNL     1      -4.324  -0.066  -1.162  1.00  0.00     0.003 C 
HETATM   12  C16 UNL     1      -3.936  -1.574  -1.447  1.00  0.00     0.000 C 
HETATM   13  C17 UNL     1      -2.749  -1.659  -0.654  1.00  0.00     0.004 C 
HETATM   14  C18 UNL     1      -1.534  -2.347  -0.395  1.00  0.00     0.034 C 
HETATM   15  C19 UNL     1      -0.977  -1.485   0.807  1.00  0.00    -0.080 C 
HETATM   16  C20 UNL     1      -1.553  -1.868   1.838  1.00  0.00     0.015 C 
HETATM   17  C21 UNL     1      -0.074  -0.375   0.716  1.00  0.00    -0.003 C 
HETATM   18  C22 UNL     1       0.171   0.186   2.084  1.00  0.00     0.021 C 
ENDROOT
BRANCH   1  19
HETATM   19  C6  UNL     1       2.357  -1.222   0.975  1.00  0.00     0.040 C 
BRANCH  19  20
HETATM   20  C5  UNL     1       3.388  -1.869   0.090  1.00  0.00    -0.025 C 
HETATM   21  C4  UNL     1       4.627  -1.358  -0.024  1.00  0.00     0.002 C 
BRANCH  21  22
HETATM   22  C2  UNL     1       5.000  -0.218   0.660  1.00  0.00    -0.072 C 
HETATM   23  C1  UNL     1       5.340   0.819   1.282  1.00  0.00     0.018 C 
HETATM   24  C3  UNL     1       6.675  -0.251  -0.111  1.00  0.00     0.047 C 
ENDBRANCH  21  22
ENDBRANCH  19  20
ENDBRANCH   1  19
BRANCH   9  25
HETATM   25  C13 UNL     1      -3.300   3.298  -0.683  1.00  0.00     0.204 C 
BRANCH  25  26
HETATM   26  O3  UNL     1      -4.585   3.201  -0.095  1.00  0.00    -0.398 OA
ATOM     27  H3  UNL     1      -4.954   4.076  -0.118  1.00  0.00     0.209 HD
ENDBRANCH  25  26
ENDBRANCH   9  25
TORSDOF 5
