REMARK  6 active torsions:
REMARK  status: ('A' for Active; 'I' for Inactive)
REMARK    1  A    between atoms: N3_13  and  C9_14 
REMARK    2  A    between atoms: C9_14  and  C10_15 
REMARK    3  A    between atoms: C10_15  and  C11_16 
REMARK    4  A    between atoms: C11_16  and  N4_17 
REMARK    5  A    between atoms: N4_17  and  C12_20 
REMARK    6  A    between atoms: C12_20  and  C13_21 
ROOT
HETATM    1  C1  UNL     1       4.900  -2.290   0.383  1.00  0.00     0.052 C 
HETATM    2  C2  UNL     1       4.312  -0.991  -0.056  1.00  0.00    -0.016 A 
HETATM    3  C3  UNL     1       3.238  -0.526   0.671  1.00  0.00     0.055 A 
HETATM    4  C4  UNL     1       2.669   0.695   0.300  1.00  0.00     0.053 A 
HETATM    5  C5  UNL     1       3.203   1.377  -0.771  1.00  0.00     0.046 A 
HETATM    6  C6  UNL     1       4.288   0.897  -1.497  1.00  0.00     0.012 A 
HETATM    7  C7  UNL     1       5.011   1.354  -2.585  1.00  0.00     0.120 A 
HETATM    8  N1  UNL     1       5.968   0.458  -2.857  1.00  0.00    -0.311 N 
ATOM      9  H1  UNL     1       6.656   0.527  -3.607  1.00  0.00     0.186 HD
HETATM   10  N2  UNL     1       5.866  -0.536  -1.982  1.00  0.00    -0.300 N 
ATOM     11  H2  UNL     1       6.473  -1.355  -1.960  1.00  0.00     0.187 HD
HETATM   12  C8  UNL     1       4.851  -0.312  -1.130  1.00  0.00     0.066 A 
HETATM   13  N3  UNL     1       1.591   0.986   1.172  1.00  0.00    -0.310 N 
HETATM   14  C17 UNL     1       1.485  -0.086   2.120  1.00  0.00     0.299 A 
HETATM   15  O1  UNL     1       0.672  -0.241   3.071  1.00  0.00    -0.263 OA
HETATM   16  C18 UNL     1       2.522  -1.071   1.828  1.00  0.00     0.252 A 
HETATM   17  O2  UNL     1       2.762  -2.163   2.432  1.00  0.00    -0.281 OA
ENDROOT
BRANCH  13  18
HETATM   18  C9  UNL     1       0.737   2.117   1.158  1.00  0.00     0.134 C 
BRANCH  18  19
HETATM   19  C10 UNL     1      -0.504   1.993   0.313  1.00  0.00     0.048 C 
BRANCH  19  20
HETATM   20  C11 UNL     1      -1.331   0.824   0.762  1.00  0.00     0.234 C 
BRANCH  20  21
HETATM   21  N4  UNL     1      -2.552   0.685   0.004  1.00  0.00    -0.074 N 
ATOM     22  H42 UNL     1      -3.167   1.496   0.071  1.00  0.00     0.277 HD
ATOM     23  H41 UNL     1      -2.411   0.720  -1.006  1.00  0.00     0.277 HD
BRANCH  21  24
HETATM   24  C12 UNL     1      -3.175  -0.564   0.466  1.00  0.00     0.240 C 
BRANCH  24  25
HETATM   25  C13 UNL     1      -4.566  -0.711  -0.132  1.00  0.00    -0.028 C 
HETATM   26  C14 UNL     1      -5.135  -2.027   0.367  1.00  0.00     0.016 C 
HETATM   27  C15 UNL     1      -4.513  -0.677  -1.629  1.00  0.00     0.016 C 
HETATM   28  C16 UNL     1      -5.444   0.438   0.399  1.00  0.00     0.016 C 
ENDBRANCH  24  25
ENDBRANCH  21  24
ENDBRANCH  20  21
ENDBRANCH  19  20
ENDBRANCH  18  19
ENDBRANCH  13  18
TORSDOF 6
