REMARK  6 active torsions:
REMARK  status: ('A' for Active; 'I' for Inactive)
REMARK    1  A    between atoms: C5_5  and  C6_6 
REMARK    2  A    between atoms: C11_15  and  N3_16 
REMARK    3  A    between atoms: N3_16  and  C12_18 
REMARK    4  A    between atoms: C12_18  and  C13_19 
REMARK    5  A    between atoms: C13_19  and  C14_20 
REMARK    6  A    between atoms: C14_20  and  N4_21 
ROOT
HETATM    1  C6  UNL     1       2.357   0.492  -0.090  1.00  0.00     0.119 A 
HETATM    2  N1  UNL     1       2.397   1.816  -0.024  1.00  0.00    -0.326 N 
ATOM      3  H1  UNL     1       3.201   2.346   0.312  1.00  0.00     0.169 HD
HETATM    4  C7  UNL     1       1.236   2.384  -0.458  1.00  0.00     0.136 A 
HETATM    5  N2  UNL     1       0.862   3.677  -0.556  1.00  0.00    -0.344 N 
ATOM      6  H2  UNL     1       1.499   4.423  -0.279  1.00  0.00     0.167 HD
HETATM    7  C8  UNL     1      -0.348   3.961  -1.019  1.00  0.00     0.009 A 
HETATM    8  C9  UNL     1      -0.827   5.389  -1.154  1.00  0.00     0.068 C 
HETATM    9  C10 UNL     1      -1.233   3.009  -1.402  1.00  0.00     0.056 A 
HETATM   10  C11 UNL     1      -0.840   1.638  -1.299  1.00  0.00     0.060 A 
HETATM   11  C17 UNL     1       0.423   1.330  -0.816  1.00  0.00     0.105 A 
HETATM   12  N5  UNL     1       1.115   0.204  -0.587  1.00  0.00    -0.337 N 
ATOM     13  H5  UNL     1       0.764  -0.738  -0.760  1.00  0.00     0.167 HD
ENDROOT
BRANCH   1  14
HETATM   14  C5  UNL     1       3.372  -0.496   0.269  1.00  0.00     0.023 A 
HETATM   15  C4  UNL     1       4.597  -0.102   0.763  1.00  0.00     0.018 A 
HETATM   16  C3  UNL     1       5.536  -1.069   1.092  1.00  0.00     0.025 A 
HETATM   17  C2  UNL     1       5.301  -2.421   0.947  1.00  0.00     0.005 A 
HETATM   18  C1  UNL     1       6.318  -3.459   1.304  1.00  0.00     0.068 C 
HETATM   19  N6  UNL     1       4.097  -2.778   0.463  1.00  0.00    -0.369 N 
HETATM   20  C18 UNL     1       3.167  -1.851   0.136  1.00  0.00     0.103 A 
ATOM     21  H6  UNL     1       3.881  -3.767   0.340  1.00  0.00     0.165 HD
ENDBRANCH   1  14
BRANCH  10  22
HETATM   22  N3  UNL     1      -1.644   0.769  -1.648  1.00  0.00    -0.388 N 
ATOM     23  H3  UNL     1      -2.509   1.202  -1.972  1.00  0.00     0.159 HD
BRANCH  22  24
HETATM   24  C12 UNL     1      -1.740  -0.592  -1.737  1.00  0.00     0.121 C 
BRANCH  24  25
HETATM   25  C13 UNL     1      -2.196  -1.286  -0.442  1.00  0.00     0.050 C 
BRANCH  25  26
HETATM   26  C14 UNL     1      -3.552  -0.728  -0.123  1.00  0.00     0.273 C 
BRANCH  26  27
HETATM   27  N4  UNL     1      -4.115  -1.295   1.084  1.00  0.00     0.080 N 
HETATM   28  C15 UNL     1      -4.446  -2.692   0.916  1.00  0.00     0.309 C 
HETATM   29  C16 UNL     1      -5.218  -0.511   1.588  1.00  0.00     0.309 C 
ENDBRANCH  26  27
ENDBRANCH  25  26
ENDBRANCH  24  25
ENDBRANCH  22  24
ENDBRANCH  10  22
TORSDOF 6
