REMARK  14 active torsions:
REMARK  status: ('A' for Active; 'I' for Inactive)
REMARK    1  A    between atoms: N1_2  and  N2_4 
REMARK    2  A    between atoms: C2_5  and  C3_6 
REMARK    3  A    between atoms: C5_20  and  C6_21 
REMARK    4  A    between atoms: C6_21  and  O2_22 
REMARK    5  A    between atoms: C6_21  and  C7_24 
REMARK    6  A    between atoms: C7_24  and  N8_25 
REMARK    7  A    between atoms: N11_30  and  C8_31 
REMARK    8  A    between atoms: C8_31  and  C9_32 
REMARK    9  A    between atoms: C9_32  and  O3_33 
REMARK   10  A    between atoms: C9_32  and  C10_35 
REMARK   11  A    between atoms: C12_37  and  O4_38 
REMARK   12  A    between atoms: C13_40  and  O5_41 
REMARK   13  A    between atoms: C14_43  and  O6_44 
REMARK   14  A    between atoms: C16_47  and  N12_48 
REMARK       I    between atoms: N12_48  and  C17_50 
REMARK       I    between atoms: C17_50  and  N13_51 
REMARK       I    between atoms: C17_50  and  N14_55 
ROOT
HETATM    1  N8  UNL     1      -0.399   0.366   0.928  1.00  0.00    -0.104 N 
HETATM    2  N9  UNL     1      -0.047   1.290   1.788  1.00  0.00    -0.211 N 
ATOM      3  H9  UNL     1      -0.666   1.741   2.462  1.00  0.00     0.210 HD
HETATM    4  N10 UNL     1       1.238   1.541   1.639  1.00  0.00    -0.211 N 
ATOM      5  H10 UNL     1       1.790   2.214   2.171  1.00  0.00     0.210 HD
HETATM    6  N11 UNL     1       1.688   0.737   0.647  1.00  0.00    -0.104 N 
HETATM    7  C16 UNL     1       0.692  -0.016   0.174  1.00  0.00     0.717 A 
ENDROOT
BRANCH   1   8
HETATM    8  C7  UNL     1      -1.723  -0.193   0.767  1.00  0.00     0.209 C 
BRANCH   8   9
HETATM    9  C6  UNL     1      -2.442   0.653  -0.250  1.00  0.00     0.209 C 
BRANCH   9  10
HETATM   10  C5  UNL     1      -3.814   0.234  -0.545  1.00  0.00     0.150 A 
HETATM   11  N2  UNL     1      -4.989   0.376   0.169  1.00  0.00    -0.223 N 
HETATM   12  C2  UNL     1      -5.965  -0.169  -0.547  1.00  0.00     0.189 A 
HETATM   13  N6  UNL     1      -5.375  -0.648  -1.716  1.00  0.00    -0.279 N 
HETATM   14  N7  UNL     1      -4.124  -0.399  -1.685  1.00  0.00    -0.283 N 
ATOM     15  H6  UNL     1      -5.865  -1.122  -2.475  1.00  0.00     0.189 HD
ATOM     16  H7  UNL     1      -3.459  -0.645  -2.418  1.00  0.00     0.188 HD
BRANCH  11  17
HETATM   17  N1  UNL     1      -4.999   1.019   1.383  1.00  0.00    -0.331 N 
HETATM   18  C1  UNL     1      -6.009   1.421   2.288  1.00  0.00     0.168 C 
ATOM     19  H1  UNL     1      -4.063   1.263   1.706  1.00  0.00     0.180 HD
ENDBRANCH  11  17
BRANCH  12  20
HETATM   20  C3  UNL     1      -7.379  -0.311  -0.273  1.00  0.00     0.177 A 
HETATM   21  N3  UNL     1      -8.222  -0.000   0.696  1.00  0.00    -0.302 N 
HETATM   22  C4  UNL     1      -9.482  -0.382   0.454  1.00  0.00     0.242 A 
ATOM     23  H3  UNL     1      -7.939   0.485   1.548  1.00  0.00     0.171 HD
HETATM   24  N4  UNL     1     -10.533  -0.231   1.188  1.00  0.00    -0.364 N 
HETATM   25  O1  UNL     1      -9.430  -0.960  -0.721  1.00  0.00    -0.199 OA
ATOM     26  H42 UNL     1     -10.573   0.219   2.103  1.00  0.00     0.159 HD
ATOM     27  H41 UNL     1     -11.493  -0.522   1.004  1.00  0.00     0.159 HD
HETATM   28  N5  UNL     1      -8.210  -0.937  -1.179  1.00  0.00    -0.238 N 
ATOM     29  H5  UNL     1      -7.913  -1.324  -2.075  1.00  0.00     0.197 HD
ENDBRANCH  12  20
ENDBRANCH   9  10
BRANCH   9  30
HETATM   30  O2  UNL     1      -2.447   1.981   0.162  1.00  0.00    -0.386 OA
ATOM     31  H2  UNL     1      -1.557   2.253   0.353  1.00  0.00     0.210 HD
ENDBRANCH   9  30
ENDBRANCH   8   9
ENDBRANCH   1   8
BRANCH   7  32
HETATM   32  N12 UNL     1       0.630  -0.842  -0.696  1.00  0.00    -0.171 N 
HETATM   33  C17 UNL     1       1.136  -1.616  -1.690  1.00  0.00     0.494 C 
HETATM   34  N13 UNL     1       2.164  -2.544  -1.209  1.00  0.00    -0.032 N 
HETATM   35  N14 UNL     1       1.687  -0.918  -2.849  1.00  0.00    -0.032 N 
ATOM     36 3H13 UNL     1       2.906  -2.047  -0.716  1.00  0.00     0.278 HD
ATOM     37 2H13 UNL     1       1.812  -3.116  -0.441  1.00  0.00     0.278 HD
ATOM     38 1H13 UNL     1       2.544  -3.126  -1.956  1.00  0.00     0.278 HD
ATOM     39 3H14 UNL     1       0.985  -0.284  -3.232  1.00  0.00     0.278 HD
ATOM     40 2H14 UNL     1       2.394  -0.250  -2.542  1.00  0.00     0.278 HD
ATOM     41 1H14 UNL     1       2.067  -1.500  -3.596  1.00  0.00     0.278 HD
ATOM     42  H12 UNL     1      -0.353  -1.114  -0.678  1.00  0.00     0.181 HD
ENDBRANCH   7  32
BRANCH   6  43
HETATM   43  C8  UNL     1       3.068   0.760   0.269  1.00  0.00     0.206 C 
BRANCH  43  44
HETATM   44  C9  UNL     1       3.944  -0.153   1.126  1.00  0.00     0.171 C 
BRANCH  44  45
HETATM   45  O3  UNL     1       3.870   0.253   2.479  1.00  0.00    -0.389 OA
ATOM     46  H3  UNL     1       4.415  -0.315   3.012  1.00  0.00     0.210 HD
ENDBRANCH  44  45
BRANCH  44  47
HETATM   47  C10 UNL     1       5.333  -0.058   0.641  1.00  0.00    -0.022 A 
HETATM   48  C11 UNL     1       6.073   1.075   0.940  1.00  0.00     0.049 A 
HETATM   49  C12 UNL     1       7.370   1.165   0.488  1.00  0.00     0.102 A 
HETATM   50  C13 UNL     1       7.981   0.175  -0.258  1.00  0.00     0.132 A 
HETATM   51  C14 UNL     1       7.232  -0.940  -0.544  1.00  0.00     0.102 A 
HETATM   52  C15 UNL     1       5.928  -1.065  -0.107  1.00  0.00     0.049 A 
BRANCH  49  53
HETATM   53  O4  UNL     1       8.128   2.309   0.786  1.00  0.00    -0.358 OA
ATOM     54  H4  UNL     1       9.023   2.371   0.474  1.00  0.00     0.217 HD
ENDBRANCH  49  53
BRANCH  50  55
HETATM   55  O5  UNL     1       9.303   0.317  -0.693  1.00  0.00    -0.356 OA
ATOM     56  H5  UNL     1       9.723  -0.364  -1.206  1.00  0.00     0.218 HD
ENDBRANCH  50  55
BRANCH  51  57
HETATM   57  O6  UNL     1       7.835  -1.953  -1.299  1.00  0.00    -0.358 OA
ATOM     58  H6  UNL     1       7.317  -2.724  -1.497  1.00  0.00     0.217 HD
ENDBRANCH  51  57
ENDBRANCH  44  47
ENDBRANCH  43  44
ENDBRANCH   6  43
TORSDOF 14
