REMARK  16 active torsions:
REMARK  status: ('A' for Active; 'I' for Inactive)
REMARK    1  A    between atoms: N1_1  and  C1_4 
REMARK    2  A    between atoms: C4_11  and  O1_12 
REMARK    3  A    between atoms: O1_12  and  C5_13 
REMARK    4  A    between atoms: C5_13  and  C6_14 
REMARK    5  A    between atoms: C6_14  and  C9_23 
REMARK    6  A    between atoms: C9_23  and  O2_24 
REMARK    7  A    between atoms: C9_23  and  O3_26 
REMARK    8  A    between atoms: C9_23  and  C10_28 
REMARK    9  A    between atoms: C10_28  and  N7_29 
REMARK   10  A    between atoms: C12_31  and  C13_32 
REMARK   11  A    between atoms: C13_32  and  O4_33 
REMARK   12  A    between atoms: C13_32  and  O5_35 
REMARK   13  A    between atoms: C13_32  and  C14_37 
REMARK   14  A    between atoms: C14_37  and  O6_38 
REMARK   15  A    between atoms: C15_44  and  N10_45 
REMARK   16  A    between atoms: N12_52  and  O8_53 
ROOT
HETATM    1  C6  UNL     1      -0.142  -1.209   0.048  1.00  0.00     0.073 C 
HETATM    2  C7  UNL     1       0.106  -2.547   0.419  1.00  0.00     0.134 A 
HETATM    3  N4  UNL     1      -0.547  -3.683  -0.025  1.00  0.00    -0.336 N 
ATOM      4  H4  UNL     1      -1.288  -3.678  -0.726  1.00  0.00     0.168 HD
HETATM    5  C8  UNL     1      -0.095  -4.780   0.569  1.00  0.00     0.199 A 
HETATM    6  N5  UNL     1       0.861  -4.357   1.408  1.00  0.00    -0.295 N 
ATOM      7  H5  UNL     1       1.412  -4.956   2.023  1.00  0.00     0.187 HD
HETATM    8  N6  UNL     1       0.979  -3.047   1.315  1.00  0.00    -0.284 N 
ATOM      9  H6  UNL     1       1.643  -2.487   1.850  1.00  0.00     0.188 HD
ENDROOT
BRANCH   1  10
HETATM   10  C5  UNL     1       0.753  -0.412  -0.819  1.00  0.00     0.161 C 
BRANCH  10  11
HETATM   11  O1  UNL     1       1.943  -0.012  -0.573  1.00  0.00    -0.302 OA
BRANCH  11  12
HETATM   12  C4  UNL     1       3.159   0.386  -0.328  1.00  0.00     0.192 A 
HETATM   13  C1  UNL     1       3.335   1.548   0.481  1.00  0.00     0.153 A 
HETATM   14  N2  UNL     1       4.550   2.011   0.735  1.00  0.00    -0.322 N 
HETATM   15  C2  UNL     1       5.631   1.398   0.235  1.00  0.00     0.170 A 
ATOM     16  H2  UNL     1       4.663   2.841   1.316  1.00  0.00     0.169 HD
HETATM   17  C3  UNL     1       5.489   0.256  -0.567  1.00  0.00     0.125 A 
HETATM   18  N12 UNL     1       6.840   1.935   0.503  1.00  0.00    -0.153 N 
HETATM   19  N3  UNL     1       4.266  -0.193  -0.801  1.00  0.00    -0.327 N 
HETATM   20  C15 UNL     1       6.667  -0.303  -1.082  1.00  0.00     0.134 A 
ATOM     21  H3  UNL     1       4.163  -1.029  -1.376  1.00  0.00     0.168 HD
HETATM   22  N11 UNL     1       7.832   0.264  -0.797  1.00  0.00    -0.291 N 
HETATM   23  C16 UNL     1       7.923   1.371  -0.017  1.00  0.00     0.354 A 
ATOM     24  H11 UNL     1       8.686  -0.145  -1.176  1.00  0.00     0.172 HD
HETATM   25  O7  UNL     1       9.058   1.881   0.220  1.00  0.00    -0.244 OA
BRANCH  13  26
HETATM   26  N1  UNL     1       2.234   2.115   0.945  1.00  0.00    -0.382 N 
ATOM     27  H12 UNL     1       2.360   2.946   1.523  1.00  0.00     0.157 HD
ATOM     28  H11 UNL     1       1.299   1.759   0.749  1.00  0.00     0.157 HD
ENDBRANCH  13  26
BRANCH  20  29
HETATM   29  N10 UNL     1       6.486  -1.366  -1.848  1.00  0.00    -0.383 N 
ATOM     30 2H10 UNL     1       5.590  -1.802  -2.067  1.00  0.00     0.157 HD
ATOM     31 1H10 UNL     1       7.343  -1.773  -2.223  1.00  0.00     0.157 HD
ENDBRANCH  20  29
BRANCH  18  32
HETATM   32  O8  UNL     1       6.921   3.056   1.329  1.00  0.00    -0.277 OA
ATOM     33  H8  UNL     1       7.772   3.434   1.518  1.00  0.00     0.245 HD
ENDBRANCH  18  32
ENDBRANCH  11  12
ENDBRANCH  10  11
ENDBRANCH   1  10
BRANCH   1  34
HETATM   34  C9  UNL     1      -1.520  -0.651   0.030  1.00  0.00     0.212 C 
BRANCH  34  35
HETATM   35  O2  UNL     1      -2.013  -0.637  -1.312  1.00  0.00    -0.360 OA
ATOM     36  H2  UNL     1      -2.893  -0.280  -1.324  1.00  0.00     0.213 HD
ENDBRANCH  34  35
BRANCH  34  37
HETATM   37  O3  UNL     1      -1.583   0.652   0.524  1.00  0.00    -0.360 OA
ATOM     38  H3  UNL     1      -2.463   1.009   0.512  1.00  0.00     0.213 HD
ENDBRANCH  34  37
BRANCH  34  39
HETATM   39  C10 UNL     1      -2.549  -1.450   0.782  1.00  0.00     0.223 C 
BRANCH  39  40
HETATM   40  N7  UNL     1      -3.769  -0.605   0.825  1.00  0.00    -0.281 N 
HETATM   41  C11 UNL     1      -4.781  -0.470   0.016  1.00  0.00     0.144 A 
HETATM   42  C12 UNL     1      -5.630   0.515   0.520  1.00  0.00     0.108 A 
HETATM   43  N8  UNL     1      -5.029   0.934   1.671  1.00  0.00    -0.283 N 
HETATM   44  N9  UNL     1      -3.936   0.271   1.843  1.00  0.00    -0.240 N 
ATOM     45  H8  UNL     1      -5.387   1.656   2.296  1.00  0.00     0.188 HD
ATOM     46  H9  UNL     1      -3.295   0.389   2.627  1.00  0.00     0.208 HD
BRANCH  42  47
HETATM   47  C13 UNL     1      -6.884   1.057  -0.034  1.00  0.00     0.229 C 
BRANCH  47  48
HETATM   48  O4  UNL     1      -7.957   0.929   0.855  1.00  0.00    -0.359 OA
ATOM     49  H4  UNL     1      -8.765   1.278   0.498  1.00  0.00     0.213 HD
ENDBRANCH  47  48
BRANCH  47  50
HETATM   50  O5  UNL     1      -7.176   0.548  -1.277  1.00  0.00    -0.359 OA
ATOM     51  H5  UNL     1      -7.984   0.897  -1.634  1.00  0.00     0.213 HD
ENDBRANCH  47  50
BRANCH  47  52
HETATM   52  C14 UNL     1      -6.630   2.584  -0.165  1.00  0.00     0.239 C 
BRANCH  52  53
HETATM   53  O6  UNL     1      -6.332   3.052   1.115  1.00  0.00    -0.395 OA
ATOM     54  H6  UNL     1      -6.177   3.986   1.035  1.00  0.00     0.209 HD
ENDBRANCH  52  53
ENDBRANCH  47  52
ENDBRANCH  42  47
ENDBRANCH  39  40
ENDBRANCH  34  39
ENDBRANCH   1  34
TORSDOF 16
