REMARK  4 active torsions:
REMARK  status: ('A' for Active; 'I' for Inactive)
REMARK    1  A    between atoms: N2_4  and  O1_5 
REMARK    2  A    between atoms: N2_4  and  N3_7 
REMARK    3  A    between atoms: N4_9  and  N5_11 
REMARK       I    between atoms: N5_11  and  C1_13 
REMARK       I    between atoms: C1_13  and  N6_15 
REMARK    4  A    between atoms: N6_15  and  C2_17 
ROOT
HETATM    1  N5  UNL     1       2.687  -0.347  -0.629  1.00  0.00    -0.236 N 
ATOM      2  H5  UNL     1       2.637  -0.131  -1.625  1.00  0.00     0.193 HD
HETATM    3  C1  UNL     1       1.488  -0.363   0.121  1.00  0.00     0.336 C 
HETATM    4  O2  UNL     1       1.546  -0.630   1.345  1.00  0.00    -0.246 OA
HETATM    5  N6  UNL     1       0.267  -0.082  -0.525  1.00  0.00    -0.337 N 
ATOM      6  H6  UNL     1       0.283   0.127  -1.523  1.00  0.00     0.164 HD
ENDROOT
BRANCH   1   7
HETATM    7  N4  UNL     1       3.936  -0.614  -0.064  1.00  0.00    -0.221 N 
HETATM    8  N3  UNL     1       4.886   0.200  -0.272  1.00  0.00    -0.186 N 
ATOM      9  H3  UNL     1       4.707   1.025  -0.845  1.00  0.00     0.214 HD
ATOM     10  H4  UNL     1       4.081  -1.448   0.505  1.00  0.00     0.210 HD
BRANCH   8  11
HETATM   11  N2  UNL     1       6.160   0.014   0.249  1.00  0.00    -0.086 N 
HETATM   12  N1  UNL     1       7.144   0.562  -0.317  1.00  0.00    -0.302 N 
ATOM     13  H12 UNL     1       8.080   0.425   0.066  1.00  0.00     0.181 HD
ATOM     14  H11 UNL     1       6.984   1.132  -1.148  1.00  0.00     0.181 HD
BRANCH  11  15
HETATM   15  O1  UNL     1       6.376  -0.756   1.372  1.00  0.00    -0.253 OA
ATOM     16  H1  UNL     1       5.634  -1.169   1.799  1.00  0.00     0.248 HD
ENDBRANCH  11  15
ENDBRANCH   8  11
ENDBRANCH   1   7
BRANCH   5  17
HETATM   17  C2  UNL     1      -1.010  -0.076   0.160  1.00  0.00     0.086 C 
HETATM   18  C3  UNL     1      -1.902  -1.204  -0.343  1.00  0.00     0.025 C 
HETATM   19  C4  UNL     1      -3.110  -1.141   0.602  1.00  0.00     0.002 C 
HETATM   20  C5  UNL     1      -3.912   0.051   0.166  1.00  0.00     0.000 C 
HETATM   21  C6  UNL     1      -3.127   1.245  -0.196  1.00  0.00     0.002 C 
HETATM   22  C7  UNL     1      -1.680   1.239   0.067  1.00  0.00     0.025 C 
ENDBRANCH   5  17
TORSDOF 4
