REMARK  5 active torsions:
REMARK  status: ('A' for Active; 'I' for Inactive)
REMARK    1  A    between atoms: C2_2  and  C3_3 
REMARK    2  A    between atoms: C2_2  and  C4_6 
REMARK    3  A    between atoms: C2_2  and  C6_9 
REMARK    4  A    between atoms: C3_3  and  O1_4 
REMARK    5  A    between atoms: N2_15  and  O2_17 
ROOT
HETATM    1  C4  UNL     1      -1.553  -1.158  -1.128  1.00  0.00     0.136 C 
HETATM    2  C5  UNL     1      -1.341  -2.497  -0.694  1.00  0.00     0.060 C 
HETATM    3  N1  UNL     1      -1.181  -3.583  -0.361  1.00  0.00    -0.197 NA
ENDROOT
BRANCH   1   4
HETATM    4  C2  UNL     1      -1.350  -0.044  -0.218  1.00  0.00    -0.002 C 
HETATM    5  C1  UNL     1      -1.680   1.223  -1.043  1.00  0.00     0.019 C 
BRANCH   4   6
HETATM    6  C3  UNL     1      -2.410  -0.061   0.893  1.00  0.00     0.175 C 
BRANCH   6   7
HETATM    7  O1  UNL     1      -2.326   1.090   1.673  1.00  0.00    -0.400 OA
ATOM      8  H1  UNL     1      -2.982   1.079   2.360  1.00  0.00     0.209 HD
ENDBRANCH   6   7
ENDBRANCH   4   6
BRANCH   4   9
HETATM    9  C6  UNL     1      -0.058   0.236   0.410  1.00  0.00     0.044 C 
HETATM   10  C7  UNL     1       0.530  -0.819   1.311  1.00  0.00     0.011 C 
HETATM   11  C8  UNL     1       1.804  -1.328   0.660  1.00  0.00     0.001 C 
HETATM   12  C9  UNL     1       2.848  -0.236   0.704  1.00  0.00     0.006 C 
HETATM   13  C10 UNL     1       2.300   1.096   0.213  1.00  0.00     0.055 C 
HETATM   14  C11 UNL     1       1.017   0.750  -0.503  1.00  0.00     0.015 C 
HETATM   15  N2  UNL     1       0.942   0.901  -1.747  1.00  0.00    -0.277 N 
ATOM     16  H2  UNL     1       0.076   0.661  -2.229  1.00  0.00     0.193 HD
BRANCH  15  17
HETATM   17  O2  UNL     1       1.990   1.377  -2.460  1.00  0.00    -0.290 OA
ATOM     18  H2  UNL     1       1.933   1.491  -3.401  1.00  0.00     0.244 HD
ENDBRANCH  15  17
ENDBRANCH   4   9
ENDBRANCH   1   4
TORSDOF 5
