REMARK  4 active torsions:
REMARK  status: ('A' for Active; 'I' for Inactive)
REMARK    1  A    between atoms: C2_2  and  C3_3 
REMARK    2  A    between atoms: C3_3  and  C4_4 
REMARK    3  A    between atoms: C3_3  and  C5_9 
REMARK    4  A    between atoms: N1_5  and  O1_7 
ROOT
HETATM    1  C5  UNL     1      -0.272   0.279  -0.021  1.00  0.00     0.025 C 
HETATM    2  C6  UNL     1      -0.950   1.068  -1.103  1.00  0.00     0.034 C 
HETATM    3  C7  UNL     1      -2.399   0.957  -1.195  1.00  0.00    -0.024 C 
HETATM    4  C8  UNL     1      -3.151   0.253  -0.375  1.00  0.00     0.022 C 
HETATM    5  C9  UNL     1      -2.448  -0.450   0.686  1.00  0.00     0.020 C 
HETATM    6  N2  UNL     1      -3.024  -0.666   1.831  1.00  0.00    -0.401 N 
ATOM      7  H21 UNL     1      -2.531  -1.159   2.575  1.00  0.00     0.156 HD
ATOM      8  H22 UNL     1      -3.974  -0.363   2.047  1.00  0.00     0.156 HD
HETATM    9  C10 UNL     1      -1.065  -0.891   0.371  1.00  0.00     0.147 C 
HETATM   10  C11 UNL     1      -0.591  -1.593   1.565  1.00  0.00     0.070 C 
HETATM   11  N3  UNL     1      -0.238  -2.156   2.519  1.00  0.00    -0.197 NA
ENDROOT
BRANCH   1  12
HETATM   12  C3  UNL     1       1.116  -0.034  -0.545  1.00  0.00     0.054 C 
BRANCH  12  13
HETATM   13  C2  UNL     1       1.792   1.243  -0.810  1.00  0.00    -0.026 C 
HETATM   14  C1  UNL     1       2.869   1.764  -0.320  1.00  0.00     0.007 C 
ENDBRANCH  12  13
BRANCH  12  15
HETATM   15  C4  UNL     1       1.849  -1.041   0.166  1.00  0.00     0.095 C 
HETATM   16  N1  UNL     1       2.825  -0.912   0.955  1.00  0.00    -0.284 N 
ATOM     17  H1  UNL     1       3.156   0.038   1.125  1.00  0.00     0.192 HD
BRANCH  16  18
HETATM   18  O1  UNL     1       3.475  -1.909   1.597  1.00  0.00    -0.291 OA
ATOM     19  H1  UNL     1       4.210  -1.812   2.191  1.00  0.00     0.244 HD
ENDBRANCH  16  18
ENDBRANCH  12  15
ENDBRANCH   1  12
TORSDOF 4
