REMARK  4 active torsions:
REMARK  status: ('A' for Active; 'I' for Inactive)
REMARK    1  A    between atoms: C2_2  and  C3_3 
REMARK    2  A    between atoms: C3_3  and  N1_4 
REMARK    3  A    between atoms: N2_8  and  O1_9 
REMARK    4  A    between atoms: C7_12  and  O2_13 
ROOT
HETATM    1  N1  UNL     1       0.203   0.225   0.418  1.00  0.00    -0.357 N 
HETATM    2  C4  UNL     1      -0.417  -0.974   0.679  1.00  0.00     0.084 C 
HETATM    3  C5  UNL     1      -1.845  -1.214   0.606  1.00  0.00     0.133 C 
HETATM    4  C6  UNL     1      -2.190  -2.330  -0.391  1.00  0.00     0.035 C 
HETATM    5  N2  UNL     1      -2.722  -0.124   0.274  1.00  0.00    -0.125 NA
HETATM    6  S1  UNL     1      -1.959   1.032  -0.792  1.00  0.00    -0.001 SA
HETATM    7  C7  UNL     1      -0.465   1.417   0.217  1.00  0.00     0.304 C 
ENDROOT
BRANCH   1   8
HETATM    8  C3  UNL     1       1.367   0.103  -0.445  1.00  0.00     0.125 C 
BRANCH   8   9
HETATM    9  C2  UNL     1       2.494  -0.631   0.248  1.00  0.00     0.015 C 
HETATM   10  C1  UNL     1       3.665  -0.713  -0.720  1.00  0.00     0.006 C 
ENDBRANCH   8   9
ENDBRANCH   1   8
BRANCH   7  11
HETATM   11  O2  UNL     1       0.166   2.426  -0.437  1.00  0.00    -0.361 OA
HETATM   12  C8  UNL     1       0.043   3.604   0.326  1.00  0.00     0.205 C 
ENDBRANCH   7  11
BRANCH   5  13
HETATM   13  O1  UNL     1      -3.943  -0.491  -0.069  1.00  0.00    -0.302 OA
ATOM     14  H1  UNL     1      -4.522   0.229  -0.288  1.00  0.00     0.238 HD
ENDBRANCH   5  13
TORSDOF 4
