REMARK  5 active torsions:
REMARK  status: ('A' for Active; 'I' for Inactive)
REMARK    1  A    between atoms: C2_2  and  O1_3 
REMARK    2  A    between atoms: C2_2  and  C3_5 
REMARK    3  A    between atoms: C3_5  and  O2_7 
REMARK    4  A    between atoms: O2_7  and  C5_8 
REMARK       I    between atoms: C5_8  and  N1_10 
REMARK    5  A    between atoms: N1_10  and  C6_12 
ROOT
HETATM    1  C5  UNL     1       0.191  -0.426   0.181  1.00  0.00     0.361 C 
HETATM    2  O3  UNL     1       0.092  -1.196   1.157  1.00  0.00    -0.238 OA
HETATM    3  N1  UNL     1      -0.976   0.129  -0.391  1.00  0.00    -0.332 N 
ATOM      4  H1  UNL     1      -0.899   0.760  -1.189  1.00  0.00     0.165 HD
ENDROOT
BRANCH   1   5
HETATM    5  O2  UNL     1       1.447  -0.135  -0.317  1.00  0.00    -0.296 OA
BRANCH   5   6
HETATM    6  C3  UNL     1       2.588  -0.698   0.270  1.00  0.00     0.158 C 
HETATM    7  C4  UNL     1       3.270  -1.563  -0.758  1.00  0.00     0.043 C 
BRANCH   6   8
HETATM    8  C2  UNL     1       3.503   0.362   0.827  1.00  0.00     0.143 C 
HETATM    9  C1  UNL     1       3.852   1.415  -0.194  1.00  0.00     0.042 C 
BRANCH   8  10
HETATM   10  O1  UNL     1       4.618  -0.230   1.398  1.00  0.00    -0.393 OA
ATOM     11  H1  UNL     1       4.398  -0.894   2.041  1.00  0.00     0.210 HD
ENDBRANCH   8  10
ENDBRANCH   6   8
ENDBRANCH   5   6
ENDBRANCH   1   5
BRANCH   3  12
HETATM   12  C6  UNL     1      -2.264  -0.188   0.142  1.00  0.00     0.086 C 
HETATM   13  C7  UNL     1      -3.213  -0.742  -0.909  1.00  0.00     0.025 C 
HETATM   14  C8  UNL     1      -4.498   0.028  -0.701  1.00  0.00     0.002 C 
HETATM   15  C9  UNL     1      -4.378   0.674   0.680  1.00  0.00     0.002 C 
HETATM   16  C10 UNL     1      -2.903   1.082   0.659  1.00  0.00     0.025 C 
ENDBRANCH   3  12
TORSDOF 5
