REMARK  3 active torsions:
REMARK  status: ('A' for Active; 'I' for Inactive)
REMARK    1  A    between atoms: C2_2  and  C3_3 
REMARK    2  A    between atoms: C2_2  and  C4_5 
REMARK       I    between atoms: C4_5  and  N1_7 
REMARK    3  A    between atoms: N2_9  and  C5_11 
ROOT
HETATM    1  C4  UNL     1      -1.594  -0.747  -0.778  1.00  0.00     0.240 C 
HETATM    2  O1  UNL     1      -1.733  -1.874  -1.308  1.00  0.00    -0.271 OA
HETATM    3  N1  UNL     1      -0.335  -0.347  -0.311  1.00  0.00    -0.272 N 
ATOM      4  H1  UNL     1      -0.148   0.651  -0.220  1.00  0.00     0.189 HD
HETATM    5  N2  UNL     1       0.595  -1.173   0.008  1.00  0.00    -0.303 N 
ATOM      6  H2  UNL     1       0.444  -2.179  -0.070  1.00  0.00     0.182 HD
ENDROOT
BRANCH   5   7
HETATM    7  C5  UNL     1       1.858  -0.655   0.479  1.00  0.00     0.298 C 
HETATM    8  C6  UNL     1       2.074   0.788   0.122  1.00  0.00     0.057 C 
HETATM    9  C7  UNL     1       3.423   0.803  -0.549  1.00  0.00     0.031 C 
HETATM   10  C8  UNL     1       4.056  -0.452   0.049  1.00  0.00     0.235 C 
HETATM   11  N3  UNL     1       2.957  -1.397  -0.159  1.00  0.00    -0.053 N 
ATOM     12  H32 UNL     1       3.113  -2.344   0.186  1.00  0.00     0.279 HD
ATOM     13  H31 UNL     1       2.797  -1.687  -1.124  1.00  0.00     0.279 HD
ENDBRANCH   5   7
BRANCH   1  14
HETATM   14  C2  UNL     1      -2.765   0.144  -0.653  1.00  0.00     0.085 C 
HETATM   15  C1  UNL     1      -4.007  -0.529  -1.236  1.00  0.00     0.020 C 
BRANCH  14  16
HETATM   16  C3  UNL     1      -3.038   0.415   0.826  1.00  0.00     0.099 C 
HETATM   17  S1  UNL     1      -1.581   1.217   1.556  1.00  0.00    -0.097 SA
ENDBRANCH  14  16
ENDBRANCH   1  14
TORSDOF 3
