REMARK  4 active torsions:
REMARK  status: ('A' for Active; 'I' for Inactive)
REMARK       I    between atoms: C2_4  and  N3_6 
REMARK    1  A    between atoms: N3_6  and  C3_8 
REMARK    2  A    between atoms: C3_8  and  C4_9 
REMARK    3  A    between atoms: C4_9  and  N4_10 
REMARK    4  A    between atoms: C6_12  and  N5_13 
ROOT
HETATM    1  C3  UNL     1       0.258  -0.335  -0.750  1.00  0.00     0.152 C 
ENDROOT
BRANCH   1   2
HETATM    2  N3  UNL     1      -1.118  -0.122  -1.149  1.00  0.00    -0.363 N 
HETATM    3  C2  UNL     1      -2.139  -0.145  -0.170  1.00  0.00     0.183 C 
HETATM    4  N1  UNL     1      -2.889   0.915  -0.060  1.00  0.00    -0.369 N 
HETATM    5  N2  UNL     1      -2.326  -1.274   0.645  1.00  0.00    -0.064 NA
HETATM    6  C1  UNL     1      -3.936   0.894   0.938  1.00  0.00     0.148 C 
ATOM      7  H1  UNL     1      -2.743   1.730  -0.656  1.00  0.00     0.161 HD
ATOM      8  H3  UNL     1      -1.349   0.043  -2.129  1.00  0.00     0.162 HD
ENDBRANCH   1   2
BRANCH   1   9
HETATM    9  C4  UNL     1       0.716   0.837   0.064  1.00  0.00     0.295 C 
BRANCH   9  10
HETATM   10  N4  UNL     1       2.070   0.734   0.514  1.00  0.00     0.126 N 
HETATM   11  C5  UNL     1       2.486  -0.227   1.484  1.00  0.00     0.340 A 
HETATM   12  C6  UNL     1       2.934  -0.337   0.079  1.00  0.00     0.445 A 
BRANCH  12  13
HETATM   13  N5  UNL     1       4.235   0.111  -0.356  1.00  0.00    -0.046 N 
ATOM     14  H53 UNL     1       4.147   0.821  -1.083  1.00  0.00     0.277 HD
ATOM     15  H52 UNL     1       4.687   0.666   0.371  1.00  0.00     0.277 HD
ATOM     16  H51 UNL     1       4.846  -0.646  -0.663  1.00  0.00     0.277 HD
ENDBRANCH  12  13
ENDBRANCH   9  10
ENDBRANCH   1   9
TORSDOF 4
