REMARK  15 active torsions:
REMARK  status: ('A' for Active; 'I' for Inactive)
REMARK    1  A    between atoms: C2_2  and  C3_3 
REMARK    2  A    between atoms: C3_3  and  C4_4 
REMARK    3  A    between atoms: C4_4  and  C5_5 
REMARK    4  A    between atoms: C8_10  and  C9_11 
REMARK    5  A    between atoms: C9_11  and  C10_12 
REMARK    6  A    between atoms: C9_11  and  O6_35 
REMARK    7  A    between atoms: C10_12  and  C11_13 
REMARK    8  A    between atoms: C11_13  and  O1_14 
REMARK    9  A    between atoms: C11_13  and  C12_16 
REMARK   10  A    between atoms: C13_17  and  O2_18 
REMARK   11  A    between atoms: C14_20  and  C15_21 
REMARK   12  A    between atoms: C15_21  and  O3_23 
REMARK   13  A    between atoms: C19_27  and  C20_28 
REMARK   14  A    between atoms: C20_28  and  O4_30 
REMARK   15  A    between atoms: C22_32  and  O5_33 
ROOT
HETATM    1  C12 UNL     1       2.683  -0.179  -0.685  1.00  0.00     0.061 A 
HETATM    2  C13 UNL     1       3.067   0.288   0.501  1.00  0.00     0.094 A 
HETATM    3  C14 UNL     1       4.383   0.738   0.837  1.00  0.00     0.034 A 
HETATM    4  C17 UNL     1       5.334   0.679  -0.157  1.00  0.00    -0.031 A 
HETATM    5  C18 UNL     1       6.634   1.365   0.077  1.00  0.00     0.050 C 
HETATM    6  C19 UNL     1       5.010   0.188  -1.398  1.00  0.00     0.034 A 
HETATM    7  C22 UNL     1       3.683  -0.248  -1.690  1.00  0.00     0.094 A 
ENDROOT
BRANCH   1   8
HETATM    8  C11 UNL     1       1.301  -0.367  -1.164  1.00  0.00     0.061 C 
BRANCH   8   9
HETATM    9  C10 UNL     1       0.043   0.011  -0.529  1.00  0.00     0.103 C 
BRANCH   9  10
HETATM   10  C9  UNL     1      -0.904  -1.191  -0.430  1.00  0.00     0.177 C 
BRANCH  10  11
HETATM   11  C8  UNL     1      -2.178  -0.731   0.216  1.00  0.00     0.045 A 
HETATM   12  N1  UNL     1      -2.284   0.323   1.037  1.00  0.00    -0.360 N 
HETATM   13  C6  UNL     1      -3.549   0.458   1.505  1.00  0.00     0.012 A 
ATOM     14  H1  UNL     1      -1.512   0.944   1.279  1.00  0.00     0.165 HD
HETATM   15  C5  UNL     1      -4.289  -0.540   0.967  1.00  0.00    -0.028 A 
HETATM   16  C7  UNL     1      -4.013   1.484   2.494  1.00  0.00     0.068 C 
HETATM   17  C24 UNL     1      -3.417  -1.297   0.148  1.00  0.00    -0.029 A 
HETATM   18  C25 UNL     1      -3.864  -2.473  -0.630  1.00  0.00     0.051 C 
BRANCH  15  19
HETATM   19  C4  UNL     1      -5.729  -0.827   1.077  1.00  0.00     0.041 C 
BRANCH  19  20
HETATM   20  C3  UNL     1      -6.524  -0.116   0.043  1.00  0.00     0.004 C 
BRANCH  20  21
HETATM   21  C2  UNL     1      -6.398   1.375   0.081  1.00  0.00    -0.004 C 
HETATM   22  C1  UNL     1      -7.281   1.967  -1.022  1.00  0.00     0.005 C 
ENDBRANCH  20  21
ENDBRANCH  19  20
ENDBRANCH  15  19
ENDBRANCH  10  11
BRANCH  10  23
HETATM   23  O6  UNL     1      -0.321  -2.197   0.289  1.00  0.00    -0.384 OA
HETATM   24  C23 UNL     1      -0.097  -3.400  -0.280  1.00  0.00     0.202 C 
ENDBRANCH  10  23
ENDBRANCH   9  10
ENDBRANCH   8   9
BRANCH   8  25
HETATM   25  O1  UNL     1       1.213  -0.941  -2.330  1.00  0.00    -0.364 OA
ATOM     26  H1  UNL     1       2.032  -1.187  -2.743  1.00  0.00     0.217 HD
ENDBRANCH   8  25
ENDBRANCH   1   8
BRANCH   2  27
HETATM   27  O2  UNL     1       2.158   0.357   1.602  1.00  0.00    -0.359 OA
ATOM     28  H2  UNL     1       2.432   0.690   2.448  1.00  0.00     0.217 HD
ENDBRANCH   2  27
BRANCH   7  29
HETATM   29  O5  UNL     1       3.425  -0.707  -2.897  1.00  0.00    -0.359 OA
ATOM     30  H5  UNL     1       4.094  -0.753  -3.570  1.00  0.00     0.217 HD
ENDBRANCH   7  29
BRANCH   3  31
HETATM   31  C15 UNL     1       4.611   1.134   2.198  1.00  0.00     0.053 C 
HETATM   32  C16 UNL     1       5.812   1.565   2.882  1.00  0.00     0.077 C 
BRANCH  31  33
HETATM   33  O3  UNL     1       3.553   1.093   2.981  1.00  0.00    -0.364 OA
ATOM     34  H3  UNL     1       3.704   1.355   3.882  1.00  0.00     0.217 HD
ENDBRANCH  31  33
ENDBRANCH   3  31
BRANCH   6  35
HETATM   35  C20 UNL     1       5.990   0.003  -2.458  1.00  0.00     0.053 C 
HETATM   36  C21 UNL     1       7.414   0.254  -2.557  1.00  0.00     0.077 C 
BRANCH  35  37
HETATM   37  O4  UNL     1       5.489  -0.502  -3.555  1.00  0.00    -0.364 OA
ATOM     38  H4  UNL     1       6.129  -0.623  -4.247  1.00  0.00     0.217 HD
ENDBRANCH  35  37
ENDBRANCH   6  35
TORSDOF 15
