REMARK  11 active torsions:
REMARK  status: ('A' for Active; 'I' for Inactive)
REMARK    1  A    between atoms: C5_5  and  C6_6 
REMARK    2  A    between atoms: C6_6  and  C7_7 
REMARK    3  A    between atoms: C7_7  and  C8_8 
REMARK    4  A    between atoms: C10_10  and  C11_11 
REMARK    5  A    between atoms: C11_11  and  C12_12 
REMARK    6  A    between atoms: C11_11  and  C15_15 
REMARK    7  A    between atoms: C12_12  and  C13_13 
REMARK    8  A    between atoms: C16_19  and  C17_20 
REMARK    9  A    between atoms: C18_21  and  O4_22 
REMARK       I    between atoms: N1_26  and  C21_27 
REMARK   10  A    between atoms: C21_27  and  C22_29 
REMARK   11  A    between atoms: C24_31  and  O6_32 
ROOT
HETATM    1  C1  UNL     1      -0.670   3.741   1.484  1.00  0.00     0.017 C 
HETATM    2  C2  UNL     1      -0.803   2.585   0.879  1.00  0.00    -0.048 C 
HETATM    3  C3  UNL     1       0.370   1.849   0.271  1.00  0.00     0.042 C 
HETATM    4  C4  UNL     1       0.969   2.664  -0.820  1.00  0.00     0.017 C 
HETATM    5  C5  UNL     1      -0.191   0.544  -0.140  1.00  0.00     0.137 C 
HETATM    6  O3  UNL     1      -1.196   0.857  -1.102  1.00  0.00    -0.344 OA
HETATM    7  C16 UNL     1      -2.344   0.996  -0.314  1.00  0.00     0.109 C 
HETATM    8  C24 UNL     1      -2.171   1.882   0.820  1.00  0.00     0.206 C 
ENDROOT
BRANCH   5   9
HETATM    9  C6  UNL     1       0.604  -0.602  -0.559  1.00  0.00     0.037 C 
BRANCH   9  10
HETATM   10  C7  UNL     1       1.563  -1.112   0.494  1.00  0.00     0.036 C 
BRANCH  10  11
HETATM   11  C8  UNL     1       2.279  -2.337   0.184  1.00  0.00    -0.087 C 
HETATM   12  C9  UNL     1       1.337  -3.586   0.110  1.00  0.00     0.043 C 
HETATM   13  C10 UNL     1       3.510  -2.659  -0.008  1.00  0.00    -0.009 C 
BRANCH  13  14
HETATM   14  C11 UNL     1       4.768  -1.947  -0.015  1.00  0.00     0.109 C 
BRANCH  14  15
HETATM   15  C12 UNL     1       4.692  -0.488   0.239  1.00  0.00     0.019 C 
BRANCH  15  16
HETATM   16  C13 UNL     1       6.048   0.228   0.213  1.00  0.00    -0.003 C 
HETATM   17  C14 UNL     1       5.722   1.712   0.517  1.00  0.00     0.005 C 
ENDBRANCH  15  16
ENDBRANCH  14  15
BRANCH  14  18
HETATM   18  C15 UNL     1       5.404  -2.268  -1.347  1.00  0.00     0.180 C 
HETATM   19  O1  UNL     1       4.771  -2.833  -2.271  1.00  0.00    -0.647 OA
HETATM   20  O2  UNL     1       6.718  -1.938  -1.569  1.00  0.00    -0.647 OA
ENDBRANCH  14  18
ENDBRANCH  13  14
ENDBRANCH  10  11
ENDBRANCH   9  10
ENDBRANCH   5   9
BRANCH   7  21
HETATM   21  C17 UNL     1      -3.611   0.802  -1.015  1.00  0.00     0.107 A 
HETATM   22  C18 UNL     1      -3.775   1.118  -2.369  1.00  0.00     0.096 A 
HETATM   23  C19 UNL     1      -4.994   0.685  -2.786  1.00  0.00     0.056 A 
HETATM   24  C20 UNL     1      -5.575   0.109  -1.702  1.00  0.00     0.103 A 
HETATM   25  N1  UNL     1      -4.732   0.173  -0.615  1.00  0.00    -0.288 N 
HETATM   26  C21 UNL     1      -5.090  -0.445   0.621  1.00  0.00     0.228 C 
HETATM   27  O5  UNL     1      -4.416  -0.461   1.651  1.00  0.00    -0.273 OA
BRANCH  22  28
HETATM   28  O4  UNL     1      -2.812   1.787  -3.164  1.00  0.00    -0.358 OA
ATOM     29  H4  UNL     1      -2.923   2.001  -4.083  1.00  0.00     0.217 HD
ENDBRANCH  22  28
BRANCH  26  30
HETATM   30  C22 UNL     1      -6.410  -1.165   0.743  1.00  0.00     0.099 C 
HETATM   31  C23 UNL     1      -6.503  -1.659   2.193  1.00  0.00     0.014 C 
ENDBRANCH  26  30
ENDBRANCH   7  21
BRANCH   8  32
HETATM   32  O6  UNL     1      -2.290   1.419   2.116  1.00  0.00    -0.384 OA
ATOM     33  H6  UNL     1      -3.134   0.985   2.080  1.00  0.00     0.211 HD
ENDBRANCH   8  32
TORSDOF 11
