REMARK  7 active torsions:
REMARK  status: ('A' for Active; 'I' for Inactive)
REMARK    1  A    between atoms: C2_2  and  C3_3 
REMARK    2  A    between atoms: C2_2  and  N6_19 
REMARK    3  A    between atoms: C3_3  and  S1_4 
REMARK    4  A    between atoms: S1_4  and  C4_5 
REMARK    5  A    between atoms: C8_13  and  N4_14 
REMARK    6  A    between atoms: N6_19  and  C9_21 
REMARK    7  A    between atoms: C11_26  and  C12_27 
ROOT
HETATM    1  C4  UNL     1       4.640  -0.520   1.104  1.00  0.00     0.147 A 
HETATM    2  N1  UNL     1       5.519   0.411   1.516  1.00  0.00    -0.324 N 
ATOM      3  H1  UNL     1       5.173   1.225   2.024  1.00  0.00     0.169 HD
HETATM    4  C5  UNL     1       6.855   0.303   1.278  1.00  0.00     0.142 A 
HETATM    5  N2  UNL     1       7.770   1.284   1.712  1.00  0.00    -0.081 NA
HETATM    6  C6  UNL     1       7.323  -0.778   0.604  1.00  0.00     0.129 A 
HETATM    7  C7  UNL     1       8.719  -0.983   0.303  1.00  0.00     0.106 C 
HETATM    8  N3  UNL     1       9.837  -1.145   0.079  1.00  0.00    -0.191 NA
HETATM    9  C8  UNL     1       6.439  -1.750   0.171  1.00  0.00     0.125 A 
HETATM   10  N5  UNL     1       5.142  -1.572   0.442  1.00  0.00    -0.322 N 
ATOM     11  H5  UNL     1       4.488  -2.287   0.123  1.00  0.00     0.169 HD
ENDROOT
BRANCH   9  12
HETATM   12  N4  UNL     1       6.832  -2.795  -0.473  1.00  0.00    -0.384 N 
ATOM     13  H42 UNL     1       7.822  -2.931  -0.680  1.00  0.00     0.157 HD
ATOM     14  H41 UNL     1       6.180  -3.512  -0.792  1.00  0.00     0.157 HD
ENDBRANCH   9  12
BRANCH   1  15
HETATM   15  S1  UNL     1       2.884  -0.354   1.431  1.00  0.00    -0.092 SA
BRANCH  15  16
HETATM   16  C3  UNL     1       2.127   0.541   0.048  1.00  0.00     0.107 C 
BRANCH  16  17
HETATM   17  C2  UNL     1       0.648   0.684   0.317  1.00  0.00     0.088 C 
HETATM   18  C1  UNL     1       0.051  -0.693   0.440  1.00  0.00     0.033 C 
BRANCH  17  19
HETATM   19  N6  UNL     1      -0.000   1.356  -0.792  1.00  0.00    -0.367 N 
ATOM     20  H6  UNL     1       0.561   1.672  -1.583  1.00  0.00     0.161 HD
BRANCH  19  21
HETATM   21  C9  UNL     1      -1.422   1.585  -0.796  1.00  0.00     0.174 C 
HETATM   22  N7  UNL     1      -2.034   1.117   0.315  1.00  0.00    -0.305 N 
HETATM   23  C10 UNL     1      -3.293   0.630   0.512  1.00  0.00     0.256 C 
ATOM     24  H7  UNL     1      -1.452   1.130   1.153  1.00  0.00     0.171 HD
HETATM   25  O1  UNL     1      -3.452   0.097   1.630  1.00  0.00    -0.268 OA
HETATM   26  C11 UNL     1      -4.464   0.571  -0.216  1.00  0.00     0.046 C 
HETATM   27  C15 UNL     1      -4.830   1.232  -1.370  1.00  0.00     0.089 C 
HETATM   28  C16 UNL     1      -4.206   1.773  -2.478  1.00  0.00     0.248 C 
HETATM   29  O4  UNL     1      -4.928   1.860  -3.496  1.00  0.00    -0.268 OA
HETATM   30  N9  UNL     1      -2.961   2.226  -2.668  1.00  0.00    -0.287 N 
HETATM   31  C17 UNL     1      -1.802   2.234  -1.949  1.00  0.00     0.292 C 
ATOM     32  H9  UNL     1      -2.852   2.677  -3.576  1.00  0.00     0.172 HD
HETATM   33  O5  UNL     1      -0.903   2.970  -2.421  1.00  0.00    -0.264 OA
BRANCH  26  34
HETATM   34  C12 UNL     1      -5.442  -0.333   0.357  1.00  0.00     0.190 C 
HETATM   35  C13 UNL     1      -6.673  -0.590  -0.445  1.00  0.00     0.162 C 
HETATM   36  N8  UNL     1      -7.067  -1.923  -0.015  1.00  0.00    -0.334 N 
HETATM   37  C14 UNL     1      -6.064  -2.412   0.836  1.00  0.00     0.361 C 
ATOM     38  H8  UNL     1      -7.920  -2.414  -0.284  1.00  0.00     0.164 HD
HETATM   39  O2  UNL     1      -6.163  -3.420   1.572  1.00  0.00    -0.238 OA
HETATM   40  O3  UNL     1      -4.953  -1.608   0.731  1.00  0.00    -0.292 OA
ENDBRANCH  26  34
ENDBRANCH  19  21
ENDBRANCH  17  19
ENDBRANCH  16  17
ENDBRANCH  15  16
ENDBRANCH   1  15
TORSDOF 7
