REMARK  11 active torsions:
REMARK  status: ('A' for Active; 'I' for Inactive)
REMARK    1  A    between atoms: O1_2  and  C2_3 
REMARK    2  A    between atoms: C2_3  and  C3_4 
REMARK    3  A    between atoms: C3_4  and  O2_5 
REMARK    4  A    between atoms: O2_5  and  N1_6 
REMARK    5  A    between atoms: C4_7  and  C5_8 
REMARK    6  A    between atoms: C8_18  and  C9_19 
REMARK    7  A    between atoms: C10_20  and  C11_21 
REMARK    8  A    between atoms: C11_21  and  O3_24 
REMARK    9  A    between atoms: C14_28  and  O4_29 
REMARK   10  A    between atoms: N8_34  and  N9_36 
REMARK   11  A    between atoms: N9_36  and  C16_38 
ROOT
HETATM    1  N1  UNL     1       1.704   1.051  -0.421  1.00  0.00    -0.041 N 
HETATM    2  C4  UNL     1       0.960   2.110  -0.034  1.00  0.00     0.176 A 
HETATM    3  C14 UNL     1       1.848   3.163   0.010  1.00  0.00     0.189 A 
HETATM    4  N7  UNL     1       3.073   2.770  -0.332  1.00  0.00    -0.165 N 
ATOM      5  H7  UNL     1       3.909   3.352  -0.379  1.00  0.00     0.186 HD
HETATM    6  C15 UNL     1       2.992   1.446  -0.605  1.00  0.00     0.726 A 
HETATM    7  N8  UNL     1       3.989   0.723  -0.972  1.00  0.00    -0.128 N 
ATOM      8  H8  UNL     1       3.846  -0.269  -1.159  1.00  0.00     0.205 HD
ENDROOT
BRANCH   2   9
HETATM    9  C5  UNL     1      -0.471   2.122   0.269  1.00  0.00     0.153 A 
HETATM   10  N2  UNL     1      -0.989   2.934   1.126  1.00  0.00    -0.173 N 
HETATM   11  C6  UNL     1      -2.363   2.982   1.450  1.00  0.00     0.704 A 
ATOM     12  H2  UNL     1      -0.365   3.585   1.602  1.00  0.00     0.186 HD
HETATM   13  N3  UNL     1      -3.058   3.773   2.323  1.00  0.00    -0.185 N 
HETATM   14  N5  UNL     1      -3.233   2.164   0.870  1.00  0.00    -0.087 N 
HETATM   15  C7  UNL     1      -4.353   3.402   2.244  1.00  0.00     0.215 A 
ATOM     16  H3  UNL     1      -2.671   4.504   2.920  1.00  0.00     0.185 HD
HETATM   17  N4  UNL     1      -4.448   2.410   1.346  1.00  0.00    -0.276 N 
ATOM     18  H4  UNL     1      -5.305   1.928   1.076  1.00  0.00     0.188 HD
HETATM   19  C8  UNL     1      -2.802   1.202  -0.108  1.00  0.00     0.307 A 
HETATM   20  N6  UNL     1      -1.386   1.238  -0.362  1.00  0.00    -0.341 N 
ATOM     21  H6  UNL     1      -1.012   0.580  -1.046  1.00  0.00     0.164 HD
BRANCH  19  22
HETATM   22  C9  UNL     1      -3.085  -0.184   0.350  1.00  0.00    -0.054 C 
HETATM   23  C10 UNL     1      -3.334  -1.304   0.719  1.00  0.00    -0.065 C 
BRANCH  23  24
HETATM   24  C11 UNL     1      -3.663  -2.663   1.163  1.00  0.00     0.114 C 
HETATM   25  C12 UNL     1      -3.720  -2.749   2.673  1.00  0.00     0.060 C 
HETATM   26  C13 UNL     1      -5.023  -3.025   0.559  1.00  0.00     0.060 C 
BRANCH  24  27
HETATM   27  O3  UNL     1      -2.687  -3.511   0.643  1.00  0.00    -0.378 OA
ATOM     28  H3  UNL     1      -2.900  -4.391   0.931  1.00  0.00     0.211 HD
ENDBRANCH  24  27
ENDBRANCH  23  24
ENDBRANCH  19  22
ENDBRANCH   2   9
BRANCH   1  29
HETATM   29  O2  UNL     1       1.287  -0.236  -0.615  1.00  0.00    -0.257 OA
BRANCH  29  30
HETATM   30  C3  UNL     1       2.075  -1.295  -1.062  1.00  0.00     0.229 C 
BRANCH  30  31
HETATM   31  C2  UNL     1       1.290  -2.588  -1.165  1.00  0.00     0.195 C 
BRANCH  31  32
HETATM   32  O1  UNL     1       0.232  -2.490  -2.042  1.00  0.00    -0.394 OA
HETATM   33  C1  UNL     1       0.626  -2.175  -3.334  1.00  0.00     0.201 C 
ENDBRANCH  31  32
ENDBRANCH  30  31
ENDBRANCH  29  30
ENDBRANCH   1  29
BRANCH   3  34
HETATM   34  O4  UNL     1       1.474   4.450   0.370  1.00  0.00    -0.344 OA
ATOM     35  H4  UNL     1       2.086   5.176   0.400  1.00  0.00     0.219 HD
ENDBRANCH   3  34
BRANCH   7  36
HETATM   36  N9  UNL     1       5.262   1.270  -1.119  1.00  0.00    -0.264 N 
ATOM     37  H9  UNL     1       5.410   2.250  -0.877  1.00  0.00     0.189 HD
BRANCH  36  38
HETATM   38  C16 UNL     1       6.361   0.505  -1.595  1.00  0.00     0.200 C 
HETATM   39  N10 UNL     1       7.658   1.039  -1.752  1.00  0.00    -0.068 NA
HETATM   40  S1  UNL     1       6.086  -1.064  -1.973  1.00  0.00    -0.043 SA
ENDBRANCH  36  38
ENDBRANCH   7  36
TORSDOF 11
