REMARK  7 active torsions:
REMARK  status: ('A' for Active; 'I' for Inactive)
REMARK    1  A    between atoms: N1_1  and  N2_4 
REMARK    2  A    between atoms: N3_9  and  C4_10 
REMARK    3  A    between atoms: C4_10  and  C5_11 
REMARK    4  A    between atoms: C5_11  and  C6_12 
REMARK    5  A    between atoms: C6_12  and  N4_13 
REMARK    6  A    between atoms: N5_16  and  C9_17 
REMARK    7  A    between atoms: C11_19  and  N6_20 
ROOT
HETATM    1  C9  UNL     1      -2.058  -0.832   0.514  1.00  0.00     0.107 A 
HETATM    2  C10 UNL     1      -3.227  -0.129   0.346  1.00  0.00     0.079 A 
HETATM    3  C11 UNL     1      -4.450  -0.669   0.762  1.00  0.00     0.057 A 
HETATM    4  C15 UNL     1      -4.502  -1.914   1.346  1.00  0.00     0.053 A 
HETATM    5  C16 UNL     1      -5.521  -2.700   1.843  1.00  0.00     0.124 A 
HETATM    6  N11 UNL     1      -4.929  -3.845   2.291  1.00  0.00    -0.309 N 
ATOM      7  H11 UNL     1      -5.413  -4.634   2.719  1.00  0.00     0.186 HD
HETATM    8  N12 UNL     1      -3.630  -3.767   2.081  1.00  0.00    -0.285 N 
ATOM      9  H12 UNL     1      -2.963  -4.498   2.328  1.00  0.00     0.188 HD
HETATM   10  C17 UNL     1      -3.294  -2.598   1.498  1.00  0.00     0.135 A 
HETATM   11  N13 UNL     1      -2.139  -2.046   1.087  1.00  0.00    -0.327 N 
ATOM     12  H13 UNL     1      -1.278  -2.577   1.217  1.00  0.00     0.169 HD
ENDROOT
BRANCH   1  13
HETATM   13  N5  UNL     1      -0.789  -0.291   0.096  1.00  0.00    -0.361 N 
HETATM   14  C8  UNL     1       0.384  -1.115   0.212  1.00  0.00     0.144 C 
HETATM   15  C7  UNL     1       1.506  -0.220   0.714  1.00  0.00     0.141 C 
HETATM   16  N4  UNL     1       1.699   0.812  -0.228  1.00  0.00    -0.390 N 
HETATM   17  C19 UNL     1       0.606   1.632  -0.544  1.00  0.00     0.078 C 
HETATM   18  C18 UNL     1      -0.749   1.035  -0.410  1.00  0.00     0.168 C 
BRANCH  16  19
HETATM   19  C6  UNL     1       2.716   0.639  -1.204  1.00  0.00     0.123 C 
BRANCH  19  20
HETATM   20  C5  UNL     1       4.098   0.676  -0.591  1.00  0.00     0.036 C 
BRANCH  20  21
HETATM   21  C4  UNL     1       5.092   0.487  -1.708  1.00  0.00     0.115 C 
BRANCH  21  22
HETATM   22  N3  UNL     1       6.449   0.500  -1.281  1.00  0.00    -0.230 NA
HETATM   23  C3  UNL     1       6.946   1.741  -0.803  1.00  0.00     0.121 C 
HETATM   24  C2  UNL     1       7.517   1.524   0.572  1.00  0.00     0.095 C 
HETATM   25  C1  UNL     1       7.646   0.048   0.609  1.00  0.00     0.107 C 
HETATM   26  N2  UNL     1       8.395  -0.601   1.421  1.00  0.00    -0.295 N 
HETATM   27  N14 UNL     1       6.814  -0.479  -0.388  1.00  0.00    -0.307 N 
ATOM     28  H2  UNL     1       8.948  -0.074   2.097  1.00  0.00     0.187 HD
ATOM     29  H14 UNL     1       6.520  -1.454  -0.443  1.00  0.00     0.182 HD
BRANCH  26  30
HETATM   30  N1  UNL     1       8.491  -1.991   1.427  1.00  0.00    -0.344 N 
ATOM     31  H12 UNL     1       7.931  -2.502   0.745  1.00  0.00     0.176 HD
ATOM     32  H11 UNL     1       9.087  -2.508   2.073  1.00  0.00     0.176 HD
ENDBRANCH  26  30
ENDBRANCH  21  22
ENDBRANCH  20  21
ENDBRANCH  19  20
ENDBRANCH  16  19
ENDBRANCH   1  13
BRANCH   3  33
HETATM   33  N6  UNL     1      -5.656   0.059   0.602  1.00  0.00    -0.303 N 
HETATM   34  C12 UNL     1      -6.468   0.561   1.666  1.00  0.00     0.257 A 
HETATM   35  N7  UNL     1      -7.647   1.258   1.197  1.00  0.00    -0.348 N 
HETATM   36  C13 UNL     1      -7.981   1.446  -0.010  1.00  0.00     0.191 A 
ATOM     37  H7  UNL     1      -8.271   1.635   1.910  1.00  0.00     0.163 HD
HETATM   38  N8  UNL     1      -9.161   2.145  -0.413  1.00  0.00    -0.063 NA
HETATM   39  N9  UNL     1      -7.154   0.939  -1.037  1.00  0.00    -0.304 N 
HETATM   40  C14 UNL     1      -6.072   0.295  -0.756  1.00  0.00     0.199 A 
ATOM     41  H9  UNL     1      -7.415   1.084  -2.012  1.00  0.00     0.171 HD
HETATM   42  N10 UNL     1      -5.302  -0.177  -1.841  1.00  0.00    -0.063 NA
ENDBRANCH   3  33
TORSDOF 7
