REMARK  8 active torsions:
REMARK  status: ('A' for Active; 'I' for Inactive)
REMARK    1  A    between atoms: O1_2  and  C2_3 
REMARK    2  A    between atoms: C2_3  and  C3_4 
REMARK    3  A    between atoms: C4_6  and  O3_7 
REMARK    4  A    between atoms: O3_7  and  C5_8 
REMARK    5  A    between atoms: C7_10  and  C8_11 
REMARK       I    between atoms: C8_11  and  N1_13 
REMARK    6  A    between atoms: C9_15  and  N2_16 
REMARK    7  A    between atoms: C15_25  and  O5_26 
REMARK    8  A    between atoms: C16_28  and  O6_29 
ROOT
HETATM    1  C5  UNL     1      -0.203  -0.235   0.175  1.00  0.00     0.155 C 
HETATM    2  C6  UNL     1       0.858   0.046  -0.842  1.00  0.00     0.049 C 
HETATM    3  C7  UNL     1       2.179  -0.570  -0.464  1.00  0.00     0.106 C 
HETATM    4  C12 UNL     1       2.651  -0.238   0.911  1.00  0.00     0.246 C 
HETATM    5  N3  UNL     1       1.580  -0.186   1.853  1.00  0.00    -0.068 N 
ATOM      6  H31 UNL     1       1.318   0.771   2.091  1.00  0.00     0.277 HD
ATOM      7  H32 UNL     1       1.866  -0.491   2.783  1.00  0.00     0.277 HD
HETATM    8  C13 UNL     1       0.462  -0.953   1.339  1.00  0.00     0.210 C 
HETATM    9  C14 UNL     1      -0.504  -1.134   2.492  1.00  0.00     0.042 C 
ENDROOT
BRANCH   1  10
HETATM   10  O3  UNL     1      -1.223  -1.063  -0.282  1.00  0.00    -0.351 OA
BRANCH  10  11
HETATM   11  C4  UNL     1      -2.466  -0.504  -0.200  1.00  0.00     0.292 C 
HETATM   12  O2  UNL     1      -3.366  -1.221   0.575  1.00  0.00    -0.348 OA
HETATM   13  C3  UNL     1      -4.632  -0.759   0.270  1.00  0.00     0.179 C 
HETATM   14  C16 UNL     1      -4.596  -0.087  -1.060  1.00  0.00     0.182 C 
HETATM   15  C15 UNL     1      -3.179  -0.352  -1.526  1.00  0.00     0.204 C 
BRANCH  13  16
HETATM   16  C2  UNL     1      -5.176   0.163   1.343  1.00  0.00     0.201 C 
BRANCH  16  17
HETATM   17  O1  UNL     1      -5.254  -0.498   2.556  1.00  0.00    -0.393 OA
HETATM   18  C1  UNL     1      -5.765   0.430   3.485  1.00  0.00     0.201 C 
ENDBRANCH  16  17
ENDBRANCH  13  16
BRANCH  14  19
HETATM   19  O6  UNL     1      -5.505  -0.642  -1.973  1.00  0.00    -0.390 OA
ATOM     20  H6  UNL     1      -5.482  -0.214  -2.821  1.00  0.00     0.210 HD
ENDBRANCH  14  19
BRANCH  15  21
HETATM   21  O5  UNL     1      -2.672   0.675  -2.291  1.00  0.00    -0.388 OA
ATOM     22  H5  UNL     1      -3.120   0.770  -3.123  1.00  0.00     0.210 HD
ENDBRANCH  15  21
ENDBRANCH  10  11
ENDBRANCH   1  10
BRANCH   3  23
HETATM   23  C8  UNL     1       3.240  -0.134  -1.412  1.00  0.00     0.228 C 
HETATM   24  O4  UNL     1       3.877  -0.980  -2.099  1.00  0.00    -0.273 OA
HETATM   25  N1  UNL     1       3.573   1.221  -1.581  1.00  0.00    -0.323 N 
HETATM   26  C9  UNL     1       4.760   1.698  -1.614  1.00  0.00     0.180 C 
ATOM     27  H1  UNL     1       2.802   1.881  -1.686  1.00  0.00     0.169 HD
BRANCH  26  28
HETATM   28  N2  UNL     1       5.948   0.972  -1.489  1.00  0.00    -0.386 N 
HETATM   29  C10 UNL     1       6.794   0.758  -2.634  1.00  0.00     0.149 C 
HETATM   30  C11 UNL     1       6.338   0.431  -0.213  1.00  0.00     0.149 C 
ENDBRANCH  26  28
ENDBRANCH   3  23
TORSDOF 8
