REMARK  9 active torsions:
REMARK  status: ('A' for Active; 'I' for Inactive)
REMARK    1  A    between atoms: C4_5  and  N2_6 
REMARK    2  A    between atoms: N2_6  and  C5_8 
REMARK    3  A    between atoms: C6_11  and  N4_12 
REMARK    4  A    between atoms: C11_20  and  N6_21 
REMARK    5  A    between atoms: N6_21  and  C12_22 
REMARK    6  A    between atoms: C12_22  and  C13_23 
REMARK    7  A    between atoms: C13_23  and  C14_24 
REMARK    8  A    between atoms: C14_24  and  C15_25 
REMARK    9  A    between atoms: C15_25  and  O2_26 
ROOT
HETATM    1  C5  UNL     1      -1.294  -0.261   0.414  1.00  0.00     0.696 A 
HETATM    2  N3  UNL     1      -1.292   1.012   0.004  1.00  0.00    -0.022 N 
ATOM      3  H3  UNL     1      -2.168   1.503  -0.173  1.00  0.00     0.203 HD
HETATM    4  C6  UNL     1      -0.110   1.632  -0.170  1.00  0.00     0.698 A 
HETATM    5  N5  UNL     1       1.034   0.987   0.063  1.00  0.00    -0.148 N 
ATOM      6  H5  UNL     1       1.912   1.487  -0.079  1.00  0.00     0.188 HD
HETATM    7  C11 UNL     1       1.085  -0.326   0.487  1.00  0.00     0.287 A 
HETATM    8  N7  UNL     1      -0.152  -0.907   0.647  1.00  0.00    -0.148 N 
ATOM      9  H7  UNL     1      -0.197  -1.877   0.958  1.00  0.00     0.188 HD
ENDROOT
BRANCH   1  10
HETATM   10  N2  UNL     1      -2.407  -0.869   0.583  1.00  0.00    -0.219 N 
ATOM     11  H2  UNL     1      -2.346  -1.838   0.896  1.00  0.00     0.178 HD
BRANCH  10  12
HETATM   12  C4  UNL     1      -3.722  -0.354   0.386  1.00  0.00     0.129 C 
HETATM   13  C3  UNL     1      -4.260  -0.658  -0.993  1.00  0.00     0.057 C 
HETATM   14  C2  UNL     1      -5.405  -1.578  -0.747  1.00  0.00     0.274 C 
HETATM   15  N1  UNL     1      -5.185  -2.192   0.526  1.00  0.00     0.086 N 
HETATM   16  C1  UNL     1      -4.248  -3.286   0.501  1.00  0.00     0.310 C 
HETATM   17  C16 UNL     1      -4.656  -1.089   1.330  1.00  0.00     0.297 C 
ENDBRANCH  10  12
ENDBRANCH   1  10
BRANCH   4  18
HETATM   18  N4  UNL     1      -0.099   2.976  -0.599  1.00  0.00    -0.213 N 
HETATM   19  C7  UNL     1      -0.862   3.957   0.133  1.00  0.00     0.167 C 
HETATM   20  C8  UNL     1      -0.143   5.300   0.143  1.00  0.00     0.188 C 
HETATM   21  O1  UNL     1       0.402   5.581  -1.110  1.00  0.00    -0.388 OA
HETATM   22  C9  UNL     1       1.398   4.644  -1.360  1.00  0.00     0.188 C 
HETATM   23  C10 UNL     1       0.686   3.343  -1.757  1.00  0.00     0.167 C 
ENDBRANCH   4  18
BRANCH   7  24
HETATM   24  N6  UNL     1       2.132  -0.894   0.695  1.00  0.00    -0.387 NA
BRANCH  24  25
HETATM   25  C12 UNL     1       3.186  -1.643   0.962  1.00  0.00     0.159 C 
BRANCH  25  26
HETATM   26  C13 UNL     1       4.180  -1.867  -0.205  1.00  0.00     0.061 C 
BRANCH  26  27
HETATM   27  C14 UNL     1       5.269  -2.741   0.377  1.00  0.00     0.032 C 
BRANCH  27  28
HETATM   28  C15 UNL     1       6.337  -3.052  -0.659  1.00  0.00     0.164 C 
BRANCH  28  29
HETATM   29  O2  UNL     1       7.337  -3.853  -0.121  1.00  0.00    -0.401 OA
ATOM     30  H2  UNL     1       8.004  -4.047  -0.768  1.00  0.00     0.209 HD
ENDBRANCH  28  29
ENDBRANCH  27  28
ENDBRANCH  26  27
ENDBRANCH  25  26
ENDBRANCH  24  25
ENDBRANCH   7  24
TORSDOF 9
