REMARK  7 active torsions:
REMARK  status: ('A' for Active; 'I' for Inactive)
REMARK    1  A    between atoms: N1_2  and  S1_4 
REMARK    2  A    between atoms: S1_4  and  N2_7 
REMARK    3  A    between atoms: N2_7  and  C2_9 
REMARK    4  A    between atoms: C2_9  and  C3_10 
REMARK    5  A    between atoms: C9_17  and  O4_18 
REMARK    6  A    between atoms: C11_20  and  O5_21 
REMARK    7  A    between atoms: C12_23  and  O6_24 
ROOT
HETATM    1  C3  UNL     1      -0.218  -0.602  -0.041  1.00  0.00     0.113 C 
HETATM    2  O3  UNL     1      -0.793  -1.843   0.045  1.00  0.00    -0.364 OA
HETATM    3  C4  UNL     1      -1.922  -1.893  -0.706  1.00  0.00     0.063 A 
HETATM    4  C5  UNL     1      -3.025  -2.775  -0.145  1.00  0.00     0.046 C 
HETATM    5  C6  UNL     1      -1.903  -1.807  -2.199  1.00  0.00     0.046 A 
HETATM    6  C7  UNL     1      -2.196  -0.612  -1.341  1.00  0.00     0.032 A 
HETATM    7  C8  UNL     1      -0.971   0.226  -1.021  1.00  0.00     0.063 C 
HETATM    8  C9  UNL     1      -1.333   1.529  -0.362  1.00  0.00     0.159 C 
HETATM    9  C11 UNL     1      -0.917   1.439   1.069  1.00  0.00     0.179 C 
HETATM   10  C12 UNL     1      -0.314   0.091   1.304  1.00  0.00     0.188 C 
ENDROOT
BRANCH   1  11
HETATM   11  C2  UNL     1       1.226  -0.808  -0.421  1.00  0.00     0.175 C 
BRANCH  11  12
HETATM   12  N2  UNL     1       1.959   0.430  -0.548  1.00  0.00    -0.300 N 
ATOM     13  H2  UNL     1       1.597   1.373  -0.409  1.00  0.00     0.173 HD
BRANCH  12  14
HETATM   14  S1  UNL     1       3.592  -0.014  -0.988  1.00  0.00     0.314 S 
HETATM   15  O1  UNL     1       4.194   1.041  -1.853  1.00  0.00    -0.183 OA
HETATM   16  O2  UNL     1       3.516  -1.283  -1.796  1.00  0.00    -0.183 OA
BRANCH  14  17
HETATM   17  N1  UNL     1       4.529  -0.237   0.446  1.00  0.00    -0.307 N 
HETATM   18  C1  UNL     1       5.170   0.969   0.881  1.00  0.00     0.161 C 
ATOM     19  H1  UNL     1       4.617  -1.130   0.931  1.00  0.00     0.173 HD
ENDBRANCH  14  17
ENDBRANCH  12  14
ENDBRANCH  11  12
ENDBRANCH   1  11
BRANCH  10  20
HETATM   20  O6  UNL     1      -1.144  -0.614   2.157  1.00  0.00    -0.385 OA
HETATM   21  C13 UNL     1      -0.510  -0.967   3.319  1.00  0.00     0.202 C 
ENDBRANCH  10  20
BRANCH   8  22
HETATM   22  O4  UNL     1      -2.715   1.689  -0.500  1.00  0.00    -0.388 OA
HETATM   23  C10 UNL     1      -3.038   2.850  -1.201  1.00  0.00     0.202 C 
ENDBRANCH   8  22
BRANCH   9  24
HETATM   24  O5  UNL     1      -0.045   2.488   1.435  1.00  0.00    -0.390 OA
ATOM     25  H5  UNL     1       0.220   2.431   2.346  1.00  0.00     0.210 HD
ENDBRANCH   9  24
TORSDOF 7
