REMARK  4 active torsions:
REMARK  status: ('A' for Active; 'I' for Inactive)
REMARK    1  A    between atoms: N1_1  and  C1_4 
REMARK    2  A    between atoms: C5_10  and  C6_11 
REMARK    3  A    between atoms: C6_11  and  C7_12 
REMARK    4  A    between atoms: C11_19  and  C12_20 
ROOT
HETATM    1  C7  UNL     1       1.684  -2.086   0.010  1.00  0.00    -0.007 A 
HETATM    2  C8  UNL     1       1.044  -1.600  -1.096  1.00  0.00     0.047 A 
HETATM    3  C9  UNL     1      -0.232  -1.178  -0.933  1.00  0.00     0.068 A 
HETATM    4  N3  UNL     1      -1.055  -0.659  -1.901  1.00  0.00    -0.341 N 
ATOM      5  H3  UNL     1      -0.694  -0.569  -2.851  1.00  0.00     0.167 HD
HETATM    6  C10 UNL     1      -2.305  -0.267  -1.654  1.00  0.00     0.144 A 
HETATM    7  N4  UNL     1      -3.097   0.278  -2.739  1.00  0.00    -0.080 NA
HETATM    8  C11 UNL     1      -2.838  -0.368  -0.390  1.00  0.00     0.085 A 
HETATM    9  N6  UNL     1      -2.055  -0.873   0.578  1.00  0.00    -0.345 N 
ATOM     10  H6  UNL     1      -2.422  -0.960   1.526  1.00  0.00     0.167 HD
HETATM   11  C18 UNL     1      -0.769  -1.274   0.313  1.00  0.00     0.102 A 
HETATM   12  S1  UNL     1       0.505  -1.945   1.231  1.00  0.00    -0.074 SA
ENDROOT
BRANCH   1  13
HETATM   13  C6  UNL     1       3.096  -2.615   0.091  1.00  0.00     0.103 C 
BRANCH  13  14
HETATM   14  C5  UNL     1       3.972  -1.476   0.424  1.00  0.00     0.015 A 
HETATM   15  C4  UNL     1       4.214  -1.189   1.741  1.00  0.00     0.027 A 
HETATM   16  C3  UNL     1       5.029  -0.130   2.065  1.00  0.00     0.036 A 
HETATM   17  C2  UNL     1       5.595   0.634   1.072  1.00  0.00     0.093 A 
HETATM   18  N2  UNL     1       6.416   1.708   1.051  1.00  0.00    -0.188 N 
HETATM   19  C19 UNL     1       5.339   0.328  -0.242  1.00  0.00     0.148 A 
HETATM   20  C1  UNL     1       6.644   2.036  -0.228  1.00  0.00     0.678 A 
ATOM     21  H2  UNL     1       6.796   2.186   1.868  1.00  0.00     0.184 HD
HETATM   22  N8  UNL     1       5.991   1.199  -1.051  1.00  0.00    -0.175 N 
ATOM     23  H8  UNL     1       5.987   1.215  -2.071  1.00  0.00     0.186 HD
HETATM   24  N7  UNL     1       4.532  -0.721  -0.526  1.00  0.00    -0.343 N 
ATOM     25  H7  UNL     1       4.344  -0.944  -1.503  1.00  0.00     0.167 HD
BRANCH  20  26
HETATM   26  N1  UNL     1       7.394   3.025  -0.597  1.00  0.00    -0.234 N 
ATOM     27  H12 UNL     1       7.890   3.661   0.028  1.00  0.00     0.174 HD
ATOM     28  H11 UNL     1       7.568   3.275  -1.571  1.00  0.00     0.174 HD
ENDBRANCH  20  26
ENDBRANCH  13  14
ENDBRANCH   1  13
BRANCH   8  29
HETATM   29  C12 UNL     1      -4.193   0.054  -0.073  1.00  0.00    -0.006 A 
HETATM   30  C13 UNL     1      -4.450   0.848   1.053  1.00  0.00     0.015 A 
HETATM   31  C14 UNL     1      -5.730   1.234   1.349  1.00  0.00     0.027 A 
HETATM   32  C15 UNL     1      -6.808   0.856   0.553  1.00  0.00     0.046 A 
HETATM   33  N5  UNL     1      -8.079   1.314   0.956  1.00  0.00    -0.102 NA
HETATM   34  C16 UNL     1      -6.581   0.084  -0.547  1.00  0.00     0.027 A 
HETATM   35  C17 UNL     1      -5.291  -0.300  -0.837  1.00  0.00     0.015 A 
ENDBRANCH   8  29
TORSDOF 4
