REMARK  5 active torsions:
REMARK  status: ('A' for Active; 'I' for Inactive)
REMARK    1  A    between atoms: N1_1  and  C1_4 
REMARK    2  A    between atoms: C3_8  and  N3_9 
REMARK    3  A    between atoms: N3_9  and  C4_11 
REMARK    4  A    between atoms: C6_13  and  N4_14 
REMARK    5  A    between atoms: C13_28  and  C14_29 
ROOT
HETATM    1  C1  UNL     1       1.479  -0.052   1.278  1.00  0.00     0.110 A 
HETATM    2  N2  UNL     1       0.165  -0.107   0.959  1.00  0.00    -0.338 N 
ATOM      3  H2  UNL     1      -0.539   0.110   1.665  1.00  0.00     0.167 HD
HETATM    4  C2  UNL     1      -0.218  -0.448  -0.292  1.00  0.00     0.089 A 
HETATM    5  C3  UNL     1      -1.600  -0.493  -0.582  1.00  0.00     0.089 A 
HETATM    6  C9  UNL     1      -1.972  -0.840  -1.851  1.00  0.00     0.090 A 
HETATM    7  N6  UNL     1      -3.332  -0.910  -2.222  1.00  0.00    -0.099 NA
HETATM    8  C10 UNL     1      -0.980  -1.124  -2.773  1.00  0.00     0.117 A 
HETATM    9  N7  UNL     1       0.324  -1.077  -2.484  1.00  0.00    -0.362 N 
ATOM     10  H7  UNL     1       1.012  -1.296  -3.204  1.00  0.00     0.165 HD
HETATM   11  C11 UNL     1       0.735  -0.739  -1.238  1.00  0.00     0.062 A 
HETATM   12  C12 UNL     1       2.069  -0.680  -0.907  1.00  0.00     0.048 A 
HETATM   13  C13 UNL     1       2.472  -0.334   0.367  1.00  0.00     0.020 A 
ENDROOT
BRANCH   5  14
HETATM   14  N3  UNL     1      -2.364  -0.207   0.373  1.00  0.00    -0.339 N 
ATOM     15  H3  UNL     1      -1.884   0.023   1.243  1.00  0.00     0.167 HD
BRANCH  14  16
HETATM   16  C4  UNL     1      -3.757  -0.149   0.450  1.00  0.00     0.107 A 
HETATM   17  C5  UNL     1      -4.423   1.065   0.301  1.00  0.00     0.084 A 
HETATM   18  C6  UNL     1      -5.793   1.194   0.377  1.00  0.00     0.107 A 
HETATM   19  C7  UNL     1      -6.498   0.032   0.614  1.00  0.00     0.053 A 
HETATM   20  C8  UNL     1      -5.869  -1.194   0.768  1.00  0.00     0.092 A 
HETATM   21  N5  UNL     1      -4.529  -1.245   0.681  1.00  0.00    -0.352 N 
ATOM     22  H5  UNL     1      -4.069  -2.148   0.794  1.00  0.00     0.166 HD
BRANCH  18  23
HETATM   23  N4  UNL     1      -6.460   2.440   0.222  1.00  0.00    -0.116 N 
HETATM   24  O1  UNL     1      -5.834   3.504   0.004  1.00  0.00    -0.532 OA
HETATM   25  O2  UNL     1      -7.830   2.456   0.317  1.00  0.00    -0.532 OA
ENDBRANCH  18  23
ENDBRANCH  14  16
ENDBRANCH   5  14
BRANCH   1  26
HETATM   26  N1  UNL     1       1.773   0.286   2.488  1.00  0.00    -0.385 N 
ATOM     27  H12 UNL     1       1.037   0.495   3.163  1.00  0.00     0.157 HD
ATOM     28  H11 UNL     1       2.763   0.327   2.728  1.00  0.00     0.157 HD
ENDBRANCH   1  26
BRANCH  13  29
HETATM   29  C14 UNL     1       3.885  -0.283   0.700  1.00  0.00    -0.020 A 
HETATM   30  C15 UNL     1       4.345  -0.892   1.836  1.00  0.00     0.012 A 
HETATM   31  C16 UNL     1       5.700  -0.850   2.180  1.00  0.00     0.003 A 
HETATM   32  C17 UNL     1       6.594  -0.197   1.380  1.00  0.00     0.026 A 
HETATM   33  C18 UNL     1       6.119   0.418   0.228  1.00  0.00     0.047 A 
HETATM   34  N8  UNL     1       7.022   1.102  -0.620  1.00  0.00    -0.102 NA
HETATM   35  C19 UNL     1       4.799   0.385  -0.118  1.00  0.00     0.039 A 
ENDBRANCH  13  29
TORSDOF 5
