REMARK  1 active torsions:
REMARK  status: ('A' for Active; 'I' for Inactive)
REMARK    1  A    between atoms: C2_2  and  C3_3 
ROOT
HETATM    1  C3  UNL     1       1.343   0.125  -0.726  1.00  0.00    -0.005 C 
HETATM    2  C4  UNL     1       0.232   1.053  -0.476  1.00  0.00     0.016 C 
HETATM    3  C5  UNL     1      -1.071   0.294  -0.802  1.00  0.00     0.059 C 
HETATM    4  C6  UNL     1      -1.618  -0.121   0.549  1.00  0.00     0.060 C 
HETATM    5  C7  UNL     1      -2.886  -0.905   0.462  1.00  0.00     0.046 C 
HETATM    6  C8  UNL     1      -1.955   1.198   1.267  1.00  0.00     0.046 C 
HETATM    7  O1  UNL     1      -0.617  -0.715   1.252  1.00  0.00    -0.380 OA
HETATM    8  C9  UNL     1       0.143  -1.635   0.601  1.00  0.00     0.176 C 
HETATM    9  C10 UNL     1       0.654  -1.224  -0.744  1.00  0.00     0.053 C 
HETATM   10  C11 UNL     1      -0.556  -0.864  -1.604  1.00  0.00     0.125 C 
HETATM   11 CL1  UNL     1      -1.666  -2.174  -1.832  1.00  0.00    -0.101 Cl
HETATM   12 CL2  UNL     1      -0.057  -0.259  -3.194  1.00  0.00    -0.101 Cl
ENDROOT
BRANCH   1  13
HETATM   13  C2  UNL     1       2.508   0.139   0.172  1.00  0.00     0.001 C 
HETATM   14  C1  UNL     1       3.283   1.377   0.298  1.00  0.00     0.005 C 
ENDBRANCH   1  13
TORSDOF 1
