REMARK  2 active torsions:
REMARK  status: ('A' for Active; 'I' for Inactive)
REMARK    1  A    between atoms: C2_2  and  C3_3 
REMARK    2  A    between atoms: C3_3  and  C4_4 
ROOT
HETATM    1  C4  UNL     1       0.527  -0.804   0.085  1.00  0.00     0.132 C 
HETATM    2  C5  UNL     1       0.156   0.205   1.087  1.00  0.00     0.050 C 
HETATM    3  C6  UNL     1      -1.301   0.546   1.203  1.00  0.00     0.060 C 
HETATM    4  C7  UNL     1      -1.694   1.759   0.424  1.00  0.00     0.011 C 
HETATM    5  C8  UNL     1      -1.366   1.784  -1.010  1.00  0.00     0.001 C 
HETATM    6  C9  UNL     1      -0.228   0.995  -1.496  1.00  0.00     0.009 C 
HETATM    7  C10 UNL     1      -0.091  -0.423  -1.246  1.00  0.00     0.052 C 
HETATM    8  C11 UNL     1      -1.151  -1.377  -1.041  1.00  0.00     0.199 C 
HETATM    9  C12 UNL     1      -2.442  -1.010  -0.416  1.00  0.00     0.113 C 
HETATM   10  C13 UNL     1      -2.265  -0.555   1.014  1.00  0.00     0.249 C 
HETATM   11  F1  UNL     1      -2.018  -1.622   1.863  1.00  0.00    -0.206 F 
HETATM   12  F2  UNL     1      -3.520  -0.067   1.409  1.00  0.00    -0.206 F 
HETATM   13  N1  UNL     1      -0.354  -1.992   0.035  1.00  0.00    -0.061 N 
ATOM     14  H11 UNL     1      -0.816  -2.315   0.885  1.00  0.00     0.278 HD
ATOM     15  H12 UNL     1       0.052  -2.917  -0.103  1.00  0.00     0.278 HD
ENDROOT
BRANCH   1  16
HETATM   16  C3  UNL     1       1.912  -1.284   0.102  1.00  0.00     0.039 C 
BRANCH  16  17
HETATM   17  C2  UNL     1       3.063  -0.414  -0.103  1.00  0.00    -0.002 C 
HETATM   18  C1  UNL     1       3.292   0.705   0.878  1.00  0.00     0.005 C 
ENDBRANCH  16  17
ENDBRANCH   1  16
TORSDOF 2
