REMARK  3 active torsions:
REMARK  status: ('A' for Active; 'I' for Inactive)
REMARK    1  A    between atoms: C2_2  and  C3_5 
REMARK    2  A    between atoms: C3_5  and  C4_6 
REMARK       I    between atoms: C4_6  and  N1_8 
REMARK    3  A    between atoms: N1_8  and  C5_10 
ROOT
HETATM    1  C4  UNL     1       1.468  -0.363  -0.151  1.00  0.00     0.220 C 
HETATM    2  O1  UNL     1       1.307   0.054  -1.326  1.00  0.00    -0.274 OA
HETATM    3  N1  UNL     1       0.396  -0.390   0.775  1.00  0.00    -0.356 N 
ATOM      4  H1  UNL     1       0.578  -0.737   1.717  1.00  0.00     0.162 HD
ENDROOT
BRANCH   3   5
HETATM    5  C5  UNL     1      -0.932   0.046   0.454  1.00  0.00     0.084 C 
HETATM    6  C6  UNL     1      -1.409   1.162   1.366  1.00  0.00     0.025 C 
HETATM    7  C7  UNL     1      -2.927   1.221   1.331  1.00  0.00     0.002 C 
HETATM    8  C8  UNL     1      -3.447   0.706   0.007  1.00  0.00     0.000 C 
HETATM    9  C9  UNL     1      -3.154  -0.767  -0.166  1.00  0.00     0.002 C 
HETATM   10  C10 UNL     1      -1.886  -1.104   0.586  1.00  0.00     0.025 C 
ENDBRANCH   3   5
BRANCH   1  11
HETATM   11  C3  UNL     1       2.825  -0.822   0.220  1.00  0.00     0.144 C 
BRANCH  11  12
HETATM   12  C2  UNL     1       3.806  -0.711  -0.898  1.00  0.00     0.118 C 
HETATM   13  C1  UNL     1       3.984   0.687  -1.400  1.00  0.00     0.051 C 
HETATM   14 CL1  UNL     1       3.414  -1.766  -2.267  1.00  0.00    -0.102 Cl
HETATM   15 CL2  UNL     1       5.393  -1.270  -0.266  1.00  0.00    -0.102 Cl
ENDBRANCH  11  12
ENDBRANCH   1  11
TORSDOF 3
