REMARK  2 active torsions:
REMARK  status: ('A' for Active; 'I' for Inactive)
REMARK    1  A    between atoms: C2_2  and  C3_3 
REMARK    2  A    between atoms: C3_3  and  C4_4 
ROOT
HETATM    1  C3  UNL     1       0.635   0.424  -0.247  1.00  0.00     0.023 C 
HETATM    2  C5  UNL     1      -0.599   0.547  -1.125  1.00  0.00     0.024 C 
HETATM    3  C6  UNL     1      -1.346  -0.786  -1.175  1.00  0.00     0.007 C 
HETATM    4  C7  UNL     1      -1.799  -1.204   0.197  1.00  0.00     0.002 C 
HETATM    5  C8  UNL     1      -0.870  -0.848   1.301  1.00  0.00     0.034 C 
HETATM    6  C9  UNL     1      -0.046   0.393   1.102  1.00  0.00     0.197 C 
HETATM    7  N1  UNL     1      -1.017   1.501   1.014  1.00  0.00    -0.070 N 
ATOM      8  H11 UNL     1      -0.628   2.406   1.279  1.00  0.00     0.277 HD
ATOM      9  H12 UNL     1      -1.742   1.465   1.730  1.00  0.00     0.277 HD
HETATM   10  C10 UNL     1      -1.530   1.468  -0.322  1.00  0.00     0.238 C 
ENDROOT
BRANCH   1  11
HETATM   11  C2  UNL     1       1.357  -0.878  -0.487  1.00  0.00     0.010 C 
HETATM   12  C1  UNL     1       2.527  -1.065   0.466  1.00  0.00     0.006 C 
ENDBRANCH   1  11
BRANCH   1  13
HETATM   13  C4  UNL     1       1.514   1.612  -0.421  1.00  0.00     0.189 C 
HETATM   14 CL1  UNL     1       2.183   1.716  -2.072  1.00  0.00    -0.107 Cl
HETATM   15 CL2  UNL     1       0.773   3.165  -0.022  1.00  0.00    -0.107 Cl
ENDBRANCH   1  13
TORSDOF 2
