REMARK  2 active torsions:
REMARK  status: ('A' for Active; 'I' for Inactive)
REMARK    1  A    between atoms: C2_7  and  N3_8 
REMARK    2  A    between atoms: N3_8  and  N4_10 
ROOT
HETATM    1  N3  UNL     1      -0.699  -1.025   0.402  1.00  0.00    -0.133 N 
ATOM      2  H3  UNL     1      -0.661  -1.972   0.780  1.00  0.00     0.205 HD
ENDROOT
BRANCH   1   3
HETATM    3  C2  UNL     1      -1.834  -0.433   0.374  1.00  0.00     0.715 A 
HETATM    4  N2  UNL     1      -2.969  -1.007   0.819  1.00  0.00    -0.127 N 
HETATM    5  N1  UNL     1      -3.987  -0.180   0.674  1.00  0.00    -0.237 N 
ATOM      6  H2  UNL     1      -3.032  -1.946   1.212  1.00  0.00     0.206 HD
HETATM    7  C1  UNL     1      -3.507   0.940   0.130  1.00  0.00     0.353 A 
ATOM      8  H1  UNL     1      -4.957  -0.362   0.929  1.00  0.00     0.192 HD
HETATM    9  O1  UNL     1      -4.160   1.977  -0.169  1.00  0.00    -0.245 OA
HETATM   10  N6  UNL     1      -2.169   0.785  -0.058  1.00  0.00    -0.137 N 
ATOM     11  H6  UNL     1      -1.534   1.476  -0.458  1.00  0.00     0.189 HD
ENDBRANCH   1   3
BRANCH   1  12
HETATM   12  N4  UNL     1       0.485  -0.454  -0.052  1.00  0.00    -0.310 N 
HETATM   13  C3  UNL     1       1.009   0.785   0.428  1.00  0.00     0.170 C 
HETATM   14  C4  UNL     1       2.492   0.731   0.706  1.00  0.00     0.253 C 
HETATM   15  N5  UNL     1       3.228  -0.006  -0.269  1.00  0.00    -0.072 N 
HETATM   16  C5  UNL     1       2.454  -0.358  -1.439  1.00  0.00     0.253 C 
ATOM     17  H52 UNL     1       4.075   0.496  -0.536  1.00  0.00     0.277 HD
ATOM     18  H51 UNL     1       3.647  -0.837   0.149  1.00  0.00     0.277 HD
HETATM   19  C6  UNL     1       1.229  -1.165  -1.076  1.00  0.00     0.170 C 
ENDBRANCH   1  12
TORSDOF 2
