REMARK  4 active torsions:
REMARK  status: ('A' for Active; 'I' for Inactive)
REMARK    1  A    between atoms: N1_1  and  C1_5 
REMARK    2  A    between atoms: C1_5  and  C2_6 
REMARK       I    between atoms: C2_6  and  N2_8 
REMARK    3  A    between atoms: N2_8  and  C3_10 
REMARK    4  A    between atoms: C3_10  and  N3_12 
ROOT
HETATM    1  C3  UNL     1       0.915   0.393   0.057  1.00  0.00     0.181 C 
HETATM    2  S1  UNL     1       1.222   1.946  -0.340  1.00  0.00    -0.040 SA
ENDROOT
BRANCH   1   3
HETATM    3  N2  UNL     1      -0.401  -0.126   0.170  1.00  0.00    -0.302 N 
HETATM    4  C2  UNL     1      -1.535   0.697  -0.061  1.00  0.00     0.249 C 
HETATM    5  O1  UNL     1      -1.350   1.898  -0.369  1.00  0.00    -0.271 OA
ATOM      6  H2  UNL     1      -0.534  -1.106   0.421  1.00  0.00     0.171 HD
BRANCH   4   7
HETATM    7  C1  UNL     1      -2.915   0.153   0.057  1.00  0.00     0.332 C 
BRANCH   7   8
HETATM    8  N1  UNL     1      -2.930  -1.229   0.414  1.00  0.00    -0.071 N 
ATOM      9  H13 UNL     1      -2.372  -1.782  -0.237  1.00  0.00     0.274 HD
ATOM     10  H12 UNL     1      -2.397  -1.393   1.268  1.00  0.00     0.274 HD
ATOM     11  H11 UNL     1      -3.876  -1.602   0.495  1.00  0.00     0.274 HD
ENDBRANCH   7   8
ENDBRANCH   4   7
ENDBRANCH   1   3
BRANCH   1  12
HETATM   12  N3  UNL     1       2.038  -0.464   0.297  1.00  0.00    -0.302 N 
HETATM   13  C4  UNL     1       3.119  -0.352  -0.421  1.00  0.00     0.218 A 
HETATM   14  N4  UNL     1       4.354  -1.011  -0.444  1.00  0.00    -0.255 N 
HETATM   15  N6  UNL     1       3.549   0.463  -1.487  1.00  0.00    -0.255 N 
HETATM   16  N5  UNL     1       4.728  -0.271  -1.403  1.00  0.00    -0.237 N 
ATOM     17  H4  UNL     1       4.777  -1.771   0.089  1.00  0.00     0.191 HD
ATOM     18  H5  UNL     1       5.598  -0.228  -1.933  1.00  0.00     0.208 HD
ATOM     19  H6  UNL     1       3.175   1.226  -2.051  1.00  0.00     0.191 HD
ATOM     20  H3  UNL     1       1.991  -1.166   1.035  1.00  0.00     0.171 HD
ENDBRANCH   1  12
TORSDOF 4
