REMARK  5 active torsions:
REMARK  status: ('A' for Active; 'I' for Inactive)
REMARK    1  A    between atoms: O1_2  and  N1_3 
REMARK    2  A    between atoms: N1_3  and  C2_5 
REMARK    3  A    between atoms: C2_5  and  C3_7 
REMARK       I    between atoms: N2_11  and  C7_12 
REMARK    4  A    between atoms: C7_12  and  C8_14 
REMARK    5  A    between atoms: C8_14  and  N3_16 
REMARK       I    between atoms: N3_16  and  C10_18 
ROOT
HETATM    1  C3  UNL     1      -1.833  -1.124  -0.924  1.00  0.00     0.150 C 
HETATM    2  C4  UNL     1      -1.758  -2.643  -0.664  1.00  0.00     0.034 C 
HETATM    3  C5  UNL     1      -0.470  -3.002  -1.396  1.00  0.00     0.022 C 
HETATM    4  C6  UNL     1       0.249  -1.679  -1.626  1.00  0.00     0.127 C 
HETATM    5  N2  UNL     1      -0.453  -0.739  -0.725  1.00  0.00    -0.339 N 
HETATM    6  C7  UNL     1       0.192   0.224   0.058  1.00  0.00     0.242 C 
HETATM    7  O2  UNL     1      -0.500   0.979   0.777  1.00  0.00    -0.271 OA
ENDROOT
BRANCH   1   8
HETATM    8  C2  UNL     1      -2.823  -0.479  -0.089  1.00  0.00     0.121 C 
HETATM    9  S1  UNL     1      -3.500  -1.298   1.145  1.00  0.00    -0.061 SA
BRANCH   8  10
HETATM   10  N1  UNL     1      -3.207   0.860  -0.338  1.00  0.00    -0.258 N 
ATOM     11  H1  UNL     1      -2.774   1.361  -1.114  1.00  0.00     0.195 HD
BRANCH  10  12
HETATM   12  O1  UNL     1      -4.138   1.504   0.426  1.00  0.00    -0.284 OA
HETATM   13  C1  UNL     1      -3.674   2.783   0.706  1.00  0.00     0.237 C 
ENDBRANCH  10  12
ENDBRANCH   8  10
ENDBRANCH   1   8
BRANCH   6  14
HETATM   14  C8  UNL     1       1.660   0.421   0.100  1.00  0.00     0.172 C 
HETATM   15  C9  UNL     1       2.277  -0.790   0.778  1.00  0.00     0.042 C 
BRANCH  14  16
HETATM   16  N3  UNL     1       2.018   1.554   0.944  1.00  0.00    -0.352 N 
HETATM   17  C10 UNL     1       3.399   1.858   1.063  1.00  0.00     0.182 C 
HETATM   18  N4  UNL     1       3.797   2.988   1.555  1.00  0.00    -0.374 N 
HETATM   19  N5  UNL     1       4.414   0.955   0.656  1.00  0.00    -0.064 NA
ATOM     20  H42 UNL     1       3.067   3.637   1.848  1.00  0.00     0.158 HD
ATOM     21  H41 UNL     1       4.790   3.207   1.641  1.00  0.00     0.158 HD
ATOM     22  H3  UNL     1       1.308   2.104   1.427  1.00  0.00     0.163 HD
ENDBRANCH  14  16
ENDBRANCH   6  14
TORSDOF 5
