REMARK  5 active torsions:
REMARK  status: ('A' for Active; 'I' for Inactive)
REMARK    1  A    between atoms: N1_2  and  C2_4 
REMARK    2  A    between atoms: N2_5  and  N3_7 
REMARK       I    between atoms: N3_7  and  C3_9 
REMARK       I    between atoms: C3_9  and  N5_13 
REMARK    3  A    between atoms: N5_13  and  C4_15 
REMARK    4  A    between atoms: C4_15  and  C5_16 
REMARK    5  A    between atoms: C5_16  and  O2_18 
ROOT
HETATM    1  N3  UNL     1       1.620  -0.916  -0.316  1.00  0.00    -0.132 N 
ATOM      2  H3  UNL     1       1.576  -1.501   0.518  1.00  0.00     0.205 HD
HETATM    3  C3  UNL     1       0.586  -1.022  -1.283  1.00  0.00     0.688 C 
HETATM    4  N4  UNL     1       0.978  -0.933  -2.516  1.00  0.00    -0.234 N 
ATOM      5  H41 UNL     1       0.235  -1.009  -3.211  1.00  0.00     0.174 HD
ATOM      6  H42 UNL     1       1.976  -0.797  -2.676  1.00  0.00     0.174 HD
HETATM    7  N5  UNL     1      -0.776  -1.208  -1.064  1.00  0.00    -0.180 N 
ATOM      8  H5  UNL     1      -1.200  -2.046  -1.462  1.00  0.00     0.181 HD
ENDROOT
BRANCH   7   9
HETATM    9  C4  UNL     1      -1.657  -0.307  -0.313  1.00  0.00     0.307 C 
HETATM   10  C7  UNL     1      -3.042  -0.862  -0.062  1.00  0.00     0.082 C 
HETATM   11  C8  UNL     1      -2.717  -2.254   0.430  1.00  0.00     0.039 C 
HETATM   12  C11 UNL     1      -2.928  -0.141   1.241  1.00  0.00     0.250 C 
HETATM   13  C9  UNL     1      -1.531  -1.867   1.313  1.00  0.00     0.241 C 
HETATM   14  N6  UNL     1      -1.511  -0.426   1.102  1.00  0.00    -0.033 N 
HETATM   15  C10 UNL     1      -0.609   0.357   1.820  1.00  0.00     0.276 C 
BRANCH   9  16
HETATM   16  C5  UNL     1      -1.692   1.044  -0.900  1.00  0.00     0.317 C 
HETATM   17  O1  UNL     1      -0.999   1.267  -1.927  1.00  0.00    -0.260 OA
BRANCH  16  18
HETATM   18  O2  UNL     1      -2.414   2.125  -0.448  1.00  0.00    -0.323 OA
HETATM   19  C6  UNL     1      -2.418   3.394  -1.039  1.00  0.00     0.213 C 
ENDBRANCH  16  18
ENDBRANCH   9  16
ENDBRANCH   7   9
BRANCH   1  20
HETATM   20  N2  UNL     1       2.699  -0.035  -0.468  1.00  0.00    -0.282 N 
HETATM   21  C2  UNL     1       3.919  -0.464  -0.589  1.00  0.00     0.193 C 
ATOM     22  H2  UNL     1       2.522   0.969  -0.484  1.00  0.00     0.188 HD
BRANCH  21  23
HETATM   23  N1  UNL     1       5.010   0.435  -0.742  1.00  0.00    -0.389 N 
HETATM   24  C1  UNL     1       5.638   1.083   0.408  1.00  0.00     0.147 C 
ATOM     25  H1  UNL     1       5.363   0.633  -1.678  1.00  0.00     0.159 HD
ENDBRANCH  21  23
ENDBRANCH   1  20
TORSDOF 5
