REMARK  4 active torsions:
REMARK  status: ('A' for Active; 'I' for Inactive)
REMARK    1  A    between atoms: C1_2  and  C2_4 
REMARK    2  A    between atoms: C2_4  and  C3_5 
REMARK    3  A    between atoms: C3_5  and  C4_6 
REMARK    4  A    between atoms: C4_6  and  N2_7 
ROOT
HETATM    1  N2  UNL     1       0.438   1.539   0.097  1.00  0.00    -0.226 N 
ATOM      2  H2  UNL     1       0.611   2.531   0.261  1.00  0.00     0.177 HD
HETATM    3  C5  UNL     1      -0.767   1.044   0.067  1.00  0.00     0.679 A 
HETATM    4  N3  UNL     1      -1.929   1.728   0.240  1.00  0.00    -0.184 N 
ATOM      5  H3  UNL     1      -1.990   2.731   0.417  1.00  0.00     0.184 HD
HETATM    6  C6  UNL     1      -2.978   0.911   0.147  1.00  0.00     0.148 A 
HETATM    7  C7  UNL     1      -2.485  -0.347  -0.095  1.00  0.00     0.137 A 
HETATM    8  N4  UNL     1      -1.158  -0.227  -0.136  1.00  0.00    -0.185 N 
ATOM      9  H4  UNL     1      -0.518  -1.004  -0.301  1.00  0.00     0.184 HD
HETATM   10  C8  UNL     1      -3.340  -1.517  -0.258  1.00  0.00     0.269 A 
HETATM   11  O2  UNL     1      -2.841  -2.658  -0.480  1.00  0.00    -0.280 OA
HETATM   12  C9  UNL     1      -4.793  -1.376  -0.166  1.00  0.00     0.300 A 
HETATM   13  O3  UNL     1      -5.550  -2.373  -0.304  1.00  0.00    -0.264 OA
HETATM   14  N5  UNL     1      -5.291  -0.068   0.084  1.00  0.00    -0.285 N 
ATOM     15  H5  UNL     1      -6.299   0.069   0.154  1.00  0.00     0.172 HD
HETATM   16  C10 UNL     1      -4.434   1.056   0.240  1.00  0.00     0.278 A 
HETATM   17  O4  UNL     1      -4.897   2.223   0.464  1.00  0.00    -0.266 OA
ENDROOT
BRANCH   1  18
HETATM   18  C4  UNL     1       1.531   0.584  -0.120  1.00  0.00     0.138 C 
BRANCH  18  19
HETATM   19  C3  UNL     1       2.856   1.253  -0.185  1.00  0.00     0.029 C 
BRANCH  19  20
HETATM   20  C2  UNL     1       3.939   0.235  -0.412  1.00  0.00     0.101 C 
BRANCH  20  21
HETATM   21  C1  UNL     1       4.082  -0.775   0.633  1.00  0.00     0.231 C 
HETATM   22  N1  UNL     1       4.993  -1.859   0.422  1.00  0.00    -0.062 NA
HETATM   23  O1  UNL     1       3.464  -0.785   1.734  1.00  0.00    -0.277 OA
ENDBRANCH  20  21
ENDBRANCH  19  20
ENDBRANCH  18  19
ENDBRANCH   1  18
TORSDOF 4
