REMARK  14 active torsions:
REMARK  status: ('A' for Active; 'I' for Inactive)
REMARK    1  A    between atoms: C2_2  and  C3_3 
REMARK    2  A    between atoms: C3_3  and  N1_4 
REMARK    3  A    between atoms: C4_5  and  O1_6 
REMARK    4  A    between atoms: C7_10  and  O2_11 
REMARK    5  A    between atoms: N2_17  and  C11_18 
REMARK    6  A    between atoms: C11_18  and  C12_19 
REMARK    7  A    between atoms: C12_19  and  C13_20 
REMARK    8  A    between atoms: C13_20  and  O5_22 
REMARK    9  A    between atoms: O5_22  and  C14_23 
REMARK   10  A    between atoms: C18_28  and  C19_29 
REMARK   11  A    between atoms: C19_29  and  C20_30 
REMARK   12  A    between atoms: C22_32  and  O7_33 
REMARK   13  A    between atoms: O7_33  and  C23_34 
REMARK   14  A    between atoms: C25_36  and  N3_37 
ROOT
HETATM    1  N1  UNL     1      -0.087   2.563   0.875  1.00  0.00    -0.308 N 
HETATM    2  C4  UNL     1      -0.634   1.318   0.923  1.00  0.00     0.151 A 
HETATM    3  C5  UNL     1       0.045   0.498   0.020  1.00  0.00     0.010 A 
HETATM    4  C6  UNL     1       0.992   1.332  -0.532  1.00  0.00     0.022 A 
HETATM    5  C7  UNL     1       0.902   2.595  -0.002  1.00  0.00     0.152 A 
HETATM    6  C8  UNL     1       1.813   0.568  -1.500  1.00  0.00     0.082 C 
HETATM    7  C9  UNL     1       1.670   1.108  -2.908  1.00  0.00     0.032 C 
HETATM    8  C10 UNL     1       3.252   0.622  -1.132  1.00  0.00     0.240 C 
HETATM    9  O3  UNL     1       3.941   1.680  -1.215  1.00  0.00    -0.272 OA
HETATM   10  N2  UNL     1       3.719  -0.632  -0.693  1.00  0.00    -0.287 N 
HETATM   11  C16 UNL     1       2.563  -1.454  -0.570  1.00  0.00     0.233 C 
HETATM   12  O6  UNL     1       2.453  -2.525   0.077  1.00  0.00    -0.272 OA
HETATM   13  C17 UNL     1       1.445  -0.856  -1.342  1.00  0.00     0.109 C 
HETATM   14  C18 UNL     1       0.145  -0.858  -0.559  1.00  0.00     0.044 C 
ENDROOT
BRANCH  14  15
HETATM   15  C19 UNL     1      -0.937  -1.195  -1.544  1.00  0.00     0.067 C 
BRANCH  15  16
HETATM   16  C20 UNL     1      -2.312  -1.145  -1.057  1.00  0.00     0.014 A 
HETATM   17  C21 UNL     1      -3.038  -2.128  -0.419  1.00  0.00     0.065 A 
HETATM   18  C22 UNL     1      -4.303  -1.645  -0.176  1.00  0.00     0.122 A 
HETATM   19  C25 UNL     1      -4.356  -0.343  -0.674  1.00  0.00     0.240 A 
HETATM   20  N4  UNL     1      -3.148  -0.099  -1.184  1.00  0.00    -0.337 N 
ATOM     21  H4  UNL     1      -2.887   0.784  -1.622  1.00  0.00     0.167 HD
BRANCH  18  22
HETATM   22  O7  UNL     1      -5.345  -2.292   0.439  1.00  0.00    -0.348 OA
BRANCH  22  23
HETATM   23  C23 UNL     1      -5.377  -3.577   0.959  1.00  0.00     0.171 C 
HETATM   24  C24 UNL     1      -5.120  -4.687  -0.003  1.00  0.00     0.034 C 
ENDBRANCH  22  23
ENDBRANCH  18  22
BRANCH  19  25
HETATM   25  N3  UNL     1      -5.499   0.510  -0.620  1.00  0.00    -0.031 N 
HETATM   26  C26 UNL     1      -5.121   1.899  -0.847  1.00  0.00     0.280 C 
HETATM   27  C27 UNL     1      -6.136   0.433   0.692  1.00  0.00     0.280 C 
HETATM   28  C28 UNL     1      -6.474   0.171  -1.643  1.00  0.00     0.280 C 
ENDBRANCH  19  25
ENDBRANCH  15  16
ENDBRANCH  14  15
BRANCH   2  29
HETATM   29  O1  UNL     1      -1.682   0.950   1.742  1.00  0.00    -0.345 OA
ATOM     30  H1  UNL     1      -2.064   0.081   1.776  1.00  0.00     0.219 HD
ENDBRANCH   2  29
BRANCH   1  31
HETATM   31  C3  UNL     1      -0.556   3.674   1.687  1.00  0.00     0.133 C 
BRANCH  31  32
HETATM   32  C2  UNL     1       0.170   3.736   3.007  1.00  0.00     0.016 C 
HETATM   33  C1  UNL     1      -0.390   4.922   3.780  1.00  0.00     0.006 C 
ENDBRANCH  31  32
ENDBRANCH   1  31
BRANCH   5  34
HETATM   34  O2  UNL     1       1.688   3.693  -0.317  1.00  0.00    -0.345 OA
ATOM     35  H2  UNL     1       2.399   3.716  -0.947  1.00  0.00     0.219 HD
ENDBRANCH   5  34
BRANCH  10  36
HETATM   36  C11 UNL     1       5.104  -0.983  -0.430  1.00  0.00     0.145 C 
BRANCH  36  37
HETATM   37  C12 UNL     1       5.507  -0.722   0.992  1.00  0.00     0.131 C 
BRANCH  37  38
HETATM   38  C13 UNL     1       6.939  -1.103   1.145  1.00  0.00     0.260 C 
HETATM   39  O4  UNL     1       7.536  -1.014   2.266  1.00  0.00    -0.265 OA
BRANCH  38  40
HETATM   40  O5  UNL     1       7.710  -1.577   0.086  1.00  0.00    -0.322 OA
BRANCH  40  41
HETATM   41  C14 UNL     1       9.058  -1.937   0.217  1.00  0.00     0.174 C 
HETATM   42  C15 UNL     1       9.334  -3.036   1.189  1.00  0.00     0.034 C 
ENDBRANCH  40  41
ENDBRANCH  38  40
ENDBRANCH  37  38
ENDBRANCH  36  37
ENDBRANCH  10  36
TORSDOF 14
