REMARK  13 active torsions:
REMARK  status: ('A' for Active; 'I' for Inactive)
REMARK    1  A    between atoms: C3_3  and  O1_4 
REMARK    2  A    between atoms: C3_3  and  C4_6 
REMARK    3  A    between atoms: C4_6  and  C5_7 
REMARK    4  A    between atoms: C6_8  and  O2_9 
REMARK    5  A    between atoms: O2_9  and  C7_10 
REMARK    6  A    between atoms: C8_11  and  O3_12 
REMARK    7  A    between atoms: C11_15  and  C12_16 
REMARK    8  A    between atoms: C12_16  and  N1_17 
REMARK    9  A    between atoms: C16_21  and  C17_22 
REMARK   10  A    between atoms: C21_28  and  S1_29 
REMARK   11  A    between atoms: S1_29  and  C22_30 
REMARK   12  A    between atoms: C22_30  and  C23_31 
REMARK   13  A    between atoms: C23_31  and  N3_32 
ROOT
HETATM    1  C1  UNL     1      -0.443   5.742   2.394  1.00  0.00     0.015 C 
HETATM    2  C2  UNL     1       0.269   5.158   1.601  1.00  0.00    -0.085 C 
HETATM    3  C3  UNL     1       1.147   4.455   0.615  1.00  0.00     0.200 C 
ENDROOT
BRANCH   3   4
HETATM    4  O1  UNL     1       0.863   5.095  -0.596  1.00  0.00    -0.383 OA
ATOM      5  H1  UNL     1       1.421   4.649  -1.222  1.00  0.00     0.211 HD
ENDBRANCH   3   4
BRANCH   3   6
HETATM    6  C4  UNL     1       0.751   3.047   0.671  1.00  0.00     0.093 C 
BRANCH   6   7
HETATM    7  C5  UNL     1       1.399   2.060  -0.166  1.00  0.00     0.065 A 
HETATM    8  C6  UNL     1       0.797   0.788  -0.258  1.00  0.00     0.162 A 
HETATM    9  N2  UNL     1       1.419  -0.171  -0.968  1.00  0.00    -0.316 N 
HETATM   10  C21 UNL     1       2.589  -0.008  -1.610  1.00  0.00     0.149 A 
ATOM     11  H2  UNL     1       0.971  -1.086  -1.023  1.00  0.00     0.170 HD
HETATM   12  N5  UNL     1       3.151   1.205  -1.519  1.00  0.00    -0.303 N 
HETATM   13  C27 UNL     1       2.588   2.213  -0.826  1.00  0.00     0.258 A 
ATOM     14  H5  UNL     1       4.039   1.371  -1.993  1.00  0.00     0.171 HD
HETATM   15  O5  UNL     1       3.126   3.347  -0.748  1.00  0.00    -0.267 OA
BRANCH   8  16
HETATM   16  O2  UNL     1      -0.404   0.521   0.346  1.00  0.00    -0.290 OA
BRANCH  16  17
HETATM   17  C7  UNL     1      -1.646   0.363  -0.173  1.00  0.00     0.118 A 
HETATM   18  C8  UNL     1      -2.173   1.102  -1.209  1.00  0.00     0.103 A 
HETATM   19  C10 UNL     1      -3.462   0.884  -1.676  1.00  0.00     0.048 A 
HETATM   20  C11 UNL     1      -4.259  -0.084  -1.116  1.00  0.00    -0.027 A 
HETATM   21  C15 UNL     1      -3.710  -0.813  -0.080  1.00  0.00     0.019 A 
HETATM   22  C16 UNL     1      -2.443  -0.633   0.415  1.00  0.00    -0.013 A 
BRANCH  18  23
HETATM   23  O3  UNL     1      -1.473   2.097  -1.856  1.00  0.00    -0.353 OA
HETATM   24  C9  UNL     1      -2.038   2.827  -2.908  1.00  0.00     0.210 C 
ENDBRANCH  18  23
BRANCH  20  25
HETATM   25  C12 UNL     1      -5.648  -0.317  -1.628  1.00  0.00     0.310 C 
BRANCH  25  26
HETATM   26  N1  UNL     1      -6.439  -0.893  -0.547  1.00  0.00     0.084 N 
HETATM   27  C13 UNL     1      -6.497   0.030   0.588  1.00  0.00     0.309 C 
HETATM   28  C14 UNL     1      -7.825  -1.049  -1.012  1.00  0.00     0.309 C 
ENDBRANCH  25  26
ENDBRANCH  20  25
BRANCH  22  29
HETATM   29  C17 UNL     1      -2.007  -1.455   1.523  1.00  0.00    -0.021 C 
HETATM   30  C18 UNL     1      -3.103  -2.415   1.932  1.00  0.00     0.019 C 
HETATM   31  C19 UNL     1      -0.846  -2.327   1.090  1.00  0.00     0.019 C 
HETATM   32  C20 UNL     1      -1.606  -0.713   2.765  1.00  0.00     0.019 C 
ENDBRANCH  22  29
ENDBRANCH  16  17
ENDBRANCH   8  16
BRANCH  10  33
HETATM   33  S1  UNL     1       3.379  -1.304  -2.534  1.00  0.00    -0.092 SA
BRANCH  33  34
HETATM   34  C22 UNL     1       4.538  -2.266  -1.484  1.00  0.00     0.102 C 
BRANCH  34  35
HETATM   35  C23 UNL     1       5.668  -1.361  -1.089  1.00  0.00     0.138 C 
BRANCH  35  36
HETATM   36  N3  UNL     1       6.666  -1.973  -0.268  1.00  0.00    -0.332 N 
HETATM   37  C24 UNL     1       7.838  -2.645  -0.816  1.00  0.00     0.147 C 
HETATM   38  C25 UNL     1       8.911  -2.461   0.235  1.00  0.00     0.144 C 
HETATM   39  N4  UNL     1       8.141  -2.433   1.476  1.00  0.00    -0.341 N 
HETATM   40  C26 UNL     1       6.804  -2.094   1.130  1.00  0.00     0.318 C 
ATOM     41  H4  UNL     1       8.495  -2.621   2.414  1.00  0.00     0.164 HD
HETATM   42  O4  UNL     1       5.862  -1.922   1.945  1.00  0.00    -0.247 OA
ENDBRANCH  35  36
ENDBRANCH  34  35
ENDBRANCH  33  34
ENDBRANCH  10  33
ENDBRANCH   6   7
ENDBRANCH   3   6
TORSDOF 13
