REMARK  15 active torsions:
REMARK  status: ('A' for Active; 'I' for Inactive)
REMARK    1  A    between atoms: C2_2  and  C3_3 
REMARK    2  A    between atoms: C3_3  and  O1_5 
REMARK    3  A    between atoms: O1_5  and  C5_6 
REMARK       I    between atoms: C5_6  and  N1_8 
REMARK    4  A    between atoms: C8_14  and  C9_15 
REMARK       I    between atoms: C9_15  and  N3_17 
REMARK    5  A    between atoms: N3_17  and  C10_19 
REMARK    6  A    between atoms: C10_19  and  C11_20 
REMARK    7  A    between atoms: C10_19  and  C26_39 
REMARK    8  A    between atoms: C11_20  and  C12_21 
REMARK    9  A    between atoms: C12_21  and  C13_22 
REMARK       I    between atoms: C13_22  and  N4_24 
REMARK   10  A    between atoms: N4_24  and  C14_26 
REMARK   11  A    between atoms: C14_26  and  C15_27 
REMARK   12  A    between atoms: C14_26  and  C18_30 
REMARK   13  A    between atoms: C18_30  and  C21_33 
REMARK   14  A    between atoms: C21_33  and  C22_35 
REMARK   15  A    between atoms: C26_39  and  O7_41 
ROOT
HETATM    1  C10 UNL     1       1.430   0.392  -2.079  1.00  0.00     0.184 C 
ENDROOT
BRANCH   1   2
HETATM    2  N3  UNL     1       2.073  -0.223  -0.941  1.00  0.00    -0.345 N 
HETATM    3  C9  UNL     1       3.389   0.130  -0.501  1.00  0.00     0.243 C 
HETATM    4  O3  UNL     1       3.950   1.016  -1.174  1.00  0.00    -0.271 OA
ATOM      5  H3  UNL     1       1.565  -0.943  -0.427  1.00  0.00     0.163 HD
BRANCH   3   6
HETATM    6  C8  UNL     1       4.050  -0.481   0.638  1.00  0.00     0.209 C 
HETATM    7  N1  UNL     1       5.441  -0.398   0.800  1.00  0.00    -0.289 N 
HETATM    8  C5  UNL     1       6.572  -0.179  -0.027  1.00  0.00     0.365 C 
HETATM    9  C6  UNL     1       5.649  -0.645   2.261  1.00  0.00     0.362 C 
HETATM   10  O2  UNL     1       6.444   0.001  -1.245  1.00  0.00    -0.238 OA
HETATM   11  N2  UNL     1       4.682   0.254   2.807  1.00  0.00    -0.057 N 
HETATM   12  C7  UNL     1       3.520   0.159   1.949  1.00  0.00     0.269 C 
ATOM     13  H22 UNL     1       4.476   0.082   3.791  1.00  0.00     0.279 HD
ATOM     14  H21 UNL     1       5.029   1.207   2.918  1.00  0.00     0.279 HD
BRANCH   8  15
HETATM   15  O1  UNL     1       7.866  -0.156   0.474  1.00  0.00    -0.299 OA
BRANCH  15  16
HETATM   16  C3  UNL     1       9.011   0.061  -0.319  1.00  0.00     0.129 C 
HETATM   17  C4  UNL     1      10.008  -1.094  -0.164  1.00  0.00     0.040 C 
BRANCH  16  18
HETATM   18  C2  UNL     1       9.708   1.294   0.221  1.00  0.00     0.028 C 
HETATM   19  C1  UNL     1      10.032   0.979   1.689  1.00  0.00     0.007 C 
ENDBRANCH  16  18
ENDBRANCH  15  16
ENDBRANCH   8  15
ENDBRANCH   3   6
ENDBRANCH   1   2
BRANCH   1  20
HETATM   20  C11 UNL     1       0.069   0.949  -1.736  1.00  0.00     0.044 C 
BRANCH  20  21
HETATM   21  C12 UNL     1      -0.858  -0.157  -1.242  1.00  0.00     0.105 C 
BRANCH  21  22
HETATM   22  C13 UNL     1      -2.202   0.329  -0.891  1.00  0.00     0.218 C 
HETATM   23  O4  UNL     1      -2.420   1.553  -0.960  1.00  0.00    -0.274 OA
HETATM   24  N4  UNL     1      -3.194  -0.554  -0.496  1.00  0.00    -0.355 N 
ATOM     25  H4  UNL     1      -2.933  -1.540  -0.466  1.00  0.00     0.162 HD
BRANCH  24  26
HETATM   26  C14 UNL     1      -4.552  -0.243  -0.122  1.00  0.00     0.102 C 
BRANCH  26  27
HETATM   27  C15 UNL     1      -5.431  -0.726  -1.241  1.00  0.00     0.001 C 
HETATM   28  C16 UNL     1      -5.356  -2.174  -1.549  1.00  0.00     0.011 C 
HETATM   29  C17 UNL     1      -5.039   0.078  -2.493  1.00  0.00     0.011 C 
ENDBRANCH  26  27
BRANCH  26  30
HETATM   30  C18 UNL     1      -4.932  -0.649   1.244  1.00  0.00     0.035 C 
HETATM   31  C19 UNL     1      -4.789  -2.167   1.448  1.00  0.00     0.025 C 
HETATM   32  C20 UNL     1      -3.849  -0.075   2.173  1.00  0.00     0.025 C 
BRANCH  30  33
HETATM   33  C21 UNL     1      -6.277  -0.213   1.655  1.00  0.00     0.144 C 
HETATM   34  O5  UNL     1      -7.082  -1.154   1.855  1.00  0.00    -0.296 OA
BRANCH  33  35
HETATM   35  C22 UNL     1      -6.817   1.116   1.864  1.00  0.00     0.010 C 
HETATM   36  C23 UNL     1      -6.801   2.077   0.727  1.00  0.00     0.022 C 
HETATM   37  C24 UNL     1      -6.198   1.850   3.055  1.00  0.00     0.022 C 
HETATM   38  C25 UNL     1      -8.308   1.003   2.257  1.00  0.00     0.022 C 
ENDBRANCH  33  35
ENDBRANCH  30  33
ENDBRANCH  26  30
ENDBRANCH  24  26
ENDBRANCH  21  22
ENDBRANCH  20  21
ENDBRANCH   1  20
BRANCH   1  39
HETATM   39  C26 UNL     1       1.342  -0.569  -3.225  1.00  0.00     0.281 C 
HETATM   40  O6  UNL     1       1.800  -1.734  -3.101  1.00  0.00    -0.263 OA
BRANCH  39  41
HETATM   41  O7  UNL     1       0.772  -0.232  -4.432  1.00  0.00    -0.325 OA
HETATM   42  C27 UNL     1       0.690  -1.151  -5.517  1.00  0.00     0.213 C 
ENDBRANCH  39  41
ENDBRANCH   1  39
TORSDOF 15
