REMARK  14 active torsions:
REMARK  status: ('A' for Active; 'I' for Inactive)
REMARK    1  A    between atoms: C2_2  and  C3_3 
REMARK    2  A    between atoms: C3_3  and  O1_4 
REMARK    3  A    between atoms: O1_4  and  C4_5 
REMARK    4  A    between atoms: C4_5  and  C5_7 
REMARK    5  A    between atoms: C5_7  and  C6_8 
REMARK       I    between atoms: N1_12  and  C10_13 
REMARK    6  A    between atoms: C10_13  and  C11_15 
REMARK    7  A    between atoms: C11_15  and  C12_16 
REMARK    8  A    between atoms: C11_15  and  N2_24 
REMARK    9  A    between atoms: C12_16  and  C13_17 
REMARK   10  A    between atoms: C13_17  and  O5_19 
REMARK   11  A    between atoms: O5_19  and  C14_20 
REMARK       I    between atoms: N2_24  and  C18_26 
REMARK   12  A    between atoms: C18_26  and  C19_28 
REMARK   13  A    between atoms: C19_28  and  N3_29 
REMARK       I    between atoms: N3_29  and  C20_31 
REMARK   14  A    between atoms: C20_31  and  C21_33 
ROOT
HETATM    1  C11 UNL     1      -0.710   0.225  -0.226  1.00  0.00     0.186 C 
ENDROOT
BRANCH   1   2
HETATM    2  C10 UNL     1       0.392  -0.303   0.571  1.00  0.00     0.243 C 
HETATM    3  N1  UNL     1       0.701   0.112   1.875  1.00  0.00    -0.345 N 
HETATM    4  C6  UNL     1       1.681  -0.383   2.811  1.00  0.00     0.096 C 
HETATM    5  C9  UNL     1      -0.034   1.225   2.517  1.00  0.00     0.126 C 
HETATM    6  C7  UNL     1       1.938   0.822   3.683  1.00  0.00     0.027 C 
HETATM    7  C8  UNL     1       0.460   1.198   3.963  1.00  0.00     0.022 C 
HETATM    8  O3  UNL     1       1.110  -1.228   0.028  1.00  0.00    -0.271 OA
BRANCH   4   9
HETATM    9  C5  UNL     1       2.858  -1.084   2.288  1.00  0.00     0.136 C 
BRANCH   9  10
HETATM   10  C4  UNL     1       3.754  -0.308   1.436  1.00  0.00     0.260 C 
HETATM   11  O2  UNL     1       3.491   0.865   1.185  1.00  0.00    -0.265 OA
BRANCH  10  12
HETATM   12  O1  UNL     1       4.897  -0.869   0.902  1.00  0.00    -0.321 OA
BRANCH  12  13
HETATM   13  C3  UNL     1       5.756  -0.148   0.080  1.00  0.00     0.178 C 
BRANCH  13  14
HETATM   14  C2  UNL     1       5.156   0.337  -1.209  1.00  0.00     0.022 C 
HETATM   15  C1  UNL     1       6.227   1.100  -1.962  1.00  0.00     0.007 C 
ENDBRANCH  13  14
ENDBRANCH  12  13
ENDBRANCH  10  12
ENDBRANCH   9  10
ENDBRANCH   4   9
ENDBRANCH   1   2
BRANCH   1  16
HETATM   16  C12 UNL     1      -0.410   1.143  -1.325  1.00  0.00     0.146 C 
BRANCH  16  17
HETATM   17  C13 UNL     1       0.174   2.431  -1.040  1.00  0.00     0.262 C 
HETATM   18  O4  UNL     1      -0.599   3.466  -1.179  1.00  0.00    -0.265 OA
BRANCH  17  19
HETATM   19  O5  UNL     1       1.427   2.795  -0.644  1.00  0.00    -0.311 OA
BRANCH  19  20
HETATM   20  C14 UNL     1       1.808   4.136  -0.474  1.00  0.00     0.060 C 
HETATM   21  C15 UNL     1       3.235   4.254   0.014  1.00  0.00     0.045 C 
HETATM   22  C16 UNL     1       0.898   4.819   0.500  1.00  0.00     0.045 C 
HETATM   23  C17 UNL     1       1.712   4.922  -1.770  1.00  0.00     0.045 C 
ENDBRANCH  19  20
ENDBRANCH  17  19
ENDBRANCH  16  17
ENDBRANCH   1  16
BRANCH   1  24
HETATM   24  N2  UNL     1      -1.369  -1.002  -0.795  1.00  0.00    -0.345 N 
HETATM   25  C18 UNL     1      -2.659  -1.382  -0.393  1.00  0.00     0.246 C 
HETATM   26  O6  UNL     1      -3.254  -0.680   0.451  1.00  0.00    -0.271 OA
ATOM     27  H2  UNL     1      -0.871  -1.566  -1.483  1.00  0.00     0.163 HD
BRANCH  25  28
HETATM   28  C19 UNL     1      -3.307  -2.582  -0.943  1.00  0.00     0.114 C 
HETATM   29  C23 UNL     1      -2.388  -3.752  -0.659  1.00  0.00     0.041 C 
HETATM   30  C24 UNL     1      -1.870  -4.254  -1.971  1.00  0.00     0.003 C 
HETATM   31  C25 UNL     1      -2.346  -3.321  -3.034  1.00  0.00     0.003 C 
HETATM   32  C26 UNL     1      -3.422  -2.457  -2.434  1.00  0.00     0.041 C 
BRANCH  28  33
HETATM   33  N3  UNL     1      -4.600  -2.750  -0.321  1.00  0.00    -0.342 N 
HETATM   34  C20 UNL     1      -4.831  -2.982   1.046  1.00  0.00     0.233 C 
HETATM   35  O7  UNL     1      -3.870  -3.065   1.834  1.00  0.00    -0.272 OA
ATOM     36  H3  UNL     1      -5.418  -2.695  -0.928  1.00  0.00     0.163 HD
BRANCH  34  37
HETATM   37  C21 UNL     1      -6.209  -3.125   1.545  1.00  0.00     0.146 C 
HETATM   38  C22 UNL     1      -7.004  -1.837   1.309  1.00  0.00     0.032 C 
HETATM   39  S1  UNL     1      -7.080  -4.530   0.776  1.00  0.00    -0.083 SA
ENDBRANCH  34  37
ENDBRANCH  28  33
ENDBRANCH  25  28
ENDBRANCH   1  24
TORSDOF 14
