REMARK  11 active torsions:
REMARK  status: ('A' for Active; 'I' for Inactive)
REMARK    1  A    between atoms: C2_2  and  C3_3 
REMARK    2  A    between atoms: C3_3  and  C4_4 
REMARK    3  A    between atoms: C4_4  and  C5_5 
REMARK    4  A    between atoms: C5_5  and  C6_6 
REMARK    5  A    between atoms: C6_6  and  C7_7 
REMARK    6  A    between atoms: C8_10  and  C9_11 
REMARK    7  A    between atoms: C11_13  and  N2_14 
REMARK       I    between atoms: N2_14  and  C12_16 
REMARK    8  A    between atoms: N5_25  and  C16_26 
REMARK    9  A    between atoms: C16_26  and  C17_27 
REMARK       I    between atoms: C17_27  and  N6_29 
REMARK   10  A    between atoms: N7_32  and  C20_33 
REMARK   11  A    between atoms: C24_39  and  C25_40 
REMARK       I    between atoms: C25_40  and  N9_42 
ROOT
HETATM    1  C7  UNL     1      -2.245  -0.453  -0.263  1.00  0.00     0.100 A 
HETATM    2  N1  UNL     1      -3.409   0.090   0.134  1.00  0.00    -0.329 N 
ATOM      3  H1  UNL     1      -4.259  -0.436   0.337  1.00  0.00     0.168 HD
HETATM    4  C8  UNL     1      -3.291   1.434   0.226  1.00  0.00     0.134 A 
HETATM    5  N4  UNL     1      -2.032   1.700  -0.121  1.00  0.00    -0.281 N 
ATOM      6  H4  UNL     1      -1.617   2.631  -0.155  1.00  0.00     0.189 HD
HETATM    7  N5  UNL     1      -1.389   0.554  -0.420  1.00  0.00    -0.270 N 
ENDROOT
BRANCH   7   8
HETATM    8  C16 UNL     1      -0.022   0.489  -0.821  1.00  0.00     0.253 C 
BRANCH   8   9
HETATM    9  C17 UNL     1       0.890   0.368   0.360  1.00  0.00     0.239 C 
HETATM   10  O2  UNL     1       0.436   0.351   1.556  1.00  0.00    -0.271 OA
HETATM   11  N6  UNL     1       2.291   0.269   0.212  1.00  0.00    -0.348 N 
HETATM   12  C18 UNL     1       2.839   0.281  -1.141  1.00  0.00     0.145 C 
HETATM   13  C28 UNL     1       3.194   0.153   1.337  1.00  0.00     0.145 C 
HETATM   14  C19 UNL     1       3.644  -0.999  -1.296  1.00  0.00     0.144 C 
HETATM   15  N7  UNL     1       4.760  -0.789  -0.273  1.00  0.00    -0.363 N 
HETATM   16  C27 UNL     1       4.268  -0.904   1.042  1.00  0.00     0.144 C 
BRANCH  15  17
HETATM   17  C20 UNL     1       6.007  -0.555  -0.848  1.00  0.00     0.119 A 
HETATM   18  N8  UNL     1       6.324  -1.291  -1.984  1.00  0.00    -0.352 N 
HETATM   19  C21 UNL     1       7.461  -1.136  -2.659  1.00  0.00     0.089 A 
ATOM     20  H8  UNL     1       5.653  -1.983  -2.316  1.00  0.00     0.166 HD
HETATM   21  C22 UNL     1       8.418  -0.224  -2.274  1.00  0.00     0.018 A 
HETATM   22  C23 UNL     1       8.150   0.518  -1.165  1.00  0.00     0.022 A 
HETATM   23  C24 UNL     1       6.926   0.340  -0.451  1.00  0.00     0.075 A 
BRANCH  23  24
HETATM   24  C25 UNL     1       6.789   1.152   0.736  1.00  0.00     0.255 C 
HETATM   25  O3  UNL     1       6.428   2.339   0.629  1.00  0.00    -0.268 OA
HETATM   26  N9  UNL     1       7.072   0.620   2.007  1.00  0.00    -0.361 N 
HETATM   27  C26 UNL     1       6.989   1.334   3.261  1.00  0.00     0.149 C 
ATOM     28  H9  UNL     1       7.362  -0.357   2.047  1.00  0.00     0.162 HD
ENDBRANCH  23  24
ENDBRANCH  15  17
ENDBRANCH   8   9
ENDBRANCH   7   8
BRANCH   1  29
HETATM   29  C6  UNL     1      -2.047  -1.915  -0.480  1.00  0.00     0.078 C 
BRANCH  29  30
HETATM   30  C5  UNL     1      -2.391  -2.313  -1.881  1.00  0.00     0.007 C 
BRANCH  30  31
HETATM   31  C4  UNL     1      -2.207  -3.788  -2.068  1.00  0.00     0.000 C 
BRANCH  31  32
HETATM   32  C3  UNL     1      -3.059  -4.634  -1.152  1.00  0.00    -0.000 C 
BRANCH  32  33
HETATM   33  C2  UNL     1      -2.871  -6.113  -1.405  1.00  0.00    -0.005 C 
HETATM   34  C1  UNL     1      -1.472  -6.596  -1.229  1.00  0.00     0.005 C 
ENDBRANCH  32  33
ENDBRANCH  31  32
ENDBRANCH  30  31
ENDBRANCH  29  30
ENDBRANCH   1  29
BRANCH   4  35
HETATM   35  C9  UNL     1      -4.387   2.354   0.634  1.00  0.00     0.035 A 
HETATM   36  C10 UNL     1      -4.346   3.720   0.685  1.00  0.00     0.066 A 
HETATM   37  C11 UNL     1      -5.612   4.149   1.119  1.00  0.00     0.108 A 
HETATM   38  N3  UNL     1      -6.355   3.059   1.310  1.00  0.00    -0.345 N 
HETATM   39  C14 UNL     1      -5.637   1.969   1.024  1.00  0.00     0.021 A 
ATOM     40  H3  UNL     1      -7.325   3.057   1.626  1.00  0.00     0.167 HD
HETATM   41  C15 UNL     1      -6.112   0.577   1.118  1.00  0.00     0.069 C 
BRANCH  37  42
HETATM   42  N2  UNL     1      -5.960   5.533   1.292  1.00  0.00    -0.313 N 
HETATM   43  C12 UNL     1      -7.229   5.904   1.725  1.00  0.00     0.219 C 
HETATM   44  C13 UNL     1      -7.535   7.378   1.881  1.00  0.00     0.117 C 
HETATM   45  O1  UNL     1      -8.143   5.137   1.998  1.00  0.00    -0.274 OA
ATOM     46  H2  UNL     1      -5.266   6.254   1.094  1.00  0.00     0.170 HD
ENDBRANCH  37  42
ENDBRANCH   4  35
TORSDOF 11
