REMARK  14 active torsions:
REMARK  status: ('A' for Active; 'I' for Inactive)
REMARK    1  A    between atoms: C2_2  and  C3_3 
REMARK    2  A    between atoms: C3_3  and  C4_4 
REMARK    3  A    between atoms: C4_4  and  N1_5 
REMARK    4  A    between atoms: C6_8  and  N3_9 
REMARK    5  A    between atoms: N3_9  and  C7_10 
REMARK       I    between atoms: N3_9  and  C10_14 
REMARK    6  A    between atoms: C7_10  and  C8_11 
REMARK    7  A    between atoms: C8_11  and  O1_12 
REMARK    8  A    between atoms: C10_14  and  C11_16 
REMARK    9  A    between atoms: C17_22  and  N4_23 
REMARK       I    between atoms: N4_23  and  C18_25 
REMARK   10  A    between atoms: C18_25  and  C19_27 
REMARK   11  A    between atoms: C19_27  and  N5_28 
REMARK   12  A    between atoms: C20_32  and  C21_33 
REMARK   13  A    between atoms: C22_34  and  C23_35 
REMARK   14  A    between atoms: N6_40  and  C27_41 
ROOT
HETATM    1  C11 UNL     1      -1.196   1.699   0.953  1.00  0.00     0.059 A 
HETATM    2  C12 UNL     1      -1.423   2.716   1.868  1.00  0.00    -0.044 A 
HETATM    3  C13 UNL     1      -0.284   3.365   2.525  1.00  0.00     0.049 C 
HETATM    4  C14 UNL     1      -2.695   3.181   2.168  1.00  0.00     0.017 A 
HETATM    5  C15 UNL     1      -3.790   2.648   1.562  1.00  0.00    -0.033 A 
HETATM    6  C16 UNL     1      -5.181   3.134   1.871  1.00  0.00     0.050 C 
HETATM    7  C17 UNL     1      -3.609   1.641   0.648  1.00  0.00     0.060 A 
HETATM    8  C20 UNL     1      -2.346   1.176   0.349  1.00  0.00     0.061 A 
ENDROOT
BRANCH   1   9
HETATM    9  C10 UNL     1       0.114   1.178   0.646  1.00  0.00     0.260 C 
HETATM   10  N3  UNL     1       0.793   0.100   1.215  1.00  0.00    -0.304 N 
HETATM   11  O2  UNL     1       0.749   1.795  -0.290  1.00  0.00    -0.267 OA
BRANCH  10  12
HETATM   12  C6  UNL     1       2.133  -0.259   0.851  1.00  0.00     0.148 A 
HETATM   13  C5  UNL     1       2.399  -1.270  -0.041  1.00  0.00     0.155 A 
HETATM   14  N1  UNL     1       3.679  -1.616  -0.390  1.00  0.00    -0.285 N 
HETATM   15  N2  UNL     1       1.304  -1.957  -0.600  1.00  0.00    -0.080 NA
HETATM   16  C29 UNL     1       4.667  -0.915   0.187  1.00  0.00     0.333 A 
HETATM   17  N6  UNL     1       4.436   0.086   1.067  1.00  0.00    -0.265 N 
HETATM   18  O5  UNL     1       5.858  -1.196  -0.095  1.00  0.00    -0.246 OA
HETATM   19  C26 UNL     1       3.174   0.422   1.407  1.00  0.00     0.282 A 
HETATM   20  O4  UNL     1       2.945   1.350   2.225  1.00  0.00    -0.265 OA
BRANCH  14  21
HETATM   21  C4  UNL     1       3.915  -2.714  -1.261  1.00  0.00     0.135 C 
BRANCH  21  22
HETATM   22  C3  UNL     1       3.782  -2.439  -2.695  1.00  0.00     0.020 C 
BRANCH  22  23
HETATM   23  C2  UNL     1       4.580  -1.449  -3.411  1.00  0.00    -0.003 C 
HETATM   24  C1  UNL     1       4.435   0.002  -3.087  1.00  0.00     0.005 C 
ENDBRANCH  22  23
ENDBRANCH  21  22
ENDBRANCH  14  21
BRANCH  17  25
HETATM   25  C27 UNL     1       5.586   0.773   1.627  1.00  0.00     0.133 C 
HETATM   26  C28 UNL     1       5.902   1.936   0.709  1.00  0.00     0.027 C 
ENDBRANCH  17  25
ENDBRANCH  10  12
BRANCH  10  27
HETATM   27  C7  UNL     1       0.142  -0.722   2.199  1.00  0.00     0.159 C 
BRANCH  27  28
HETATM   28  C8  UNL     1       0.316  -0.333   3.618  1.00  0.00     0.187 C 
BRANCH  28  29
HETATM   29  O1  UNL     1      -0.362  -1.203   4.455  1.00  0.00    -0.394 OA
HETATM   30  C9  UNL     1       0.052  -2.514   4.382  1.00  0.00     0.201 C 
ENDBRANCH  28  29
ENDBRANCH  27  28
ENDBRANCH  10  27
ENDBRANCH   1   9
BRANCH   8  31
HETATM   31  C21 UNL     1      -2.253   0.139  -0.624  1.00  0.00    -0.063 C 
HETATM   32  C22 UNL     1      -2.198  -0.743  -1.450  1.00  0.00    -0.097 C 
BRANCH  32  33
HETATM   33  C23 UNL     1      -2.157  -1.824  -2.460  1.00  0.00     0.057 C 
HETATM   34  C24 UNL     1      -3.330  -1.720  -3.407  1.00  0.00     0.023 C 
HETATM   35  C25 UNL     1      -2.218  -3.129  -1.695  1.00  0.00     0.023 C 
ENDBRANCH  32  33
ENDBRANCH   8  31
BRANCH   7  36
HETATM   36  N4  UNL     1      -4.778   1.091   0.018  1.00  0.00    -0.324 N 
HETATM   37  C18 UNL     1      -5.240   1.666  -1.183  1.00  0.00     0.247 C 
HETATM   38  O3  UNL     1      -4.646   2.644  -1.700  1.00  0.00    -0.271 OA
ATOM     39  H4  UNL     1      -5.265   0.297   0.433  1.00  0.00     0.169 HD
BRANCH  37  40
HETATM   40  C19 UNL     1      -6.447   1.127  -1.869  1.00  0.00     0.332 C 
BRANCH  40  41
HETATM   41  N5  UNL     1      -6.725   1.867  -3.065  1.00  0.00    -0.071 N 
ATOM     42  H53 UNL     1      -6.811   2.866  -2.879  1.00  0.00     0.274 HD
ATOM     43  H52 UNL     1      -5.918   1.895  -3.688  1.00  0.00     0.274 HD
ATOM     44  H51 UNL     1      -7.552   1.498  -3.535  1.00  0.00     0.274 HD
ENDBRANCH  40  41
ENDBRANCH  37  40
ENDBRANCH   7  36
TORSDOF 14
