REMARK  12 active torsions:
REMARK  status: ('A' for Active; 'I' for Inactive)
REMARK    1  A    between atoms: C2_2  and  N1_3 
REMARK    2  A    between atoms: C2_2  and  C3_7 
REMARK       I    between atoms: C3_7  and  N2_9 
REMARK    3  A    between atoms: N2_9  and  C4_11 
REMARK    4  A    between atoms: C4_11  and  N3_12 
REMARK    5  A    between atoms: C4_11  and  C5_16 
REMARK    6  A    between atoms: C5_16  and  N4_17 
REMARK    7  A    between atoms: N4_17  and  C6_19 
REMARK    8  A    between atoms: C6_19  and  C7_20 
REMARK    9  A    between atoms: C6_19  and  C8_23 
REMARK   10  A    between atoms: C8_23  and  N5_24 
REMARK   11  A    between atoms: C8_23  and  C9_28 
REMARK   12  A    between atoms: C14_33  and  O4_34 
ROOT
HETATM    1  N4  UNL     1      -0.594  -0.979  -0.833  1.00  0.00    -0.383 N 
ATOM      2  H4  UNL     1      -1.099  -0.707  -1.676  1.00  0.00     0.159 HD
ENDROOT
BRANCH   1   3
HETATM    3  C5  UNL     1       0.815  -0.942  -0.813  1.00  0.00     0.110 C 
BRANCH   3   4
HETATM    4  C4  UNL     1       1.453   0.099   0.076  1.00  0.00     0.323 C 
BRANCH   4   5
HETATM    5  N2  UNL     1       2.898  -0.031  -0.072  1.00  0.00    -0.328 N 
HETATM    6  C3  UNL     1       3.656   1.104  -0.449  1.00  0.00     0.249 C 
HETATM    7  O1  UNL     1       3.050   2.185  -0.641  1.00  0.00    -0.271 OA
ATOM      8  H2  UNL     1       3.356  -0.927   0.094  1.00  0.00     0.164 HD
BRANCH   6   9
HETATM    9  C2  UNL     1       5.119   1.080  -0.626  1.00  0.00     0.270 C 
HETATM   10  C1  UNL     1       5.858   0.621   0.611  1.00  0.00     0.050 C 
BRANCH   9  11
HETATM   11  N1  UNL     1       5.589   2.402  -0.980  1.00  0.00    -0.067 N 
ATOM     12  H13 UNL     1       5.510   3.065  -0.209  1.00  0.00     0.275 HD
ATOM     13  H12 UNL     1       6.602   2.439  -1.093  1.00  0.00     0.275 HD
ATOM     14  H11 UNL     1       5.091   2.712  -1.814  1.00  0.00     0.275 HD
ENDBRANCH   9  11
ENDBRANCH   6   9
ENDBRANCH   4   5
BRANCH   4  15
HETATM   15  N3  UNL     1       1.212  -0.121   1.490  1.00  0.00    -0.054 N 
ATOM     16  H33 UNL     1       1.590  -0.999   1.845  1.00  0.00     0.277 HD
ATOM     17  H32 UNL     1       1.750   0.490   2.104  1.00  0.00     0.277 HD
ATOM     18  H31 UNL     1       0.201  -0.030   1.594  1.00  0.00     0.277 HD
ENDBRANCH   4  15
ENDBRANCH   3   4
ENDBRANCH   1   3
BRANCH   1  19
HETATM   19  C6  UNL     1      -1.310  -1.394   0.317  1.00  0.00     0.217 C 
BRANCH  19  20
HETATM   20  C7  UNL     1      -1.055  -2.786   0.729  1.00  0.00     0.199 C 
HETATM   21  O2  UNL     1      -0.315  -3.510   0.044  1.00  0.00    -0.646 OA
HETATM   22  O3  UNL     1      -1.629  -3.292   1.868  1.00  0.00    -0.646 OA
ENDBRANCH  19  20
BRANCH  19  23
HETATM   23  C8  UNL     1      -2.837  -1.370   0.035  1.00  0.00     0.252 C 
BRANCH  23  24
HETATM   24  N5  UNL     1      -3.451  -1.822   1.280  1.00  0.00    -0.068 N 
ATOM     25  H53 UNL     1      -3.104  -2.722   1.611  1.00  0.00     0.275 HD
ATOM     26  H52 UNL     1      -3.172  -1.283   2.100  1.00  0.00     0.275 HD
ATOM     27  H51 UNL     1      -4.454  -1.806   1.095  1.00  0.00     0.275 HD
ENDBRANCH  23  24
BRANCH  23  28
HETATM   28  C9  UNL     1      -3.327  -0.064  -0.374  1.00  0.00     0.008 A 
HETATM   29  C10 UNL     1      -2.574   1.073  -0.253  1.00  0.00     0.012 A 
HETATM   30  C11 UNL     1      -3.075   2.324  -0.640  1.00  0.00     0.001 A 
HETATM   31  C12 UNL     1      -4.338   2.426  -1.149  1.00  0.00     0.003 A 
HETATM   32  C13 UNL     1      -5.105   1.292  -1.275  1.00  0.00     0.037 A 
HETATM   33  C14 UNL     1      -4.600   0.055  -0.889  1.00  0.00     0.074 A 
BRANCH  33  34
HETATM   34  O4  UNL     1      -5.437  -1.041  -1.048  1.00  0.00    -0.360 OA
ATOM     35  H4  UNL     1      -6.314  -0.959  -1.403  1.00  0.00     0.217 HD
ENDBRANCH  33  34
ENDBRANCH  23  28
ENDBRANCH  19  23
ENDBRANCH   1  19
TORSDOF 12
