REMARK  14 active torsions:
REMARK  status: ('A' for Active; 'I' for Inactive)
REMARK    1  A    between atoms: N1_1  and  C1_4 
REMARK    2  A    between atoms: C3_8  and  C4_9 
REMARK    3  A    between atoms: C4_9  and  C5_10 
REMARK    4  A    between atoms: C5_10  and  N3_11 
REMARK    5  A    between atoms: C5_10  and  C6_15 
REMARK    6  A    between atoms: C6_15  and  O1_16 
REMARK    7  A    between atoms: C6_15  and  N4_18 
REMARK    8  A    between atoms: N4_18  and  C7_20 
REMARK    9  A    between atoms: C7_20  and  N5_21 
REMARK   10  A    between atoms: N5_21  and  C8_23 
REMARK   11  A    between atoms: C8_23  and  N6_24 
REMARK   12  A    between atoms: N6_24  and  O2_26 
REMARK   13  A    between atoms: O2_26  and  C9_27 
REMARK   14  A    between atoms: C12_30  and  N7_31 
ROOT
HETATM    1  C6  UNL     1      -1.900   1.858   0.591  1.00  0.00     0.245 C 
ENDROOT
BRANCH   1   2
HETATM    2  C5  UNL     1      -3.197   1.256   0.132  1.00  0.00     0.237 C 
BRANCH   2   3
HETATM    3  C4  UNL     1      -3.478  -0.068   0.808  1.00  0.00     0.096 C 
BRANCH   3   4
HETATM    4  C3  UNL     1      -4.809  -0.618   0.502  1.00  0.00     0.044 A 
HETATM    5  C2  UNL     1      -5.190  -1.472  -0.493  1.00  0.00     0.131 A 
HETATM    6  N2  UNL     1      -6.517  -1.697  -0.379  1.00  0.00    -0.200 N 
HETATM    7  C1  UNL     1      -6.967  -0.992   0.676  1.00  0.00     0.675 A 
ATOM      8  H2  UNL     1      -7.079  -2.295  -0.985  1.00  0.00     0.183 HD
HETATM    9  N8  UNL     1      -5.924  -0.339   1.207  1.00  0.00    -0.194 N 
ATOM     10  H8  UNL     1      -5.967   0.275   2.020  1.00  0.00     0.184 HD
BRANCH   7  11
HETATM   11  N1  UNL     1      -8.173  -0.967   1.077  1.00  0.00    -0.234 N 
ATOM     12  H12 UNL     1      -8.967  -1.464   0.673  1.00  0.00     0.174 HD
ATOM     13  H11 UNL     1      -8.514  -0.433   1.876  1.00  0.00     0.174 HD
ENDBRANCH   7  11
ENDBRANCH   3   4
ENDBRANCH   2   3
BRANCH   2  14
HETATM   14  N3  UNL     1      -3.256   1.113  -1.286  1.00  0.00    -0.070 N 
ATOM     15  H33 UNL     1      -2.634   0.377  -1.620  1.00  0.00     0.274 HD
ATOM     16  H32 UNL     1      -4.143   0.712  -1.591  1.00  0.00     0.274 HD
ATOM     17  H31 UNL     1      -3.067   2.006  -1.742  1.00  0.00     0.274 HD
ENDBRANCH   2  14
ENDBRANCH   1   2
BRANCH   1  18
HETATM   18  O1  UNL     1      -2.051   1.971   2.018  1.00  0.00    -0.375 OA
ATOM     19  H1  UNL     1      -1.231   2.352   2.308  1.00  0.00     0.212 HD
ENDBRANCH   1  18
BRANCH   1  20
HETATM   20  N4  UNL     1      -0.788   1.041   0.399  1.00  0.00    -0.380 N 
ATOM     21  H4  UNL     1      -0.268   0.726   1.218  1.00  0.00     0.157 HD
BRANCH  20  22
HETATM   22  C7  UNL     1      -0.351   0.633  -0.868  1.00  0.00     0.241 C 
BRANCH  22  23
HETATM   23  N5  UNL     1       0.885  -0.156  -0.812  1.00  0.00    -0.369 N 
ATOM     24  H5  UNL     1       1.340  -0.365   0.077  1.00  0.00     0.161 HD
BRANCH  23  25
HETATM   25  C8  UNL     1       1.419  -0.614  -2.031  1.00  0.00     0.201 C 
BRANCH  25  26
HETATM   26  N6  UNL     1       2.635  -0.608  -2.390  1.00  0.00    -0.262 N 
ATOM     27  H6  UNL     1       2.820  -0.986  -3.319  1.00  0.00     0.195 HD
BRANCH  26  28
HETATM   28  O2  UNL     1       3.718  -0.172  -1.716  1.00  0.00    -0.274 OA
BRANCH  28  29
HETATM   29  C9  UNL     1       4.201  -0.609  -0.481  1.00  0.00     0.154 C 
HETATM   30  C10 UNL     1       4.348   0.454   0.560  1.00  0.00     0.036 C 
HETATM   31  C11 UNL     1       5.758   0.261   1.074  1.00  0.00     0.035 C 
HETATM   32  C12 UNL     1       6.477  -0.082  -0.235  1.00  0.00     0.186 C 
HETATM   33  C13 UNL     1       5.571  -1.209  -0.726  1.00  0.00     0.067 C 
BRANCH  32  34
HETATM   34  N7  UNL     1       7.827  -0.518  -0.016  1.00  0.00    -0.075 N 
ATOM     35  H73 UNL     1       8.353   0.169   0.524  1.00  0.00     0.274 HD
ATOM     36  H72 UNL     1       7.860  -1.300   0.638  1.00  0.00     0.274 HD
ATOM     37  H71 UNL     1       8.306  -0.746  -0.887  1.00  0.00     0.274 HD
ENDBRANCH  32  34
ENDBRANCH  28  29
ENDBRANCH  26  28
ENDBRANCH  25  26
ENDBRANCH  23  25
ENDBRANCH  22  23
ENDBRANCH  20  22
ENDBRANCH   1  20
TORSDOF 14
