REMARK  8 active torsions:
REMARK  status: ('A' for Active; 'I' for Inactive)
REMARK    1  A    between atoms: N1_1  and  C1_4 
REMARK    2  A    between atoms: C3_8  and  S1_9 
REMARK    3  A    between atoms: S1_9  and  C4_10 
REMARK    4  A    between atoms: C4_10  and  C5_11 
REMARK       I    between atoms: C5_11  and  N3_13 
REMARK    5  A    between atoms: N3_13  and  C6_15 
REMARK    6  A    between atoms: C6_15  and  C7_16 
REMARK    7  A    between atoms: C6_15  and  C9_28 
REMARK    8  A    between atoms: C7_16  and  N4_17 
REMARK       I    between atoms: N4_17  and  C8_19 
REMARK       I    between atoms: C8_19  and  N5_20 
REMARK       I    between atoms: C8_19  and  N6_24 
ROOT
HETATM    1  C6  UNL     1      -2.187  -1.830   0.379  1.00  0.00     0.203 C 
ENDROOT
BRANCH   1   2
HETATM    2  N3  UNL     1      -0.817  -1.572   0.679  1.00  0.00    -0.344 N 
HETATM    3  C5  UNL     1       0.161  -1.509  -0.344  1.00  0.00     0.228 C 
HETATM    4  O1  UNL     1      -0.190  -1.676  -1.537  1.00  0.00    -0.273 OA
ATOM      5  H3  UNL     1      -0.536  -1.430   1.649  1.00  0.00     0.163 HD
BRANCH   3   6
HETATM    6  C4  UNL     1       1.599  -1.258  -0.095  1.00  0.00     0.182 C 
BRANCH   6   7
HETATM    7  S1  UNL     1       2.002   0.410  -0.694  1.00  0.00    -0.112 SA
BRANCH   7   8
HETATM    8  C3  UNL     1       3.768   0.723  -0.466  1.00  0.00     0.060 A 
HETATM    9  C2  UNL     1       4.420   1.289   0.594  1.00  0.00     0.116 A 
HETATM   10  N2  UNL     1       5.714   1.396   0.534  1.00  0.00    -0.345 N 
HETATM   11  C1  UNL     1       6.345   0.952  -0.551  1.00  0.00     0.143 A 
ATOM     12  H2  UNL     1       6.237   1.813   1.304  1.00  0.00     0.167 HD
HETATM   13  S2  UNL     1       5.072   0.362  -1.525  1.00  0.00    -0.046 SA
BRANCH  11  14
HETATM   14  N1  UNL     1       7.637   0.961  -0.810  1.00  0.00    -0.380 N 
ATOM     15  H12 UNL     1       8.397   1.313  -0.228  1.00  0.00     0.158 HD
ATOM     16  H11 UNL     1       8.120   0.621  -1.641  1.00  0.00     0.158 HD
ENDBRANCH  11  14
ENDBRANCH   7   8
ENDBRANCH   6   7
ENDBRANCH   3   6
ENDBRANCH   1   2
BRANCH   1  17
HETATM   17  C7  UNL     1      -2.825  -0.641  -0.304  1.00  0.00     0.153 C 
BRANCH  17  18
HETATM   18  N4  UNL     1      -2.739   0.465   0.600  1.00  0.00    -0.372 N 
HETATM   19  C8  UNL     1      -3.352   1.682   0.139  1.00  0.00     0.476 C 
HETATM   20  N5  UNL     1      -2.739   2.182  -1.074  1.00  0.00    -0.033 N 
HETATM   21  N6  UNL     1      -3.252   2.671   1.216  1.00  0.00    -0.033 N 
ATOM     22  H53 UNL     1      -1.732   2.298  -0.957  1.00  0.00     0.278 HD
ATOM     23  H52 UNL     1      -2.737   1.471  -1.805  1.00  0.00     0.278 HD
ATOM     24  H51 UNL     1      -3.174   3.045  -1.401  1.00  0.00     0.278 HD
ATOM     25  H63 UNL     1      -3.646   2.338   2.096  1.00  0.00     0.278 HD
ATOM     26  H62 UNL     1      -2.294   2.808   1.539  1.00  0.00     0.278 HD
ATOM     27  H61 UNL     1      -3.687   3.534   0.889  1.00  0.00     0.278 HD
ATOM     28  H4  UNL     1      -2.276   0.395   1.506  1.00  0.00     0.157 HD
ENDBRANCH  17  18
ENDBRANCH   1  17
BRANCH   1  29
HETATM   29  C9  UNL     1      -2.447  -3.111  -0.286  1.00  0.00     0.198 C 
HETATM   30  O2  UNL     1      -1.545  -3.937  -0.536  1.00  0.00    -0.646 OA
HETATM   31  O3  UNL     1      -3.771  -3.399  -0.647  1.00  0.00    -0.646 OA
ENDBRANCH   1  29
TORSDOF 8
