REMARK  10 active torsions:
REMARK  status: ('A' for Active; 'I' for Inactive)
REMARK       I    between atoms: C1_4  and  N3_6 
REMARK    1  A    between atoms: N3_6  and  C2_8 
REMARK    2  A    between atoms: C2_8  and  C3_9 
REMARK    3  A    between atoms: C2_8  and  C11_24 
REMARK    4  A    between atoms: C3_9  and  O1_10 
REMARK    5  A    between atoms: O1_10  and  C4_11 
REMARK    6  A    between atoms: C8_17  and  N5_18 
REMARK    7  A    between atoms: N5_18  and  C9_20 
REMARK    8  A    between atoms: C9_20  and  C10_21 
REMARK    9  A    between atoms: C11_24  and  N6_25 
REMARK   10  A    between atoms: C11_24  and  C12_29 
ROOT
HETATM    1  C2  UNL     1      -2.083   0.807  -0.391  1.00  0.00     0.149 C 
ENDROOT
BRANCH   1   2
HETATM    2  N3  UNL     1      -2.368   0.750   1.035  1.00  0.00    -0.356 N 
HETATM    3  C1  UNL     1      -2.783  -0.416   1.712  1.00  0.00     0.182 C 
HETATM    4  N1  UNL     1      -3.963  -0.499   2.199  1.00  0.00    -0.374 N 
HETATM    5  N2  UNL     1      -1.890  -1.500   1.854  1.00  0.00    -0.064 NA
ATOM      6  H12 UNL     1      -4.263  -1.342   2.688  1.00  0.00     0.158 HD
ATOM      7  H11 UNL     1      -4.608   0.284   2.096  1.00  0.00     0.158 HD
ATOM      8  H3  UNL     1      -2.261   1.606   1.579  1.00  0.00     0.162 HD
ENDBRANCH   1   2
BRANCH   1   9
HETATM    9  C3  UNL     1      -0.980  -0.124  -0.777  1.00  0.00     0.203 C 
BRANCH   9  10
HETATM   10  O1  UNL     1       0.227   0.174  -0.058  1.00  0.00    -0.345 OA
BRANCH  10  11
HETATM   11  C4  UNL     1       1.353  -0.601  -0.300  1.00  0.00     0.112 A 
HETATM   12  C5  UNL     1       1.327  -1.637  -1.206  1.00  0.00     0.042 A 
HETATM   13  C6  UNL     1       2.485  -2.360  -1.390  1.00  0.00     0.020 A 
HETATM   14  C7  UNL     1       3.624  -2.031  -0.670  1.00  0.00     0.090 A 
HETATM   15  N4  UNL     1       3.595  -1.013   0.200  1.00  0.00    -0.350 N 
HETATM   16  C8  UNL     1       2.501  -0.272   0.423  1.00  0.00     0.135 A 
ATOM     17  H4  UNL     1       4.446  -0.791   0.717  1.00  0.00     0.166 HD
BRANCH  16  18
HETATM   18  N5  UNL     1       2.511   0.792   1.362  1.00  0.00    -0.364 N 
ATOM     19  H5  UNL     1       1.662   1.332   1.528  1.00  0.00     0.161 HD
BRANCH  18  20
HETATM   20  C9  UNL     1       3.705   1.107   2.074  1.00  0.00     0.234 C 
BRANCH  20  21
HETATM   21  C10 UNL     1       4.822   1.602   1.266  1.00  0.00     0.191 C 
HETATM   22  O2  UNL     1       4.676   1.748   0.031  1.00  0.00    -0.647 OA
HETATM   23  O3  UNL     1       6.065   1.930   1.787  1.00  0.00    -0.647 OA
ENDBRANCH  20  21
ENDBRANCH  18  20
ENDBRANCH  16  18
ENDBRANCH  10  11
ENDBRANCH   9  10
ENDBRANCH   1   9
BRANCH   1  24
HETATM   24  C11 UNL     1      -3.349   0.419  -1.130  1.00  0.00     0.307 C 
BRANCH  24  25
HETATM   25  N6  UNL     1      -4.400   1.395  -0.746  1.00  0.00    -0.063 N 
ATOM     26  H63 UNL     1      -4.532   1.463   0.263  1.00  0.00     0.275 HD
ATOM     27  H62 UNL     1      -4.124   2.363  -0.908  1.00  0.00     0.275 HD
ATOM     28  H61 UNL     1      -5.252   1.134  -1.243  1.00  0.00     0.275 HD
ENDBRANCH  24  25
BRANCH  24  29
HETATM   29  C12 UNL     1      -3.240   0.480  -2.588  1.00  0.00     0.206 C 
HETATM   30  O4  UNL     1      -3.812   1.389  -3.227  1.00  0.00    -0.646 OA
HETATM   31  O5  UNL     1      -2.504  -0.477  -3.255  1.00  0.00    -0.646 OA
ENDBRANCH  24  29
ENDBRANCH   1  24
TORSDOF 10
