REMARK  7 active torsions:
REMARK  status: ('A' for Active; 'I' for Inactive)
REMARK    1  A    between atoms: N1_1  and  C1_4 
REMARK    2  A    between atoms: C2_7  and  C3_8 
REMARK    3  A    between atoms: C3_8  and  N3_9 
REMARK    4  A    between atoms: C3_8  and  N4_13 
REMARK    5  A    between atoms: N4_13  and  C4_15 
REMARK    6  A    between atoms: C5_18  and  N6_19 
REMARK    7  A    between atoms: C6_23  and  C7_24 
ROOT
HETATM    1  C3  UNL     1       1.058  -0.805   0.467  1.00  0.00     0.361 C 
ENDROOT
BRANCH   1   2
HETATM    2  C2  UNL     1       2.351  -0.254  -0.028  1.00  0.00     0.212 A 
HETATM    3  N2  UNL     1       3.245   0.400   0.728  1.00  0.00    -0.167 N 
HETATM    4  C1  UNL     1       4.255   0.720  -0.106  1.00  0.00     0.698 A 
ATOM      5  H2  UNL     1       3.176   0.611   1.724  1.00  0.00     0.186 HD
HETATM    6  N8  UNL     1       3.931   0.250  -1.320  1.00  0.00    -0.090 N 
HETATM    7  O2  UNL     1       2.760  -0.345  -1.256  1.00  0.00    -0.205 OA
ATOM      8  H8  UNL     1       4.503   0.340  -2.160  1.00  0.00     0.213 HD
BRANCH   4   9
HETATM    9  N1  UNL     1       5.328   1.367   0.248  1.00  0.00    -0.233 N 
ATOM     10  H12 UNL     1       5.574   1.724   1.171  1.00  0.00     0.174 HD
ATOM     11  H11 UNL     1       6.092   1.609  -0.383  1.00  0.00     0.174 HD
ENDBRANCH   4   9
ENDBRANCH   1   2
BRANCH   1  12
HETATM   12  N3  UNL     1       0.886  -2.156  -0.065  1.00  0.00    -0.051 N 
ATOM     13  H33 UNL     1       0.958  -2.186  -1.082  1.00  0.00     0.277 HD
ATOM     14  H32 UNL     1       1.676  -2.763   0.151  1.00  0.00     0.277 HD
ATOM     15  H31 UNL     1       0.001  -2.533   0.274  1.00  0.00     0.277 HD
ENDBRANCH   1  12
BRANCH   1  16
HETATM   16  N4  UNL     1      -0.009   0.043  -0.020  1.00  0.00    -0.341 N 
ATOM     17  H4  UNL     1       0.221   0.823  -0.635  1.00  0.00     0.163 HD
BRANCH  16  18
HETATM   18  C4  UNL     1      -1.402  -0.185   0.343  1.00  0.00     0.127 A 
HETATM   19  N5  UNL     1      -1.748  -1.158   1.139  1.00  0.00    -0.322 N 
HETATM   20  C5  UNL     1      -3.035  -1.319   1.444  1.00  0.00     0.144 A 
ATOM     21  H5  UNL     1      -1.043  -1.787   1.523  1.00  0.00     0.169 HD
HETATM   22  S1  UNL     1      -3.796  -0.062   0.588  1.00  0.00    -0.045 SA
HETATM   23  C6  UNL     1      -2.383   0.629  -0.143  1.00  0.00     0.117 A 
BRANCH  20  24
HETATM   24  N6  UNL     1      -3.558  -2.243   2.227  1.00  0.00    -0.380 N 
ATOM     25  H62 UNL     1      -3.102  -2.997   2.740  1.00  0.00     0.158 HD
ATOM     26  H61 UNL     1      -4.543  -2.366   2.460  1.00  0.00     0.158 HD
ENDBRANCH  20  24
BRANCH  23  27
HETATM   27  C7  UNL     1      -2.382   1.785  -1.031  1.00  0.00     0.275 C 
HETATM   28  N7  UNL     1      -3.626   2.435  -1.352  1.00  0.00    -0.057 NA
HETATM   29  O1  UNL     1      -1.350   2.254  -1.538  1.00  0.00    -0.270 OA
ENDBRANCH  23  27
ENDBRANCH  16  18
ENDBRANCH   1  16
TORSDOF 7
