REMARK  16 active torsions:
REMARK  status: ('A' for Active; 'I' for Inactive)
REMARK    1  A    between atoms: N1_2  and  C2_3 
REMARK       I    between atoms: N1_2  and  C9_16 
REMARK    2  A    between atoms: C2_3  and  C3_4 
REMARK       I    between atoms: C3_4  and  N2_6 
REMARK    3  A    between atoms: N2_6  and  C4_8 
REMARK    4  A    between atoms: C9_16  and  C10_18 
REMARK    5  A    between atoms: C10_18  and  C11_19 
REMARK    6  A    between atoms: C11_19  and  C12_20 
REMARK    7  A    between atoms: C12_20  and  C13_21 
REMARK    8  A    between atoms: C13_21  and  C14_22 
REMARK    9  A    between atoms: C14_22  and  C15_23 
REMARK   10  A    between atoms: C15_23  and  C16_24 
REMARK   11  A    between atoms: C16_24  and  C17_25 
REMARK   12  A    between atoms: C17_25  and  C18_26 
REMARK   13  A    between atoms: C18_26  and  C19_27 
REMARK   14  A    between atoms: C19_27  and  N4_28 
REMARK   15  A    between atoms: N4_28  and  C20_30 
REMARK   16  A    between atoms: C20_30  and  C21_34 
ROOT
HETATM    1  C12 UNL     1       1.735  -2.175  -0.127  1.00  0.00     0.000 C 
ENDROOT
BRANCH   1   2
HETATM    2  C11 UNL     1       2.861  -2.033  -1.116  1.00  0.00     0.009 C 
BRANCH   2   3
HETATM    3  C10 UNL     1       4.197  -2.101  -0.424  1.00  0.00     0.103 C 
BRANCH   3   4
HETATM    4  C9  UNL     1       5.297  -1.967  -1.404  1.00  0.00     0.219 C 
HETATM    5  N1  UNL     1       6.654  -1.926  -1.044  1.00  0.00    -0.348 N 
HETATM    6  C1  UNL     1       7.045  -2.008   0.341  1.00  0.00     0.153 C 
HETATM    7  O2  UNL     1       4.978  -1.886  -2.633  1.00  0.00    -0.273 OA
BRANCH   5   8
HETATM    8  C2  UNL     1       7.677  -1.807  -2.057  1.00  0.00     0.228 C 
BRANCH   8   9
HETATM    9  C3  UNL     1       8.010  -0.404  -2.373  1.00  0.00     0.241 C 
HETATM   10  O1  UNL     1       8.904  -0.158  -3.253  1.00  0.00    -0.271 OA
HETATM   11  N2  UNL     1       7.406   0.705  -1.765  1.00  0.00    -0.312 N 
ATOM     12  H2  UNL     1       6.399   0.797  -1.901  1.00  0.00     0.170 HD
BRANCH  11  13
HETATM   13  C4  UNL     1       7.958   1.609  -1.066  1.00  0.00     0.107 A 
HETATM   14  C5  UNL     1       9.317   1.573  -0.826  1.00  0.00     0.050 A 
HETATM   15  C6  UNL     1       9.915   2.562  -0.069  1.00  0.00     0.024 A 
HETATM   16  C7  UNL     1       9.182   3.606   0.465  1.00  0.00     0.026 A 
HETATM   17 BR1  UNL     1       9.962   4.991   1.512  1.00  0.00    -0.050 Br
HETATM   18  C8  UNL     1       7.824   3.591   0.191  1.00  0.00     0.108 A 
HETATM   19  N3  UNL     1       7.266   2.628  -0.541  1.00  0.00    -0.351 N 
ATOM     20  H3  UNL     1       6.261   2.669  -0.710  1.00  0.00     0.166 HD
ENDBRANCH  11  13
ENDBRANCH   8   9
ENDBRANCH   5   8
ENDBRANCH   3   4
ENDBRANCH   2   3
ENDBRANCH   1   2
BRANCH   1  21
HETATM   21  C13 UNL     1       0.406  -2.098  -0.856  1.00  0.00     0.000 C 
BRANCH  21  22
HETATM   22  C14 UNL     1      -0.719  -2.247   0.140  1.00  0.00     0.000 C 
BRANCH  22  23
HETATM   23  C15 UNL     1      -2.010  -2.156  -0.671  1.00  0.00     0.000 C 
BRANCH  23  24
HETATM   24  C16 UNL     1      -3.204  -2.294   0.216  1.00  0.00     0.000 C 
BRANCH  24  25
HETATM   25  C17 UNL     1      -3.276  -1.234   1.277  1.00  0.00     0.002 C 
BRANCH  25  26
HETATM   26  C18 UNL     1      -4.504  -1.402   2.154  1.00  0.00     0.020 C 
BRANCH  26  27
HETATM   27  C19 UNL     1      -4.595  -0.363   3.216  1.00  0.00     0.121 C 
BRANCH  27  28
HETATM   28  N4  UNL     1      -4.661   0.986   2.784  1.00  0.00    -0.380 N 
ATOM     29  H4  UNL     1      -3.847   1.567   2.985  1.00  0.00     0.160 HD
BRANCH  28  30
HETATM   30  C20 UNL     1      -5.737   1.619   2.101  1.00  0.00     0.076 C 
HETATM   31  N5  UNL     1      -6.775   1.939   2.790  1.00  0.00    -0.389 N 
ATOM     32  H52 UNL     1      -6.877   1.761   3.789  1.00  0.00     0.157 HD
ATOM     33  H51 UNL     1      -7.546   2.393   2.300  1.00  0.00     0.157 HD
BRANCH  30  34
HETATM   34  C21 UNL     1      -5.591   1.874   0.666  1.00  0.00     0.069 A 
HETATM   35  C22 UNL     1      -6.561   2.637  -0.137  1.00  0.00    -0.029 A 
HETATM   36  C23 UNL     1      -7.704   3.342   0.527  1.00  0.00     0.016 C 
HETATM   37  C24 UNL     1      -6.048   3.369  -1.379  1.00  0.00     0.016 C 
HETATM   38  C25 UNL     1      -6.526   1.151  -0.250  1.00  0.00    -0.029 A 
HETATM   39  C26 UNL     1      -7.665   0.317   0.216  1.00  0.00     0.016 C 
HETATM   40  C27 UNL     1      -5.830   0.544  -1.480  1.00  0.00     0.016 C 
ENDBRANCH  30  34
ENDBRANCH  28  30
ENDBRANCH  27  28
ENDBRANCH  26  27
ENDBRANCH  25  26
ENDBRANCH  24  25
ENDBRANCH  23  24
ENDBRANCH  22  23
ENDBRANCH  21  22
ENDBRANCH   1  21
TORSDOF 16
