REMARK  14 active torsions:
REMARK  status: ('A' for Active; 'I' for Inactive)
REMARK    1  A    between atoms: C2_2  and  N1_3 
REMARK    2  A    between atoms: N1_3  and  C3_4 
REMARK    3  A    between atoms: N1_3  and  C5_6 
REMARK    4  A    between atoms: N1_3  and  C7_8 
REMARK    5  A    between atoms: C7_8  and  C8_9 
REMARK    6  A    between atoms: C8_9  and  N2_10 
REMARK    7  A    between atoms: N2_10  and  C10_13 
REMARK    8  A    between atoms: C10_13  and  C11_14 
REMARK       I    between atoms: C11_14  and  N3_16 
REMARK    9  A    between atoms: N3_16  and  C12_18 
REMARK   10  A    between atoms: C12_18  and  C13_19 
REMARK   11  A    between atoms: C13_19  and  C14_20 
REMARK   12  A    between atoms: C20_30  and  C21_31 
REMARK   13  A    between atoms: C21_31  and  C22_32 
REMARK   14  A    between atoms: C22_32  and  C23_33 
ROOT
HETATM    1  C14 UNL     1       2.719  -0.468  -0.005  1.00  0.00    -0.029 A 
HETATM    2  C15 UNL     1       2.132  -0.919   1.153  1.00  0.00     0.096 A 
HETATM    3  N4  UNL     1       2.910  -0.612   2.209  1.00  0.00    -0.364 N 
ATOM      4  H4  UNL     1       2.709  -0.832   3.184  1.00  0.00     0.165 HD
HETATM    5  C16 UNL     1       3.997   0.035   1.754  1.00  0.00     0.062 A 
HETATM    6  C17 UNL     1       5.103   0.566   2.376  1.00  0.00     0.059 A 
HETATM    7 BR1  UNL     1       5.266   0.442   4.276  1.00  0.00    -0.047 Br
HETATM    8  C18 UNL     1       6.113   1.197   1.633  1.00  0.00     0.070 A 
HETATM    9  C19 UNL     1       7.200   1.811   2.368  1.00  0.00     0.101 C 
HETATM   10  N5  UNL     1       8.046   2.318   2.949  1.00  0.00    -0.191 NA
HETATM   11  C20 UNL     1       6.059   1.316   0.278  1.00  0.00    -0.035 A 
HETATM   12  C26 UNL     1       4.909   0.761  -0.325  1.00  0.00     0.023 A 
HETATM   13  C27 UNL     1       3.914   0.144   0.385  1.00  0.00     0.000 A 
ENDROOT
BRANCH  11  14
HETATM   14  C21 UNL     1       7.112   1.872  -0.595  1.00  0.00     0.040 C 
BRANCH  14  15
HETATM   15  C22 UNL     1       7.965   0.877  -1.266  1.00  0.00     0.008 C 
BRANCH  15  16
HETATM   16  C23 UNL     1       8.831  -0.064  -0.553  1.00  0.00    -0.023 C 
HETATM   17  C24 UNL     1       9.936   0.521   0.275  1.00  0.00     0.009 C 
HETATM   18  C25 UNL     1       9.439  -1.090  -1.551  1.00  0.00     0.009 C 
ENDBRANCH  15  16
ENDBRANCH  14  15
ENDBRANCH  11  14
BRANCH   1  19
HETATM   19  C13 UNL     1       2.320  -0.561  -1.408  1.00  0.00     0.060 C 
BRANCH  19  20
HETATM   20  C12 UNL     1       1.080  -1.322  -1.700  1.00  0.00     0.127 C 
BRANCH  20  21
HETATM   21  N3  UNL     1      -0.130  -0.781  -1.117  1.00  0.00    -0.359 N 
HETATM   22  C11 UNL     1      -1.340  -1.453  -1.338  1.00  0.00     0.251 C 
HETATM   23  O2  UNL     1      -1.282  -2.531  -2.040  1.00  0.00    -0.271 OA
ATOM     24  H3  UNL     1      -0.102   0.071  -0.557  1.00  0.00     0.162 HD
BRANCH  22  25
HETATM   25  C10 UNL     1      -2.684  -1.098  -0.875  1.00  0.00     0.413 C 
BRANCH  25  26
HETATM   26  N2  UNL     1      -2.829   0.099  -0.128  1.00  0.00     0.019 N 
HETATM   27  C9  UNL     1      -2.402   1.201  -1.011  1.00  0.00     0.357 C 
HETATM   28  O1  UNL     1      -2.004   0.119   0.923  1.00  0.00    -0.064 OA
BRANCH  26  29
HETATM   29  C8  UNL     1      -4.163   0.390   0.301  1.00  0.00     0.340 C 
BRANCH  29  30
HETATM   30  C7  UNL     1      -5.175  -0.672   0.042  1.00  0.00     0.273 C 
BRANCH  30  31
HETATM   31  N1  UNL     1      -6.526  -0.309   0.474  1.00  0.00    -0.066 N 
BRANCH  31  32
HETATM   32  C2  UNL     1      -7.093   0.723  -0.355  1.00  0.00     0.233 C 
HETATM   33  C1  UNL     1      -7.438   0.251  -1.742  1.00  0.00     0.035 C 
ENDBRANCH  31  32
BRANCH  31  34
HETATM   34  C3  UNL     1      -6.543  -0.048   1.870  1.00  0.00     0.233 C 
HETATM   35  C4  UNL     1      -6.719   1.376   2.269  1.00  0.00     0.035 C 
ENDBRANCH  31  34
BRANCH  31  36
HETATM   36  C5  UNL     1      -7.312  -1.522   0.257  1.00  0.00     0.233 C 
HETATM   37  C6  UNL     1      -8.722  -1.434   0.722  1.00  0.00     0.035 C 
ENDBRANCH  31  36
ENDBRANCH  30  31
ENDBRANCH  29  30
ENDBRANCH  26  29
ENDBRANCH  25  26
ENDBRANCH  22  25
ENDBRANCH  20  21
ENDBRANCH  19  20
ENDBRANCH   1  19
TORSDOF 14
