REMARK  14 active torsions:
REMARK  status: ('A' for Active; 'I' for Inactive)
REMARK    1  A    between atoms: C2_2  and  C3_3 
REMARK    2  A    between atoms: C3_3  and  C4_4 
REMARK    3  A    between atoms: C4_4  and  N1_5 
REMARK    4  A    between atoms: N1_5  and  C7_8 
REMARK    5  A    between atoms: C7_8  and  C8_9 
REMARK       I    between atoms: C8_9  and  N2_11 
REMARK    6  A    between atoms: N2_11  and  C9_13 
REMARK    7  A    between atoms: C9_13  and  C10_14 
REMARK    8  A    between atoms: C15_19  and  C16_20 
REMARK    9  A    between atoms: C16_20  and  C17_21 
REMARK   10  A    between atoms: C17_21  and  C18_22 
REMARK   11  A    between atoms: N3_34  and  C28_36 
REMARK   12  A    between atoms: C28_36  and  C29_37 
REMARK   13  A    between atoms: C28_36  and  C33_41 
REMARK   14  A    between atoms: C29_37  and  C30_38 
ROOT
HETATM    1  C16 UNL     1      -1.938   0.745   0.028  1.00  0.00     0.028 C 
HETATM    2  N3  UNL     1      -2.976   1.151   0.521  1.00  0.00    -0.377 N 
ATOM      3  H3  UNL     1      -3.651   0.405   0.351  1.00  0.00     0.160 HD
ENDROOT
BRANCH   1   4
HETATM    4  C15 UNL     1      -0.596   1.440  -0.012  1.00  0.00    -0.048 C 
HETATM    5  C10 UNL     1       0.495   0.713   0.672  1.00  0.00     0.034 C 
HETATM    6  C11 UNL     1       0.778   1.207   2.087  1.00  0.00     0.011 C 
HETATM    7  C12 UNL     1       1.091   2.698   2.055  1.00  0.00     0.001 C 
HETATM    8  C13 UNL     1      -0.198   3.370   1.602  1.00  0.00     0.004 C 
HETATM    9  C14 UNL     1      -0.543   2.869   0.243  1.00  0.00     0.037 C 
BRANCH   5  10
HETATM   10  C9  UNL     1       1.808   0.699  -0.070  1.00  0.00     0.131 C 
BRANCH  10  11
HETATM   11  N2  UNL     1       2.685  -0.240   0.606  1.00  0.00    -0.359 N 
HETATM   12  C8  UNL     1       4.017  -0.406   0.148  1.00  0.00     0.243 C 
HETATM   13  O1  UNL     1       4.398   0.278  -0.825  1.00  0.00    -0.272 OA
ATOM     14  H2  UNL     1       2.346  -0.776   1.404  1.00  0.00     0.162 HD
BRANCH  12  15
HETATM   15  C7  UNL     1       4.907  -1.354   0.805  1.00  0.00     0.338 C 
BRANCH  15  16
HETATM   16  N1  UNL     1       6.261  -1.391   0.228  1.00  0.00    -0.066 N 
HETATM   17  C5  UNL     1       6.207  -1.593  -1.183  1.00  0.00     0.272 C 
HETATM   18  C6  UNL     1       6.915  -2.564   0.799  1.00  0.00     0.272 C 
BRANCH  16  19
HETATM   19  C4  UNL     1       6.958  -0.229   0.680  1.00  0.00     0.237 C 
BRANCH  19  20
HETATM   20  C3  UNL     1       8.040   0.303  -0.174  1.00  0.00     0.027 C 
BRANCH  20  21
HETATM   21  C2  UNL     1       9.194  -0.634  -0.425  1.00  0.00    -0.003 C 
HETATM   22  C1  UNL     1      10.175   0.144  -1.315  1.00  0.00     0.005 C 
ENDBRANCH  20  21
ENDBRANCH  19  20
ENDBRANCH  16  19
ENDBRANCH  15  16
ENDBRANCH  12  15
ENDBRANCH  10  11
ENDBRANCH   5  10
ENDBRANCH   1   4
BRANCH   1  23
HETATM   23  C17 UNL     1      -1.893  -0.554  -0.663  1.00  0.00     0.018 C 
BRANCH  23  24
HETATM   24  C18 UNL     1      -3.000  -1.482  -0.764  1.00  0.00     0.046 C 
HETATM   25  C19 UNL     1      -4.273  -1.041  -1.412  1.00  0.00     0.024 C 
HETATM   26  C20 UNL     1      -5.198  -2.172  -1.709  1.00  0.00    -0.012 C 
HETATM   27  C21 UNL     1      -4.630  -3.185  -2.665  1.00  0.00     0.009 C 
HETATM   28  C25 UNL     1      -5.541  -2.919  -0.432  1.00  0.00     0.015 C 
HETATM   29  C22 UNL     1      -3.324  -3.637  -2.081  1.00  0.00    -0.012 C 
HETATM   30  C23 UNL     1      -3.606  -4.439  -0.807  1.00  0.00     0.015 C 
HETATM   31  C27 UNL     1      -2.395  -2.563  -1.727  1.00  0.00     0.024 C 
HETATM   32  C24 UNL     1      -4.249  -3.475   0.128  1.00  0.00     0.060 C 
HETATM   33  C26 UNL     1      -3.383  -2.267   0.468  1.00  0.00     0.258 C 
HETATM   34  F1  UNL     1      -4.254  -1.493   1.259  1.00  0.00    -0.205 F 
HETATM   35  F2  UNL     1      -2.311  -2.730   1.167  1.00  0.00    -0.205 F 
ENDBRANCH  23  24
ENDBRANCH   1  23
BRANCH   2  36
HETATM   36  C28 UNL     1      -3.673   2.096   1.179  1.00  0.00     0.171 C 
BRANCH  36  37
HETATM   37  C29 UNL     1      -5.128   2.303   0.823  1.00  0.00     0.038 C 
BRANCH  37  38
HETATM   38  C30 UNL     1      -5.312   2.708  -0.618  1.00  0.00    -0.020 C 
HETATM   39  C31 UNL     1      -6.783   2.893  -0.933  1.00  0.00     0.009 C 
HETATM   40  C32 UNL     1      -4.639   4.054  -0.882  1.00  0.00     0.009 C 
ENDBRANCH  37  38
ENDBRANCH  36  37
BRANCH  36  41
HETATM   41  C33 UNL     1      -3.668   1.890   2.658  1.00  0.00     0.253 C 
HETATM   42  N4  UNL     1      -4.412   2.666   3.575  1.00  0.00    -0.060 NA
HETATM   43  O2  UNL     1      -2.958   0.969   3.115  1.00  0.00    -0.275 OA
ENDBRANCH  36  41
ENDBRANCH   2  36
TORSDOF 14
