REMARK  2 active torsions:
REMARK  status: ('A' for Active; 'I' for Inactive)
REMARK    1  A    between atoms: C2_2  and  N1_4 
REMARK    2  A    between atoms: N1_4  and  N2_6 
ROOT
HETATM    1  N2  UNL     1       0.971  -0.324   0.594  1.00  0.00    -0.313 N 
ATOM      2  H2  UNL     1       1.361   0.084   1.443  1.00  0.00     0.186 HD
HETATM    3  C4  UNL     1      -0.286  -0.343   0.433  1.00  0.00     0.006 C 
HETATM    4  C5  UNL     1      -0.872  -0.923  -0.778  1.00  0.00     0.084 C 
HETATM    5  C6  UNL     1      -2.355  -1.012  -0.785  1.00  0.00     0.277 C 
HETATM    6  N3  UNL     1      -3.027  -0.256   0.212  1.00  0.00     0.084 N 
HETATM    7  C7  UNL     1      -3.322   1.098  -0.136  1.00  0.00     0.309 C 
HETATM    8  C8  UNL     1      -2.449  -0.440   1.503  1.00  0.00     0.277 C 
HETATM    9  C9  UNL     1      -1.117   0.255   1.538  1.00  0.00     0.084 C 
ENDROOT
BRANCH   1  10
HETATM   10  N1  UNL     1       1.819  -0.845  -0.358  1.00  0.00    -0.333 N 
ATOM     11  H1  UNL     1       1.582  -1.711  -0.841  1.00  0.00     0.180 HD
BRANCH  10  12
HETATM   12  C2  UNL     1       3.070  -0.138  -0.670  1.00  0.00     0.091 C 
HETATM   13  C1  UNL     1       2.714   1.251  -1.169  1.00  0.00     0.033 C 
HETATM   14  C3  UNL     1       3.777   0.030   0.677  1.00  0.00     0.033 C 
ENDBRANCH  10  12
ENDBRANCH   1  10
TORSDOF 2
