REMARK  3 active torsions:
REMARK  status: ('A' for Active; 'I' for Inactive)
REMARK    1  A    between atoms: C2_2  and  C3_3 
REMARK    2  A    between atoms: C6_7  and  O1_8 
REMARK    3  A    between atoms: C6_7  and  N1_10 
ROOT
HETATM    1  C3  UNL     1       1.116   0.190   0.200  1.00  0.00     0.113 C 
HETATM    2  S1  UNL     1       1.364   0.813  -1.506  1.00  0.00    -0.159 SA
HETATM    3  C4  UNL     1       0.270   2.269  -1.195  1.00  0.00     0.079 C 
HETATM    4  C5  UNL     1      -0.783   1.623  -0.387  1.00  0.00     0.083 C 
HETATM    5  C6  UNL     1      -0.301   0.489   0.438  1.00  0.00     0.271 C 
ENDROOT
BRANCH   5   6
HETATM    6  O1  UNL     1      -0.434   0.882   1.795  1.00  0.00    -0.362 OA
ATOM      7  H1  UNL     1      -1.351   1.076   1.949  1.00  0.00     0.212 HD
ENDBRANCH   5   6
BRANCH   5   8
HETATM    8  N1  UNL     1      -1.163  -0.652   0.290  1.00  0.00     0.116 N 
HETATM    9  C7  UNL     1      -1.275  -1.234  -0.992  1.00  0.00     0.313 C 
HETATM   10  C8  UNL     1      -2.466  -0.503   0.882  1.00  0.00     0.313 C 
ENDBRANCH   5   8
BRANCH   1  11
HETATM   11  C2  UNL     1       1.617  -1.176   0.425  1.00  0.00     0.015 C 
HETATM   12  C1  UNL     1       3.126  -1.281   0.152  1.00  0.00     0.006 C 
ENDBRANCH   1  11
TORSDOF 3
