REMARK  3 active torsions:
REMARK  status: ('A' for Active; 'I' for Inactive)
REMARK    1  A    between atoms: C2_2  and  C3_3 
REMARK       I    between atoms: C3_3  and  N1_5 
REMARK    2  A    between atoms: N1_5  and  O2_6 
REMARK    3  A    between atoms: N1_5  and  C4_8 
ROOT
HETATM    1  C3  UNL     1       0.743  -0.659   0.211  1.00  0.00     0.243 C 
HETATM    2  O1  UNL     1       1.671  -1.501   0.511  1.00  0.00    -0.271 OA
HETATM    3  N1  UNL     1      -0.383  -1.161  -0.450  1.00  0.00    -0.212 N 
ENDROOT
BRANCH   3   4
HETATM    4  O2  UNL     1      -0.396  -2.509  -0.730  1.00  0.00    -0.284 OA
ATOM      5  H2  UNL     1      -1.161  -2.850  -1.179  1.00  0.00     0.245 HD
ENDBRANCH   3   4
BRANCH   3   6
HETATM    6  C4  UNL     1      -1.548  -0.430  -0.872  1.00  0.00     0.200 A 
HETATM    7  C5  UNL     1      -2.324   0.241   0.256  1.00  0.00     0.125 A 
HETATM    8  S1  UNL     1      -2.306   1.992  -0.172  1.00  0.00    -0.092 SA
HETATM    9  S2  UNL     1      -1.214   1.104  -1.728  1.00  0.00    -0.068 SA
ENDBRANCH   3   6
BRANCH   1  10
HETATM   10  C2  UNL     1       1.008   0.727   0.613  1.00  0.00     0.101 C 
HETATM   11  C1  UNL     1       2.370   0.886   1.266  1.00  0.00     0.014 C 
ENDBRANCH   1  10
TORSDOF 3
