REMARK  3 active torsions:
REMARK  status: ('A' for Active; 'I' for Inactive)
REMARK    1  A    between atoms: C2_2  and  S1_3 
REMARK    2  A    between atoms: S1_3  and  C3_4 
REMARK    3  A    between atoms: C6_7  and  O1_8 
ROOT
HETATM    1  C3  UNL     1       0.041  -0.070   0.078  1.00  0.00     0.056 C 
HETATM    2  C4  UNL     1      -0.972  -0.964   0.714  1.00  0.00     0.019 C 
HETATM    3  C5  UNL     1      -2.096  -1.376  -0.182  1.00  0.00     0.044 C 
HETATM    4  C6  UNL     1      -2.941  -0.235  -0.669  1.00  0.00     0.179 C 
HETATM    5  S2  UNL     1      -1.889   1.054  -1.406  1.00  0.00    -0.137 SA
HETATM    6  C7  UNL     1      -0.498   1.288  -0.275  1.00  0.00     0.091 C 
ENDROOT
BRANCH   1   7
HETATM    7  S1  UNL     1       1.352   0.213   1.315  1.00  0.00    -0.164 SA
BRANCH   7   8
HETATM    8  C2  UNL     1       2.984  -0.178   0.677  1.00  0.00     0.070 C 
HETATM    9  C1  UNL     1       3.460   0.774  -0.389  1.00  0.00     0.016 C 
ENDBRANCH   7   8
ENDBRANCH   1   7
BRANCH   4  10
HETATM   10  O1  UNL     1      -3.673   0.341   0.351  1.00  0.00    -0.385 OA
ATOM     11  H1  UNL     1      -4.208   1.063   0.043  1.00  0.00     0.211 HD
ENDBRANCH   4  10
TORSDOF 3
