REMARK  6 active torsions:
REMARK  status: ('A' for Active; 'I' for Inactive)
REMARK    1  A    between atoms: C2_2  and  C3_3 
REMARK    2  A    between atoms: C3_3  and  C4_4 
REMARK    3  A    between atoms: C4_4  and  C5_5 
REMARK       I    between atoms: C5_5  and  N1_7 
REMARK    4  A    between atoms: N1_7  and  C6_9 
REMARK    5  A    between atoms: C17_20  and  O2_21 
REMARK    6  A    between atoms: C18_25  and  O3_26 
ROOT
HETATM    1  C6  UNL     1       0.352  -1.222  -0.085  1.00  0.00     0.093 C 
HETATM    2  C7  UNL     1      -0.146  -2.638  -0.347  1.00  0.00     0.026 C 
HETATM    3  C8  UNL     1      -1.174  -2.726  -1.423  1.00  0.00     0.007 C 
HETATM    4  C9  UNL     1      -2.282  -1.754  -1.075  1.00  0.00    -0.009 C 
HETATM    5  C10 UNL     1      -2.638  -1.902   0.362  1.00  0.00     0.006 C 
HETATM    6  C11 UNL     1      -1.694  -1.269   1.327  1.00  0.00     0.012 C 
HETATM    7  C12 UNL     1      -0.652  -0.381   0.675  1.00  0.00    -0.011 C 
HETATM    8  C13 UNL     1      -0.023   0.400   1.774  1.00  0.00     0.018 C 
HETATM    9  C14 UNL     1      -1.371   0.479  -0.330  1.00  0.00     0.002 C 
HETATM   10  C15 UNL     1      -0.495   1.545  -0.933  1.00  0.00     0.022 C 
HETATM   11  C16 UNL     1      -2.591   1.143   0.189  1.00  0.00     0.013 A 
HETATM   12  C17 UNL     1      -3.163   1.823   1.242  1.00  0.00     0.149 A 
HETATM   13  N2  UNL     1      -4.439   2.121   0.917  1.00  0.00    -0.317 N 
ATOM     14  H2  UNL     1      -5.091   2.623   1.520  1.00  0.00     0.170 HD
HETATM   15  C18 UNL     1      -4.727   1.667  -0.304  1.00  0.00     0.148 A 
HETATM   16  C19 UNL     1      -3.593   1.050  -0.789  1.00  0.00     0.004 A 
HETATM   17  C20 UNL     1      -3.086   0.340  -1.988  1.00  0.00     0.050 C 
HETATM   18  C21 UNL     1      -1.876  -0.363  -1.471  1.00  0.00     0.008 C 
ENDROOT
BRANCH   1  19
HETATM   19  N1  UNL     1       1.648  -1.316   0.558  1.00  0.00    -0.356 N 
HETATM   20  C5  UNL     1       2.842  -0.784  -0.053  1.00  0.00     0.217 C 
HETATM   21  O1  UNL     1       2.789  -0.219  -1.170  1.00  0.00    -0.274 OA
ATOM     22  H1  UNL     1       1.718  -1.771   1.468  1.00  0.00     0.162 HD
BRANCH  20  23
HETATM   23  C4  UNL     1       4.133  -0.905   0.640  1.00  0.00     0.103 C 
BRANCH  23  24
HETATM   24  C3  UNL     1       5.225  -0.145  -0.007  1.00  0.00     0.009 C 
BRANCH  24  25
HETATM   25  C2  UNL     1       4.992   1.317  -0.005  1.00  0.00    -0.004 C 
HETATM   26  C1  UNL     1       6.155   2.045  -0.684  1.00  0.00     0.005 C 
ENDBRANCH  24  25
ENDBRANCH  23  24
ENDBRANCH  20  23
ENDBRANCH   1  19
BRANCH  12  27
HETATM   27  O2  UNL     1      -2.587   2.187   2.482  1.00  0.00    -0.346 OA
ATOM     28  H2  UNL     1      -2.981   2.656   3.208  1.00  0.00     0.219 HD
ENDBRANCH  12  27
BRANCH  15  29
HETATM   29  O3  UNL     1      -5.943   1.773  -1.007  1.00  0.00    -0.346 OA
ATOM     30  H3  UNL     1      -6.148   1.450  -1.876  1.00  0.00     0.219 HD
ENDBRANCH  15  29
TORSDOF 6
