REMARK  7 active torsions:
REMARK  status: ('A' for Active; 'I' for Inactive)
REMARK    1  A    between atoms: C3_3  and  C4_4 
REMARK    2  A    between atoms: C9_11  and  N2_12 
REMARK    3  A    between atoms: N2_12  and  C10_14 
REMARK    4  A    between atoms: C13_17  and  N3_18 
REMARK       I    between atoms: N3_18  and  C14_20 
REMARK    5  A    between atoms: C14_20  and  O2_22 
REMARK    6  A    between atoms: O2_22  and  C15_23 
REMARK    7  A    between atoms: C15_23  and  O3_25 
ROOT
HETATM    1  C10 UNL     1       0.417  -0.840  -0.327  1.00  0.00     0.081 C 
HETATM    2  C11 UNL     1       1.173   0.240  -1.147  1.00  0.00     0.027 C 
HETATM    3  C12 UNL     1       2.118   0.856  -0.147  1.00  0.00     0.027 C 
HETATM    4  C13 UNL     1       3.071  -0.212   0.301  1.00  0.00     0.086 C 
HETATM    5  C17 UNL     1       2.828  -1.560  -0.344  1.00  0.00     0.027 C 
HETATM    6  C18 UNL     1       1.349  -1.966  -0.198  1.00  0.00     0.027 C 
ENDROOT
BRANCH   1   7
HETATM    7  N2  UNL     1      -0.866  -0.896  -0.861  1.00  0.00    -0.388 N 
ATOM      8  H2  UNL     1      -1.023  -0.699  -1.850  1.00  0.00     0.159 HD
BRANCH   7   9
HETATM    9  C9  UNL     1      -1.925  -1.221  -0.037  1.00  0.00     0.018 C 
HETATM   10  C8  UNL     1      -3.155  -0.443   0.009  1.00  0.00     0.017 A 
HETATM   11  C2  UNL     1      -3.700   0.771  -0.382  1.00  0.00    -0.025 A 
HETATM   12  C7  UNL     1      -3.992  -1.076   0.885  1.00  0.00     0.022 A 
HETATM   13  C1  UNL     1      -3.070   1.755  -1.255  1.00  0.00     0.051 C 
HETATM   14  C3  UNL     1      -4.895   0.836   0.313  1.00  0.00     0.019 A 
HETATM   15  N1  UNL     1      -5.073  -0.260   1.064  1.00  0.00    -0.361 N 
ATOM     16  H1  UNL     1      -5.875  -0.451   1.664  1.00  0.00     0.165 HD
HETATM   17  C20 UNL     1      -3.437  -2.409   1.255  1.00  0.00     0.064 C 
HETATM   18  C19 UNL     1      -2.252  -2.604   0.312  1.00  0.00     0.063 C 
BRANCH  14  19
HETATM   19  C4  UNL     1      -5.839   1.982   0.128  1.00  0.00     0.028 C 
HETATM   20  C5  UNL     1      -6.046   2.608   1.517  1.00  0.00     0.016 C 
HETATM   21  C6  UNL     1      -7.233   1.365  -0.173  1.00  0.00     0.016 C 
ENDBRANCH  14  19
ENDBRANCH   7   9
ENDBRANCH   1   7
BRANCH   4  22
HETATM   22  N3  UNL     1       4.402   0.298   0.141  1.00  0.00    -0.332 N 
HETATM   23  C14 UNL     1       5.654  -0.300   0.322  1.00  0.00     0.363 C 
HETATM   24  O1  UNL     1       5.729  -1.497   0.669  1.00  0.00    -0.238 OA
ATOM     25  H3  UNL     1       4.443   1.272  -0.159  1.00  0.00     0.165 HD
BRANCH  23  26
HETATM   26  O2  UNL     1       6.823   0.397   0.126  1.00  0.00    -0.273 OA
BRANCH  26  27
HETATM   27  C15 UNL     1       8.134  -0.070   0.231  1.00  0.00     0.264 C 
HETATM   28  C16 UNL     1       8.796   0.143  -1.121  1.00  0.00     0.071 C 
BRANCH  27  29
HETATM   29  O3  UNL     1       8.917   0.625   1.152  1.00  0.00    -0.371 OA
ATOM     30  H3  UNL     1       9.809   0.307   1.223  1.00  0.00     0.212 HD
ENDBRANCH  27  29
ENDBRANCH  26  27
ENDBRANCH  23  26
ENDBRANCH   4  22
TORSDOF 7
