REMARK  6 active torsions:
REMARK  status: ('A' for Active; 'I' for Inactive)
REMARK    1  A    between atoms: C2_2  and  C3_3 
REMARK    2  A    between atoms: C3_3  and  C4_4 
REMARK    3  A    between atoms: C4_4  and  O1_5 
REMARK    4  A    between atoms: C12_14  and  C13_15 
REMARK    5  A    between atoms: C16_18  and  O2_19 
REMARK    6  A    between atoms: C17_21  and  C18_22 
ROOT
HETATM    1  C3  UNL     1       3.096  -0.421  -0.462  1.00  0.00    -0.015 C 
HETATM    2  C5  UNL     1       2.721   0.157  -1.790  1.00  0.00     0.013 C 
HETATM    3  C6  UNL     1       1.259   0.528  -1.778  1.00  0.00     0.015 C 
HETATM    4  C7  UNL     1       0.692  -0.376  -0.632  1.00  0.00    -0.011 C 
HETATM    5  C8  UNL     1       0.618  -1.648  -1.390  1.00  0.00     0.021 C 
HETATM    6  C9  UNL     1      -0.549   0.186  -0.084  1.00  0.00    -0.035 A 
HETATM    7  C10 UNL     1      -1.736  -0.554  -0.122  1.00  0.00    -0.041 A 
HETATM    8  C11 UNL     1      -1.714  -2.020  -0.159  1.00  0.00     0.050 C 
HETATM    9  C12 UNL     1      -2.964   0.023   0.217  1.00  0.00     0.006 A 
HETATM   10  C16 UNL     1      -2.966   1.360   0.612  1.00  0.00     0.094 A 
HETATM   11  C17 UNL     1      -1.773   2.121   0.676  1.00  0.00     0.081 A 
HETATM   12  C19 UNL     1      -0.573   1.512   0.322  1.00  0.00    -0.031 A 
HETATM   13  C20 UNL     1       0.708   2.221   0.543  1.00  0.00     0.041 C 
HETATM   14  C21 UNL     1       1.930   1.418   0.429  1.00  0.00     0.011 C 
HETATM   15  C22 UNL     1       1.819  -0.106   0.298  1.00  0.00     0.009 C 
ENDROOT
BRANCH   1  16
HETATM   16  C2  UNL     1       4.287   0.350   0.116  1.00  0.00     0.007 C 
HETATM   17  C1  UNL     1       4.621  -0.076   1.514  1.00  0.00     0.006 C 
ENDBRANCH   1  16
BRANCH   1  18
HETATM   18  C4  UNL     1       3.556  -1.824  -0.425  1.00  0.00     0.173 C 
BRANCH  18  19
HETATM   19  O1  UNL     1       4.731  -1.971  -1.241  1.00  0.00    -0.400 OA
ATOM     20  H1  UNL     1       5.027  -2.873  -1.217  1.00  0.00     0.209 HD
ENDBRANCH  18  19
ENDBRANCH   1  18
BRANCH   9  21
HETATM   21  C13 UNL     1      -4.177  -0.745  -0.090  1.00  0.00    -0.074 C 
HETATM   22  C14 UNL     1      -5.292  -0.851   0.868  1.00  0.00     0.044 C 
HETATM   23  C15 UNL     1      -4.171  -1.663  -1.273  1.00  0.00     0.044 C 
ENDBRANCH   9  21
BRANCH  11  24
HETATM   24  C18 UNL     1      -1.836   3.501   1.073  1.00  0.00     0.212 C 
HETATM   25  O3  UNL     1      -0.787   4.203   1.132  1.00  0.00    -0.644 OA
HETATM   26  O4  UNL     1      -3.002   4.149   1.405  1.00  0.00    -0.644 OA
ENDBRANCH  11  24
BRANCH  10  27
HETATM   27  O2  UNL     1      -4.139   1.954   0.944  1.00  0.00    -0.359 OA
ATOM     28  H2  UNL     1      -4.140   2.865   1.213  1.00  0.00     0.217 HD
ENDBRANCH  10  27
TORSDOF 6
