REMARK  8 active torsions:
REMARK  status: ('A' for Active; 'I' for Inactive)
REMARK    1  A    between atoms: C2_2  and  C5_5 
REMARK    2  A    between atoms: C5_5  and  C6_6 
REMARK    3  A    between atoms: C7_7  and  C8_8 
REMARK    4  A    between atoms: C8_8  and  O1_9 
REMARK    5  A    between atoms: C8_8  and  N1_11 
REMARK    6  A    between atoms: N1_11  and  C9_13 
REMARK    7  A    between atoms: C15_23  and  N4_24 
REMARK    8  A    between atoms: N4_24  and  C16_26 
ROOT
HETATM    1  C9  UNL     1      -0.360  -0.123  -1.087  1.00  0.00     0.131 A 
HETATM    2  N2  UNL     1       0.184  -0.059  -2.293  1.00  0.00    -0.348 N 
ATOM      3  H2  UNL     1       0.996  -0.647  -2.482  1.00  0.00     0.167 HD
HETATM    4  C10 UNL     1      -0.265   0.733  -3.287  1.00  0.00     0.120 A 
HETATM    5  C11 UNL     1      -1.373   1.537  -3.028  1.00  0.00     0.060 A 
HETATM    6  N3  UNL     1      -2.035   2.417  -3.799  1.00  0.00    -0.364 N 
ATOM      7  H3  UNL     1      -1.816   2.650  -4.768  1.00  0.00     0.165 HD
HETATM    8  C12 UNL     1      -3.028   2.932  -3.074  1.00  0.00     0.089 A 
HETATM    9  C13 UNL     1      -3.030   2.396  -1.815  1.00  0.00     0.033 A 
HETATM   10  C14 UNL     1      -1.982   1.505  -1.769  1.00  0.00     0.023 A 
HETATM   11  C15 UNL     1      -1.457   0.664  -0.811  1.00  0.00     0.085 A 
ENDROOT
BRANCH   1  12
HETATM   12  N1  UNL     1       0.103  -0.885  -0.191  1.00  0.00    -0.338 N 
ATOM     13  H1  UNL     1      -0.386  -0.862   0.704  1.00  0.00     0.164 HD
BRANCH  12  14
HETATM   14  C8  UNL     1       1.213  -1.770  -0.261  1.00  0.00     0.301 C 
BRANCH  14  15
HETATM   15  C7  UNL     1       2.511  -1.077  -0.332  1.00  0.00    -0.053 C 
HETATM   16  C6  UNL     1       3.574  -0.509  -0.388  1.00  0.00    -0.101 C 
BRANCH  16  17
HETATM   17  C5  UNL     1       4.866   0.173  -0.466  1.00  0.00     0.102 C 
BRANCH  17  18
HETATM   18  C2  UNL     1       5.583  -0.092   0.853  1.00  0.00    -0.041 C 
HETATM   19  C1  UNL     1       6.949   0.593   0.848  1.00  0.00     0.015 C 
HETATM   20  C3  UNL     1       5.818  -1.558   1.066  1.00  0.00     0.015 C 
HETATM   21  C4  UNL     1       4.765   0.515   1.950  1.00  0.00     0.015 C 
ENDBRANCH  17  18
ENDBRANCH  16  17
ENDBRANCH  14  15
BRANCH  14  22
HETATM   22  O1  UNL     1       1.098  -2.758  -1.236  1.00  0.00    -0.366 OA
ATOM     23  H1  UNL     1       0.261  -3.205  -1.190  1.00  0.00     0.213 HD
ENDBRANCH  14  22
ENDBRANCH  12  14
ENDBRANCH   1  12
BRANCH  11  24
HETATM   24  N4  UNL     1      -2.056   0.619   0.487  1.00  0.00    -0.382 N 
ATOM     25  H4  UNL     1      -1.748   1.303   1.178  1.00  0.00     0.160 HD
BRANCH  24  26
HETATM   26  C16 UNL     1      -3.061  -0.324   0.880  1.00  0.00     0.082 C 
HETATM   27  C17 UNL     1      -3.481  -0.060   2.302  1.00  0.00     0.025 C 
HETATM   28  C18 UNL     1      -4.980   0.108   2.432  1.00  0.00     0.002 C 
HETATM   29  C19 UNL     1      -5.717  -1.081   1.833  1.00  0.00     0.000 C 
HETATM   30  C20 UNL     1      -5.188  -1.444   0.480  1.00  0.00     0.002 C 
HETATM   31  C21 UNL     1      -4.273  -0.327  -0.017  1.00  0.00     0.025 C 
ENDBRANCH  24  26
ENDBRANCH  11  24
TORSDOF 8
