REMARK  5 active torsions:
REMARK  status: ('A' for Active; 'I' for Inactive)
REMARK    1  A    between atoms: C2_2  and  C3_3 
REMARK    2  A    between atoms: C3_3  and  C5_5 
REMARK    3  A    between atoms: C5_5  and  C6_6 
REMARK    4  A    between atoms: C14_18  and  O1_19 
REMARK    5  A    between atoms: O1_19  and  C15_20 
ROOT
HETATM    1  C6  UNL     1       0.335  -0.007   0.076  1.00  0.00     0.052 C 
HETATM    2  C7  UNL     1       0.276   1.430  -0.270  1.00  0.00    -0.023 A 
HETATM    3  C8  UNL     1       0.703   1.946  -1.454  1.00  0.00     0.035 A 
HETATM    4  C9  UNL     1       0.618   3.293  -1.762  1.00  0.00     0.056 A 
HETATM    5 CL1  UNL     1       1.195   3.893  -3.325  1.00  0.00    -0.083 Cl
HETATM    6  C10 UNL     1       0.078   4.130  -0.822  1.00  0.00     0.058 A 
HETATM    7 CL2  UNL     1      -0.044   5.846  -1.185  1.00  0.00    -0.082 Cl
HETATM    8  C11 UNL     1      -0.363   3.635   0.387  1.00  0.00     0.055 A 
HETATM    9  C12 UNL     1      -0.266   2.265   0.678  1.00  0.00     0.036 A 
HETATM   10  N1  UNL     1      -0.693   1.737   1.912  1.00  0.00    -0.387 N 
ATOM     11  H1  UNL     1      -0.661   2.323   2.746  1.00  0.00     0.159 HD
HETATM   12  C13 UNL     1      -1.172   0.388   2.016  1.00  0.00     0.152 C 
HETATM   13  C14 UNL     1      -1.023  -0.344   0.722  1.00  0.00     0.148 C 
ENDROOT
BRANCH   1  14
HETATM   14  C5  UNL     1       1.464  -0.368   0.974  1.00  0.00     0.016 C 
BRANCH  14  15
HETATM   15  C3  UNL     1       2.825  -0.087   0.430  1.00  0.00    -0.018 C 
HETATM   16  C4  UNL     1       3.923  -0.440   1.412  1.00  0.00     0.010 C 
BRANCH  15  17
HETATM   17  C2  UNL     1       3.121  -0.842  -0.846  1.00  0.00    -0.000 C 
HETATM   18  C1  UNL     1       3.126  -2.338  -0.524  1.00  0.00     0.005 C 
ENDBRANCH  15  17
ENDBRANCH  14  15
ENDBRANCH   1  14
BRANCH  13  19
HETATM   19  O1  UNL     1      -2.064  -0.002  -0.105  1.00  0.00    -0.374 OA
BRANCH  19  20
HETATM   20  C15 UNL     1      -2.856  -1.034  -0.514  1.00  0.00     0.050 C 
HETATM   21  C16 UNL     1      -3.944  -0.444  -1.417  1.00  0.00     0.045 C 
HETATM   22  C17 UNL     1      -3.584  -1.733   0.614  1.00  0.00     0.045 C 
HETATM   23  C18 UNL     1      -2.149  -2.083  -1.324  1.00  0.00     0.045 C 
ENDBRANCH  19  20
ENDBRANCH  13  19
TORSDOF 5
