REMARK  4 active torsions:
REMARK  status: ('A' for Active; 'I' for Inactive)
REMARK    1  A    between atoms: C2_2  and  C5_5 
REMARK    2  A    between atoms: C5_5  and  C6_6 
REMARK    3  A    between atoms: C6_6  and  C7_7 
REMARK    4  A    between atoms: C8_10  and  C9_11 
ROOT
HETATM    1  C7  UNL     1       0.178  -0.124  -0.551  1.00  0.00     0.118 C 
HETATM    2  N1  UNL     1      -1.011  -0.975  -0.355  1.00  0.00    -0.370 N 
ATOM      3  H1  UNL     1      -0.873  -1.975  -0.504  1.00  0.00     0.161 HD
HETATM    4  C8  UNL     1      -2.285  -0.591   0.004  1.00  0.00     0.085 C 
HETATM    5  N2  UNL     1      -2.619   0.633  -0.023  1.00  0.00    -0.345 N 
ATOM      6  H2  UNL     1      -3.562   0.920   0.237  1.00  0.00     0.167 HD
HETATM    7  C13 UNL     1      -1.653   1.595  -0.423  1.00  0.00     0.043 A 
HETATM    8  C14 UNL     1      -2.141   2.907  -0.548  1.00  0.00     0.055 A 
HETATM    9  C15 UNL     1      -1.355   3.904  -1.025  1.00  0.00     0.058 A 
HETATM   10 CL1  UNL     1      -1.935   5.547  -1.191  1.00  0.00    -0.082 Cl
HETATM   11  C16 UNL     1      -0.069   3.593  -1.382  1.00  0.00     0.056 A 
HETATM   12 CL2  UNL     1       0.976   4.859  -2.005  1.00  0.00    -0.083 Cl
HETATM   13  C17 UNL     1       0.407   2.287  -1.252  1.00  0.00     0.037 A 
HETATM   14  C18 UNL     1      -0.364   1.259  -0.771  1.00  0.00    -0.007 A 
ENDROOT
BRANCH   1  15
HETATM   15  C6  UNL     1       0.961  -0.201   0.736  1.00  0.00     0.031 C 
BRANCH  15  16
HETATM   16  C5  UNL     1       2.264   0.430   0.862  1.00  0.00     0.011 C 
BRANCH  16  17
HETATM   17  C2  UNL     1       3.444  -0.088   0.164  1.00  0.00    -0.051 C 
HETATM   18  C1  UNL     1       3.464  -0.192  -1.311  1.00  0.00     0.014 C 
HETATM   19  C3  UNL     1       4.614   0.867   0.530  1.00  0.00     0.014 C 
HETATM   20  C4  UNL     1       3.905  -1.445   0.706  1.00  0.00     0.014 C 
ENDBRANCH  16  17
ENDBRANCH  15  16
ENDBRANCH   1  15
BRANCH   4  21
HETATM   21  C9  UNL     1      -3.317  -1.583   0.437  1.00  0.00     0.007 C 
HETATM   22  C10 UNL     1      -4.612  -0.883   0.772  1.00  0.00     0.022 C 
HETATM   23  C11 UNL     1      -3.575  -2.486  -0.767  1.00  0.00     0.022 C 
HETATM   24  C12 UNL     1      -2.885  -2.364   1.642  1.00  0.00     0.022 C 
ENDBRANCH   4  21
TORSDOF 4
