REMARK  3 active torsions:
REMARK  status: ('A' for Active; 'I' for Inactive)
REMARK    1  A    between atoms: C8_9  and  C9_10 
REMARK    2  A    between atoms: C9_10  and  C10_12 
REMARK    3  A    between atoms: N1_13  and  C11_15 
ROOT
HETATM    1  C9  UNL     1       0.475  -0.639  -0.044  1.00  0.00     0.104 C 
HETATM    2 BR1  UNL     1       0.805  -2.083   1.147  1.00  0.00    -0.085 Br
ENDROOT
BRANCH   1   3
HETATM    3  C8  UNL     1      -0.867  -0.057  -0.092  1.00  0.00     0.035 C 
HETATM    4  C2  UNL     1      -2.035  -0.828  -0.487  1.00  0.00    -0.063 C 
HETATM    5  C1  UNL     1      -2.305  -2.037  -0.097  1.00  0.00     0.087 C 
HETATM    6  C3  UNL     1      -3.113  -0.279  -1.406  1.00  0.00     0.035 C 
HETATM    7 CL1  UNL     1      -3.764  -2.834  -0.632  1.00  0.00    -0.097 Cl
HETATM    8  C4  UNL     1      -3.926   0.763  -0.688  1.00  0.00     0.004 C 
HETATM    9  C5  UNL     1      -3.559   0.884   0.772  1.00  0.00     0.000 C 
HETATM   10  C6  UNL     1      -2.253   1.570   1.025  1.00  0.00     0.001 C 
HETATM   11  C7  UNL     1      -1.214   0.500   1.312  1.00  0.00     0.010 C 
ENDBRANCH   1   3
BRANCH   1  12
HETATM   12  C10 UNL     1       1.001  -0.927  -1.420  1.00  0.00     0.077 C 
HETATM   13  N1  UNL     1       2.235  -0.801  -1.698  1.00  0.00    -0.368 N 
ATOM     14  H1  UNL     1       2.515  -1.015  -2.655  1.00  0.00     0.165 HD
BRANCH  13  15
HETATM   15  C11 UNL     1       3.261  -0.393  -0.809  1.00  0.00     0.031 A 
HETATM   16  C12 UNL     1       4.011  -1.279  -0.065  1.00  0.00     0.029 A 
HETATM   17  C13 UNL     1       5.003  -0.782   0.784  1.00  0.00     0.002 A 
HETATM   18  C14 UNL     1       5.266   0.554   0.911  1.00  0.00     0.000 A 
HETATM   19  C15 UNL     1       4.508   1.436   0.160  1.00  0.00     0.002 A 
HETATM   20  C16 UNL     1       3.525   0.948  -0.682  1.00  0.00     0.029 A 
ENDBRANCH  13  15
ENDBRANCH   1  12
TORSDOF 3
