REMARK  3 active torsions:
REMARK  status: ('A' for Active; 'I' for Inactive)
REMARK    1  A    between atoms: C2_2  and  C3_3 
REMARK    2  A    between atoms: C3_3  and  C4_4 
REMARK    3  A    between atoms: C8_8  and  C9_9 
ROOT
HETATM    1  C4  UNL     1       3.746  -0.377  -0.794  1.00  0.00    -0.017 A 
HETATM    2  C5  UNL     1       2.969  -1.339  -0.196  1.00  0.00     0.018 A 
HETATM    3  C6  UNL     1       1.586  -1.199  -0.116  1.00  0.00    -0.048 A 
HETATM    4  C7  UNL     1       0.764  -2.250   0.557  1.00  0.00     0.049 C 
HETATM    5  C8  UNL     1       0.935  -0.086  -0.634  1.00  0.00     0.014 A 
HETATM    6  C18 UNL     1       1.699   0.864  -1.227  1.00  0.00     0.085 A 
HETATM    7 CL1  UNL     1       1.088   2.293  -2.061  1.00  0.00    -0.080 Cl
HETATM    8  C19 UNL     1       3.089   0.712  -1.300  1.00  0.00     0.145 A 
HETATM    9  F1  UNL     1       3.844   1.662  -1.888  1.00  0.00    -0.204 F 
ENDROOT
BRANCH   5  10
HETATM   10  C9  UNL     1      -0.529  -0.003  -0.627  1.00  0.00     0.042 A 
HETATM   11  S1  UNL     1      -1.606  -1.356  -0.886  1.00  0.00    -0.091 SA
HETATM   12  C10 UNL     1      -3.081  -0.596  -0.620  1.00  0.00    -0.009 A 
HETATM   13  C11 UNL     1      -2.736   0.689  -0.333  1.00  0.00    -0.019 A 
HETATM   14  C17 UNL     1      -4.456  -1.215  -0.687  1.00  0.00     0.046 C 
HETATM   15  C12 UNL     1      -1.407   0.995  -0.336  1.00  0.00     0.071 A 
HETATM   16  C13 UNL     1      -3.741   1.803  -0.014  1.00  0.00     0.042 C 
HETATM   17  N1  UNL     1      -0.959   2.342   0.058  1.00  0.00    -0.100 NA
HETATM   18  C14 UNL     1      -4.998   1.190   0.496  1.00  0.00     0.005 C 
HETATM   19  C15 UNL     1      -4.654   0.052   1.420  1.00  0.00     0.001 C 
HETATM   20  C16 UNL     1      -5.091  -1.224   0.686  1.00  0.00     0.005 C 
ENDBRANCH   5  10
BRANCH   1  21
HETATM   21  C3  UNL     1       5.201  -0.500  -0.889  1.00  0.00     0.041 C 
BRANCH  21  22
HETATM   22  C2  UNL     1       5.952   0.367   0.090  1.00  0.00     0.000 C 
HETATM   23  C1  UNL     1       5.615   0.049   1.518  1.00  0.00     0.005 C 
ENDBRANCH  21  22
ENDBRANCH   1  21
TORSDOF 3
