REMARK  2 active torsions:
REMARK  status: ('A' for Active; 'I' for Inactive)
REMARK    1  A    between atoms: C3_3  and  O1_4 
REMARK    2  A    between atoms: C7_9  and  O2_10 
ROOT
HETATM    1  C1  UNL     1      -2.226   0.298  -0.513  1.00  0.00     0.015 C 
HETATM    2  C2  UNL     1      -0.895  -0.015   0.141  1.00  0.00     0.039 C 
HETATM    3  C3  UNL     1      -0.206  -1.194  -0.547  1.00  0.00     0.124 C 
HETATM    4  C4  UNL     1       1.088  -1.414   0.246  1.00  0.00     0.032 C 
HETATM    5  C5  UNL     1       2.016  -0.271   0.003  1.00  0.00     0.005 C 
HETATM    6  C6  UNL     1       1.366   1.044  -0.194  1.00  0.00     0.032 C 
HETATM    7  C7  UNL     1      -0.024   1.170   0.286  1.00  0.00     0.124 C 
ENDROOT
BRANCH   3   8
HETATM    8  O1  UNL     1      -0.978  -2.349  -0.299  1.00  0.00    -0.395 OA
ATOM      9  H1  UNL     1      -0.550  -3.081  -0.726  1.00  0.00     0.210 HD
ENDBRANCH   3   8
BRANCH   7  10
HETATM   10  O2  UNL     1      -0.615   2.250  -0.413  1.00  0.00    -0.395 OA
ATOM     11  H2  UNL     1      -0.055   3.012  -0.320  1.00  0.00     0.210 HD
ENDBRANCH   7  10
TORSDOF 2
