REMARK  6 active torsions:
REMARK  status: ('A' for Active; 'I' for Inactive)
REMARK    1  A    between atoms: C2_3  and  O1_4 
REMARK    2  A    between atoms: C4_8  and  C5_9 
REMARK    3  A    between atoms: C5_9  and  O3_10 
REMARK    4  A    between atoms: C8_14  and  N2_15 
REMARK    5  A    between atoms: C8_14  and  C9_19 
REMARK    6  A    between atoms: C9_19  and  O4_20 
ROOT
HETATM    1  N1  UNL     1      -1.522  -3.587  -1.134  1.00  0.00    -0.191 NA
HETATM    2  C1  UNL     1      -1.931  -2.615  -0.646  1.00  0.00     0.131 C 
HETATM    3  C2  UNL     1      -2.432  -1.369  -0.028  1.00  0.00     0.279 C 
HETATM    4  C3  UNL     1      -2.672  -0.389  -1.130  1.00  0.00     0.254 C 
HETATM    5  O2  UNL     1      -1.575   0.266  -1.588  1.00  0.00    -0.366 OA
HETATM    6  C4  UNL     1      -0.669   0.669  -0.621  1.00  0.00     0.132 C 
HETATM    7  C6  UNL     1       0.634   0.943  -1.339  1.00  0.00     0.050 C 
HETATM    8  C7  UNL     1       1.724   1.158  -0.333  1.00  0.00     0.074 C 
HETATM    9  C8  UNL     1       1.746   0.194   0.803  1.00  0.00     0.247 C 
HETATM   10  O5  UNL     1       0.500  -0.075   1.319  1.00  0.00    -0.319 OA
HETATM   11  C10 UNL     1      -0.406  -0.464   0.344  1.00  0.00     0.304 C 
HETATM   12  O6  UNL     1      -1.574  -0.909   0.951  1.00  0.00    -0.308 OA
ENDROOT
BRANCH   3  13
HETATM   13  O1  UNL     1      -3.656  -1.655   0.603  1.00  0.00    -0.352 OA
ATOM     14  H1  UNL     1      -3.978  -0.854   1.000  1.00  0.00     0.214 HD
ENDBRANCH   3  13
BRANCH   6  15
HETATM   15  C5  UNL     1      -1.092   1.931   0.083  1.00  0.00     0.207 C 
BRANCH  15  16
HETATM   16  O3  UNL     1      -2.320   1.787   0.729  1.00  0.00    -0.398 OA
ATOM     17  H3  UNL     1      -2.587   2.583   1.173  1.00  0.00     0.209 HD
ENDBRANCH  15  16
ENDBRANCH   6  15
BRANCH   9  18
HETATM   18  N2  UNL     1       2.516   0.829   1.886  1.00  0.00    -0.045 N 
ATOM     19  H23 UNL     1       3.447   1.129   1.595  1.00  0.00     0.278 HD
ATOM     20  H22 UNL     1       2.160   1.749   2.146  1.00  0.00     0.278 HD
ATOM     21  H21 UNL     1       2.531   0.169   2.664  1.00  0.00     0.278 HD
ENDBRANCH   9  18
BRANCH   9  22
HETATM   22  C9  UNL     1       2.518  -1.061   0.440  1.00  0.00     0.232 C 
BRANCH  22  23
HETATM   23  O4  UNL     1       3.792  -0.674   0.022  1.00  0.00    -0.396 OA
ATOM     24  H4  UNL     1       4.275  -1.460  -0.205  1.00  0.00     0.209 HD
ENDBRANCH  22  23
ENDBRANCH   9  22
TORSDOF 6
