REMARK  4 active torsions:
REMARK  status: ('A' for Active; 'I' for Inactive)
REMARK    1  A    between atoms: C3_4  and  C4_5 
REMARK    2  A    between atoms: C6_12  and  N4_13 
REMARK    3  A    between atoms: C7_16  and  N5_17 
REMARK    4  A    between atoms: N5_17  and  N6_19 
ROOT
HETATM    1  C1  UNL     1       3.438  -1.129   0.646  1.00  0.00     0.160 C 
HETATM    2  N1  UNL     1       2.340  -0.248   0.218  1.00  0.00    -0.313 N 
HETATM    3  C2  UNL     1       1.070  -0.721   0.205  1.00  0.00     0.113 A 
HETATM    4  C3  UNL     1      -0.015   0.050  -0.185  1.00  0.00     0.056 A 
HETATM    5  C7  UNL     1       0.293   1.347  -0.565  1.00  0.00     0.137 A 
HETATM    6  N7  UNL     1       1.562   1.814  -0.552  1.00  0.00    -0.292 N 
ATOM      7  H7  UNL     1       1.764   2.772  -0.837  1.00  0.00     0.172 HD
HETATM    8  C8  UNL     1       2.548   1.002  -0.160  1.00  0.00     0.327 A 
HETATM    9  O4  UNL     1       3.728   1.490  -0.165  1.00  0.00    -0.246 OA
ENDROOT
BRANCH   4  10
HETATM   10  C4  UNL     1      -1.396  -0.461  -0.135  1.00  0.00     0.102 A 
HETATM   11  N2  UNL     1      -2.472   0.029  -0.774  1.00  0.00    -0.294 N 
HETATM   12  N3  UNL     1      -3.580  -0.652  -0.439  1.00  0.00    -0.264 N 
ATOM     13  H2  UNL     1      -2.450   0.813  -1.426  1.00  0.00     0.187 HD
HETATM   14  C5  UNL     1      -3.277  -1.612   0.429  1.00  0.00     0.295 A 
ATOM     15  H3  UNL     1      -4.516  -0.461  -0.798  1.00  0.00     0.190 HD
HETATM   16  O1  UNL     1      -4.040  -2.464   0.979  1.00  0.00    -0.264 OA
HETATM   17  C6  UNL     1      -1.878  -1.490   0.625  1.00  0.00     0.200 A 
BRANCH  17  18
HETATM   18  N4  UNL     1      -1.216  -2.349   1.523  1.00  0.00    -0.107 N 
HETATM   19  O2  UNL     1      -0.844  -1.935   2.634  1.00  0.00    -0.531 OA
HETATM   20  O3  UNL     1      -1.010  -3.653   1.163  1.00  0.00    -0.531 OA
ENDBRANCH  17  18
ENDBRANCH   4  10
BRANCH   5  21
HETATM   21  N5  UNL     1      -0.654   2.137  -0.919  1.00  0.00    -0.291 N 
ATOM     22  H5  UNL     1      -1.605   1.767  -0.904  1.00  0.00     0.188 HD
BRANCH  21  23
HETATM   23  N6  UNL     1      -0.488   3.443  -1.317  1.00  0.00    -0.344 N 
ATOM     24  H62 UNL     1       0.469   3.795  -1.326  1.00  0.00     0.176 HD
ATOM     25  H61 UNL     1      -1.241   4.071  -1.598  1.00  0.00     0.176 HD
ENDBRANCH  21  23
ENDBRANCH   5  21
TORSDOF 4
