REMARK  3 active torsions:
REMARK  status: ('A' for Active; 'I' for Inactive)
REMARK    1  A    between atoms: C5_11  and  C6_12 
REMARK       I    between atoms: N5_14  and  C7_16 
REMARK       I    between atoms: C7_16  and  N7_20 
REMARK    2  A    between atoms: N7_20  and  N8_22 
REMARK    3  A    between atoms: N10_26  and  O3_27 
ROOT
HETATM    1  C1  UNL     1       2.670   1.837   0.448  1.00  0.00     0.059 C 
HETATM    2  C2  UNL     1       2.866   0.726  -0.545  1.00  0.00     0.224 C 
HETATM    3  N1  UNL     1       3.783  -0.247   0.023  1.00  0.00    -0.392 N 
ATOM      4  H1  UNL     1       4.690  -0.445  -0.400  1.00  0.00     0.155 HD
HETATM    5  C3  UNL     1       3.346  -0.902   1.193  1.00  0.00     0.196 C 
HETATM    6  C4  UNL     1       1.886  -1.125   1.209  1.00  0.00     0.139 A 
HETATM    7  N2  UNL     1       1.076  -1.768   2.094  1.00  0.00    -0.284 N 
ATOM      8  H2  UNL     1       1.393  -2.238   2.942  1.00  0.00     0.188 HD
HETATM    9  N3  UNL     1      -0.165  -1.696   1.700  1.00  0.00    -0.280 N 
ATOM     10  H3  UNL     1      -0.964  -2.098   2.191  1.00  0.00     0.189 HD
HETATM   11  C5  UNL     1      -0.229  -0.991   0.515  1.00  0.00     0.187 A 
HETATM   12  N9  UNL     1       1.031  -0.665   0.252  1.00  0.00    -0.196 N 
HETATM   13  N10 UNL     1       1.594   0.041  -0.846  1.00  0.00    -0.168 N 
ENDROOT
BRANCH  11  14
HETATM   14  C6  UNL     1      -1.457  -0.714  -0.206  1.00  0.00     0.179 C 
HETATM   15  N4  UNL     1      -1.639   0.017  -1.386  1.00  0.00    -0.078 NA
HETATM   16  N5  UNL     1      -2.598  -1.178   0.297  1.00  0.00    -0.174 N 
HETATM   17  C7  UNL     1      -3.848  -0.981  -0.300  1.00  0.00     0.696 C 
ATOM     18  H5  UNL     1      -2.559  -1.708   1.168  1.00  0.00     0.185 HD
HETATM   19  N6  UNL     1      -4.555  -1.969  -0.742  1.00  0.00    -0.233 N 
HETATM   20  N7  UNL     1      -4.365   0.338  -0.429  1.00  0.00    -0.072 N 
ATOM     21  H62 UNL     1      -4.184  -2.915  -0.650  1.00  0.00     0.174 HD
ATOM     22  H61 UNL     1      -5.466  -1.825  -1.177  1.00  0.00     0.174 HD
ATOM     23  H7  UNL     1      -4.874   0.594  -1.275  1.00  0.00     0.212 HD
BRANCH  20  24
HETATM   24  N8  UNL     1      -4.190   1.294   0.582  1.00  0.00    -0.024 N 
HETATM   25  O1  UNL     1      -4.792   2.369   0.530  1.00  0.00    -0.516 OA
HETATM   26  O2  UNL     1      -3.360   1.059   1.631  1.00  0.00    -0.516 OA
ENDBRANCH  20  24
ENDBRANCH  11  14
BRANCH  13  27
HETATM   27  O3  UNL     1       1.005   0.035  -2.035  1.00  0.00    -0.270 OA
ATOM     28  H3  UNL     1       0.186  -0.406  -2.229  1.00  0.00     0.246 HD
ENDBRANCH  13  27
TORSDOF 3
