REMARK  6 active torsions:
REMARK  status: ('A' for Active; 'I' for Inactive)
REMARK    1  A    between atoms: N1_1  and  C1_5 
REMARK    2  A    between atoms: C2_8  and  N3_9 
REMARK    3  A    between atoms: N3_9  and  N4_11 
REMARK    4  A    between atoms: C8_22  and  C9_23 
REMARK    5  A    between atoms: C9_23  and  O4_24 
REMARK    6  A    between atoms: C9_23  and  O5_26 
ROOT
HETATM    1  C1  UNL     1      -0.070   2.329  -0.751  1.00  0.00     0.388 C 
HETATM    2  N2  UNL     1      -1.220   1.903  -0.029  1.00  0.00    -0.333 N 
ATOM      3  H2  UNL     1      -1.872   2.639   0.242  1.00  0.00     0.164 HD
HETATM    4  C2  UNL     1      -1.540   0.722   0.322  1.00  0.00     0.135 C 
HETATM    5  C3  UNL     1      -0.659  -0.410  -0.026  1.00  0.00     0.135 C 
HETATM    6  C4  UNL     1      -1.032  -0.898  -1.409  1.00  0.00     0.055 C 
HETATM    7  C5  UNL     1      -0.918  -2.386  -1.404  1.00  0.00     0.106 C 
HETATM    8  C6  UNL     1      -0.807  -2.732   0.026  1.00  0.00     0.218 C 
HETATM    9  O3  UNL     1      -0.672  -3.927   0.432  1.00  0.00    -0.274 OA
HETATM   10  N5  UNL     1      -0.874  -1.557   0.816  1.00  0.00    -0.339 N 
ATOM     11  H5  UNL     1      -1.047  -1.529   1.821  1.00  0.00     0.164 HD
HETATM   12  C7  UNL     1       0.744   0.073   0.027  1.00  0.00     0.045 C 
HETATM   13  C8  UNL     1       1.698  -0.621   0.573  1.00  0.00     0.060 C 
HETATM   14  N6  UNL     1       1.005   1.342  -0.549  1.00  0.00    -0.348 N 
ATOM     15  H6  UNL     1       1.957   1.577  -0.829  1.00  0.00     0.163 HD
ENDROOT
BRANCH   4  16
HETATM   16  N3  UNL     1      -2.724   0.447   1.042  1.00  0.00    -0.227 N 
ATOM     17  H3  UNL     1      -3.455  -0.124   0.617  1.00  0.00     0.194 HD
BRANCH  16  18
HETATM   18  N4  UNL     1      -2.898   0.946   2.318  1.00  0.00    -0.037 N 
HETATM   19  O1  UNL     1      -3.324   2.116   2.432  1.00  0.00    -0.516 OA
HETATM   20  O2  UNL     1      -2.633   0.242   3.470  1.00  0.00    -0.516 OA
ENDBRANCH  16  18
ENDBRANCH   4  16
BRANCH  13  21
HETATM   21  C9  UNL     1       3.113  -0.217   0.668  1.00  0.00     0.280 C 
BRANCH  21  22
HETATM   22  O4  UNL     1       3.805  -1.062   1.534  1.00  0.00    -0.368 OA
ATOM     23  H4  UNL     1       4.717  -0.802   1.595  1.00  0.00     0.213 HD
ENDBRANCH  21  22
BRANCH  21  24
HETATM   24  O5  UNL     1       3.272   1.070   1.190  1.00  0.00    -0.368 OA
ATOM     25  H5  UNL     1       4.184   1.330   1.251  1.00  0.00     0.213 HD
ENDBRANCH  21  24
ENDBRANCH  13  21
BRANCH   1  26
HETATM   26  N1  UNL     1      -0.263   2.543  -2.152  1.00  0.00    -0.041 N 
ATOM     27  H13 UNL     1      -0.653   1.704  -2.582  1.00  0.00     0.279 HD
ATOM     28  H12 UNL     1      -1.031   3.198  -2.302  1.00  0.00     0.279 HD
ATOM     29  H11 UNL     1       0.561   2.848  -2.669  1.00  0.00     0.279 HD
ENDBRANCH   1  26
TORSDOF 6
