REMARK  5 active torsions:
REMARK  status: ('A' for Active; 'I' for Inactive)
REMARK    1  A    between atoms: N1_1  and  C1_4 
REMARK    2  A    between atoms: C2_7  and  N3_8 
REMARK    3  A    between atoms: C5_15  and  C6_16 
REMARK       I    between atoms: C6_16  and  N6_18 
REMARK    4  A    between atoms: N6_18  and  N7_20 
REMARK    5  A    between atoms: N7_20  and  C7_22 
ROOT
HETATM    1  C1  UNL     1      -3.388   2.129  -1.105  1.00  0.00     0.144 A 
HETATM    2  N2  UNL     1      -3.087   0.867  -0.849  1.00  0.00    -0.320 N 
ATOM      3  H2  UNL     1      -3.766   0.128  -1.030  1.00  0.00     0.169 HD
HETATM    4  C2  UNL     1      -1.900   0.575  -0.358  1.00  0.00     0.152 A 
HETATM    5  C5  UNL     1      -1.025   1.589  -0.131  1.00  0.00     0.123 A 
HETATM    6  S1  UNL     1      -1.983   2.961  -0.653  1.00  0.00    -0.045 SA
ENDROOT
BRANCH   5   7
HETATM    7  C6  UNL     1       0.335   1.667   0.387  1.00  0.00     0.281 C 
HETATM    8  O1  UNL     1       0.825   2.861   0.445  1.00  0.00    -0.265 OA
HETATM    9  N6  UNL     1       1.170   0.662   0.821  1.00  0.00    -0.251 N 
ATOM     10  H6  UNL     1       0.850  -0.306   0.804  1.00  0.00     0.191 HD
BRANCH   9  11
HETATM   11  N7  UNL     1       2.481   0.967   1.295  1.00  0.00    -0.127 N 
ATOM     12  H7  UNL     1       2.637   1.781   1.890  1.00  0.00     0.206 HD
BRANCH  11  13
HETATM   13  C7  UNL     1       3.466   0.204   0.964  1.00  0.00     0.725 A 
HETATM   14  N8  UNL     1       4.759   0.315   1.301  1.00  0.00    -0.112 N 
HETATM   15  N9  UNL     1       5.449  -0.676   0.754  1.00  0.00     0.009 NA
ATOM     16  H8  UNL     1       5.152   1.050   1.889  1.00  0.00     0.203 HD
HETATM   17  N10 UNL     1       4.571  -1.418   0.064  1.00  0.00    -0.211 N 
HETATM   18  N11 UNL     1       3.378  -0.888   0.192  1.00  0.00    -0.117 N 
ATOM     19  H10 UNL     1       4.794  -2.257  -0.472  1.00  0.00     0.206 HD
ATOM     20  H11 UNL     1       2.521  -1.249  -0.228  1.00  0.00     0.207 HD
ENDBRANCH  11  13
ENDBRANCH   9  11
ENDBRANCH   5   7
BRANCH   4  21
HETATM   21  N3  UNL     1      -1.568  -0.829  -0.074  1.00  0.00    -0.234 N 
HETATM   22  C3  UNL     1      -1.840  -1.490   1.062  1.00  0.00     0.138 A 
HETATM   23  C4  UNL     1      -1.400  -2.792   0.918  1.00  0.00     0.128 A 
HETATM   24  N4  UNL     1      -0.873  -2.855  -0.326  1.00  0.00    -0.296 N 
HETATM   25  N5  UNL     1      -0.983  -1.671  -0.902  1.00  0.00    -0.235 N 
ATOM     26  H4  UNL     1      -0.457  -3.684  -0.751  1.00  0.00     0.187 HD
ATOM     27  H5  UNL     1      -0.664  -1.443  -1.844  1.00  0.00     0.209 HD
ENDBRANCH   4  21
BRANCH   1  28
HETATM   28  N1  UNL     1      -4.519   2.597  -1.594  1.00  0.00    -0.380 N 
ATOM     29  H12 UNL     1      -5.365   2.096  -1.866  1.00  0.00     0.158 HD
ATOM     30  H11 UNL     1      -4.751   3.570  -1.791  1.00  0.00     0.158 HD
ENDBRANCH   1  28
TORSDOF 5
