REMARK  6 active torsions:
REMARK  status: ('A' for Active; 'I' for Inactive)
REMARK    1  A    between atoms: N2_5  and  C3_6 
REMARK    2  A    between atoms: C3_6  and  C4_7 
REMARK    3  A    between atoms: C4_7  and  C5_8 
REMARK    4  A    between atoms: C6_11  and  C7_12 
REMARK       I    between atoms: C7_12  and  N4_14 
REMARK    5  A    between atoms: N4_14  and  N5_16 
REMARK    6  A    between atoms: C8_23  and  N8_24 
ROOT
HETATM    1  C5  UNL     1       1.435  -1.119  -0.272  1.00  0.00     0.080 A 
HETATM    2  N3  UNL     1       2.581  -0.367  -0.124  1.00  0.00    -0.334 N 
ATOM      3  H3  UNL     1       2.484   0.620   0.116  1.00  0.00     0.168 HD
HETATM    4  C6  UNL     1       3.810  -0.861  -0.278  1.00  0.00     0.191 A 
HETATM    5  N6  UNL     1       3.981  -2.162  -0.595  1.00  0.00    -0.279 N 
ATOM      6  H6  UNL     1       4.921  -2.540  -0.713  1.00  0.00     0.189 HD
HETATM    7  N7  UNL     1       2.946  -2.930  -0.749  1.00  0.00    -0.282 N 
ATOM      8  H7  UNL     1       3.076  -3.913  -0.987  1.00  0.00     0.188 HD
HETATM    9  C8  UNL     1       1.695  -2.434  -0.595  1.00  0.00     0.141 A 
ENDROOT
BRANCH   1  10
HETATM   10  C4  UNL     1       0.150  -0.514  -0.090  1.00  0.00     0.054 C 
BRANCH  10  11
HETATM   11  C3  UNL     1      -1.029  -1.022  -0.178  1.00  0.00     0.139 C 
BRANCH  11  12
HETATM   12  N2  UNL     1      -2.221  -0.232   0.045  1.00  0.00    -0.208 N 
HETATM   13  N1  UNL     1      -3.438  -0.693  -0.031  1.00  0.00    -0.283 N 
HETATM   14  C2  UNL     1      -4.307   0.286   0.229  1.00  0.00     0.047 A 
ATOM     15  H1  UNL     1      -3.688  -1.656  -0.255  1.00  0.00     0.189 HD
HETATM   16  C1  UNL     1      -5.805   0.150   0.239  1.00  0.00     0.072 C 
HETATM   17  C9  UNL     1      -3.568   1.416   0.479  1.00  0.00     0.047 A 
HETATM   18  N9  UNL     1      -2.280   1.050   0.355  1.00  0.00    -0.283 N 
HETATM   19  C10 UNL     1      -4.126   2.755   0.817  1.00  0.00     0.072 C 
ATOM     20  H9  UNL     1      -1.476   1.665   0.481  1.00  0.00     0.189 HD
ENDBRANCH  11  12
ENDBRANCH  10  11
ENDBRANCH   1  10
BRANCH   9  21
HETATM   21  N8  UNL     1       0.743  -3.265  -0.767  1.00  0.00    -0.383 N 
ATOM     22  H82 UNL     1      -0.199  -2.891  -0.651  1.00  0.00     0.157 HD
ATOM     23  H81 UNL     1       0.935  -4.238  -1.006  1.00  0.00     0.157 HD
ENDBRANCH   9  21
BRANCH   4  24
HETATM   24  C7  UNL     1       4.994  -0.027  -0.112  1.00  0.00     0.304 C 
HETATM   25  O1  UNL     1       6.126  -0.536  -0.266  1.00  0.00    -0.263 OA
HETATM   26  N4  UNL     1       4.818   1.337   0.221  1.00  0.00    -0.270 N 
ATOM     27  H4  UNL     1       3.888   1.736   0.344  1.00  0.00     0.189 HD
BRANCH  26  28
HETATM   28  N5  UNL     1       5.985   2.127   0.377  1.00  0.00    -0.342 N 
ATOM     29  H52 UNL     1       6.909   1.713   0.251  1.00  0.00     0.176 HD
ATOM     30  H51 UNL     1       5.858   3.110   0.617  1.00  0.00     0.176 HD
ENDBRANCH  26  28
ENDBRANCH   4  24
TORSDOF 6
