REMARK  5 active torsions:
REMARK  status: ('A' for Active; 'I' for Inactive)
REMARK    1  A    between atoms: C2_3  and  N2_4 
REMARK    2  A    between atoms: C2_3  and  C3_8 
REMARK    3  A    between atoms: C3_8  and  O1_9 
REMARK    4  A    between atoms: C7_22  and  S1_23 
REMARK    5  A    between atoms: S1_23  and  N7_24 
ROOT
HETATM    1  N1  UNL     1       2.374  -0.691  -2.539  1.00  0.00    -0.195 NA
HETATM    2  C1  UNL     1       2.214  -0.258  -1.475  1.00  0.00     0.098 C 
HETATM    3  C2  UNL     1       2.035   0.350  -0.113  1.00  0.00     0.349 C 
ENDROOT
BRANCH   3   4
HETATM    4  N2  UNL     1       2.338   1.796  -0.336  1.00  0.00    -0.057 N 
ATOM      5  H23 UNL     1       3.246   1.977  -0.764  1.00  0.00     0.276 HD
ATOM      6  H22 UNL     1       1.785   2.236  -1.072  1.00  0.00     0.276 HD
ATOM      7  H21 UNL     1       2.216   2.209   0.589  1.00  0.00     0.276 HD
ENDBRANCH   3   4
BRANCH   3   8
HETATM    8  C3  UNL     1       0.718   0.100   0.511  1.00  0.00     0.209 C 
HETATM    9  N3  UNL     1       1.022  -1.166   1.325  1.00  0.00    -0.348 N 
HETATM   10  C4  UNL     1       1.409  -2.259   0.541  1.00  0.00     0.180 C 
ATOM     11  H3  UNL     1       0.949  -1.207   2.342  1.00  0.00     0.163 HD
HETATM   12  N4  UNL     1       0.369  -2.551  -0.399  1.00  0.00    -0.338 N 
HETATM   13  C5  UNL     1      -0.611  -1.560  -0.729  1.00  0.00     0.121 A 
ATOM     14  H4  UNL     1       0.326  -3.471  -0.837  1.00  0.00     0.168 HD
HETATM   15  N5  UNL     1      -1.675  -1.941  -1.469  1.00  0.00    -0.338 N 
HETATM   16  C8  UNL     1      -0.453  -0.246  -0.218  1.00  0.00     0.084 A 
HETATM   17  C6  UNL     1      -2.637  -1.063  -1.745  1.00  0.00     0.183 A 
ATOM     18  H5  UNL     1      -1.741  -2.898  -1.815  1.00  0.00     0.168 HD
HETATM   19  N6  UNL     1      -2.521   0.149  -1.286  1.00  0.00    -0.341 N 
HETATM   20  C7  UNL     1      -1.456   0.627  -0.514  1.00  0.00     0.164 A 
ATOM     21  H6  UNL     1      -3.269   0.806  -1.507  1.00  0.00     0.167 HD
BRANCH   8  22
HETATM   22  O1  UNL     1       0.575   0.888   1.680  1.00  0.00    -0.364 OA
ATOM     23  H1  UNL     1      -0.271   0.727   2.081  1.00  0.00     0.213 HD
ENDBRANCH   8  22
BRANCH  20  24
HETATM   24  S1  UNL     1      -1.597   2.226   0.011  1.00  0.00     0.273 S 
HETATM   25  O2  UNL     1      -2.587   3.025  -0.891  1.00  0.00    -0.199 OA
HETATM   26  O3  UNL     1      -0.514   3.070   0.433  1.00  0.00    -0.199 OA
BRANCH  24  27
HETATM   27  N7  UNL     1      -2.586   2.184   1.489  1.00  0.00    -0.323 N 
ATOM     28  H72 UNL     1      -2.983   1.350   1.922  1.00  0.00     0.169 HD
ATOM     29  H71 UNL     1      -2.671   3.150   1.806  1.00  0.00     0.169 HD
ENDBRANCH  24  27
ENDBRANCH  20  24
ENDBRANCH   3   8
TORSDOF 5
