REMARK  3 active torsions:
REMARK  status: ('A' for Active; 'I' for Inactive)
REMARK    1  A    between atoms: O1_2  and  C2_3 
REMARK    2  A    between atoms: C5_8  and  N2_9 
REMARK    3  A    between atoms: C7_17  and  O3_18 
ROOT
HETATM    1  C2  UNL     1       1.997   0.032   0.124  1.00  0.00     0.180 A 
HETATM    2  N1  UNL     1       1.581  -1.234  -0.042  1.00  0.00    -0.320 N 
ATOM      3  H1  UNL     1       2.237  -2.013   0.011  1.00  0.00     0.169 HD
HETATM    4  C3  UNL     1       0.264  -1.446  -0.282  1.00  0.00     0.122 A 
HETATM    5  C4  UNL     1      -0.657  -0.389  -0.358  1.00  0.00     0.107 A 
HETATM    6  C5  UNL     1      -0.210   0.896  -0.186  1.00  0.00     0.116 A 
HETATM    7  C7  UNL     1       1.147   1.094   0.059  1.00  0.00     0.147 A 
HETATM    8  C8  UNL     1      -2.057  -0.701  -0.613  1.00  0.00     0.259 C 
HETATM    9  O4  UNL     1      -2.895   0.222  -0.686  1.00  0.00    -0.267 OA
HETATM   10  N6  UNL     1      -2.440  -2.075  -0.775  1.00  0.00    -0.341 N 
ATOM     11  H6  UNL     1      -3.270  -2.337  -1.308  1.00  0.00     0.164 HD
HETATM   12  C9  UNL     1      -1.597  -3.074  -0.149  1.00  0.00     0.248 C 
HETATM   13  N7  UNL     1      -0.229  -2.760  -0.471  1.00  0.00    -0.359 N 
ATOM     14  H7  UNL     1       0.387  -3.486  -0.836  1.00  0.00     0.162 HD
ENDROOT
BRANCH   6  15
HETATM   15  N2  UNL     1      -1.087   1.996  -0.252  1.00  0.00    -0.183 N 
HETATM   16  N3  UNL     1      -1.375   2.649  -1.363  1.00  0.00     0.005 NA
HETATM   17  N4  UNL     1      -2.199   3.646  -1.089  1.00  0.00    -0.222 N 
HETATM   18  N5  UNL     1      -2.443   3.634   0.208  1.00  0.00    -0.237 N 
ATOM     19  H4  UNL     1      -2.580   4.310  -1.763  1.00  0.00     0.205 HD
HETATM   20  C6  UNL     1      -1.756   2.612   0.727  1.00  0.00     0.360 A 
ATOM     21  H5  UNL     1      -3.043   4.282   0.718  1.00  0.00     0.193 HD
HETATM   22  O2  UNL     1      -1.745   2.286   1.962  1.00  0.00    -0.243 OA
ENDBRANCH   6  15
BRANCH   7  23
HETATM   23  O3  UNL     1       1.552   2.416   0.228  1.00  0.00    -0.355 OA
ATOM     24  H3  UNL     1       0.959   3.157   0.183  1.00  0.00     0.218 HD
ENDBRANCH   7  23
BRANCH   1  25
HETATM   25  O1  UNL     1       3.350   0.249   0.370  1.00  0.00    -0.339 OA
HETATM   26  C1  UNL     1       4.275  -0.825   0.446  1.00  0.00     0.211 C 
ENDBRANCH   1  25
TORSDOF 3
