REMARK  3 active torsions:
REMARK  status: ('A' for Active; 'I' for Inactive)
REMARK    1  A    between atoms: N3_7  and  C3_8 
REMARK    2  A    between atoms: C5_11  and  N5_12 
REMARK    3  A    between atoms: C7_22  and  N9_23 
ROOT
HETATM    1  C3  UNL     1       0.457  -0.084   0.614  1.00  0.00     0.166 A 
HETATM    2  C4  UNL     1       1.579   0.661   0.330  1.00  0.00     0.169 A 
HETATM    3  N4  UNL     1       2.639  -0.076   0.703  1.00  0.00    -0.115 N 
HETATM    4  C5  UNL     1       3.998  -0.086   0.765  1.00  0.00     0.286 A 
HETATM    5  N6  UNL     1       4.391  -1.245   1.297  1.00  0.00    -0.251 N 
ATOM      6  H6  UNL     1       5.359  -1.521   1.461  1.00  0.00     0.191 HD
HETATM    7  N7  UNL     1       3.327  -1.980   1.578  1.00  0.00    -0.128 N 
ATOM      8  H7  UNL     1       3.318  -2.912   1.992  1.00  0.00     0.205 HD
HETATM    9  C6  UNL     1       2.254  -1.245   1.206  1.00  0.00     0.708 A 
HETATM   10  N8  UNL     1       0.907  -1.236   1.145  1.00  0.00    -0.172 N 
ATOM     11  H8  UNL     1       0.309  -2.000   1.459  1.00  0.00     0.186 HD
ENDROOT
BRANCH   1  12
HETATM   12  N3  UNL     1      -0.920   0.276   0.396  1.00  0.00    -0.076 N 
HETATM   13  C2  UNL     1      -1.568   1.381   0.805  1.00  0.00     0.362 A 
HETATM   14  N2  UNL     1      -2.846   1.322   0.386  1.00  0.00    -0.234 N 
HETATM   15  O1  UNL     1      -1.068   2.315   1.468  1.00  0.00    -0.244 OA
HETATM   16  N1  UNL     1      -3.032   0.206  -0.281  1.00  0.00    -0.124 N 
ATOM     17  H2  UNL     1      -3.558   2.032   0.559  1.00  0.00     0.192 HD
HETATM   18  C1  UNL     1      -4.260  -0.286  -0.922  1.00  0.00     0.197 C 
HETATM   19  C7  UNL     1      -1.855  -0.444  -0.281  1.00  0.00     0.704 A 
BRANCH  19  20
HETATM   20  N9  UNL     1      -1.587  -1.593  -0.830  1.00  0.00    -0.232 N 
ATOM     21  H92 UNL     1      -2.288  -2.133  -1.338  1.00  0.00     0.174 HD
ATOM     22  H91 UNL     1      -0.694  -2.086  -0.830  1.00  0.00     0.174 HD
ENDBRANCH  19  20
ENDBRANCH   1  12
BRANCH   4  23
HETATM   23  N5  UNL     1       4.848   0.953   0.339  1.00  0.00    -0.077 N 
HETATM   24  O2  UNL     1       6.084   0.837   0.443  1.00  0.00    -0.529 OA
HETATM   25  O3  UNL     1       4.326   2.107  -0.196  1.00  0.00    -0.529 OA
ENDBRANCH   4  23
TORSDOF 3
