REMARK  8 active torsions:
REMARK  status: ('A' for Active; 'I' for Inactive)
REMARK    1  A    between atoms: O1_2  and  C2_3 
REMARK    2  A    between atoms: C2_3  and  C3_5 
REMARK    3  A    between atoms: C4_6  and  O3_7 
REMARK    4  A    between atoms: C5_9  and  C6_10 
REMARK    5  A    between atoms: C6_10  and  O5_12 
REMARK    6  A    between atoms: C8_14  and  N1_15 
REMARK    7  A    between atoms: N1_15  and  N2_17 
REMARK    8  A    between atoms: N3_20  and  N4_21 
ROOT
HETATM    1  C3  UNL     1      -1.395   0.025  -0.076  1.00  0.00     0.116 A 
HETATM    2  C4  UNL     1      -0.432   0.935   0.231  1.00  0.00     0.105 A 
HETATM    3  C5  UNL     1       0.927   0.525   0.194  1.00  0.00     0.120 A 
HETATM    4  C8  UNL     1       1.299  -0.749  -0.139  1.00  0.00     0.161 A 
HETATM    5  N3  UNL     1       0.318  -1.620  -0.435  1.00  0.00    -0.229 N 
HETATM    6  C9  UNL     1      -0.976  -1.274  -0.412  1.00  0.00     0.158 A 
HETATM    7  N5  UNL     1      -1.949  -2.258  -0.740  1.00  0.00    -0.079 NA
ENDROOT
BRANCH   4   8
HETATM    8  N1  UNL     1       2.529  -1.111  -0.170  1.00  0.00    -0.290 N 
ATOM      9  H1  UNL     1       3.229  -0.407   0.064  1.00  0.00     0.188 HD
BRANCH   8  10
HETATM   10  N2  UNL     1       2.984  -2.366  -0.492  1.00  0.00    -0.344 N 
ATOM     11  H22 UNL     1       2.270  -3.057  -0.724  1.00  0.00     0.176 HD
ATOM     12  H21 UNL     1       3.962  -2.654  -0.517  1.00  0.00     0.176 HD
ENDBRANCH   8  10
ENDBRANCH   4   8
BRANCH   3  13
HETATM   13  C6  UNL     1       1.932   1.523   0.527  1.00  0.00     0.299 C 
HETATM   14  O4  UNL     1       1.605   2.703   0.835  1.00  0.00    -0.259 OA
BRANCH  13  15
HETATM   15  O5  UNL     1       3.289   1.247   0.527  1.00  0.00    -0.322 OA
HETATM   16  C7  UNL     1       4.231   2.246   0.857  1.00  0.00     0.213 C 
ENDBRANCH  13  15
ENDBRANCH   3  13
BRANCH   5  17
HETATM   17  N4  UNL     1       0.695  -2.922  -0.775  1.00  0.00    -0.335 N 
ATOM     18  H42 UNL     1       1.680  -3.185  -0.793  1.00  0.00     0.177 HD
ATOM     19  H41 UNL     1      -0.049  -3.583  -1.000  1.00  0.00     0.177 HD
ENDBRANCH   5  17
BRANCH   2  20
HETATM   20  O3  UNL     1      -0.734   2.212   0.567  1.00  0.00    -0.358 OA
ATOM     21  H3  UNL     1      -0.061   2.848   0.781  1.00  0.00     0.217 HD
ENDBRANCH   2  20
BRANCH   1  22
HETATM   22  C2  UNL     1      -2.806   0.281  -0.084  1.00  0.00     0.299 C 
HETATM   23  O2  UNL     1      -3.649  -0.631  -0.385  1.00  0.00    -0.259 OA
BRANCH  22  24
HETATM   24  O1  UNL     1      -3.346   1.501   0.223  1.00  0.00    -0.322 OA
HETATM   25  C1  UNL     1      -4.718   1.771   0.221  1.00  0.00     0.213 C 
ENDBRANCH  22  24
ENDBRANCH   1  22
TORSDOF 8
