REMARK  4 active torsions:
REMARK  status: ('A' for Active; 'I' for Inactive)
REMARK    1  A    between atoms: C1_2  and  N2_4 
REMARK    2  A    between atoms: N2_4  and  N3_6 
REMARK    3  A    between atoms: C2_8  and  C3_9 
REMARK    4  A    between atoms: C4_10  and  C5_11 
ROOT
HETATM    1  C3  UNL     1       0.006  -1.540   0.336  1.00  0.00     0.021 C 
HETATM    2  C4  UNL     1       1.286  -1.542   0.336  1.00  0.00     0.031 C 
ENDROOT
BRANCH   1   3
HETATM    3  C2  UNL     1      -1.001  -0.529   0.184  1.00  0.00     0.107 C 
HETATM    4  N3  UNL     1      -2.255  -0.949   0.248  1.00  0.00    -0.310 N 
ATOM      5  H3  UNL     1      -2.476  -1.934   0.396  1.00  0.00     0.186 HD
BRANCH   4   6
HETATM    6  N2  UNL     1      -3.257  -0.001   0.106  1.00  0.00    -0.279 N 
ATOM      7  H2  UNL     1      -3.052   0.986   0.259  1.00  0.00     0.189 HD
BRANCH   6   8
HETATM    8  C1  UNL     1      -4.553  -0.404  -0.249  1.00  0.00     0.199 C 
HETATM    9  N1  UNL     1      -5.573   0.576  -0.392  1.00  0.00    -0.068 NA
HETATM   10  S1  UNL     1      -4.876  -1.972  -0.490  1.00  0.00    -0.043 SA
ENDBRANCH   6   8
ENDBRANCH   4   6
ENDBRANCH   1   3
BRANCH   2  11
HETATM   11  C5  UNL     1       2.290  -0.537   0.183  1.00  0.00     0.031 A 
HETATM   12  C6  UNL     1       2.057   0.785  -0.017  1.00  0.00     0.029 A 
HETATM   13  C7  UNL     1       3.079   1.748  -0.164  1.00  0.00     0.004 A 
HETATM   14  C8  UNL     1       4.385   1.340  -0.103  1.00  0.00     0.017 A 
HETATM   15  C9  UNL     1       4.605  -0.002   0.100  1.00  0.00     0.088 A 
HETATM   16  N4  UNL     1       3.627  -0.897   0.237  1.00  0.00    -0.366 N 
ATOM     17  H4  UNL     1       3.870  -1.876   0.386  1.00  0.00     0.165 HD
ENDBRANCH   2  11
TORSDOF 4
