REMARK  5 active torsions:
REMARK  status: ('A' for Active; 'I' for Inactive)
REMARK    1  A    between atoms: C2_2  and  C3_3 
REMARK    2  A    between atoms: C3_3  and  O1_4 
REMARK    3  A    between atoms: O1_4  and  C4_5 
REMARK    4  A    between atoms: C10_13  and  N2_14 
REMARK    5  A    between atoms: N3_17  and  O2_18 
ROOT
HETATM    1  C4  UNL     1       0.829   0.121  -0.009  1.00  0.00     0.070 A 
HETATM    2  C5  UNL     1       0.430  -1.182  -0.322  1.00  0.00     0.039 A 
HETATM    3  C6  UNL     1      -0.910  -1.507  -0.332  1.00  0.00     0.036 A 
HETATM    4  C7  UNL     1      -1.850  -0.533  -0.029  1.00  0.00     0.092 A 
HETATM    5  C8  UNL     1      -1.478   0.766   0.285  1.00  0.00     0.012 A 
HETATM    6  C9  UNL     1      -2.420   1.728   0.584  1.00  0.00     0.120 A 
HETATM    7  N1  UNL     1      -3.709   1.353   0.559  1.00  0.00    -0.199 N 
ATOM      8  H1  UNL     1      -4.426   2.045   0.776  1.00  0.00     0.183 HD
HETATM    9  C10 UNL     1      -4.090   0.099   0.258  1.00  0.00     0.702 A 
HETATM   10  N3  UNL     1      -3.171  -0.834  -0.033  1.00  0.00    -0.052 N 
HETATM   11  C11 UNL     1      -0.119   1.073   0.288  1.00  0.00     0.052 A 
ENDROOT
BRANCH   1  12
HETATM   12  O1  UNL     1       2.160   0.430  -0.003  1.00  0.00    -0.347 OA
BRANCH  12  13
HETATM   13  C3  UNL     1       3.206  -0.445  -0.286  1.00  0.00     0.202 C 
BRANCH  13  14
HETATM   14  C2  UNL     1       4.522   0.269  -0.175  1.00  0.00    -0.011 C 
HETATM   15  C1  UNL     1       5.424  -0.143   0.687  1.00  0.00     0.009 C 
ENDBRANCH  13  14
ENDBRANCH  12  13
ENDBRANCH   1  12
BRANCH  10  16
HETATM   16  O2  UNL     1      -3.515  -2.134  -0.348  1.00  0.00    -0.269 OA
ATOM     17  H2  UNL     1      -4.441  -2.345  -0.351  1.00  0.00     0.245 HD
ENDBRANCH  10  16
BRANCH   9  18
HETATM   18  N2  UNL     1      -5.333  -0.235   0.241  1.00  0.00    -0.232 N 
ATOM     19  H22 UNL     1      -6.032   0.474   0.462  1.00  0.00     0.174 HD
ATOM     20  H21 UNL     1      -5.622  -1.186   0.013  1.00  0.00     0.174 HD
ENDBRANCH   9  18
TORSDOF 5
