REMARK  4 active torsions:
REMARK  status: ('A' for Active; 'I' for Inactive)
REMARK    1  A    between atoms: C7_8  and  C8_9 
REMARK    2  A    between atoms: C8_9  and  C9_10 
REMARK    3  A    between atoms: C9_10  and  N2_11 
REMARK    4  A    between atoms: N2_11  and  C10_13 
ROOT
HETATM    1  N1  UNL     1      -1.348  -0.743  -2.851  1.00  0.00    -0.191 NA
HETATM    2  C1  UNL     1      -1.733  -0.086  -1.958  1.00  0.00     0.100 C 
HETATM    3  C2  UNL     1      -2.233   0.718  -0.867  1.00  0.00     0.051 A 
HETATM    4  C3  UNL     1      -3.122   1.762  -1.155  1.00  0.00     0.023 A 
HETATM    5  C4  UNL     1      -3.628   2.552  -0.151  1.00  0.00     0.002 A 
HETATM    6  C5  UNL     1      -3.260   2.320   1.157  1.00  0.00     0.001 A 
HETATM    7  C6  UNL     1      -2.385   1.288   1.415  1.00  0.00     0.009 A 
HETATM    8  C7  UNL     1      -1.862   0.482   0.439  1.00  0.00    -0.036 A 
ENDROOT
BRANCH   8   9
HETATM    9  C8  UNL     1      -0.922  -0.626   0.687  1.00  0.00     0.060 C 
BRANCH   9  10
HETATM   10  C9  UNL     1       0.497  -0.321   0.344  1.00  0.00     0.142 C 
BRANCH  10  11
HETATM   11  N2  UNL     1       1.310  -1.488   0.634  1.00  0.00    -0.224 N 
ATOM     12  H2  UNL     1       0.881  -2.321   1.038  1.00  0.00     0.177 HD
BRANCH  11  13
HETATM   13  C10 UNL     1       2.574  -1.473   0.382  1.00  0.00     0.693 A 
HETATM   14  N3  UNL     1       3.256  -0.430  -0.152  1.00  0.00    -0.185 N 
HETATM   15  C11 UNL     1       4.556  -0.767  -0.274  1.00  0.00     0.215 A 
ATOM     16  H3  UNL     1       2.850   0.467  -0.419  1.00  0.00     0.185 HD
HETATM   17  N4  UNL     1       4.696  -2.026   0.183  1.00  0.00    -0.281 N 
HETATM   18  N5  UNL     1       3.488  -2.435   0.574  1.00  0.00    -0.131 N 
ATOM     19  H4  UNL     1       5.561  -2.565   0.223  1.00  0.00     0.188 HD
ATOM     20  H5  UNL     1       3.287  -3.355   0.966  1.00  0.00     0.205 HD
ENDBRANCH  11  13
ENDBRANCH  10  11
ENDBRANCH   9  10
ENDBRANCH   8   9
TORSDOF 4
