REMARK  6 active torsions:
REMARK  status: ('A' for Active; 'I' for Inactive)
REMARK    1  A    between atoms: O1_2  and  C2_3 
REMARK    2  A    between atoms: C2_3  and  C3_4 
REMARK    3  A    between atoms: C3_4  and  C4_5 
REMARK    4  A    between atoms: C4_5  and  C5_6 
REMARK       I    between atoms: C5_6  and  N1_8 
REMARK    5  A    between atoms: N1_8  and  C6_10 
REMARK    6  A    between atoms: C6_10  and  C7_11 
ROOT
HETATM    1  C2  UNL     1       0.007  -1.502  -1.366  1.00  0.00     0.068 C 
HETATM    2  C10 UNL     1      -0.387  -2.826  -0.746  1.00  0.00     0.039 C 
HETATM    3  C11 UNL     1      -1.654  -2.586   0.069  1.00  0.00     0.009 C 
HETATM    4  C12 UNL     1      -1.805  -1.096   0.034  1.00  0.00     0.002 C 
HETATM    5  C13 UNL     1      -3.225  -0.636   0.166  1.00  0.00     0.000 C 
HETATM    6  C14 UNL     1      -3.583   0.583  -0.610  1.00  0.00    -0.001 C 
HETATM    7  C15 UNL     1      -2.456   1.411  -1.066  1.00  0.00     0.007 C 
HETATM    8  C16 UNL     1      -1.328   0.630  -1.724  1.00  0.00     0.013 C 
HETATM    9  C17 UNL     1      -1.331  -0.811  -1.390  1.00  0.00    -0.009 C 
HETATM   10  C18 UNL     1      -2.232  -1.551  -2.359  1.00  0.00     0.019 C 
HETATM   11  C19 UNL     1      -4.382   1.055   0.571  1.00  0.00    -0.035 C 
HETATM   12  C20 UNL     1      -5.847   0.591   0.503  1.00  0.00     0.016 C 
HETATM   13  C21 UNL     1      -4.314   2.469   0.956  1.00  0.00     0.017 C 
HETATM   14  C22 UNL     1      -4.242   2.611   2.481  1.00  0.00     0.079 C 
HETATM   15  C23 UNL     1      -3.038   1.920   2.987  1.00  0.00     0.127 C 
HETATM   16  O4  UNL     1      -2.467   2.342   3.965  1.00  0.00    -0.298 OA
HETATM   17  C24 UNL     1      -2.565   0.710   2.262  1.00  0.00     0.084 C 
HETATM   18  C25 UNL     1      -3.603   0.087   1.421  1.00  0.00     0.006 C 
ENDROOT
BRANCH   1  19
HETATM   19  O1  UNL     1       0.621  -1.509  -2.532  1.00  0.00    -0.384 OA
HETATM   20  C1  UNL     1       0.352  -1.989  -3.708  1.00  0.00     0.202 C 
ENDBRANCH   1  19
BRANCH   1  21
HETATM   21  C3  UNL     1       0.991  -0.765  -0.424  1.00  0.00     0.048 C 
BRANCH  21  22
HETATM   22  C4  UNL     1       2.329  -1.501  -0.395  1.00  0.00     0.106 C 
BRANCH  22  23
HETATM   23  C5  UNL     1       3.239  -0.763   0.506  1.00  0.00     0.217 C 
HETATM   24  O2  UNL     1       2.866   0.275   1.087  1.00  0.00    -0.274 OA
HETATM   25  N1  UNL     1       4.550  -1.241   0.711  1.00  0.00    -0.357 N 
ATOM     26  H1  UNL     1       4.842  -2.092   0.230  1.00  0.00     0.162 HD
BRANCH  25  27
HETATM   27  C6  UNL     1       5.502  -0.571   1.580  1.00  0.00     0.183 C 
BRANCH  27  28
HETATM   28  C7  UNL     1       5.799   0.846   1.144  1.00  0.00     0.338 C 
HETATM   29  N2  UNL     1       6.906   1.306   1.979  1.00  0.00    -0.045 N 
HETATM   30  C8  UNL     1       7.532   2.294   1.156  1.00  0.00     0.261 C 
ATOM     31  H22 UNL     1       6.635   1.632   2.907  1.00  0.00     0.280 HD
ATOM     32  H21 UNL     1       7.528   0.568   2.309  1.00  0.00     0.280 HD
HETATM   33  C9  UNL     1       7.094   1.958  -0.236  1.00  0.00     0.198 C 
HETATM   34  O3  UNL     1       6.331   0.795  -0.146  1.00  0.00    -0.356 OA
ENDBRANCH  27  28
ENDBRANCH  25  27
ENDBRANCH  22  23
ENDBRANCH  21  22
ENDBRANCH   1  21
TORSDOF 6
