REMARK  9 active torsions:
REMARK  status: ('A' for Active; 'I' for Inactive)
REMARK    1  A    between atoms: N2_5  and  C3_6 
REMARK    2  A    between atoms: C3_6  and  C4_7 
REMARK    3  A    between atoms: C4_7  and  O2_8 
REMARK    4  A    between atoms: C4_7  and  O3_10 
REMARK    5  A    between atoms: C4_7  and  C5_12 
REMARK    6  A    between atoms: C5_12  and  N3_13 
REMARK    7  A    between atoms: N3_13  and  C6_15 
REMARK    8  A    between atoms: N5_23  and  C11_24 
REMARK    9  A    between atoms: C11_24  and  C12_25 
ROOT
HETATM    1  C5  UNL     1       0.320  -0.703  -1.805  1.00  0.00     0.191 C 
ENDROOT
BRANCH   1   2
HETATM    2  C4  UNL     1      -0.736  -0.408  -0.732  1.00  0.00     0.192 C 
BRANCH   2   3
HETATM    3  C3  UNL     1      -2.024  -0.088  -1.463  1.00  0.00     0.204 C 
BRANCH   3   4
HETATM    4  N2  UNL     1      -3.131   0.088  -0.564  1.00  0.00    -0.292 N 
HETATM    5  C2  UNL     1      -3.498   1.245  -0.014  1.00  0.00     0.329 A 
HETATM    6  N1  UNL     1      -4.567   0.977   0.755  1.00  0.00    -0.302 N 
HETATM    7  O1  UNL     1      -2.988   2.399  -0.144  1.00  0.00    -0.246 OA
HETATM    8  C1  UNL     1      -5.312   1.924   1.550  1.00  0.00     0.161 C 
HETATM    9  C19 UNL     1      -4.875  -0.343   0.691  1.00  0.00     0.065 A 
HETATM   10  C14 UNL     1      -3.942  -0.909  -0.163  1.00  0.00     0.066 A 
HETATM   11  C18 UNL     1      -5.847  -1.139   1.262  1.00  0.00     0.032 A 
HETATM   12  C15 UNL     1      -4.024  -2.264  -0.411  1.00  0.00     0.032 A 
HETATM   13  C16 UNL     1      -5.001  -3.058   0.165  1.00  0.00     0.002 A 
HETATM   14  C17 UNL     1      -5.934  -2.492   1.019  1.00  0.00     0.002 A 
ENDBRANCH   3   4
ENDBRANCH   2   3
BRANCH   2  15
HETATM   15  O2  UNL     1      -0.873  -1.584   0.000  1.00  0.00    -0.363 OA
ATOM     16  H2  UNL     1      -0.065  -1.785   0.458  1.00  0.00     0.213 HD
ENDBRANCH   2  15
BRANCH   2  17
HETATM   17  O3  UNL     1      -0.342   0.595   0.129  1.00  0.00    -0.363 OA
ATOM     18  H3  UNL     1       0.466   0.394   0.587  1.00  0.00     0.213 HD
ENDBRANCH   2  17
ENDBRANCH   1   2
BRANCH   1  19
HETATM   19  N3  UNL     1       1.560  -1.114  -1.235  1.00  0.00    -0.366 N 
ATOM     20  H3  UNL     1       1.634  -2.098  -0.978  1.00  0.00     0.161 HD
BRANCH  19  21
HETATM   21  C6  UNL     1       2.598  -0.386  -1.007  1.00  0.00     0.171 A 
HETATM   22  N4  UNL     1       2.593   0.899  -1.308  1.00  0.00    -0.336 N 
HETATM   23  C7  UNL     1       3.696   1.681  -1.068  1.00  0.00     0.068 A 
ATOM     24  H4  UNL     1       1.760   1.316  -1.724  1.00  0.00     0.168 HD
HETATM   25  C8  UNL     1       3.813   3.005  -1.332  1.00  0.00     0.039 A 
HETATM   26  C10 UNL     1       4.765   1.058  -0.515  1.00  0.00     0.106 A 
HETATM   27  C9  UNL     1       5.007   3.598  -1.013  1.00  0.00     0.054 A 
HETATM   28  S1  UNL     1       5.913   2.304  -0.365  1.00  0.00    -0.082 SA
HETATM   29  N5  UNL     1       4.780  -0.266  -0.201  1.00  0.00    -0.298 N 
HETATM   30  C13 UNL     1       3.711  -1.035  -0.430  1.00  0.00     0.292 A 
HETATM   31  O4  UNL     1       3.698  -2.249  -0.153  1.00  0.00    -0.264 OA
BRANCH  29  32
HETATM   32  C11 UNL     1       5.968  -0.790   0.376  1.00  0.00     0.204 C 
BRANCH  32  33
HETATM   33  C12 UNL     1       6.018  -0.732   1.872  1.00  0.00     0.371 C 
HETATM   34  F1  UNL     1       7.241  -1.282   2.263  1.00  0.00    -0.213 F 
HETATM   35  F2  UNL     1       5.036  -1.445   2.488  1.00  0.00    -0.213 F 
ENDBRANCH  32  33
ENDBRANCH  29  32
ENDBRANCH  19  21
ENDBRANCH   1  19
TORSDOF 9
