REMARK  8 active torsions:
REMARK  status: ('A' for Active; 'I' for Inactive)
REMARK    1  A    between atoms: C3_3  and  C4_4 
REMARK    2  A    between atoms: C4_4  and  N1_5 
REMARK    3  A    between atoms: N3_13  and  C10_14 
REMARK    4  A    between atoms: C13_18  and  O2_19 
REMARK    5  A    between atoms: C15_22  and  C16_23 
REMARK    6  A    between atoms: C16_23  and  O3_25 
REMARK    7  A    between atoms: N4_28  and  C19_29 
REMARK    8  A    between atoms: C19_29  and  C20_30 
ROOT
HETATM    1  C1  UNL     1      -4.515   5.502  -0.655  1.00  0.00     0.112 C 
HETATM    2  C2  UNL     1      -3.822   4.671   0.332  1.00  0.00    -0.109 C 
HETATM    3  C3  UNL     1      -3.240   4.008   1.142  1.00  0.00    -0.087 C 
ENDROOT
BRANCH   3   4
HETATM    4  C4  UNL     1      -2.508   3.214   2.127  1.00  0.00     0.223 C 
BRANCH   4   5
HETATM    5  N1  UNL     1      -1.291   2.736   1.504  1.00  0.00    -0.326 N 
HETATM    6  C5  UNL     1      -0.077   3.317   1.442  1.00  0.00     0.186 A 
HETATM    7  N2  UNL     1       0.776   2.537   0.764  1.00  0.00    -0.336 N 
HETATM    8  C6  UNL     1       0.139   1.427   0.368  1.00  0.00     0.139 A 
ATOM      9  H2  UNL     1       1.755   2.754   0.579  1.00  0.00     0.168 HD
HETATM   10  C7  UNL     1      -1.149   1.561   0.834  1.00  0.00     0.118 A 
HETATM   11  N3  UNL     1       0.314   0.287  -0.293  1.00  0.00    -0.324 N 
HETATM   12  C8  UNL     1      -1.802   0.417   0.424  1.00  0.00     0.147 A 
HETATM   13  C9  UNL     1      -0.885  -0.344  -0.262  1.00  0.00     0.067 A 
HETATM   14  O4  UNL     1      -3.038  -0.242   0.452  1.00  0.00    -0.257 OA
HETATM   15  C18 UNL     1      -1.627  -1.577  -0.688  1.00  0.00     0.181 C 
HETATM   16  N4  UNL     1      -2.831  -1.537   0.071  1.00  0.00    -0.179 NA
BRANCH  16  17
HETATM   17  C19 UNL     1      -3.917  -2.111  -0.675  1.00  0.00     0.200 C 
BRANCH  17  18
HETATM   18  C20 UNL     1      -3.713  -3.585  -0.842  1.00  0.00     0.253 C 
HETATM   19  C21 UNL     1      -3.628  -4.244   0.520  1.00  0.00     0.091 C 
HETATM   20  F1  UNL     1      -4.851  -4.051  -1.522  1.00  0.00    -0.205 F 
HETATM   21  F2  UNL     1      -2.644  -3.950  -1.593  1.00  0.00    -0.205 F 
ENDBRANCH  17  18
ENDBRANCH  16  17
BRANCH  11  22
HETATM   22  C10 UNL     1       1.446  -0.282  -0.947  1.00  0.00     0.122 C 
HETATM   23  C11 UNL     1       2.363   0.693  -1.621  1.00  0.00     0.194 C 
HETATM   24  O1  UNL     1       3.604   0.121  -1.900  1.00  0.00    -0.381 OA
HETATM   25  C12 UNL     1       4.087  -0.626  -0.853  1.00  0.00     0.157 C 
HETATM   26  C13 UNL     1       3.235  -1.897  -0.781  1.00  0.00     0.154 C 
HETATM   27  C15 UNL     1       3.425  -0.249   0.478  1.00  0.00     0.054 C 
HETATM   28  C14 UNL     1       2.254  -1.066   0.042  1.00  0.00     0.051 C 
BRANCH  26  29
HETATM   29  O2  UNL     1       2.741  -2.305  -2.022  1.00  0.00    -0.393 OA
ATOM     30  H2  UNL     1       2.213  -3.093  -1.977  1.00  0.00     0.210 HD
ENDBRANCH  26  29
BRANCH  27  31
HETATM   31  C16 UNL     1       4.253  -0.807   1.615  1.00  0.00     0.121 C 
HETATM   32  C17 UNL     1       5.646  -0.175   1.489  1.00  0.00     0.040 C 
BRANCH  31  33
HETATM   33  O3  UNL     1       3.699  -0.402   2.827  1.00  0.00    -0.395 OA
ATOM     34  H3  UNL     1       4.219  -0.752   3.541  1.00  0.00     0.210 HD
ENDBRANCH  31  33
ENDBRANCH  27  31
ENDBRANCH  11  22
ENDBRANCH   4   5
ENDBRANCH   3   4
TORSDOF 8
