REMARK  7 active torsions:
REMARK  status: ('A' for Active; 'I' for Inactive)
REMARK    1  A    between atoms: C2_7  and  C3_8 
REMARK    2  A    between atoms: C3_8  and  O1_9 
REMARK    3  A    between atoms: O1_9  and  C4_10 
REMARK    4  A    between atoms: C4_10  and  C5_11 
REMARK    5  A    between atoms: C5_11  and  C6_12 
REMARK    6  A    between atoms: C6_12  and  N3_13 
REMARK    7  A    between atoms: C8_18  and  N4_19 
ROOT
HETATM    1  N1  UNL     1      -3.740   1.735  -1.287  1.00  0.00    -0.387 N 
ATOM      2  H11 UNL     1      -4.497   2.294  -0.894  1.00  0.00     0.157 HD
ATOM      3  H12 UNL     1      -3.625   2.046  -2.252  1.00  0.00     0.157 HD
HETATM    4  C1  UNL     1      -3.044   0.814  -0.718  1.00  0.00     0.102 C 
HETATM    5  N2  UNL     1      -1.988   0.035  -1.266  1.00  0.00    -0.372 N 
ATOM      6  H2  UNL     1      -1.672   0.079  -2.235  1.00  0.00     0.161 HD
HETATM    7  C2  UNL     1      -1.426  -0.831  -0.247  1.00  0.00     0.109 C 
HETATM    8  C7  UNL     1      -1.784  -0.079   1.018  1.00  0.00     0.068 C 
HETATM    9  C8  UNL     1      -3.211   0.362   0.686  1.00  0.00     0.251 C 
ENDROOT
BRANCH   7  10
HETATM   10  C3  UNL     1       0.085  -0.949  -0.402  1.00  0.00     0.192 C 
BRANCH  10  11
HETATM   11  O1  UNL     1       0.612   0.310  -0.279  1.00  0.00    -0.389 OA
BRANCH  11  12
HETATM   12  C4  UNL     1       1.978   0.385  -0.394  1.00  0.00     0.169 C 
BRANCH  12  13
HETATM   13  C5  UNL     1       2.726  -0.413   0.624  1.00  0.00     0.053 C 
BRANCH  13  14
HETATM   14  C6  UNL     1       4.212  -0.224   0.360  1.00  0.00     0.231 C 
BRANCH  14  15
HETATM   15  N3  UNL     1       4.610   1.148   0.460  1.00  0.00    -0.079 N 
ATOM     16  H33 UNL     1       4.049   1.740  -0.152  1.00  0.00     0.274 HD
ATOM     17  H32 UNL     1       4.342   1.545   1.361  1.00  0.00     0.274 HD
ATOM     18  H31 UNL     1       5.606   1.275   0.283  1.00  0.00     0.274 HD
ENDBRANCH  14  15
ENDBRANCH  13  14
ENDBRANCH  12  13
ENDBRANCH  11  12
ENDBRANCH  10  11
ENDBRANCH   7  10
BRANCH   9  19
HETATM   19  N4  UNL     1      -4.069  -0.809   0.651  1.00  0.00    -0.068 N 
ATOM     20  H43 UNL     1      -4.955  -0.644   0.174  1.00  0.00     0.275 HD
ATOM     21  H42 UNL     1      -3.724  -1.542   0.031  1.00  0.00     0.275 HD
ATOM     22  H41 UNL     1      -4.184  -1.120   1.616  1.00  0.00     0.275 HD
ENDBRANCH   9  19
TORSDOF 7
