REMARK  5 active torsions:
REMARK  status: ('A' for Active; 'I' for Inactive)
REMARK    1  A    between atoms: C2_3  and  N2_4 
REMARK    2  A    between atoms: N2_4  and  C3_7 
REMARK    3  A    between atoms: C3_7  and  C4_8 
REMARK    4  A    between atoms: C4_8  and  C5_9 
REMARK    5  A    between atoms: C5_9  and  N3_10 
ROOT
HETATM    1  N1  UNL     1       6.313  -1.265   0.016  1.00  0.00    -0.196 NA
HETATM    2  C1  UNL     1       5.295  -0.682  -0.010  1.00  0.00     0.086 C 
HETATM    3  C2  UNL     1       4.036   0.065  -0.049  1.00  0.00     0.355 C 
ENDROOT
BRANCH   3   4
HETATM    4  N2  UNL     1       3.018  -0.677   0.666  1.00  0.00    -0.063 N 
ATOM      5  H22 UNL     1       2.917  -1.622   0.297  1.00  0.00     0.278 HD
ATOM      6  H21 UNL     1       3.320  -0.909   1.612  1.00  0.00     0.278 HD
BRANCH   4   7
HETATM    7  C3  UNL     1       1.741   0.035   0.672  1.00  0.00     0.235 C 
BRANCH   7   8
HETATM    8  C4  UNL     1       1.138   0.075  -0.702  1.00  0.00     0.050 C 
BRANCH   8   9
HETATM    9  C5  UNL     1      -0.154   0.795  -0.803  1.00  0.00     0.177 C 
BRANCH   9  10
HETATM   10  N3  UNL     1      -1.248   0.323  -0.046  1.00  0.00    -0.089 N 
HETATM   11  O1  UNL     1      -1.750   1.053   0.989  1.00  0.00    -0.263 OA
HETATM   12  C6  UNL     1      -3.051   1.400   0.559  1.00  0.00     0.222 C 
HETATM   13  C7  UNL     1      -3.972   0.210   0.467  1.00  0.00     0.166 C 
HETATM   14  N4  UNL     1      -3.294  -1.014   0.130  1.00  0.00    -0.223 N 
HETATM   15  C8  UNL     1      -1.921  -0.908  -0.285  1.00  0.00     0.693 C 
ATOM     16  H4  UNL     1      -3.766  -1.917   0.183  1.00  0.00     0.177 HD
HETATM   17  N5  UNL     1      -1.280  -1.858  -0.865  1.00  0.00    -0.233 N 
ATOM     18  H52 UNL     1      -0.306  -1.783  -1.159  1.00  0.00     0.174 HD
ATOM     19  H51 UNL     1      -1.762  -2.740  -1.036  1.00  0.00     0.174 HD
ENDBRANCH   9  10
ENDBRANCH   8   9
ENDBRANCH   7   8
ENDBRANCH   4   7
ENDBRANCH   3   4
TORSDOF 5
