REMARK  7 active torsions:
REMARK  status: ('A' for Active; 'I' for Inactive)
REMARK    1  A    between atoms: N1_1  and  C1_5 
REMARK    2  A    between atoms: C1_5  and  C2_6 
REMARK    3  A    between atoms: C2_6  and  N2_7 
REMARK    4  A    between atoms: N2_7  and  C3_10 
REMARK    5  A    between atoms: C3_10  and  C4_11 
REMARK    6  A    between atoms: C4_11  and  N3_12 
REMARK    7  A    between atoms: N3_12  and  C5_15 
ROOT
HETATM    1  N3  UNL     1      -0.718  -0.142  -0.997  1.00  0.00    -0.069 N 
ATOM      2  H31 UNL     1      -1.188  -0.836  -1.578  1.00  0.00     0.277 HD
ATOM      3  H32 UNL     1      -0.554   0.568  -1.711  1.00  0.00     0.277 HD
ENDROOT
BRANCH   1   4
HETATM    4  C4  UNL     1       0.534  -0.656  -0.443  1.00  0.00     0.260 C 
BRANCH   4   5
HETATM    5  C3  UNL     1       1.378   0.477   0.084  1.00  0.00     0.259 C 
BRANCH   5   6
HETATM    6  N2  UNL     1       2.645   0.044   0.567  1.00  0.00    -0.072 N 
ATOM      7  H22 UNL     1       2.547  -0.662   1.297  1.00  0.00     0.277 HD
ATOM      8  H21 UNL     1       3.107   0.771   1.114  1.00  0.00     0.277 HD
BRANCH   6   9
HETATM    9  C2  UNL     1       3.466  -0.412  -0.491  1.00  0.00     0.259 C 
BRANCH   9  10
HETATM   10  C1  UNL     1       4.922  -0.596  -0.124  1.00  0.00     0.257 C 
BRANCH  10  11
HETATM   11  N1  UNL     1       5.509   0.670   0.262  1.00  0.00    -0.078 N 
ATOM     12  H13 UNL     1       5.386   1.381  -0.459  1.00  0.00     0.274 HD
ATOM     13  H12 UNL     1       4.983   1.120   1.011  1.00  0.00     0.274 HD
ATOM     14  H11 UNL     1       6.491   0.546   0.509  1.00  0.00     0.274 HD
ENDBRANCH  10  11
ENDBRANCH   9  10
ENDBRANCH   6   9
ENDBRANCH   5   6
ENDBRANCH   4   5
ENDBRANCH   1   4
BRANCH   1  15
HETATM   15  C5  UNL     1      -1.556   0.334   0.033  1.00  0.00     0.193 C 
HETATM   16  C6  UNL     1      -2.059  -0.753   0.983  1.00  0.00     0.066 C 
HETATM   17  C7  UNL     1      -3.553  -0.526   1.090  1.00  0.00     0.188 C 
HETATM   18  C8  UNL     1      -3.578   0.999   0.939  1.00  0.00     0.041 C 
HETATM   19  N4  UNL     1      -4.162  -0.934  -0.134  1.00  0.00    -0.070 N 
HETATM   20  C9  UNL     1      -2.819   0.988  -0.406  1.00  0.00     0.044 C 
HETATM   21  C10 UNL     1      -3.741   0.048  -1.140  1.00  0.00     0.239 C 
ATOM     22  H42 UNL     1      -3.951  -1.898  -0.392  1.00  0.00     0.277 HD
ATOM     23  H41 UNL     1      -5.174  -1.042  -0.069  1.00  0.00     0.277 HD
ENDBRANCH   1  15
TORSDOF 7
