REMARK  7 active torsions:
REMARK  status: ('A' for Active; 'I' for Inactive)
REMARK    1  A    between atoms: C3_3  and  C4_4 
REMARK    2  A    between atoms: C3_3  and  N2_12 
REMARK    3  A    between atoms: C4_4  and  C5_5 
REMARK    4  A    between atoms: C5_5  and  C6_6 
REMARK    5  A    between atoms: C6_6  and  C7_7 
REMARK    6  A    between atoms: C7_7  and  N1_8 
REMARK    7  A    between atoms: N2_12  and  C8_14 
ROOT
HETATM    1  C1  UNL     1      -1.886  -0.880  -2.812  1.00  0.00     0.014 C 
HETATM    2  C2  UNL     1      -1.450  -0.271  -1.866  1.00  0.00    -0.091 C 
HETATM    3  C3  UNL     1      -0.944   0.477  -0.730  1.00  0.00     0.178 C 
ENDROOT
BRANCH   3   4
HETATM    4  C4  UNL     1       0.587   0.547  -0.735  1.00  0.00     0.039 C 
BRANCH   4   5
HETATM    5  C5  UNL     1       1.199  -0.802  -0.677  1.00  0.00     0.004 C 
BRANCH   5   6
HETATM    6  C6  UNL     1       2.685  -0.762  -0.739  1.00  0.00     0.027 C 
BRANCH   6   7
HETATM    7  C7  UNL     1       3.417  -0.034   0.319  1.00  0.00     0.229 C 
BRANCH   7   8
HETATM    8  N1  UNL     1       3.200   1.359   0.454  1.00  0.00    -0.079 N 
ATOM      9  H13 UNL     1       3.378   1.811  -0.443  1.00  0.00     0.274 HD
ATOM     10  H12 UNL     1       2.201   1.530   0.565  1.00  0.00     0.274 HD
ATOM     11  H11 UNL     1       3.705   1.861   1.184  1.00  0.00     0.274 HD
ENDBRANCH   7   8
ENDBRANCH   6   7
ENDBRANCH   5   6
ENDBRANCH   4   5
ENDBRANCH   3   4
BRANCH   3  12
HETATM   12  N2  UNL     1      -1.407  -0.101   0.513  1.00  0.00    -0.209 N 
ATOM     13  H2  UNL     1      -0.769  -0.694   1.044  1.00  0.00     0.179 HD
BRANCH  12  14
HETATM   14  C8  UNL     1      -2.592   0.102   0.978  1.00  0.00     0.704 A 
HETATM   15  N3  UNL     1      -3.559   0.847   0.424  1.00  0.00    -0.117 N 
HETATM   16  N4  UNL     1      -4.625   0.790   1.228  1.00  0.00     0.006 NA
ATOM     17  H3  UNL     1      -3.493   1.364  -0.453  1.00  0.00     0.202 HD
HETATM   18  N5  UNL     1      -4.359   0.030   2.276  1.00  0.00     0.006 NA
HETATM   19  N6  UNL     1      -3.115  -0.386   2.114  1.00  0.00    -0.117 N 
ATOM     20  H6  UNL     1      -2.619  -0.996   2.764  1.00  0.00     0.202 HD
ENDBRANCH  12  14
ENDBRANCH   3  12
TORSDOF 7
