REMARK  6 active torsions:
REMARK  status: ('A' for Active; 'I' for Inactive)
REMARK    1  A    between atoms: C2_2  and  C3_3 
REMARK    2  A    between atoms: C3_3  and  N1_4 
REMARK    3  A    between atoms: N1_4  and  C4_7 
REMARK    4  A    between atoms: C4_7  and  C5_8 
REMARK    5  A    between atoms: C5_8  and  N2_9 
REMARK    6  A    between atoms: N2_9  and  C6_11 
ROOT
HETATM    1  C6  UNL     1      -2.011   0.572   0.087  1.00  0.00     0.709 A 
HETATM    2  N3  UNL     1      -2.703   1.744   0.211  1.00  0.00    -0.020 N 
ATOM      3  H3  UNL     1      -2.280   2.665   0.326  1.00  0.00     0.203 HD
HETATM    4  C7  UNL     1      -4.003   1.506   0.160  1.00  0.00     0.705 A 
HETATM    5  N4  UNL     1      -5.012   2.319   0.237  1.00  0.00    -0.233 N 
ATOM      6  H41 UNL     1      -6.015   2.135   0.198  1.00  0.00     0.174 HD
ATOM      7  H42 UNL     1      -4.884   3.324   0.356  1.00  0.00     0.174 HD
HETATM    8  N5  UNL     1      -4.172   0.183   0.003  1.00  0.00    -0.116 N 
ATOM      9  H5  UNL     1      -5.063  -0.309  -0.070  1.00  0.00     0.206 HD
HETATM   10  N6  UNL     1      -2.950  -0.372  -0.040  1.00  0.00    -0.114 N 
HETATM   11  C8  UNL     1      -2.685  -1.797  -0.202  1.00  0.00     0.198 C 
ENDROOT
BRANCH   1  12
HETATM   12  N2  UNL     1      -0.732   0.530   0.105  1.00  0.00    -0.223 N 
ATOM     13  H2  UNL     1      -0.263   1.428   0.219  1.00  0.00     0.177 HD
BRANCH  12  14
HETATM   14  C5  UNL     1       0.120  -0.596  -0.012  1.00  0.00     0.165 C 
BRANCH  14  15
HETATM   15  C4  UNL     1       1.546  -0.098  -0.210  1.00  0.00     0.252 C 
BRANCH  15  16
HETATM   16  N1  UNL     1       2.464  -1.219  -0.336  1.00  0.00    -0.071 N 
ATOM     17  H12 UNL     1       2.180  -1.860  -1.077  1.00  0.00     0.277 HD
ATOM     18  H11 UNL     1       2.392  -1.859   0.455  1.00  0.00     0.277 HD
BRANCH  16  19
HETATM   19  C3  UNL     1       3.820  -0.746  -0.524  1.00  0.00     0.259 C 
BRANCH  19  20
HETATM   20  C2  UNL     1       4.256  -0.098   0.734  1.00  0.00    -0.010 C 
HETATM   21  C1  UNL     1       4.617   1.192   0.738  1.00  0.00     0.008 C 
ENDBRANCH  19  20
ENDBRANCH  16  19
ENDBRANCH  15  16
ENDBRANCH  14  15
ENDBRANCH  12  14
ENDBRANCH   1  12
TORSDOF 6
