REMARK  2 active torsions:
REMARK  status: ('A' for Active; 'I' for Inactive)
REMARK    1  A    between atoms: C6_6  and  O1_7 
REMARK    2  A    between atoms: C7_9  and  O2_10 
ROOT
HETATM    1  C1  UNL     1      -2.148   0.006   0.494  1.00  0.00     0.012 C 
HETATM    2  C2  UNL     1      -1.035   0.044  -0.564  1.00  0.00     0.013 C 
HETATM    3  C3  UNL     1      -0.411  -1.276  -0.782  1.00  0.00     0.007 C 
HETATM    4  C4  UNL     1       0.920  -1.499  -0.183  1.00  0.00     0.003 C 
HETATM    5  C5  UNL     1       1.824  -0.284  -0.220  1.00  0.00     0.034 C 
HETATM    6  C6  UNL     1       1.079   0.801   0.565  1.00  0.00     0.147 C 
HETATM    7  C7  UNL     1      -0.103   1.170  -0.284  1.00  0.00     0.150 C 
ENDROOT
BRANCH   6   8
HETATM    8  O1  UNL     1       0.715   0.346   1.818  1.00  0.00    -0.393 OA
ATOM      9  H1  UNL     1       0.253   1.019   2.305  1.00  0.00     0.210 HD
ENDBRANCH   6   8
BRANCH   7  10
HETATM   10  O2  UNL     1      -0.756   2.249   0.285  1.00  0.00    -0.393 OA
ATOM     11  H2  UNL     1      -0.161   2.968   0.464  1.00  0.00     0.210 HD
ENDBRANCH   7  10
TORSDOF 2
