REMARK  3 active torsions:
REMARK  status: ('A' for Active; 'I' for Inactive)
REMARK    1  A    between atoms: O1_2  and  C2_3 
REMARK    2  A    between atoms: C2_3  and  N2_7 
REMARK    3  A    between atoms: N2_7  and  C3_9 
ROOT
HETATM    1  N2  UNL     1       0.493   0.795   0.350  1.00  0.00    -0.352 N 
ATOM      2  H2  UNL     1       0.425   1.797   0.170  1.00  0.00     0.163 HD
ENDROOT
BRANCH   1   3
HETATM    3  C2  UNL     1       1.687   0.094   0.008  1.00  0.00     0.212 C 
HETATM    4  N1  UNL     1       1.690  -1.182  -0.104  1.00  0.00    -0.366 N 
ATOM      5  H12 UNL     1       2.544  -1.683  -0.349  1.00  0.00     0.159 HD
ATOM      6  H11 UNL     1       0.820  -1.690   0.055  1.00  0.00     0.159 HD
BRANCH   3   7
HETATM    7  O1  UNL     1       2.868   0.784  -0.208  1.00  0.00    -0.328 OA
HETATM    8  C1  UNL     1       4.002   0.062  -0.627  1.00  0.00     0.213 C 
ENDBRANCH   3   7
ENDBRANCH   1   3
BRANCH   1   9
HETATM    9  C3  UNL     1      -0.619   0.098   0.949  1.00  0.00     0.085 C 
HETATM   10  C4  UNL     1      -1.127  -0.995   0.051  1.00  0.00     0.025 C 
HETATM   11  C5  UNL     1      -2.648  -0.805   0.024  1.00  0.00     0.002 C 
HETATM   12  C6  UNL     1      -2.739   0.713   0.128  1.00  0.00     0.002 C 
HETATM   13  C7  UNL     1      -1.746   1.053   1.191  1.00  0.00     0.025 C 
ENDBRANCH   1   9
TORSDOF 3
