REMARK  3 active torsions:
REMARK  status: ('A' for Active; 'I' for Inactive)
REMARK    1  A    between atoms: S1_2  and  C2_3 
REMARK    2  A    between atoms: C2_3  and  N2_7 
REMARK    3  A    between atoms: N2_7  and  C3_9 
ROOT
HETATM    1  C2  UNL     1       0.726  -1.047   0.951  1.00  0.00     0.133 C 
HETATM    2  N1  UNL     1       0.141  -1.919   1.699  1.00  0.00    -0.380 N 
ATOM      3  H11 UNL     1      -0.677  -2.383   1.304  1.00  0.00     0.158 HD
ATOM      4  H12 UNL     1       0.485  -2.128   2.636  1.00  0.00     0.158 HD
ENDROOT
BRANCH   1   5
HETATM    5  S1  UNL     1       2.158  -0.235   1.643  1.00  0.00    -0.099 SA
HETATM    6  C1  UNL     1       2.893   0.951   0.519  1.00  0.00     0.099 C 
ENDBRANCH   1   5
BRANCH   1   7
HETATM    7  N2  UNL     1       0.246  -0.756  -0.355  1.00  0.00    -0.367 N 
ATOM      8  H2  UNL     1       0.809  -1.056  -1.151  1.00  0.00     0.162 HD
BRANCH   7   9
HETATM    9  C3  UNL     1      -0.976  -0.069  -0.618  1.00  0.00     0.075 C 
HETATM   10  C4  UNL     1      -0.933   1.324   0.018  1.00  0.00     0.032 C 
HETATM   11  C5  UNL     1      -2.207  -0.745  -0.115  1.00  0.00     0.032 C 
ENDBRANCH   7   9
ENDBRANCH   1   7
TORSDOF 3
