REMARK  7 active torsions:
REMARK  status: ('A' for Active; 'I' for Inactive)
REMARK    1  A    between atoms: C3_3  and  N1_4 
REMARK    2  A    between atoms: N1_4  and  C4_6 
REMARK    3  A    between atoms: C9_14  and  O1_15 
REMARK    4  A    between atoms: N3_17  and  C10_18 
REMARK    5  A    between atoms: C16_25  and  N4_26 
REMARK    6  A    between atoms: N4_26  and  N5_28 
REMARK    7  A    between atoms: N5_28  and  C17_29 
ROOT
HETATM    1  C1  UNL     1       0.241   1.578   1.780  1.00  0.00     0.055 C 
HETATM    2  C2  UNL     1       0.579   0.270   1.172  1.00  0.00     0.014 A 
HETATM    3  C3  UNL     1       1.853  -0.214   0.991  1.00  0.00     0.090 A 
HETATM    4  C9  UNL     1       1.720  -1.456   0.396  1.00  0.00     0.176 A 
HETATM    5  N3  UNL     1       0.422  -1.746   0.210  1.00  0.00    -0.275 N 
HETATM    6  C16 UNL     1      -0.294  -0.697   0.680  1.00  0.00     0.134 A 
ENDROOT
BRANCH   3   7
HETATM    7  N1  UNL     1       3.064   0.433   1.347  1.00  0.00    -0.380 N 
ATOM      8  H1  UNL     1       3.444   0.252   2.276  1.00  0.00     0.160 HD
BRANCH   7   9
HETATM    9  C4  UNL     1       3.788   1.320   0.494  1.00  0.00     0.107 C 
HETATM   10  C5  UNL     1       4.241   0.694  -0.805  1.00  0.00     0.028 C 
HETATM   11  C6  UNL     1       4.789   1.824  -1.665  1.00  0.00     0.029 C 
HETATM   12  C7  UNL     1       5.930   2.472  -0.951  1.00  0.00     0.232 C 
HETATM   13  N2  UNL     1       5.581   2.907   0.386  1.00  0.00    -0.073 N 
HETATM   14  C8  UNL     1       5.016   1.861   1.182  1.00  0.00     0.257 C 
ATOM     15  H22 UNL     1       6.384   3.328   0.854  1.00  0.00     0.277 HD
ATOM     16  H21 UNL     1       4.962   3.717   0.356  1.00  0.00     0.277 HD
ENDBRANCH   7   9
ENDBRANCH   3   7
BRANCH   4  17
HETATM   17  O1  UNL     1       2.794  -2.283   0.045  1.00  0.00    -0.344 OA
ATOM     18  H1  UNL     1       2.703  -3.136  -0.364  1.00  0.00     0.219 HD
ENDBRANCH   4  17
BRANCH   6  19
HETATM   19  N4  UNL     1      -1.706  -0.624   0.662  1.00  0.00    -0.288 N 
ATOM     20  H4  UNL     1      -2.247  -1.397   0.274  1.00  0.00     0.184 HD
BRANCH  19  21
HETATM   21  N5  UNL     1      -2.361   0.486   1.165  1.00  0.00    -0.132 NA
BRANCH  21  22
HETATM   22  C17 UNL     1      -3.444   0.924   0.309  1.00  0.00     0.130 C 
HETATM   23  C18 UNL     1      -4.491  -0.176   0.139  1.00  0.00     0.057 C 
HETATM   24  C19 UNL     1      -5.715   0.472   0.730  1.00  0.00     0.123 C 
HETATM   25  C20 UNL     1      -6.231   1.555  -0.173  1.00  0.00     0.034 C 
HETATM   26  O2  UNL     1      -5.136   1.240   1.768  1.00  0.00    -0.379 OA
HETATM   27  C21 UNL     1      -5.152   2.626  -0.016  1.00  0.00     0.036 C 
HETATM   28  C22 UNL     1      -4.236   2.004   0.990  1.00  0.00     0.143 C 
ENDBRANCH  21  22
ENDBRANCH  19  21
ENDBRANCH   6  19
BRANCH   5  29
HETATM   29  C10 UNL     1      -0.044  -2.954  -0.382  1.00  0.00     0.043 A 
HETATM   30  C11 UNL     1      -0.164  -4.132   0.358  1.00  0.00     0.033 A 
HETATM   31  C12 UNL     1      -0.613  -5.308  -0.199  1.00  0.00     0.044 A 
HETATM   32  C13 UNL     1      -0.957  -5.338  -1.523  1.00  0.00     0.116 A 
HETATM   33  F1  UNL     1      -1.395  -6.506  -2.045  1.00  0.00    -0.206 F 
HETATM   34  C14 UNL     1      -0.844  -4.176  -2.273  1.00  0.00     0.044 A 
HETATM   35  C15 UNL     1      -0.394  -2.997  -1.714  1.00  0.00     0.033 A 
ENDBRANCH   5  29
TORSDOF 7
