REMARK  8 active torsions:
REMARK  status: ('A' for Active; 'I' for Inactive)
REMARK    1  A    between atoms: C2_2  and  O1_3 
REMARK    2  A    between atoms: O1_3  and  C3_4 
REMARK    3  A    between atoms: C6_7  and  O2_8 
REMARK    4  A    between atoms: O2_8  and  C7_9 
REMARK    5  A    between atoms: C10_12  and  C11_13 
REMARK    6  A    between atoms: C12_16  and  C13_17 
REMARK    7  A    between atoms: C16_21  and  N2_22 
REMARK    8  A    between atoms: N2_22  and  N3_23 
ROOT
HETATM    1  C11 UNL     1      -1.228  -0.052  -1.527  1.00  0.00     0.198 A 
HETATM    2  N1  UNL     1      -1.928   0.059  -0.361  1.00  0.00    -0.320 N 
ATOM      3  H1  UNL     1      -1.669  -0.307   0.555  1.00  0.00     0.169 HD
HETATM    4  C12 UNL     1      -3.036   0.758  -0.682  1.00  0.00     0.127 A 
HETATM    5  N6  UNL     1      -3.000   1.054  -1.991  1.00  0.00    -0.245 N 
ATOM      6  H6  UNL     1      -3.703   1.575  -2.515  1.00  0.00     0.196 HD
HETATM    7  O3  UNL     1      -1.913   0.557  -2.459  1.00  0.00    -0.216 OA
ENDROOT
BRANCH   1   8
HETATM    8  C10 UNL     1       0.041  -0.713  -1.739  1.00  0.00     0.088 A 
HETATM    9  C9  UNL     1       0.705  -0.797  -2.935  1.00  0.00     0.038 A 
HETATM   10  C8  UNL     1       1.864  -1.501  -2.712  1.00  0.00     0.059 A 
HETATM   11  C7  UNL     1       1.907  -1.848  -1.377  1.00  0.00     0.148 A 
HETATM   12  N7  UNL     1       0.798  -1.360  -0.820  1.00  0.00    -0.333 N 
ATOM     13  H7  UNL     1       0.553  -1.460   0.165  1.00  0.00     0.168 HD
BRANCH  11  14
HETATM   14  O2  UNL     1       2.903  -2.569  -0.706  1.00  0.00    -0.294 OA
BRANCH  14  15
HETATM   15  C6  UNL     1       4.074  -1.963  -0.279  1.00  0.00     0.078 A 
HETATM   16  C5  UNL     1       5.181  -1.908  -1.090  1.00  0.00     0.040 A 
HETATM   17  C4  UNL     1       6.364  -1.300  -0.670  1.00  0.00     0.039 A 
HETATM   18  C3  UNL     1       6.476  -0.727   0.575  1.00  0.00     0.068 A 
HETATM   19  C19 UNL     1       5.341  -0.785   1.401  1.00  0.00     0.039 A 
HETATM   20  C18 UNL     1       4.197  -1.386   0.965  1.00  0.00     0.040 A 
BRANCH  18  21
HETATM   21  O1  UNL     1       7.615  -0.106   1.058  1.00  0.00    -0.352 OA
BRANCH  21  22
HETATM   22  C2  UNL     1       8.798   0.028   0.327  1.00  0.00     0.171 C 
HETATM   23  C1  UNL     1       8.665   0.832  -0.937  1.00  0.00     0.034 C 
ENDBRANCH  21  22
ENDBRANCH  18  21
ENDBRANCH  14  15
ENDBRANCH  11  14
ENDBRANCH   1   8
BRANCH   4  24
HETATM   24  C13 UNL     1      -4.148   1.167   0.222  1.00  0.00     0.155 C 
HETATM   25  C14 UNL     1      -5.307   1.588  -0.607  1.00  0.00     0.072 C 
HETATM   26  C15 UNL     1      -6.591   1.738   0.160  1.00  0.00     0.200 C 
HETATM   27  F1  UNL     1      -7.622   1.839  -0.754  1.00  0.00    -0.247 F 
HETATM   28  C16 UNL     1      -6.862   0.628   1.113  1.00  0.00     0.199 C 
HETATM   29  C17 UNL     1      -5.787  -0.367   1.223  1.00  0.00     0.095 C 
HETATM   30  N4  UNL     1      -6.083  -1.589   1.500  1.00  0.00    -0.388 N 
HETATM   31  N5  UNL     1      -4.447  -0.013   1.032  1.00  0.00    -0.367 N 
ATOM     32  H42 UNL     1      -7.060  -1.847   1.639  1.00  0.00     0.157 HD
ATOM     33  H41 UNL     1      -5.337  -2.280   1.576  1.00  0.00     0.157 HD
ATOM     34  H5  UNL     1      -3.697  -0.565   1.448  1.00  0.00     0.161 HD
BRANCH  28  35
HETATM   35  N2  UNL     1      -7.135   1.156   2.459  1.00  0.00    -0.133 NA
BRANCH  35  36
HETATM   36  N3  UNL     1      -8.263   1.999   2.396  1.00  0.00    -0.348 N 
ATOM     37  H32 UNL     1      -8.793   2.200   1.548  1.00  0.00     0.172 HD
ATOM     38  H31 UNL     1      -8.452   2.365   3.329  1.00  0.00     0.172 HD
ENDBRANCH  35  36
ENDBRANCH  28  35
ENDBRANCH   4  24
TORSDOF 8
