REMARK  9 active torsions:
REMARK  status: ('A' for Active; 'I' for Inactive)
REMARK    1  A    between atoms: C4_4  and  N1_5 
REMARK    2  A    between atoms: N1_5  and  C5_7 
REMARK    3  A    between atoms: C5_7  and  C6_8 
REMARK    4  A    between atoms: C7_11  and  S1_12 
REMARK    5  A    between atoms: S1_12  and  C8_13 
REMARK    6  A    between atoms: C8_13  and  C9_14 
REMARK    7  A    between atoms: C9_14  and  O1_15 
REMARK    8  A    between atoms: C11_21  and  N5_22 
REMARK    9  A    between atoms: C12_27  and  N7_28 
ROOT
HETATM    1  C1  UNL     1      -1.991   3.722  -0.519  1.00  0.00     0.068 C 
HETATM    2  C2  UNL     1      -2.346   2.280  -0.367  1.00  0.00     0.009 A 
HETATM    3  C3  UNL     1      -1.443   1.300  -0.740  1.00  0.00     0.054 A 
HETATM    4  C4  UNL     1      -1.801  -0.016  -0.589  1.00  0.00     0.047 A 
HETATM    5  C10 UNL     1      -3.060  -0.300  -0.065  1.00  0.00     0.079 A 
HETATM    6  C11 UNL     1      -3.477  -1.610   0.111  1.00  0.00     0.131 A 
HETATM    7  N6  UNL     1      -4.694  -1.873   0.617  1.00  0.00    -0.176 N 
ATOM      8  H6  UNL     1      -4.974  -2.847   0.735  1.00  0.00     0.186 HD
HETATM    9  C12 UNL     1      -5.557  -0.906   0.974  1.00  0.00     0.679 A 
HETATM   10  N8  UNL     1      -5.152   0.368   0.803  1.00  0.00    -0.176 N 
ATOM     11  H8  UNL     1      -5.789   1.120   1.066  1.00  0.00     0.186 HD
HETATM   12  C13 UNL     1      -3.941   0.695   0.299  1.00  0.00     0.137 A 
HETATM   13  N9  UNL     1      -3.554   1.970   0.135  1.00  0.00    -0.345 N 
ATOM     14  H9  UNL     1      -4.192   2.721   0.398  1.00  0.00     0.167 HD
ENDROOT
BRANCH   4  15
HETATM   15  N1  UNL     1      -1.030  -0.989  -0.907  1.00  0.00    -0.386 N 
ATOM     16  H1  UNL     1      -1.351  -1.947  -0.771  1.00  0.00     0.159 HD
BRANCH  15  17
HETATM   17  C5  UNL     1       0.266  -0.757  -1.447  1.00  0.00     0.171 C 
BRANCH  17  18
HETATM   18  C6  UNL     1       1.338  -0.513  -0.407  1.00  0.00     0.314 C 
HETATM   19  N2  UNL     1       1.505  -1.609   0.493  1.00  0.00    -0.110 NA
HETATM   20  N3  UNL     1       2.787  -2.112   0.373  1.00  0.00    -0.102 NA
HETATM   21  C7  UNL     1       3.312  -1.617  -0.904  1.00  0.00     0.357 C 
HETATM   22  N4  UNL     1       2.592  -0.376  -1.120  1.00  0.00    -0.026 N 
ATOM     23  H42 UNL     1       2.476  -0.139  -2.105  1.00  0.00     0.282 HD
ATOM     24  H41 UNL     1       3.122   0.454  -0.855  1.00  0.00     0.282 HD
BRANCH  21  25
HETATM   25  S1  UNL     1       5.085  -1.264  -0.758  1.00  0.00    -0.117 SA
BRANCH  25  26
HETATM   26  C8  UNL     1       5.310   0.132   0.395  1.00  0.00     0.103 C 
BRANCH  26  27
HETATM   27  C9  UNL     1       6.775   0.468   0.551  1.00  0.00     0.174 C 
BRANCH  27  28
HETATM   28  O1  UNL     1       6.862   1.537   1.442  1.00  0.00    -0.400 OA
ATOM     29  H1  UNL     1       7.783   1.748   1.540  1.00  0.00     0.209 HD
ENDBRANCH  27  28
ENDBRANCH  26  27
ENDBRANCH  25  26
ENDBRANCH  21  25
ENDBRANCH  17  18
ENDBRANCH  15  17
ENDBRANCH   4  15
BRANCH   6  30
HETATM   30  N5  UNL     1      -2.686  -2.561  -0.216  1.00  0.00    -0.384 N 
ATOM     31  H52 UNL     1      -1.762  -2.361  -0.600  1.00  0.00     0.157 HD
ATOM     32  H51 UNL     1      -2.993  -3.525  -0.086  1.00  0.00     0.157 HD
ENDBRANCH   6  30
BRANCH   9  33
HETATM   33  N7  UNL     1      -6.732  -1.172   1.462  1.00  0.00    -0.234 N 
ATOM     34  H72 UNL     1      -7.039  -2.136   1.591  1.00  0.00     0.174 HD
ATOM     35  H71 UNL     1      -7.387  -0.438   1.733  1.00  0.00     0.174 HD
ENDBRANCH   9  33
TORSDOF 9
