REMARK  11 active torsions:
REMARK  status: ('A' for Active; 'I' for Inactive)
REMARK    1  A    between atoms: N1_1  and  C1_4 
REMARK    2  A    between atoms: C2_7  and  S1_8 
REMARK    3  A    between atoms: S1_8  and  C3_9 
REMARK    4  A    between atoms: C3_9  and  C4_10 
REMARK    5  A    between atoms: C4_10  and  C5_11 
REMARK    6  A    between atoms: C5_11  and  N3_12 
REMARK    7  A    between atoms: C7_21  and  C8_22 
REMARK    8  A    between atoms: C8_22  and  C9_23 
REMARK    9  A    between atoms: C9_23  and  C10_24 
REMARK   10  A    between atoms: C12_29  and  O1_30 
REMARK   11  A    between atoms: C13_32  and  O2_33 
ROOT
HETATM    1  C1  UNL     1       1.485  -2.661   1.532  1.00  0.00     0.132 A 
HETATM    2  N2  UNL     1       2.768  -2.273   1.562  1.00  0.00    -0.321 N 
ATOM      3  H2  UNL     1       3.486  -2.941   1.841  1.00  0.00     0.169 HD
HETATM    4  C2  UNL     1       3.126  -1.021   1.232  1.00  0.00     0.147 A 
HETATM    5  N4  UNL     1       2.169  -0.163   0.870  1.00  0.00    -0.321 N 
ATOM      6  H4  UNL     1       2.444   0.787   0.619  1.00  0.00     0.169 HD
HETATM    7  C6  UNL     1       0.863  -0.479   0.817  1.00  0.00     0.140 A 
HETATM    8  N5  UNL     1      -0.266   0.169   0.499  1.00  0.00    -0.327 N 
ATOM      9  H5  UNL     1      -0.311   1.145   0.205  1.00  0.00     0.169 HD
HETATM   10  C7  UNL     1      -1.345  -0.651   0.621  1.00  0.00     0.107 A 
HETATM   11  N7  UNL     1      -0.837  -1.828   1.026  1.00  0.00    -0.336 N 
ATOM     12  H7  UNL     1      -1.392  -2.664   1.211  1.00  0.00     0.168 HD
HETATM   13  C14 UNL     1       0.493  -1.757   1.154  1.00  0.00     0.122 A 
ENDROOT
BRANCH  10  14
HETATM   14  C8  UNL     1      -2.741  -0.319   0.366  1.00  0.00     0.046 C 
BRANCH  14  15
HETATM   15  C9  UNL     1      -3.081   0.888  -0.029  1.00  0.00     0.012 C 
BRANCH  15  16
HETATM   16  C10 UNL     1      -4.456   1.317  -0.310  1.00  0.00     0.239 C 
HETATM   17  N6  UNL     1      -4.607   2.012  -1.557  1.00  0.00    -0.063 N 
HETATM   18  C11 UNL     1      -6.048   2.139  -1.681  1.00  0.00     0.267 C 
ATOM     19  H62 UNL     1      -4.094   2.891  -1.621  1.00  0.00     0.278 HD
ATOM     20  H61 UNL     1      -4.147   1.568  -2.352  1.00  0.00     0.278 HD
HETATM   21  C12 UNL     1      -6.658   0.962  -0.976  1.00  0.00     0.174 C 
HETATM   22  C13 UNL     1      -5.443   0.202  -0.426  1.00  0.00     0.182 C 
BRANCH  21  23
HETATM   23  O1  UNL     1      -7.340   1.428   0.169  1.00  0.00    -0.391 OA
ATOM     24  H1  UNL     1      -7.726   0.683   0.615  1.00  0.00     0.210 HD
ENDBRANCH  21  23
BRANCH  22  25
HETATM   25  O2  UNL     1      -5.104  -0.721  -1.410  1.00  0.00    -0.391 OA
ATOM     26  H2  UNL     1      -5.732  -1.430  -1.484  1.00  0.00     0.210 HD
ENDBRANCH  22  25
ENDBRANCH  15  16
ENDBRANCH  14  15
ENDBRANCH  10  14
BRANCH   1  27
HETATM   27  N1  UNL     1       1.114  -3.856   1.844  1.00  0.00    -0.383 N 
ATOM     28  H12 UNL     1       1.840  -4.517   2.121  1.00  0.00     0.157 HD
ATOM     29  H11 UNL     1       0.138  -4.151   1.821  1.00  0.00     0.157 HD
ENDBRANCH   1  27
BRANCH   4  30
HETATM   30  S1  UNL     1       4.859  -0.593   1.299  1.00  0.00    -0.094 SA
BRANCH  30  31
HETATM   31  C3  UNL     1       5.585  -0.939  -0.303  1.00  0.00     0.084 C 
BRANCH  31  32
HETATM   32  C4  UNL     1       7.063  -0.607  -0.349  1.00  0.00     0.038 C 
BRANCH  32  33
HETATM   33  C5  UNL     1       7.324   0.842  -0.064  1.00  0.00     0.230 C 
BRANCH  33  34
HETATM   34  N3  UNL     1       6.628   1.621  -1.076  1.00  0.00    -0.079 N 
ATOM     35  H33 UNL     1       6.880   1.352  -2.027  1.00  0.00     0.274 HD
ATOM     36  H32 UNL     1       5.634   1.400  -1.133  1.00  0.00     0.274 HD
ATOM     37  H31 UNL     1       6.806   2.607  -0.882  1.00  0.00     0.274 HD
ENDBRANCH  33  34
ENDBRANCH  32  33
ENDBRANCH  31  32
ENDBRANCH  30  31
ENDBRANCH   4  30
TORSDOF 11
