REMARK  9 active torsions:
REMARK  status: ('A' for Active; 'I' for Inactive)
REMARK    1  A    between atoms: C2_3  and  O1_4 
REMARK    2  A    between atoms: C2_3  and  C3_6 
REMARK    3  A    between atoms: C3_6  and  C4_7 
REMARK    4  A    between atoms: C3_6  and  C5_10 
REMARK    5  A    between atoms: C4_7  and  O2_8 
REMARK    6  A    between atoms: C5_10  and  S1_11 
REMARK    7  A    between atoms: S1_11  and  C6_12 
REMARK    8  A    between atoms: C8_20  and  C9_21 
REMARK    9  A    between atoms: C11_25  and  N6_26 
ROOT
HETATM    1  N1  UNL     1      -7.068  -1.627  -0.355  1.00  0.00    -0.195 NA
HETATM    2  C1  UNL     1      -6.503  -0.664  -0.055  1.00  0.00     0.091 C 
HETATM    3  C2  UNL     1      -5.790   0.546   0.346  1.00  0.00     0.231 C 
ENDROOT
BRANCH   3   4
HETATM    4  O1  UNL     1      -6.296   1.671  -0.306  1.00  0.00    -0.381 OA
ATOM      5  H1  UNL     1      -5.832   2.458  -0.045  1.00  0.00     0.211 HD
ENDBRANCH   3   4
BRANCH   3   6
HETATM    6  C3  UNL     1      -4.324   0.373   0.012  1.00  0.00     0.061 C 
BRANCH   6   7
HETATM    7  C4  UNL     1      -4.140   0.153  -1.454  1.00  0.00     0.173 C 
BRANCH   7   8
HETATM    8  O2  UNL     1      -4.596   1.178  -2.241  1.00  0.00    -0.400 OA
ATOM      9  H2  UNL     1      -4.479   1.038  -3.173  1.00  0.00     0.209 HD
ENDBRANCH   7   8
ENDBRANCH   6   7
BRANCH   6  10
HETATM   10  C5  UNL     1      -3.543   1.522   0.558  1.00  0.00     0.091 C 
BRANCH  10  11
HETATM   11  S1  UNL     1      -1.794   1.449   0.236  1.00  0.00    -0.108 SA
BRANCH  11  12
HETATM   12  C6  UNL     1      -0.964   0.122   1.050  1.00  0.00     0.115 A 
HETATM   13  N2  UNL     1      -1.405  -0.846   1.869  1.00  0.00    -0.290 N 
HETATM   14  N3  UNL     1      -0.409  -1.628   2.239  1.00  0.00    -0.283 N 
ATOM     15  H2  UNL     1      -2.375  -0.961   2.164  1.00  0.00     0.187 HD
HETATM   16  C7  UNL     1       0.721  -1.187   1.665  1.00  0.00     0.151 A 
ATOM     17  H3  UNL     1      -0.485  -2.434   2.859  1.00  0.00     0.188 HD
HETATM   18  N4  UNL     1       2.073  -1.396   1.529  1.00  0.00    -0.325 N 
HETATM   19  C13 UNL     1       0.403  -0.103   0.922  1.00  0.00     0.115 A 
HETATM   20  C8  UNL     1       2.599  -0.476   0.726  1.00  0.00     0.123 A 
ATOM     21  H4  UNL     1       2.596  -2.147   1.979  1.00  0.00     0.169 HD
HETATM   22  N9  UNL     1       1.541   0.316   0.362  1.00  0.00    -0.336 N 
ATOM     23  H9  UNL     1       1.614   1.123  -0.258  1.00  0.00     0.168 HD
BRANCH  20  24
HETATM   24  C9  UNL     1       3.974  -0.261   0.269  1.00  0.00     0.068 A 
HETATM   25  C10 UNL     1       4.266   0.792  -0.588  1.00  0.00     0.125 A 
HETATM   26  N5  UNL     1       5.489   1.060  -1.052  1.00  0.00    -0.201 N 
HETATM   27  C11 UNL     1       6.506   0.271  -0.675  1.00  0.00     0.677 A 
ATOM     28  H5  UNL     1       5.647   1.848  -1.680  1.00  0.00     0.183 HD
HETATM   29  N7  UNL     1       6.275  -0.756   0.149  1.00  0.00    -0.176 N 
HETATM   30  C12 UNL     1       5.025  -1.046   0.635  1.00  0.00     0.130 A 
ATOM     31  H7  UNL     1       7.058  -1.347   0.427  1.00  0.00     0.186 HD
HETATM   32  N8  UNL     1       4.882  -2.051   1.423  1.00  0.00    -0.384 N 
ATOM     33  H82 UNL     1       3.953  -2.267   1.784  1.00  0.00     0.157 HD
ATOM     34  H81 UNL     1       5.669  -2.639   1.697  1.00  0.00     0.157 HD
BRANCH  27  35
HETATM   35  N6  UNL     1       7.727   0.487  -1.099  1.00  0.00    -0.234 N 
ATOM     36  H62 UNL     1       7.903   1.271  -1.728  1.00  0.00     0.174 HD
ATOM     37  H61 UNL     1       8.500  -0.113  -0.812  1.00  0.00     0.174 HD
ENDBRANCH  27  35
ENDBRANCH  20  24
ENDBRANCH  11  12
ENDBRANCH  10  11
ENDBRANCH   6  10
ENDBRANCH   3   6
TORSDOF 9
