REMARK  12 active torsions:
REMARK  status: ('A' for Active; 'I' for Inactive)
REMARK    1  A    between atoms: C2_2  and  C3_3 
REMARK    2  A    between atoms: C3_3  and  C4_4 
REMARK    3  A    between atoms: C3_3  and  C10_10 
REMARK    4  A    between atoms: C4_4  and  C5_5 
REMARK    5  A    between atoms: C5_5  and  C6_6 
REMARK    6  A    between atoms: C10_10  and  C11_11 
REMARK    7  A    between atoms: C11_11  and  O1_12 
REMARK    8  A    between atoms: O1_12  and  N1_13 
REMARK    9  A    between atoms: C13_17  and  C14_18 
REMARK   10  A    between atoms: C14_18  and  O3_20 
REMARK   11  A    between atoms: C16_22  and  O4_23 
REMARK   12  A    between atoms: C18_26  and  O5_27 
ROOT
HETATM    1  N1  UNL     1      -1.300   2.030  -0.104  1.00  0.00    -0.246 N 
ATOM      2  H1  UNL     1      -0.998   3.003  -0.053  1.00  0.00     0.196 HD
HETATM    3  C12 UNL     1      -2.551   1.800  -0.098  1.00  0.00     0.168 C 
HETATM    4  O2  UNL     1      -3.040   0.518  -0.166  1.00  0.00    -0.325 OA
HETATM    5  C13 UNL     1      -4.252   0.266  -0.835  1.00  0.00     0.187 C 
HETATM    6  C16 UNL     1      -5.298   1.262  -0.459  1.00  0.00     0.153 C 
HETATM    7  C17 UNL     1      -4.817   2.336   0.493  1.00  0.00     0.074 C 
HETATM    8  C18 UNL     1      -3.507   2.928  -0.018  1.00  0.00     0.197 C 
ENDROOT
BRANCH   1   9
HETATM    9  O1  UNL     1      -0.348   1.087  -0.173  1.00  0.00    -0.279 OA
BRANCH   9  10
HETATM   10  C11 UNL     1      -0.512  -0.290  -0.158  1.00  0.00     0.202 C 
BRANCH  10  11
HETATM   11  C10 UNL     1       0.854  -0.949  -0.257  1.00  0.00     0.033 C 
BRANCH  11  12
HETATM   12  C3  UNL     1       1.763  -0.556   0.883  1.00  0.00    -0.013 C 
BRANCH  12  13
HETATM   13  C2  UNL     1       1.122  -0.973   2.188  1.00  0.00     0.000 C 
HETATM   14  C1  UNL     1       1.920  -0.513   3.384  1.00  0.00     0.005 C 
ENDBRANCH  12  13
BRANCH  12  15
HETATM   15  C4  UNL     1       3.134  -1.111   0.724  1.00  0.00     0.008 C 
BRANCH  15  16
HETATM   16  C5  UNL     1       3.773  -0.691  -0.572  1.00  0.00     0.028 C 
BRANCH  16  17
HETATM   17  C6  UNL     1       5.160  -1.243  -0.700  1.00  0.00    -0.025 C 
HETATM   18  C7  UNL     1       6.171  -0.405  -0.824  1.00  0.00    -0.091 C 
HETATM   19  C8  UNL     1       5.959   1.061  -0.837  1.00  0.00     0.042 C 
HETATM   20  C9  UNL     1       7.559  -0.922  -0.953  1.00  0.00     0.042 C 
ENDBRANCH  16  17
ENDBRANCH  15  16
ENDBRANCH  12  15
ENDBRANCH  11  12
ENDBRANCH  10  11
ENDBRANCH   9  10
ENDBRANCH   1   9
BRANCH   8  21
HETATM   21  O5  UNL     1      -3.746   3.473  -1.282  1.00  0.00    -0.387 OA
ATOM     22  H5  UNL     1      -4.359   4.197  -1.231  1.00  0.00     0.210 HD
ENDBRANCH   8  21
BRANCH   5  23
HETATM   23  C14 UNL     1      -4.723  -1.152  -0.557  1.00  0.00     0.146 C 
HETATM   24  C15 UNL     1      -5.018  -1.385   0.902  1.00  0.00     0.042 C 
BRANCH  23  25
HETATM   25  O3  UNL     1      -3.744  -2.063  -1.021  1.00  0.00    -0.393 OA
ATOM     26  H3  UNL     1      -4.038  -2.949  -0.847  1.00  0.00     0.210 HD
ENDBRANCH  23  25
ENDBRANCH   5  23
BRANCH   6  27
HETATM   27  O4  UNL     1      -6.397   0.582   0.057  1.00  0.00    -0.393 OA
ATOM     28  H4  UNL     1      -7.063   1.216   0.296  1.00  0.00     0.210 HD
ENDBRANCH   6  27
TORSDOF 12
