REMARK  12 active torsions:
REMARK  status: ('A' for Active; 'I' for Inactive)
REMARK    1  A    between atoms: C2_2  and  C4_4 
REMARK    2  A    between atoms: C4_4  and  C5_5 
REMARK    3  A    between atoms: C5_5  and  N1_6 
REMARK    4  A    between atoms: N1_6  and  C6_8 
REMARK    5  A    between atoms: C6_8  and  C7_9 
REMARK    6  A    between atoms: C7_9  and  C8_10 
REMARK    7  A    between atoms: C8_10  and  N2_11 
REMARK    8  A    between atoms: N2_11  and  C9_13 
REMARK    9  A    between atoms: C10_14  and  N3_15 
REMARK   10  A    between atoms: N3_15  and  O1_17 
REMARK   11  A    between atoms: C11_19  and  N4_20 
REMARK   12  A    between atoms: N4_20  and  C12_22 
ROOT
HETATM    1  C9  UNL     1       1.205  -1.182   1.212  1.00  0.00     0.131 A 
HETATM    2  C10 UNL     1       2.191  -0.216   1.238  1.00  0.00     0.131 A 
HETATM    3  C11 UNL     1       3.359  -0.323   0.491  1.00  0.00     0.148 A 
HETATM    4  N5  UNL     1       3.505  -1.408  -0.268  1.00  0.00    -0.279 N 
ATOM      5  H5  UNL     1       4.354  -1.509  -0.825  1.00  0.00     0.189 HD
HETATM    6  N6  UNL     1       2.579  -2.368  -0.325  1.00  0.00    -0.259 N 
HETATM    7  C16 UNL     1       2.839  -3.523  -1.194  1.00  0.00     0.181 C 
HETATM    8  C17 UNL     1       1.450  -2.287   0.383  1.00  0.00     0.290 A 
HETATM    9  O2  UNL     1       0.566  -3.190   0.336  1.00  0.00    -0.264 OA
ENDROOT
BRANCH   1  10
HETATM   10  N2  UNL     1      -0.002  -1.093   1.949  1.00  0.00    -0.383 N 
ATOM     11  H2  UNL     1       0.004  -1.388   2.925  1.00  0.00     0.159 HD
BRANCH  10  12
HETATM   12  C8  UNL     1      -1.239  -0.606   1.389  1.00  0.00     0.125 C 
BRANCH  12  13
HETATM   13  C7  UNL     1      -1.183   0.792   0.854  1.00  0.00     0.063 C 
BRANCH  13  14
HETATM   14  C6  UNL     1      -2.430   1.356   0.313  1.00  0.00     0.057 C 
BRANCH  14  15
HETATM   15  N1  UNL     1      -3.134   0.825  -0.737  1.00  0.00    -0.402 N 
ATOM     16  H1  UNL     1      -3.117   1.351  -1.611  1.00  0.00     0.158 HD
BRANCH  15  17
HETATM   17  C5  UNL     1      -3.864  -0.349  -0.734  1.00  0.00     0.119 C 
BRANCH  17  18
HETATM   18  C4  UNL     1      -5.108  -0.238   0.171  1.00  0.00     0.023 C 
BRANCH  18  19
HETATM   19  C2  UNL     1      -6.008   0.876  -0.339  1.00  0.00    -0.021 C 
HETATM   20  C1  UNL     1      -7.223   1.011   0.525  1.00  0.00     0.009 C 
HETATM   21  C3  UNL     1      -6.446   0.593  -1.773  1.00  0.00     0.009 C 
ENDBRANCH  18  19
ENDBRANCH  17  18
ENDBRANCH  15  17
ENDBRANCH  14  15
ENDBRANCH  13  14
ENDBRANCH  12  13
ENDBRANCH  10  12
ENDBRANCH   1  10
BRANCH   2  22
HETATM   22  N3  UNL     1       2.033   0.945   2.081  1.00  0.00    -0.263 N 
ATOM     23  H3  UNL     1       1.766   0.853   3.061  1.00  0.00     0.194 HD
BRANCH  22  24
HETATM   24  O1  UNL     1       2.234   2.064   1.571  1.00  0.00    -0.289 OA
ATOM     25  H1  UNL     1       2.130   2.828   2.126  1.00  0.00     0.244 HD
ENDBRANCH  22  24
ENDBRANCH   2  22
BRANCH   3  26
HETATM   26  N4  UNL     1       4.208   0.613   0.577  1.00  0.00    -0.365 N 
ATOM     27  H4  UNL     1       3.936   1.369   1.205  1.00  0.00     0.162 HD
BRANCH  26  28
HETATM   28  C12 UNL     1       5.465   0.796  -0.042  1.00  0.00     0.021 C 
HETATM   29  C13 UNL     1       6.522  -0.191   0.411  1.00  0.00     0.037 C 
HETATM   30  C14 UNL     1       5.294   0.815  -1.544  1.00  0.00     0.037 C 
HETATM   31  C15 UNL     1       5.915   2.226   0.331  1.00  0.00     0.037 C 
ENDBRANCH  26  28
ENDBRANCH   3  26
TORSDOF 12
