REMARK  11 active torsions:
REMARK  status: ('A' for Active; 'I' for Inactive)
REMARK    1  A    between atoms: C3_8  and  C4_9 
REMARK    2  A    between atoms: C4_9  and  O2_10 
REMARK    3  A    between atoms: C4_9  and  C5_12 
REMARK    4  A    between atoms: C6_13  and  C7_14 
REMARK    5  A    between atoms: C8_15  and  C9_16 
REMARK    6  A    between atoms: C10_17  and  C11_18 
REMARK    7  A    between atoms: N3_19  and  N4_21 
REMARK    8  A    between atoms: N4_21  and  C12_23 
REMARK    9  A    between atoms: C12_23  and  C14_25 
REMARK   10  A    between atoms: C14_25  and  O3_26 
REMARK   11  A    between atoms: C14_25  and  C15_28 
ROOT
HETATM    1  C9  UNL     1       1.523  -1.491   0.848  1.00  0.00     0.001 C 
HETATM    2  C10 UNL     1       0.227  -1.439   0.620  1.00  0.00     0.019 C 
ENDROOT
BRANCH   1   3
HETATM    3  C8  UNL     1       2.213  -0.302   1.307  1.00  0.00     0.000 C 
HETATM    4  C7  UNL     1       3.536  -0.368   1.536  1.00  0.00    -0.000 C 
BRANCH   4   5
HETATM    5  C6  UNL     1       4.216   0.826   1.994  1.00  0.00    -0.001 C 
HETATM    6  C5  UNL     1       5.484   0.862   2.242  1.00  0.00     0.011 C 
BRANCH   6   7
HETATM    7  C4  UNL     1       6.374  -0.289   2.090  1.00  0.00     0.195 C 
BRANCH   7   8
HETATM    8  C3  UNL     1       6.656  -0.569   0.649  1.00  0.00     0.090 A 
HETATM    9  C2  UNL     1       6.961   0.381  -0.272  1.00  0.00     0.058 A 
HETATM   10  C1  UNL     1       7.066   1.841  -0.029  1.00  0.00     0.072 C 
HETATM   11  N1  UNL     1       7.156  -0.254  -1.454  1.00  0.00    -0.244 N 
HETATM   12  O1  UNL     1       6.973  -1.512  -1.229  1.00  0.00    -0.157 OA
ATOM     13  H1  UNL     1       7.399   0.177  -2.346  1.00  0.00     0.196 HD
HETATM   14  N2  UNL     1       6.673  -1.757   0.002  1.00  0.00    -0.241 N 
ATOM     15  H2  UNL     1       6.484  -2.673   0.410  1.00  0.00     0.196 HD
ENDBRANCH   7   8
BRANCH   7  16
HETATM   16  O2  UNL     1       5.979  -1.421   2.792  1.00  0.00    -0.385 OA
ATOM     17  H2  UNL     1       5.800  -1.243   3.708  1.00  0.00     0.210 HD
ENDBRANCH   7  16
ENDBRANCH   6   7
ENDBRANCH   4   5
ENDBRANCH   1   3
BRANCH   2  18
HETATM   18  C11 UNL     1      -0.521  -2.599   0.158  1.00  0.00     0.106 C 
HETATM   19  N3  UNL     1      -1.775  -2.585  -0.073  1.00  0.00    -0.316 N 
ATOM     20  H3  UNL     1      -2.214  -3.448  -0.394  1.00  0.00     0.185 HD
BRANCH  19  21
HETATM   21  N4  UNL     1      -2.584  -1.456   0.088  1.00  0.00    -0.330 N 
ATOM     22  H4  UNL     1      -2.420  -0.833   0.879  1.00  0.00     0.180 HD
BRANCH  21  23
HETATM   23  C12 UNL     1      -3.668  -1.148  -0.861  1.00  0.00     0.124 C 
HETATM   24  C13 UNL     1      -3.041  -0.970  -2.200  1.00  0.00     0.036 C 
BRANCH  23  25
HETATM   25  C14 UNL     1      -4.401   0.021  -0.320  1.00  0.00     0.149 C 
BRANCH  25  26
HETATM   26  O3  UNL     1      -3.552   1.103  -0.201  1.00  0.00    -0.393 OA
ATOM     27  H3  UNL     1      -4.022   1.852   0.146  1.00  0.00     0.210 HD
ENDBRANCH  25  26
BRANCH  25  28
HETATM   28  C15 UNL     1      -5.674   0.384  -0.992  1.00  0.00    -0.023 C 
HETATM   29  C16 UNL     1      -5.555   0.735  -2.449  1.00  0.00     0.017 C 
HETATM   30  C17 UNL     1      -6.187   1.653  -0.289  1.00  0.00     0.017 C 
HETATM   31  C18 UNL     1      -6.747  -0.659  -0.771  1.00  0.00     0.017 C 
ENDBRANCH  25  28
ENDBRANCH  23  25
ENDBRANCH  21  23
ENDBRANCH  19  21
ENDBRANCH   2  18
TORSDOF 11
