REMARK  11 active torsions:
REMARK  status: ('A' for Active; 'I' for Inactive)
REMARK    1  A    between atoms: S1_2  and  C2_3 
REMARK    2  A    between atoms: C2_3  and  C3_4 
REMARK    3  A    between atoms: C5_6  and  N1_7 
REMARK       I    between atoms: N1_7  and  C6_9 
REMARK    4  A    between atoms: C7_14  and  N4_15 
REMARK    5  A    between atoms: C8_16  and  N5_17 
REMARK    6  A    between atoms: C9_22  and  C10_23 
REMARK    7  A    between atoms: C10_23  and  O1_24 
REMARK    8  A    between atoms: O1_24  and  C11_25 
REMARK    9  A    between atoms: C11_25  and  C12_26 
REMARK   10  A    between atoms: C12_26  and  O2_27 
REMARK   11  A    between atoms: C16_36  and  N9_37 
ROOT
HETATM    1  C3  UNL     1      -2.116   1.265   1.254  1.00  0.00     0.031 C 
HETATM    2  C4  UNL     1      -2.336  -0.039   0.513  1.00  0.00     0.062 C 
HETATM    3  C5  UNL     1      -1.643  -1.192   1.214  1.00  0.00     0.013 C 
HETATM    4  C7  UNL     1      -0.153  -1.010   1.253  1.00  0.00     0.157 C 
HETATM    5  C15 UNL     1      -0.050   0.272   2.083  1.00  0.00     0.065 C 
HETATM    6  C16 UNL     1      -0.645   1.446   1.386  1.00  0.00     0.191 C 
ENDROOT
BRANCH   4   7
HETATM    7  N4  UNL     1       0.605  -1.031   0.081  1.00  0.00    -0.154 N 
HETATM    8  C8  UNL     1       1.843  -0.507  -0.023  1.00  0.00     0.680 A 
HETATM    9  N6  UNL     1       2.585  -0.492  -1.140  1.00  0.00    -0.191 N 
HETATM   10  C9  UNL     1       2.161  -1.009  -2.300  1.00  0.00     0.082 A 
ATOM     11  H6  UNL     1       3.512  -0.069  -1.104  1.00  0.00     0.184 HD
HETATM   12  C13 UNL     1       0.891  -1.556  -2.227  1.00  0.00     0.119 A 
HETATM   13  N7  UNL     1      -0.052  -2.180  -2.959  1.00  0.00    -0.294 N 
HETATM   14  C14 UNL     1       0.105  -1.583  -1.081  1.00  0.00     0.169 A 
HETATM   15  N8  UNL     1      -0.793  -2.203  -1.870  1.00  0.00    -0.282 N 
ATOM     16  H7  UNL     1      -0.149  -2.494  -3.925  1.00  0.00     0.187 HD
ATOM     17  H8  UNL     1      -1.728  -2.567  -1.687  1.00  0.00     0.188 HD
BRANCH   8  18
HETATM   18  N5  UNL     1       2.383   0.008   1.045  1.00  0.00    -0.234 N 
ATOM     19  H52 UNL     1       1.819  -0.003   1.895  1.00  0.00     0.174 HD
ATOM     20  H51 UNL     1       3.320   0.404   0.966  1.00  0.00     0.174 HD
ENDBRANCH   8  18
BRANCH  10  21
HETATM   21  C10 UNL     1       2.948  -1.113  -3.541  1.00  0.00     0.227 C 
BRANCH  21  22
HETATM   22  O1  UNL     1       4.108  -0.491  -3.551  1.00  0.00    -0.383 OA
BRANCH  22  23
HETATM   23  C11 UNL     1       4.363   0.794  -3.662  1.00  0.00     0.194 C 
BRANCH  23  24
HETATM   24  C12 UNL     1       3.904   1.861  -2.756  1.00  0.00     0.190 C 
BRANCH  24  25
HETATM   25  O2  UNL     1       4.438   3.089  -3.287  1.00  0.00    -0.399 OA
ATOM     26  H2  UNL     1       4.142   3.777  -2.703  1.00  0.00     0.209 HD
ENDBRANCH  24  25
ENDBRANCH  23  24
ENDBRANCH  22  23
ENDBRANCH  21  22
ENDBRANCH  10  21
ENDBRANCH   4   7
BRANCH   3  27
HETATM   27  N1  UNL     1      -2.242  -2.394   0.902  1.00  0.00    -0.336 N 
HETATM   28  C6  UNL     1      -1.939  -3.681   1.436  1.00  0.00     0.185 C 
HETATM   29  N2  UNL     1      -2.134  -4.773   0.723  1.00  0.00    -0.374 N 
HETATM   30  N3  UNL     1      -1.421  -3.900   2.744  1.00  0.00    -0.064 NA
ATOM     31  H22 UNL     1      -2.505  -4.616  -0.214  1.00  0.00     0.158 HD
ATOM     32  H21 UNL     1      -1.917  -5.694   1.105  1.00  0.00     0.158 HD
ATOM     33  H1  UNL     1      -2.989  -2.358   0.208  1.00  0.00     0.168 HD
ENDBRANCH   3  27
BRANCH   6  34
HETATM   34  N9  UNL     1      -0.249   2.636   2.127  1.00  0.00    -0.075 N 
ATOM     35  H93 UNL     1      -0.674   3.468   1.718  1.00  0.00     0.274 HD
ATOM     36  H92 UNL     1      -0.693   2.647   3.045  1.00  0.00     0.274 HD
ATOM     37  H91 UNL     1       0.759   2.760   2.217  1.00  0.00     0.274 HD
ENDBRANCH   6  34
BRANCH   1  38
HETATM   38  C2  UNL     1      -2.960   1.404   2.456  1.00  0.00     0.080 C 
BRANCH  38  39
HETATM   39  S1  UNL     1      -2.634   2.969   3.292  1.00  0.00    -0.173 SA
HETATM   40  C1  UNL     1      -3.140   4.361   2.278  1.00  0.00     0.089 C 
ENDBRANCH  38  39
ENDBRANCH   1  38
TORSDOF 11
