REMARK  11 active torsions:
REMARK  status: ('A' for Active; 'I' for Inactive)
REMARK       I    between atoms: C1_4  and  N3_6 
REMARK    1  A    between atoms: N3_6  and  C2_8 
REMARK    2  A    between atoms: C5_11  and  N4_12 
REMARK    3  A    between atoms: C6_16  and  O1_17 
REMARK    4  A    between atoms: O1_17  and  C7_18 
REMARK    5  A    between atoms: C7_18  and  C8_19 
REMARK    6  A    between atoms: C7_18  and  C9_22 
REMARK    7  A    between atoms: C8_19  and  O2_20 
REMARK    8  A    between atoms: C9_22  and  S1_23 
REMARK    9  A    between atoms: S1_23  and  C10_24 
REMARK   10  A    between atoms: C12_28  and  N6_29 
REMARK   11  A    between atoms: C13_34  and  N8_35 
ROOT
HETATM    1  C7  UNL     1       0.295   0.537   1.062  1.00  0.00     0.155 C 
ENDROOT
BRANCH   1   2
HETATM    2  O1  UNL     1      -0.403   0.192  -0.053  1.00  0.00    -0.376 OA
BRANCH   2   3
HETATM    3  C6  UNL     1      -1.770   0.324  -0.004  1.00  0.00     0.154 C 
HETATM    4  C5  UNL     1      -2.289   0.934  -1.264  1.00  0.00     0.212 C 
HETATM    5  C4  UNL     1      -3.777   1.229  -1.180  1.00  0.00     0.037 C 
HETATM    6  C3  UNL     1      -4.362   0.349  -0.092  1.00  0.00     0.027 C 
HETATM    7  C2  UNL     1      -3.859  -1.042  -0.265  1.00  0.00     0.086 C 
HETATM    8  C15 UNL     1      -2.391  -1.110   0.075  1.00  0.00     0.059 C 
BRANCH   4   9
HETATM    9  N4  UNL     1      -1.597   2.112  -1.644  1.00  0.00    -0.073 N 
ATOM     10  H43 UNL     1      -1.961   2.512  -2.509  1.00  0.00     0.274 HD
ATOM     11  H42 UNL     1      -1.801   2.896  -1.025  1.00  0.00     0.274 HD
ATOM     12  H41 UNL     1      -0.598   1.914  -1.700  1.00  0.00     0.274 HD
ENDBRANCH   4   9
BRANCH   7  13
HETATM   13  N3  UNL     1      -4.593  -1.980   0.539  1.00  0.00    -0.360 N 
HETATM   14  C1  UNL     1      -5.941  -2.331   0.351  1.00  0.00     0.182 C 
HETATM   15  N1  UNL     1      -6.262  -3.567   0.652  1.00  0.00    -0.374 N 
HETATM   16  N2  UNL     1      -6.979  -1.499  -0.127  1.00  0.00    -0.064 NA
ATOM     17  H12 UNL     1      -7.240  -3.822   0.516  1.00  0.00     0.158 HD
ATOM     18  H11 UNL     1      -5.513  -4.167   0.997  1.00  0.00     0.158 HD
ATOM     19  H3  UNL     1      -4.095  -2.427   1.309  1.00  0.00     0.162 HD
ENDBRANCH   7  13
ENDBRANCH   2   3
ENDBRANCH   1   2
BRANCH   1  20
HETATM   20  C8  UNL     1       1.286   1.628   1.039  1.00  0.00     0.196 C 
BRANCH  20  21
HETATM   21  O2  UNL     1       0.735   2.900   0.742  1.00  0.00    -0.398 OA
ATOM     22  H2  UNL     1       1.374   3.603   0.727  1.00  0.00     0.209 HD
ENDBRANCH  20  21
ENDBRANCH   1  20
BRANCH   1  23
HETATM   23  C9  UNL     1       0.857  -0.707   1.699  1.00  0.00     0.117 C 
BRANCH  23  24
HETATM   24  S1  UNL     1       1.879  -1.648   0.615  1.00  0.00    -0.084 SA
BRANCH  24  25
HETATM   25  C10 UNL     1       3.395  -1.037   0.061  1.00  0.00     0.189 A 
HETATM   26  N5  UNL     1       3.671  -0.357  -1.071  1.00  0.00    -0.324 N 
HETATM   27  C11 UNL     1       4.973  -0.054  -1.143  1.00  0.00     0.131 A 
ATOM     28  H5  UNL     1       2.980  -0.107  -1.778  1.00  0.00     0.169 HD
HETATM   29  C12 UNL     1       5.773   0.609  -2.054  1.00  0.00     0.146 A 
HETATM   30  C14 UNL     1       5.516  -0.581   0.012  1.00  0.00     0.196 A 
HETATM   31  N7  UNL     1       7.093   0.764  -1.849  1.00  0.00    -0.175 N 
HETATM   32  C13 UNL     1       7.625   0.241  -0.707  1.00  0.00     0.679 A 
ATOM     33  H7  UNL     1       7.677   1.256  -2.525  1.00  0.00     0.186 HD
HETATM   34  N9  UNL     1       6.852  -0.406   0.183  1.00  0.00    -0.168 N 
ATOM     35  H9  UNL     1       7.289  -0.782   1.024  1.00  0.00     0.186 HD
HETATM   36  O3  UNL     1       4.561  -1.140   0.675  1.00  0.00    -0.268 OA
BRANCH  29  37
HETATM   37  N6  UNL     1       5.207   1.077  -3.110  1.00  0.00    -0.383 N 
ATOM     38  H62 UNL     1       4.206   0.959  -3.265  1.00  0.00     0.157 HD
ATOM     39  H61 UNL     1       5.798   1.566  -3.782  1.00  0.00     0.157 HD
ENDBRANCH  29  37
BRANCH  32  40
HETATM   40  N8  UNL     1       8.899   0.383  -0.496  1.00  0.00    -0.234 N 
ATOM     41  H82 UNL     1       9.485   0.874  -1.171  1.00  0.00     0.174 HD
ATOM     42  H81 UNL     1       9.297  -0.008   0.358  1.00  0.00     0.174 HD
ENDBRANCH  32  40
ENDBRANCH  24  25
ENDBRANCH  23  24
ENDBRANCH   1  23
TORSDOF 11
