REMARK  12 active torsions:
REMARK  status: ('A' for Active; 'I' for Inactive)
REMARK    1  A    between atoms: C3_5  and  N2_6 
REMARK    2  A    between atoms: N2_6  and  C4_8 
REMARK    3  A    between atoms: C4_8  and  C5_9 
REMARK    4  A    between atoms: C5_9  and  N3_10 
REMARK    5  A    between atoms: N3_10  and  C6_12 
REMARK    6  A    between atoms: C6_12  and  C7_13 
REMARK    7  A    between atoms: C7_13  and  C8_14 
REMARK    8  A    between atoms: C8_14  and  N4_15 
REMARK    9  A    between atoms: N4_15  and  C9_17 
REMARK   10  A    between atoms: C11_21  and  N6_22 
REMARK   11  A    between atoms: C12_27  and  N8_28 
REMARK   12  A    between atoms: C15_41  and  O1_42 
ROOT
HETATM    1  C7  UNL     1      -0.899   0.291  -0.927  1.00  0.00     0.039 C 
ENDROOT
BRANCH   1   2
HETATM    2  C6  UNL     1       0.415   0.151  -0.226  1.00  0.00     0.115 C 
BRANCH   2   3
HETATM    3  N3  UNL     1       0.904   1.368   0.366  1.00  0.00    -0.420 N 
ATOM      4  H3  UNL     1       0.972   1.497   1.376  1.00  0.00     0.153 HD
BRANCH   3   5
HETATM    5  C5  UNL     1       1.286   2.378  -0.561  1.00  0.00     0.134 C 
BRANCH   5   6
HETATM    6  C4  UNL     1       2.539   1.961  -1.342  1.00  0.00     0.157 C 
BRANCH   6   7
HETATM    7  N2  UNL     1       3.579   1.748  -0.381  1.00  0.00    -0.225 N 
ATOM      8  H2  UNL     1       3.586   2.369   0.428  1.00  0.00     0.177 HD
BRANCH   7   9
HETATM    9  C3  UNL     1       4.500   0.863  -0.429  1.00  0.00     0.675 C 
HETATM   10  N1  UNL     1       5.463   0.805   0.638  1.00  0.00    -0.219 N 
HETATM   11  C2  UNL     1       5.927  -0.516   0.977  1.00  0.00     0.131 C 
ATOM     12  H1  UNL     1       5.794   1.640   1.121  1.00  0.00     0.178 HD
HETATM   13  C1  UNL     1       6.937  -0.343   2.096  1.00  0.00     0.036 C 
HETATM   14  C15 UNL     1       6.541  -1.176  -0.221  1.00  0.00     0.208 C 
HETATM   15  C14 UNL     1       5.700  -1.021  -1.414  1.00  0.00     0.122 C 
HETATM   16  N10 UNL     1       4.632  -0.098  -1.500  1.00  0.00    -0.179 N 
HETATM   17  N11 UNL     1       5.904  -1.751  -2.495  1.00  0.00    -0.386 N 
ATOM     18  H10 UNL     1       3.982  -0.110  -2.286  1.00  0.00     0.185 HD
ATOM     19 2H11 UNL     1       5.320  -1.643  -3.324  1.00  0.00     0.157 HD
ATOM     20 1H11 UNL     1       6.674  -2.417  -2.433  1.00  0.00     0.157 HD
BRANCH  14  21
HETATM   21  O1  UNL     1       6.741  -2.551  -0.000  1.00  0.00    -0.386 OA
ATOM     22  H1  UNL     1       7.130  -2.969  -0.759  1.00  0.00     0.210 HD
ENDBRANCH  14  21
ENDBRANCH   7   9
ENDBRANCH   6   7
ENDBRANCH   5   6
ENDBRANCH   3   5
ENDBRANCH   2   3
ENDBRANCH   1   2
BRANCH   1  23
HETATM   23  C8  UNL     1      -1.991   0.755   0.029  1.00  0.00     0.123 C 
BRANCH  23  24
HETATM   24  N4  UNL     1      -3.237   0.874  -0.696  1.00  0.00    -0.370 N 
ATOM     25  H4  UNL     1      -3.274   1.350  -1.597  1.00  0.00     0.161 HD
BRANCH  24  26
HETATM   26  C9  UNL     1      -4.319   0.353  -0.164  1.00  0.00     0.147 A 
HETATM   27  N5  UNL     1      -5.534   0.376  -0.700  1.00  0.00    -0.331 N 
HETATM   28  C10 UNL     1      -6.525  -0.195  -0.036  1.00  0.00     0.113 A 
ATOM     29  H5  UNL     1      -5.699   0.823  -1.602  1.00  0.00     0.168 HD
HETATM   30  C11 UNL     1      -7.885  -0.291  -0.411  1.00  0.00     0.144 A 
HETATM   31  C13 UNL     1      -6.228  -0.773   1.162  1.00  0.00     0.124 A 
HETATM   32  N7  UNL     1      -8.766  -0.900   0.366  1.00  0.00    -0.175 N 
HETATM   33  C12 UNL     1      -8.451  -1.458   1.535  1.00  0.00     0.678 A 
ATOM     34  H7  UNL     1      -9.736  -0.945   0.054  1.00  0.00     0.186 HD
HETATM   35  N9  UNL     1      -7.173  -1.397   1.942  1.00  0.00    -0.183 N 
ATOM     36  H9  UNL     1      -6.902  -1.815   2.832  1.00  0.00     0.185 HD
HETATM   37  S1  UNL     1      -4.549  -0.481   1.299  1.00  0.00    -0.034 SA
BRANCH  30  38
HETATM   38  N6  UNL     1      -8.310   0.207  -1.525  1.00  0.00    -0.383 N 
ATOM     39  H62 UNL     1      -7.631   0.676  -2.124  1.00  0.00     0.157 HD
ATOM     40  H61 UNL     1      -9.291   0.138  -1.796  1.00  0.00     0.157 HD
ENDBRANCH  30  38
BRANCH  33  41
HETATM   41  N8  UNL     1      -9.345  -2.032   2.230  1.00  0.00    -0.234 N 
ATOM     42  H82 UNL     1     -10.316  -2.078   1.921  1.00  0.00     0.174 HD
ATOM     43  H81 UNL     1      -9.104  -2.459   3.124  1.00  0.00     0.174 HD
ENDBRANCH  33  41
ENDBRANCH  24  26
ENDBRANCH  23  24
ENDBRANCH   1  23
TORSDOF 12
