REMARK  3 active torsions:
REMARK  status: ('A' for Active; 'I' for Inactive)
REMARK    1  A    between atoms: C1_2  and  C2_5 
REMARK    2  A    between atoms: C2_5  and  N1_6 
REMARK    3  A    between atoms: N1_6  and  C3_8 
ROOT
HETATM    1  C2  UNL     1       0.660  -0.421  -1.211  1.00  0.00     0.204 C 
HETATM    2  C9  UNL     1      -0.161   0.789  -0.917  1.00  0.00     0.068 C 
HETATM    3  C10 UNL     1      -1.338   0.641  -0.051  1.00  0.00    -0.001 C 
HETATM    4  C11 UNL     1      -2.616   1.085  -0.782  1.00  0.00     0.005 C 
HETATM    5  C12 UNL     1      -3.594   1.423   0.321  1.00  0.00     0.000 C 
HETATM    6  C13 UNL     1      -3.916   0.219   1.163  1.00  0.00     0.001 C 
HETATM    7  C14 UNL     1      -3.014  -0.948   0.944  1.00  0.00     0.010 C 
HETATM    8  C15 UNL     1      -1.594  -0.637   0.621  1.00  0.00     0.028 C 
HETATM    9  C16 UNL     1      -1.036  -1.792  -0.161  1.00  0.00     0.063 C 
HETATM   10  N2  UNL     1       0.313  -1.576  -0.480  1.00  0.00    -0.369 N 
ATOM     11  H2  UNL     1       1.029  -2.242  -0.189  1.00  0.00     0.161 HD
ENDROOT
BRANCH   1  12
HETATM   12  C1  UNL     1       0.409  -0.774  -2.698  1.00  0.00     0.431 C 
HETATM   13  F1  UNL     1       1.089  -1.903  -3.059  1.00  0.00    -0.167 F 
HETATM   14  F2  UNL     1       0.796   0.327  -3.466  1.00  0.00    -0.167 F 
HETATM   15  F3  UNL     1      -0.917  -0.958  -2.965  1.00  0.00    -0.167 F 
ENDBRANCH   1  12
BRANCH   1  16
HETATM   16  N1  UNL     1       2.093  -0.219  -1.153  1.00  0.00    -0.355 N 
ATOM     17  H1  UNL     1       2.592  -0.297  -2.039  1.00  0.00     0.162 HD
BRANCH  16  18
HETATM   18  C3  UNL     1       2.883   0.072  -0.023  1.00  0.00     0.052 A 
HETATM   19  C4  UNL     1       2.352   0.168   1.247  1.00  0.00     0.031 A 
HETATM   20  C5  UNL     1       3.175   0.454   2.337  1.00  0.00     0.002 A 
HETATM   21  C6  UNL     1       4.528   0.642   2.158  1.00  0.00     0.002 A 
HETATM   22  C7  UNL     1       5.029   0.540   0.880  1.00  0.00     0.026 A 
HETATM   23  C8  UNL     1       4.254   0.261  -0.220  1.00  0.00     0.060 A 
HETATM   24 CL1  UNL     1       4.982   0.147  -1.833  1.00  0.00    -0.082 Cl
ENDBRANCH  16  18
ENDBRANCH   1  16
TORSDOF 3
