REMARK  5 active torsions:
REMARK  status: ('A' for Active; 'I' for Inactive)
REMARK    1  A    between atoms: C2_2  and  C3_3 
REMARK    2  A    between atoms: C2_2  and  C8_13 
REMARK       I    between atoms: C3_3  and  N1_5 
REMARK    3  A    between atoms: C9_14  and  S1_15 
REMARK    4  A    between atoms: S1_15  and  N3_16 
REMARK    5  A    between atoms: C10_27  and  N7_28 
ROOT
HETATM    1  C8  UNL     1      -2.172   0.192  -0.554  1.00  0.00     0.041 A 
HETATM    2  C9  UNL     1      -2.944   0.069   0.583  1.00  0.00     0.175 A 
HETATM    3  N4  UNL     1      -4.188  -0.434   0.455  1.00  0.00    -0.274 N 
ATOM      4  H4  UNL     1      -4.772  -0.531   1.286  1.00  0.00     0.189 HD
HETATM    5  N5  UNL     1      -4.674  -0.807  -0.722  1.00  0.00    -0.240 N 
ATOM      6  H5  UNL     1      -5.621  -1.183  -0.768  1.00  0.00     0.208 HD
HETATM    7  N6  UNL     1      -3.980  -0.708  -1.824  1.00  0.00    -0.271 N 
ATOM      8  H6  UNL     1      -4.376  -0.999  -2.718  1.00  0.00     0.190 HD
HETATM    9  C10 UNL     1      -2.707  -0.204  -1.752  1.00  0.00     0.124 A 
ENDROOT
BRANCH   1  10
HETATM   10  C2  UNL     1      -0.819   0.669  -0.401  1.00  0.00     0.114 C 
HETATM   11  C1  UNL     1      -0.341   1.333  -1.677  1.00  0.00     0.025 C 
BRANCH  10  12
HETATM   12  C3  UNL     1       0.136  -0.504  -0.262  1.00  0.00     0.228 C 
HETATM   13  O1  UNL     1      -0.323  -1.648  -0.487  1.00  0.00    -0.273 OA
HETATM   14  N1  UNL     1       1.463  -0.324   0.100  1.00  0.00    -0.348 N 
HETATM   15  C4  UNL     1       2.310  -1.551   0.172  1.00  0.00     0.153 C 
HETATM   16  C7  UNL     1       2.162   0.868   0.447  1.00  0.00     0.153 C 
HETATM   17  C5  UNL     1       3.476  -1.244  -0.753  1.00  0.00     0.252 C 
HETATM   18  N2  UNL     1       4.287  -0.229  -0.099  1.00  0.00    -0.072 N 
HETATM   19  C6  UNL     1       3.573   0.472   0.923  1.00  0.00     0.252 C 
ATOM     20  H22 UNL     1       5.151  -0.630   0.267  1.00  0.00     0.277 HD
ATOM     21  H21 UNL     1       4.682   0.419  -0.780  1.00  0.00     0.277 HD
ENDBRANCH  10  12
ENDBRANCH   1  10
BRANCH   2  22
HETATM   22  S1  UNL     1      -2.379   0.546   2.083  1.00  0.00     0.274 S 
HETATM   23  O2  UNL     1      -2.045   1.950   2.340  1.00  0.00    -0.199 OA
HETATM   24  O3  UNL     1      -1.048  -0.365   2.551  1.00  0.00    -0.199 OA
BRANCH  22  25
HETATM   25  N3  UNL     1      -3.476   0.187   3.169  1.00  0.00    -0.323 N 
ATOM     26  H32 UNL     1      -4.371  -0.260   2.971  1.00  0.00     0.169 HD
ATOM     27  H31 UNL     1      -3.131   0.478   4.084  1.00  0.00     0.169 HD
ENDBRANCH  22  25
ENDBRANCH   2  22
BRANCH   9  28
HETATM   28  N7  UNL     1      -2.095  -0.182  -2.878  1.00  0.00    -0.384 N 
ATOM     29  H72 UNL     1      -1.148   0.193  -2.824  1.00  0.00     0.157 HD
ATOM     30  H71 UNL     1      -2.493  -0.477  -3.770  1.00  0.00     0.157 HD
ENDBRANCH   9  28
TORSDOF 5
