REMARK  4 active torsions:
REMARK  status: ('A' for Active; 'I' for Inactive)
REMARK    1  A    between atoms: O1_3  and  C2_4 
REMARK    2  A    between atoms: C2_4  and  C3_5 
REMARK    3  A    between atoms: C3_5  and  C4_6 
REMARK    4  A    between atoms: C4_6  and  N2_7 
ROOT
HETATM    1  N1  UNL     1       6.988   1.344   0.507  1.00  0.00    -0.164 NA
HETATM    2  C1  UNL     1       6.561   0.292   0.217  1.00  0.00     0.228 C 
HETATM    3  O1  UNL     1       6.083  -0.930  -0.101  1.00  0.00    -0.283 OA
ENDROOT
BRANCH   3   4
HETATM    4  C2  UNL     1       4.828  -1.130  -0.740  1.00  0.00     0.191 C 
BRANCH   4   5
HETATM    5  C3  UNL     1       3.778  -0.546   0.179  1.00  0.00     0.043 C 
BRANCH   5   6
HETATM    6  C4  UNL     1       2.395  -0.712  -0.419  1.00  0.00     0.113 C 
BRANCH   6   7
HETATM    7  N2  UNL     1       1.374  -0.163   0.440  1.00  0.00    -0.168 NA
HETATM    8  C5  UNL     1       0.104  -0.761   0.085  1.00  0.00     0.340 C 
HETATM    9  N3  UNL     1      -0.164  -2.054   0.593  1.00  0.00    -0.061 N 
HETATM   10  C6  UNL     1      -1.567  -2.424   0.572  1.00  0.00     0.261 C 
ATOM     11  H32 UNL     1       0.396  -2.752   0.104  1.00  0.00     0.278 HD
ATOM     12  H31 UNL     1       0.217  -2.153   1.534  1.00  0.00     0.278 HD
HETATM   13  C7  UNL     1      -2.388  -1.261   0.229  1.00  0.00     0.259 C 
HETATM   14  N4  UNL     1      -3.753  -1.436  -0.192  1.00  0.00    -0.074 N 
HETATM   15  C8  UNL     1      -4.298  -0.062  -0.170  1.00  0.00     0.232 C 
ATOM     16  H42 UNL     1      -3.862  -1.920  -1.083  1.00  0.00     0.277 HD
ATOM     17  H41 UNL     1      -4.283  -2.110   0.360  1.00  0.00     0.277 HD
HETATM   18  C9  UNL     1      -3.532   0.931  -0.978  1.00  0.00     0.029 C 
HETATM   19  C10 UNL     1      -2.819   1.988  -0.179  1.00  0.00     0.022 C 
HETATM   20  C11 UNL     1      -1.374   2.239  -0.606  1.00  0.00     0.133 C 
HETATM   21  N5  UNL     1      -0.440   2.054   0.464  1.00  0.00    -0.307 N 
HETATM   22  S1  UNL     1       1.133   1.534   0.005  1.00  0.00     0.300 S 
ATOM     23  H5  UNL     1      -0.693   2.220   1.438  1.00  0.00     0.173 HD
HETATM   24  O2  UNL     1       1.442   1.764  -1.422  1.00  0.00    -0.188 OA
HETATM   25  O3  UNL     1       2.120   2.301   0.840  1.00  0.00    -0.188 OA
ENDBRANCH   6   7
ENDBRANCH   5   6
ENDBRANCH   4   5
ENDBRANCH   3   4
TORSDOF 4
