REMARK  7 active torsions:
REMARK  status: ('A' for Active; 'I' for Inactive)
REMARK    1  A    between atoms: C3_3  and  C4_4 
REMARK    2  A    between atoms: C4_4  and  C5_5 
REMARK    3  A    between atoms: C6_9  and  C7_10 
REMARK       I    between atoms: C7_10  and  N2_12 
REMARK    4  A    between atoms: N2_12  and  C8_14 
REMARK    5  A    between atoms: C8_14  and  C9_15 
REMARK    6  A    between atoms: C9_15  and  N3_16 
REMARK    7  A    between atoms: C11_22  and  O3_23 
ROOT
HETATM    1  C5  UNL     1       0.123   0.745  -0.926  1.00  0.00     0.126 A 
HETATM    2  O1  UNL     1       1.218   0.193  -1.434  1.00  0.00    -0.235 OA
HETATM    3  N1  UNL     1       2.170   0.173  -0.575  1.00  0.00    -0.253 N 
ATOM      4  H1  UNL     1       3.102  -0.204  -0.747  1.00  0.00     0.195 HD
HETATM    5  C6  UNL     1       1.764   0.722   0.588  1.00  0.00     0.149 A 
HETATM    6  C10 UNL     1       0.468   1.093   0.388  1.00  0.00     0.116 A 
HETATM    7  N4  UNL     1      -0.419   1.714   1.293  1.00  0.00    -0.097 NA
ENDROOT
BRANCH   1   8
HETATM    8  C4  UNL     1      -1.146   0.962  -1.542  1.00  0.00     0.058 C 
BRANCH   8   9
HETATM    9  C3  UNL     1      -2.181   0.172  -1.703  1.00  0.00     0.028 A 
HETATM   10  C2  UNL     1      -2.336  -1.133  -1.308  1.00  0.00     0.038 A 
HETATM   11  C1  UNL     1      -1.536  -1.964  -0.674  1.00  0.00     0.044 C 
HETATM   12  N5  UNL     1      -3.600  -1.490  -1.720  1.00  0.00    -0.352 N 
HETATM   13  C12 UNL     1      -4.208  -0.495  -2.331  1.00  0.00     0.042 A 
HETATM   14  C14 UNL     1      -4.182  -2.810  -1.501  1.00  0.00     0.156 C 
HETATM   15  C11 UNL     1      -3.364   0.582  -2.352  1.00  0.00     0.100 A 
HETATM   16  C13 UNL     1      -5.585  -0.498  -2.916  1.00  0.00     0.071 C 
BRANCH  15  17
HETATM   17  O3  UNL     1      -3.631   1.822  -2.904  1.00  0.00    -0.358 OA
ATOM     18  H3  UNL     1      -4.428   2.098  -3.341  1.00  0.00     0.217 HD
ENDBRANCH  15  17
ENDBRANCH   8   9
ENDBRANCH   1   8
BRANCH   5  19
HETATM   19  C7  UNL     1       2.534   0.892   1.808  1.00  0.00     0.272 C 
HETATM   20  O2  UNL     1       1.999   1.427   2.806  1.00  0.00    -0.266 OA
HETATM   21  N2  UNL     1       3.881   0.453   1.860  1.00  0.00    -0.354 N 
ATOM     22  H2  UNL     1       4.309   0.019   1.042  1.00  0.00     0.162 HD
BRANCH  21  23
HETATM   23  C8  UNL     1       4.643   0.621   3.068  1.00  0.00     0.150 C 
BRANCH  23  24
HETATM   24  C9  UNL     1       6.047   0.100   2.945  1.00  0.00     0.249 C 
BRANCH  24  25
HETATM   25  N3  UNL     1       6.798   0.761   1.905  1.00  0.00    -0.078 N 
ATOM     26  H33 UNL     1       6.309   0.709   1.011  1.00  0.00     0.274 HD
ATOM     27  H32 UNL     1       6.793   1.772   2.037  1.00  0.00     0.274 HD
ATOM     28  H31 UNL     1       7.751   0.407   1.822  1.00  0.00     0.274 HD
ENDBRANCH  24  25
ENDBRANCH  23  24
ENDBRANCH  21  23
ENDBRANCH   5  19
TORSDOF 7
