REMARK  5 active torsions:
REMARK  status: ('A' for Active; 'I' for Inactive)
REMARK    1  A    between atoms: N1_1  and  N2_4 
REMARK    2  A    between atoms: N2_4  and  C1_6 
REMARK    3  A    between atoms: C3_15  and  C4_16 
REMARK    4  A    between atoms: C4_16  and  N6_17 
REMARK    5  A    between atoms: C4_16  and  N7_21 
ROOT
HETATM    1  C1  UNL     1      -0.634  -0.393  -0.002  1.00  0.00     0.151 A 
HETATM    2  N3  UNL     1      -1.900   0.056  -0.069  1.00  0.00    -0.291 N 
ATOM      3  H3  UNL     1      -2.656  -0.559   0.233  1.00  0.00     0.172 HD
HETATM    4  C2  UNL     1      -2.207   1.287  -0.520  1.00  0.00     0.340 A 
HETATM    5  O1  UNL     1      -3.386   1.722  -0.589  1.00  0.00    -0.245 OA
HETATM    6  N4  UNL     1      -1.203   2.072  -0.908  1.00  0.00    -0.251 N 
ATOM      7  H4  UNL     1      -1.415   3.009  -1.252  1.00  0.00     0.191 HD
HETATM    8  N5  UNL     1       0.067   1.677  -0.863  1.00  0.00    -0.293 N 
ATOM      9  H5  UNL     1       0.808   2.307  -1.170  1.00  0.00     0.187 HD
HETATM   10  C3  UNL     1       0.371   0.459  -0.417  1.00  0.00     0.128 A 
ENDROOT
BRANCH  10  11
HETATM   11  C4  UNL     1       1.813   0.065  -0.386  1.00  0.00     0.432 C 
BRANCH  11  12
HETATM   12  N6  UNL     1       2.595   1.148   0.165  1.00  0.00    -0.045 N 
ATOM     13  H63 UNL     1       2.445   2.025  -0.334  1.00  0.00     0.277 HD
ATOM     14  H62 UNL     1       2.256   1.442   1.081  1.00  0.00     0.277 HD
ATOM     15  H61 UNL     1       3.579   0.879   0.186  1.00  0.00     0.277 HD
ENDBRANCH  11  12
BRANCH  11  16
HETATM   16  N7  UNL     1       1.961  -1.091   0.438  1.00  0.00    -0.045 N 
ATOM     17  H73 UNL     1       1.576  -0.954   1.372  1.00  0.00     0.277 HD
ATOM     18  H72 UNL     1       1.355  -1.857   0.145  1.00  0.00     0.277 HD
ATOM     19  H71 UNL     1       2.945  -1.360   0.459  1.00  0.00     0.277 HD
ENDBRANCH  11  16
ENDBRANCH  10  11
BRANCH   1  20
HETATM   20  N2  UNL     1      -0.339  -1.577   0.431  1.00  0.00    -0.290 N 
ATOM     21  H2  UNL     1       0.633  -1.883   0.467  1.00  0.00     0.188 HD
BRANCH  20  22
HETATM   22  N1  UNL     1      -1.361  -2.433   0.849  1.00  0.00    -0.344 N 
ATOM     23  H12 UNL     1      -2.328  -2.112   0.807  1.00  0.00     0.176 HD
ATOM     24  H11 UNL     1      -1.129  -3.366   1.190  1.00  0.00     0.176 HD
ENDBRANCH  20  22
ENDBRANCH   1  20
TORSDOF 5
