REMARK  5 active torsions:
REMARK  status: ('A' for Active; 'I' for Inactive)
REMARK    1  A    between atoms: N1_1  and  N2_4 
REMARK    2  A    between atoms: N2_4  and  C1_6 
REMARK    3  A    between atoms: C1_6  and  N3_8 
REMARK    4  A    between atoms: N3_8  and  N4_10 
REMARK    5  A    between atoms: N4_10  and  C2_12 
ROOT
HETATM    1  N3  UNL     1       1.187  -0.836  -0.522  1.00  0.00    -0.272 N 
ATOM      2  H3  UNL     1       0.890  -1.713  -0.950  1.00  0.00     0.189 HD
ENDROOT
BRANCH   1   3
HETATM    3  C1  UNL     1       2.477  -0.729   0.066  1.00  0.00     0.205 C 
HETATM    4  S1  UNL     1       3.459  -2.029   0.038  1.00  0.00    -0.038 SA
BRANCH   3   5
HETATM    5  N2  UNL     1       2.930   0.454   0.667  1.00  0.00    -0.282 N 
ATOM      6  H2  UNL     1       2.291   1.249   0.667  1.00  0.00     0.189 HD
BRANCH   5   7
HETATM    7  N1  UNL     1       4.160   0.639   1.257  1.00  0.00    -0.343 N 
ATOM      8  H12 UNL     1       4.786  -0.167   1.247  1.00  0.00     0.176 HD
ATOM      9  H11 UNL     1       4.490   1.500   1.694  1.00  0.00     0.176 HD
ENDBRANCH   5   7
ENDBRANCH   3   5
ENDBRANCH   1   3
BRANCH   1  10
HETATM   10  N4  UNL     1       0.316   0.281  -0.510  1.00  0.00    -0.269 N 
ATOM     11  H4  UNL     1       0.678   1.227  -0.633  1.00  0.00     0.190 HD
BRANCH  10  12
HETATM   12  C2  UNL     1      -1.076   0.053  -0.322  1.00  0.00     0.190 C 
HETATM   13  N5  UNL     1      -1.798  -0.768  -1.003  1.00  0.00    -0.360 N 
HETATM   14  C3  UNL     1      -3.170  -0.749  -0.548  1.00  0.00     0.142 C 
ATOM     15  H5  UNL     1      -1.448  -1.353  -1.762  1.00  0.00     0.162 HD
HETATM   16  C4  UNL     1      -3.252   0.592   0.146  1.00  0.00     0.142 C 
HETATM   17  N6  UNL     1      -1.891   0.709   0.658  1.00  0.00    -0.360 N 
ATOM     18  H6  UNL     1      -1.587   1.158   1.522  1.00  0.00     0.162 HD
ENDBRANCH  10  12
ENDBRANCH   1  10
TORSDOF 5
