REMARK  9 active torsions:
REMARK  status: ('A' for Active; 'I' for Inactive)
REMARK    1  A    between atoms: N1_1  and  C1_5 
REMARK    2  A    between atoms: C1_5  and  O1_6 
REMARK    3  A    between atoms: C1_5  and  C2_8 
REMARK    4  A    between atoms: C2_8  and  N2_9 
REMARK    5  A    between atoms: C3_16  and  N6_17 
REMARK    6  A    between atoms: C6_21  and  C7_22 
REMARK       I    between atoms: C7_22  and  N7_24 
REMARK    7  A    between atoms: N7_24  and  C8_26 
REMARK    8  A    between atoms: C8_26  and  C9_27 
REMARK    9  A    between atoms: C15_42  and  C16_43 
ROOT
HETATM    1  N6  UNL     1      -3.078   0.094   1.317  1.00  0.00    -0.174 N 
ATOM      2  H6  UNL     1      -3.963  -0.296   1.640  1.00  0.00     0.186 HD
HETATM    3  C4  UNL     1      -2.165  -0.676   0.798  1.00  0.00     0.124 A 
HETATM    4  C5  UNL     1      -0.958  -0.163   0.355  1.00  0.00     0.084 A 
HETATM    5  C6  UNL     1       0.016  -0.970  -0.197  1.00  0.00     0.105 A 
HETATM    6  N11 UNL     1      -0.309  -2.284  -0.264  1.00  0.00    -0.341 N 
ATOM      7  H11 UNL     1       0.386  -2.914  -0.666  1.00  0.00     0.167 HD
HETATM    8  C15 UNL     1      -1.444  -2.823   0.144  1.00  0.00     0.090 A 
HETATM    9  N13 UNL     1      -2.369  -2.005   0.676  1.00  0.00    -0.331 N 
ATOM     10  H13 UNL     1      -3.252  -2.401   0.997  1.00  0.00     0.168 HD
ENDROOT
BRANCH   1  11
HETATM   11  C3  UNL     1      -2.818   1.489   1.425  1.00  0.00     0.717 A 
HETATM   12  N2  UNL     1      -3.257   2.471   0.592  1.00  0.00    -0.102 N 
HETATM   13  N3  UNL     1      -2.801   3.628   1.035  1.00  0.00    -0.211 N 
HETATM   14  N4  UNL     1      -2.090   3.402   2.118  1.00  0.00    -0.213 N 
ATOM     15  H3  UNL     1      -2.971   4.540   0.611  1.00  0.00     0.210 HD
HETATM   16  N5  UNL     1      -2.094   2.118   2.362  1.00  0.00    -0.115 N 
ATOM     17  H4  UNL     1      -1.614   4.111   2.675  1.00  0.00     0.210 HD
ATOM     18  H5  UNL     1      -1.620   1.665   3.143  1.00  0.00     0.207 HD
BRANCH  12  19
HETATM   19  C2  UNL     1      -4.093   2.251  -0.586  1.00  0.00     0.230 C 
BRANCH  19  20
HETATM   20  C1  UNL     1      -5.562   2.339  -0.152  1.00  0.00     0.336 C 
BRANCH  20  21
HETATM   21  N1  UNL     1      -5.856   3.625   0.408  1.00  0.00    -0.051 N 
ATOM     22  H13 UNL     1      -5.819   4.354  -0.304  1.00  0.00     0.277 HD
ATOM     23  H12 UNL     1      -6.840   3.698   0.665  1.00  0.00     0.277 HD
ATOM     24  H11 UNL     1      -5.251   3.851   1.198  1.00  0.00     0.277 HD
ENDBRANCH  20  21
BRANCH  20  25
HETATM   25  O1  UNL     1      -6.384   2.032  -1.225  1.00  0.00    -0.369 OA
ATOM     26  H1  UNL     1      -6.189   1.180  -1.596  1.00  0.00     0.212 HD
ENDBRANCH  20  25
ENDBRANCH  19  20
ENDBRANCH  12  19
ENDBRANCH   1  11
BRANCH   5  27
HETATM   27  C7  UNL     1       1.292  -0.476  -0.673  1.00  0.00     0.268 C 
HETATM   28  O2  UNL     1       2.112  -1.291  -1.155  1.00  0.00    -0.266 OA
HETATM   29  N7  UNL     1       1.634   0.884  -0.610  1.00  0.00    -0.351 N 
ATOM     30  H7  UNL     1       0.943   1.525  -0.220  1.00  0.00     0.163 HD
BRANCH  29  31
HETATM   31  C8  UNL     1       2.877   1.441  -1.051  1.00  0.00     0.165 C 
BRANCH  31  32
HETATM   32  C9  UNL     1       4.074   1.056  -0.325  1.00  0.00     0.004 A 
HETATM   33  C10 UNL     1       4.074   0.252   0.783  1.00  0.00     0.102 A 
HETATM   34  N8  UNL     1       5.260  -0.005   1.372  1.00  0.00    -0.331 N 
HETATM   35  C11 UNL     1       6.435   0.480   0.939  1.00  0.00     0.274 A 
ATOM     36  H8  UNL     1       5.265  -0.605   2.197  1.00  0.00     0.168 HD
HETATM   37  O3  UNL     1       7.522   0.220   1.512  1.00  0.00    -0.266 OA
HETATM   38  C12 UNL     1       6.475   1.293  -0.171  1.00  0.00     0.129 A 
HETATM   39  N9  UNL     1       7.483   1.908  -0.816  1.00  0.00    -0.346 N 
HETATM   40  C14 UNL     1       5.283   1.577  -0.799  1.00  0.00     0.075 A 
HETATM   41  C13 UNL     1       6.941   2.587  -1.857  1.00  0.00     0.181 A 
ATOM     42  H9  UNL     1       8.472   1.870  -0.568  1.00  0.00     0.167 HD
HETATM   43  N10 UNL     1       5.607   2.377  -1.834  1.00  0.00    -0.350 N 
ATOM     44  H10 UNL     1       4.942   2.767  -2.502  1.00  0.00     0.166 HD
ENDBRANCH  31  32
ENDBRANCH  29  31
ENDBRANCH   5  27
BRANCH   8  45
HETATM   45  C16 UNL     1      -1.728  -4.255   0.041  1.00  0.00     0.104 C 
HETATM   46  C17 UNL     1      -1.380  -4.896  -1.285  1.00  0.00     0.246 C 
HETATM   47  N12 UNL     1      -0.994  -6.093  -0.522  1.00  0.00    -0.073 N 
HETATM   48  C18 UNL     1      -0.651  -5.178   0.569  1.00  0.00     0.246 C 
ATOM     49 2H12 UNL     1      -1.641  -6.869  -0.384  1.00  0.00     0.277 HD
ATOM     50 1H12 UNL     1      -0.318  -6.764  -0.888  1.00  0.00     0.277 HD
ENDBRANCH   8  45
TORSDOF 9
