REMARK  11 active torsions:
REMARK  status: ('A' for Active; 'I' for Inactive)
REMARK    1  A    between atoms: N1_1  and  C1_4 
REMARK    2  A    between atoms: C2_7  and  C3_8 
REMARK    3  A    between atoms: C3_8  and  N3_9 
REMARK    4  A    between atoms: N3_9  and  C4_11 
REMARK    5  A    between atoms: C4_11  and  O1_12 
REMARK    6  A    between atoms: C4_11  and  C5_14 
REMARK    7  A    between atoms: C6_18  and  C7_19 
REMARK    8  A    between atoms: C7_19  and  N5_20 
REMARK    9  A    between atoms: C8_24  and  N6_25 
REMARK   10  A    between atoms: C11_31  and  C12_32 
REMARK   11  A    between atoms: C14_37  and  C15_38 
ROOT
HETATM    1  C5  UNL     1      -0.075   0.929  -1.714  1.00  0.00     0.134 A 
HETATM    2  N4  UNL     1      -0.315   1.278  -3.011  1.00  0.00    -0.254 N 
ATOM      3  H4  UNL     1       0.407   1.465  -3.706  1.00  0.00     0.195 HD
HETATM    4  O2  UNL     1      -1.578   1.338  -3.233  1.00  0.00    -0.238 OA
HETATM    5  C6  UNL     1      -2.265   1.051  -2.158  1.00  0.00     0.131 A 
HETATM    6  C8  UNL     1      -1.317   0.782  -1.158  1.00  0.00     0.104 A 
ENDROOT
BRANCH   1   7
HETATM    7  C4  UNL     1       1.213   0.792  -1.082  1.00  0.00     0.168 C 
BRANCH   7   8
HETATM    8  N3  UNL     1       1.548   0.266   0.159  1.00  0.00    -0.363 N 
ATOM      9  H3  UNL     1       0.800  -0.099   0.749  1.00  0.00     0.162 HD
BRANCH   8  10
HETATM   10  C3  UNL     1       2.884   0.212   0.648  1.00  0.00     0.180 C 
BRANCH  10  11
HETATM   11  C2  UNL     1       3.790  -0.749  -0.098  1.00  0.00     0.050 A 
HETATM   12  N2  UNL     1       3.390  -1.544  -1.061  1.00  0.00    -0.338 N 
HETATM   13  C1  UNL     1       4.274  -2.368  -1.619  1.00  0.00     0.143 A 
ATOM     14  H2  UNL     1       2.420  -1.531  -1.376  1.00  0.00     0.168 HD
HETATM   15  S1  UNL     1       5.712  -2.033  -0.783  1.00  0.00    -0.049 SA
HETATM   16  C14 UNL     1       5.109  -0.819   0.277  1.00  0.00     0.078 A 
BRANCH  13  17
HETATM   17  N1  UNL     1       4.036  -3.227  -2.593  1.00  0.00    -0.380 N 
ATOM     18  H12 UNL     1       3.172  -3.428  -3.096  1.00  0.00     0.158 HD
ATOM     19  H11 UNL     1       4.713  -3.858  -3.021  1.00  0.00     0.158 HD
ENDBRANCH  13  17
BRANCH  16  20
HETATM   20  C15 UNL     1       5.833  -0.065   1.308  1.00  0.00     0.150 A 
HETATM   21  N9  UNL     1       7.123  -0.176   1.634  1.00  0.00    -0.269 N 
HETATM   22  N10 UNL     1       7.351   0.702   2.611  1.00  0.00    -0.007 NA
ATOM     23  H9  UNL     1       7.803  -0.811   1.216  1.00  0.00     0.185 HD
HETATM   24  N11 UNL     1       6.242   1.363   2.909  1.00  0.00    -0.007 NA
HETATM   25  N12 UNL     1       5.321   0.876   2.097  1.00  0.00    -0.269 N 
ATOM     26  H12 UNL     1       4.348   1.181   2.077  1.00  0.00     0.185 HD
ENDBRANCH  16  20
ENDBRANCH  10  11
ENDBRANCH   8  10
ENDBRANCH   7   8
BRANCH   7  27
HETATM   27  O1  UNL     1       2.230   1.225  -1.777  1.00  0.00    -0.344 OA
ATOM     28  H1  UNL     1       2.001   1.585  -2.626  1.00  0.00     0.219 HD
ENDBRANCH   7  27
ENDBRANCH   1   7
BRANCH   6  29
HETATM   29  N6  UNL     1      -1.737   0.459   0.139  1.00  0.00    -0.310 N 
HETATM   30  C9  UNL     1      -1.749   1.388   1.272  1.00  0.00     0.160 C 
HETATM   31  C10 UNL     1      -3.056   1.245   2.041  1.00  0.00     0.254 C 
HETATM   32  N7  UNL     1      -3.100  -0.089   2.583  1.00  0.00    -0.052 N 
HETATM   33  C11 UNL     1      -3.170  -1.103   1.551  1.00  0.00     0.365 C 
ATOM     34  H72 UNL     1      -2.314  -0.257   3.210  1.00  0.00     0.278 HD
ATOM     35  H71 UNL     1      -3.865  -0.190   3.250  1.00  0.00     0.278 HD
HETATM   36  C13 UNL     1      -2.222  -0.855   0.427  1.00  0.00     0.264 C 
HETATM   37  O4  UNL     1      -1.868  -1.848  -0.255  1.00  0.00    -0.270 OA
BRANCH  33  38
HETATM   38  C12 UNL     1      -4.576  -1.224   1.124  1.00  0.00     0.271 C 
HETATM   39  N8  UNL     1      -4.901  -2.122   0.085  1.00  0.00    -0.060 NA
HETATM   40  O3  UNL     1      -5.485  -0.560   1.648  1.00  0.00    -0.274 OA
ENDBRANCH  33  38
ENDBRANCH   6  29
BRANCH   5  41
HETATM   41  C7  UNL     1      -3.743   1.027  -2.077  1.00  0.00     0.299 C 
BRANCH  41  42
HETATM   42  N5  UNL     1      -4.309   1.394  -3.387  1.00  0.00    -0.073 N 
ATOM     43  H53 UNL     1      -3.955   2.289  -3.724  1.00  0.00     0.274 HD
ATOM     44  H52 UNL     1      -3.954   0.805  -4.140  1.00  0.00     0.274 HD
ATOM     45  H51 UNL     1      -5.327   1.377  -3.331  1.00  0.00     0.274 HD
ENDBRANCH  41  42
ENDBRANCH   5  41
TORSDOF 11
