REMARK  16 active torsions:
REMARK  status: ('A' for Active; 'I' for Inactive)
REMARK       I    between atoms: C2_2  and  N1_4 
REMARK    1  A    between atoms: N1_4  and  C3_6 
REMARK    2  A    between atoms: C4_7  and  O2_8 
REMARK    3  A    between atoms: C5_10  and  O3_11 
REMARK    4  A    between atoms: C6_13  and  O4_14 
REMARK    5  A    between atoms: C6_13  and  C7_16 
REMARK       I    between atoms: C7_16  and  N2_18 
REMARK    6  A    between atoms: N2_18  and  N3_20 
REMARK    7  A    between atoms: N3_20  and  N4_22 
REMARK    8  A    between atoms: C8_25  and  O6_26 
REMARK    9  A    between atoms: C9_28  and  O7_29 
REMARK   10  A    between atoms: O7_29  and  C10_30 
REMARK   11  A    between atoms: C10_30  and  C11_31 
REMARK   12  A    between atoms: C11_31  and  O8_32 
REMARK   13  A    between atoms: C12_35  and  C13_36 
REMARK   14  A    between atoms: C13_36  and  O10_37 
REMARK   15  A    between atoms: C13_36  and  C14_39 
REMARK   16  A    between atoms: C14_39  and  O11_40 
ROOT
HETATM    1  C3  UNL     1       2.477  -1.127   0.424  1.00  0.00     0.147 C 
HETATM    2  C4  UNL     1       3.214  -0.700  -0.794  1.00  0.00     0.175 C 
HETATM    3  C5  UNL     1       3.578   0.753  -0.828  1.00  0.00     0.195 C 
HETATM    4  C6  UNL     1       2.574   1.663  -0.218  1.00  0.00     0.196 C 
HETATM    5  C8  UNL     1       1.773   1.121   0.918  1.00  0.00     0.196 C 
HETATM    6  C9  UNL     1       1.231  -0.236   0.524  1.00  0.00     0.179 C 
ENDROOT
BRANCH   6   7
HETATM    7  O7  UNL     1       0.281  -0.734   1.298  1.00  0.00    -0.373 OA
BRANCH   7   8
HETATM    8  C10 UNL     1      -0.947  -1.092   0.968  1.00  0.00     0.270 C 
BRANCH   8   9
HETATM    9  C11 UNL     1      -1.859   0.003   0.469  1.00  0.00     0.307 C 
HETATM   10  O9  UNL     1      -3.172  -0.445   0.361  1.00  0.00    -0.298 OA
HETATM   11  C12 UNL     1      -3.557  -0.830  -0.887  1.00  0.00     0.297 C 
HETATM   12  O12 UNL     1      -4.316   0.241  -1.426  1.00  0.00    -0.346 OA
HETATM   13  C15 UNL     1      -3.599   1.385  -1.089  1.00  0.00     0.204 C 
HETATM   14  C16 UNL     1      -3.467   2.436  -2.134  1.00  0.00     0.208 C 
HETATM   15  C17 UNL     1      -2.179   1.135  -1.541  1.00  0.00     0.296 C 
HETATM   16  O13 UNL     1      -2.083   2.480  -1.837  1.00  0.00    -0.356 OA
HETATM   17  O14 UNL     1      -1.358   0.593  -0.626  1.00  0.00    -0.298 OA
BRANCH   9  18
HETATM   18  O8  UNL     1      -1.924   0.965   1.510  1.00  0.00    -0.341 OA
ATOM     19  H8  UNL     1      -2.498   1.654   1.196  1.00  0.00     0.215 HD
ENDBRANCH   9  18
BRANCH  11  20
HETATM   20  C13 UNL     1      -4.577  -1.966  -0.719  1.00  0.00     0.197 C 
BRANCH  20  21
HETATM   21  O10 UNL     1      -4.958  -2.345  -2.002  1.00  0.00    -0.389 OA
ATOM     22  H10 UNL     1      -5.589  -3.048  -1.898  1.00  0.00     0.210 HD
ENDBRANCH  20  21
BRANCH  20  23
HETATM   23  C14 UNL     1      -5.804  -1.321  -0.078  1.00  0.00     0.200 C 
BRANCH  23  24
HETATM   24  O11 UNL     1      -5.555  -0.895   1.214  1.00  0.00    -0.398 OA
ATOM     25  H11 UNL     1      -6.318  -0.494   1.613  1.00  0.00     0.209 HD
ENDBRANCH  23  24
ENDBRANCH  20  23
ENDBRANCH  11  20
ENDBRANCH   8   9
ENDBRANCH   7   8
ENDBRANCH   6   7
BRANCH   1  26
HETATM   26  N1  UNL     1       2.119  -2.508   0.290  1.00  0.00    -0.352 N 
HETATM   27  C2  UNL     1       2.490  -3.433   1.296  1.00  0.00     0.214 C 
HETATM   28  C1  UNL     1       2.140  -4.880   1.200  1.00  0.00     0.117 C 
HETATM   29  O1  UNL     1       3.131  -3.018   2.292  1.00  0.00    -0.274 OA
ATOM     30  H1  UNL     1       1.598  -2.824  -0.528  1.00  0.00     0.163 HD
ENDBRANCH   1  26
BRANCH   5  31
HETATM   31  O6  UNL     1       2.540   1.090   2.047  1.00  0.00    -0.389 OA
ATOM     32  H6  UNL     1       2.030   0.745   2.770  1.00  0.00     0.210 HD
ENDBRANCH   5  31
BRANCH   2  33
HETATM   33  O2  UNL     1       2.454  -1.022  -1.932  1.00  0.00    -0.391 OA
ATOM     34  H2  UNL     1       2.925  -0.749  -2.711  1.00  0.00     0.210 HD
ENDBRANCH   2  33
BRANCH   4  35
HETATM   35  O4  UNL     1       1.625   2.003  -1.225  1.00  0.00    -0.375 OA
ATOM     36  H4  UNL     1       0.983   2.585  -0.835  1.00  0.00     0.211 HD
ENDBRANCH   4  35
BRANCH   4  37
HETATM   37  C7  UNL     1       3.154   2.971   0.198  1.00  0.00     0.277 C 
HETATM   38  O5  UNL     1       2.746   4.077  -0.299  1.00  0.00    -0.268 OA
HETATM   39  N2  UNL     1       4.175   3.077   1.151  1.00  0.00    -0.253 N 
ATOM     40  H2  UNL     1       4.540   2.227   1.580  1.00  0.00     0.191 HD
BRANCH  39  41
HETATM   41  N3  UNL     1       4.716   4.325   1.537  1.00  0.00    -0.247 N 
ATOM     42  H3  UNL     1       4.966   5.023   0.837  1.00  0.00     0.207 HD
BRANCH  41  43
HETATM   43  N4  UNL     1       4.887   4.562   2.793  1.00  0.00    -0.331 N 
ATOM     44  H42 UNL     1       4.632   3.853   3.481  1.00  0.00     0.178 HD
ATOM     45  H41 UNL     1       5.277   5.462   3.071  1.00  0.00     0.178 HD
ENDBRANCH  41  43
ENDBRANCH  39  41
ENDBRANCH   4  37
BRANCH   3  46
HETATM   46  O3  UNL     1       4.883   0.921  -0.376  1.00  0.00    -0.389 OA
ATOM     47  H3  UNL     1       5.114   1.842  -0.398  1.00  0.00     0.210 HD
ENDBRANCH   3  46
TORSDOF 16
