REMARK  10 active torsions:
REMARK  status: ('A' for Active; 'I' for Inactive)
REMARK    1  A    between atoms: C2_2  and  C3_3 
REMARK    2  A    between atoms: C4_4  and  C5_5 
REMARK    3  A    between atoms: C6_6  and  C7_7 
REMARK    4  A    between atoms: C15_17  and  C16_18 
REMARK    5  A    between atoms: C16_18  and  C17_19 
REMARK    6  A    between atoms: C17_19  and  C18_20 
REMARK    7  A    between atoms: C18_20  and  C20_22 
REMARK    8  A    between atoms: C20_22  and  C21_23 
REMARK    9  A    between atoms: C21_23  and  O1_24 
REMARK   10  A    between atoms: C21_23  and  C22_26 
ROOT
HETATM    1  C1  UNL     1      -1.441   1.071   0.909  1.00  0.00     0.048 C 
HETATM    2  C2  UNL     1      -0.473   0.691  -0.142  1.00  0.00    -0.066 C 
HETATM    3  C15 UNL     1       0.717   1.327  -0.270  1.00  0.00    -0.020 C 
ENDROOT
BRANCH   2   4
HETATM    4  C3  UNL     1      -0.717  -0.378  -1.104  1.00  0.00     0.006 C 
HETATM    5  C4  UNL     1      -1.703  -1.170  -1.286  1.00  0.00     0.001 C 
BRANCH   5   6
HETATM    6  C5  UNL     1      -2.962  -1.314  -0.611  1.00  0.00     0.002 C 
HETATM    7  C6  UNL     1      -3.856  -2.236  -0.984  1.00  0.00     0.029 C 
BRANCH   7   8
HETATM    8  C7  UNL     1      -5.120  -2.357  -0.281  1.00  0.00     0.033 A 
HETATM    9  C8  UNL     1      -5.570  -1.605   0.793  1.00  0.00     0.043 A 
HETATM   10  C9  UNL     1      -6.825  -2.018   1.189  1.00  0.00    -0.007 A 
HETATM   11  C10 UNL     1      -7.713  -1.637   2.169  1.00  0.00     0.014 A 
HETATM   12  C14 UNL     1      -7.135  -3.049   0.326  1.00  0.00     0.043 A 
HETATM   13  C11 UNL     1      -8.944  -2.243   2.353  1.00  0.00     0.001 A 
HETATM   14  C12 UNL     1      -9.250  -3.273   1.487  1.00  0.00     0.002 A 
HETATM   15  C13 UNL     1      -8.370  -3.665   0.501  1.00  0.00     0.030 A 
HETATM   16  N1  UNL     1      -6.118  -3.235  -0.535  1.00  0.00    -0.356 N 
ATOM     17  H1  UNL     1      -6.102  -3.938  -1.274  1.00  0.00     0.166 HD
ENDBRANCH   7   8
ENDBRANCH   5   6
ENDBRANCH   2   4
BRANCH   3  18
HETATM   18  C16 UNL     1       1.217   2.423   0.547  1.00  0.00     0.032 C 
BRANCH  18  19
HETATM   19  C17 UNL     1       2.435   2.161   1.342  1.00  0.00     0.037 C 
BRANCH  19  20
HETATM   20  C18 UNL     1       3.677   1.912   0.578  1.00  0.00    -0.081 C 
HETATM   21  C19 UNL     1       4.891   1.628   1.456  1.00  0.00     0.043 C 
BRANCH  20  22
HETATM   22  C20 UNL     1       3.799   2.025  -0.689  1.00  0.00     0.040 C 
BRANCH  22  23
HETATM   23  C21 UNL     1       4.757   1.862  -1.708  1.00  0.00     0.076 C 
BRANCH  23  24
HETATM   24  O1  UNL     1       4.275   2.317  -2.917  1.00  0.00    -0.360 OA
ATOM     25  H1  UNL     1       4.921   2.207  -3.604  1.00  0.00     0.217 HD
ENDBRANCH  23  24
BRANCH  23  26
HETATM   26  C22 UNL     1       6.071   1.360  -1.814  1.00  0.00    -0.003 A 
HETATM   27  C23 UNL     1       6.663   0.409  -1.053  1.00  0.00     0.014 A 
HETATM   28  C24 UNL     1       8.006   0.065  -1.201  1.00  0.00     0.001 A 
HETATM   29  C25 UNL     1       8.806   0.679  -2.140  1.00  0.00     0.000 A 
HETATM   30  C26 UNL     1       8.244   1.637  -2.924  1.00  0.00     0.001 A 
HETATM   31  C27 UNL     1       6.926   1.974  -2.775  1.00  0.00     0.014 A 
ENDBRANCH  23  26
ENDBRANCH  22  23
ENDBRANCH  20  22
ENDBRANCH  19  20
ENDBRANCH  18  19
ENDBRANCH   3  18
TORSDOF 10
