REMARK  8 active torsions:
REMARK  status: ('A' for Active; 'I' for Inactive)
REMARK    1  A    between atoms: C2_2  and  C5_5 
REMARK    2  A    between atoms: C5_5  and  N1_6 
REMARK    3  A    between atoms: N1_6  and  C6_8 
REMARK    4  A    between atoms: C6_8  and  C7_9 
REMARK    5  A    between atoms: C10_12  and  C11_13 
REMARK    6  A    between atoms: C14_16  and  C15_17 
REMARK    7  A    between atoms: C16_18  and  C17_19 
REMARK    8  A    between atoms: C18_20  and  C19_21 
ROOT
HETATM    1  C11 UNL     1       0.594   0.624   0.332  1.00  0.00    -0.026 A 
HETATM    2  C12 UNL     1       1.417  -0.364  -0.146  1.00  0.00     0.013 A 
HETATM    3  C13 UNL     1       2.772  -0.078  -0.284  1.00  0.00     0.012 A 
HETATM    4  C14 UNL     1       3.340   1.134   0.031  1.00  0.00    -0.036 A 
HETATM    5  C25 UNL     1       2.455   2.126   0.519  1.00  0.00     0.012 A 
HETATM    6  C26 UNL     1       1.128   1.850   0.655  1.00  0.00     0.013 A 
ENDROOT
BRANCH   1   7
HETATM    7  C10 UNL     1      -0.818   0.326   0.466  1.00  0.00    -0.026 A 
HETATM    8  C9  UNL     1      -1.410  -0.547  -0.411  1.00  0.00     0.013 A 
HETATM    9  C8  UNL     1      -2.764  -0.834  -0.288  1.00  0.00     0.013 A 
HETATM   10  C7  UNL     1      -3.532  -0.260   0.701  1.00  0.00    -0.021 A 
HETATM   11  C28 UNL     1      -2.926   0.606   1.566  1.00  0.00     0.013 A 
HETATM   12  C27 UNL     1      -1.562   0.910   1.460  1.00  0.00     0.013 A 
BRANCH  10  13
HETATM   13  C6  UNL     1      -4.998  -0.583   0.822  1.00  0.00     0.098 C 
BRANCH  13  14
HETATM   14  N1  UNL     1      -5.603  -0.602  -0.434  1.00  0.00    -0.377 N 
ATOM     15  H1  UNL     1      -5.032  -0.341  -1.237  1.00  0.00     0.164 HD
BRANCH  14  16
HETATM   16  C5  UNL     1      -6.920  -0.949  -0.671  1.00  0.00     0.069 C 
BRANCH  16  17
HETATM   17  C2  UNL     1      -7.953   0.008  -0.160  1.00  0.00    -0.019 C 
HETATM   18  C1  UNL     1      -9.359  -0.515  -0.562  1.00  0.00     0.020 C 
HETATM   19  C3  UNL     1      -7.807   1.400  -0.673  1.00  0.00     0.020 C 
HETATM   20  C4  UNL     1      -7.988  -0.005   1.357  1.00  0.00     0.020 C 
ENDBRANCH  16  17
ENDBRANCH  14  16
ENDBRANCH  13  14
ENDBRANCH  10  13
ENDBRANCH   1   7
BRANCH   4  21
HETATM   21  C15 UNL     1       4.730   1.458  -0.023  1.00  0.00     0.011 C 
HETATM   22  C16 UNL     1       5.799   0.750  -0.082  1.00  0.00     0.001 C 
BRANCH  22  23
HETATM   23  C17 UNL     1       6.046  -0.649  -0.107  1.00  0.00     0.001 C 
HETATM   24  C18 UNL     1       7.146  -1.297  -0.165  1.00  0.00     0.011 C 
BRANCH  24  25
HETATM   25  C19 UNL     1       8.511  -0.955  -0.214  1.00  0.00    -0.036 A 
HETATM   26  C20 UNL     1       9.458  -1.908  -0.661  1.00  0.00     0.011 A 
HETATM   27  C21 UNL     1      10.798  -1.718  -0.684  1.00  0.00     0.001 A 
HETATM   28  C22 UNL     1      11.290  -0.510  -0.243  1.00  0.00     0.000 A 
HETATM   29  C23 UNL     1      10.436   0.452   0.202  1.00  0.00     0.001 A 
HETATM   30  C24 UNL     1       9.058   0.216   0.211  1.00  0.00     0.011 A 
ENDBRANCH  24  25
ENDBRANCH  22  23
ENDBRANCH   4  21
TORSDOF 8
