REMARK  6 active torsions:
REMARK  status: ('A' for Active; 'I' for Inactive)
REMARK    1  A    between atoms: C2_2  and  C3_3 
REMARK    2  A    between atoms: C3_3  and  C4_4 
REMARK    3  A    between atoms: C10_12  and  C11_13 
REMARK    4  A    between atoms: C11_13  and  C12_14 
REMARK    5  A    between atoms: C13_15  and  C14_16 
REMARK    6  A    between atoms: C13_15  and  C16_18 
ROOT
HETATM    1  C4  UNL     1      -4.677   0.005  -1.345  1.00  0.00    -0.029 A 
HETATM    2  C5  UNL     1      -3.841   0.277  -2.455  1.00  0.00     0.096 A 
HETATM    3  N1  UNL     1      -2.579   0.249  -2.035  1.00  0.00    -0.364 N 
ATOM      4  H1  UNL     1      -1.767   0.412  -2.630  1.00  0.00     0.165 HD
HETATM    5  C6  UNL     1      -2.518  -0.027  -0.698  1.00  0.00     0.054 A 
HETATM    6  C7  UNL     1      -1.266  -0.114  -0.012  1.00  0.00    -0.009 A 
HETATM    7  C8  UNL     1      -0.784   0.822   0.887  1.00  0.00     0.014 A 
HETATM    8  C9  UNL     1       0.433   0.722   1.533  1.00  0.00     0.008 A 
HETATM    9  C10 UNL     1       1.249  -0.376   1.288  1.00  0.00    -0.055 A 
HETATM   10  C22 UNL     1       0.796  -1.316   0.405  1.00  0.00     0.008 A 
HETATM   11  C23 UNL     1      -0.431  -1.215  -0.246  1.00  0.00     0.014 A 
HETATM   12  C24 UNL     1      -3.821  -0.172  -0.305  1.00  0.00     0.011 A 
HETATM   13  C25 UNL     1      -4.179  -0.531   1.043  1.00  0.00     0.001 A 
HETATM   14  C26 UNL     1      -4.863  -1.713   1.372  1.00  0.00     0.039 A 
HETATM   15  C27 UNL     1      -5.008  -1.709   2.728  1.00  0.00     0.142 A 
HETATM   16  O1  UNL     1      -4.458  -0.617   3.174  1.00  0.00    -0.334 OA
HETATM   17  C28 UNL     1      -3.953   0.114   2.214  1.00  0.00     0.153 A 
ENDROOT
BRANCH   1  18
HETATM   18  C3  UNL     1      -6.150  -0.024  -1.394  1.00  0.00     0.040 C 
BRANCH  18  19
HETATM   19  C2  UNL     1      -6.860   1.225  -1.080  1.00  0.00     0.000 C 
HETATM   20  C1  UNL     1      -6.670   1.852   0.249  1.00  0.00     0.005 C 
ENDBRANCH  18  19
ENDBRANCH   1  18
BRANCH   9  21
HETATM   21  C11 UNL     1       2.583  -0.516   1.960  1.00  0.00     0.066 C 
BRANCH  21  22
HETATM   22  C12 UNL     1       3.610   0.167   1.151  1.00  0.00    -0.014 C 
HETATM   23  C13 UNL     1       4.667  -0.332   0.599  1.00  0.00    -0.052 C 
BRANCH  23  24
HETATM   24  C14 UNL     1       4.983  -1.769   0.737  1.00  0.00     0.034 C 
HETATM   25  C15 UNL     1       4.882  -2.442  -0.644  1.00  0.00     0.010 C 
ENDBRANCH  23  24
BRANCH  23  26
HETATM   26  C16 UNL     1       5.575   0.501  -0.185  1.00  0.00    -0.030 A 
HETATM   27  C17 UNL     1       5.358   1.826  -0.497  1.00  0.00     0.012 A 
HETATM   28  C18 UNL     1       6.237   2.611  -1.218  1.00  0.00     0.001 A 
HETATM   29  C19 UNL     1       7.406   2.070  -1.665  1.00  0.00     0.000 A 
HETATM   30  C20 UNL     1       7.665   0.756  -1.380  1.00  0.00     0.001 A 
HETATM   31  C21 UNL     1       6.784  -0.023  -0.660  1.00  0.00     0.012 A 
ENDBRANCH  23  26
ENDBRANCH  21  22
ENDBRANCH   9  21
TORSDOF 6
