REMARK  3 active torsions:
REMARK  status: ('A' for Active; 'I' for Inactive)
REMARK    1  A    between atoms: O1_2  and  C2_3 
REMARK    2  A    between atoms: C7_8  and  N1_9 
REMARK    3  A    between atoms: N1_9  and  N2_10 
ROOT
HETATM    1  C2  UNL     1      -1.099  -0.028  -0.199  1.00  0.00     0.058 C 
HETATM    2  C3  UNL     1      -2.104  -0.462  -1.249  1.00  0.00     0.046 C 
HETATM    3  C4  UNL     1      -1.058   1.506  -0.278  1.00  0.00     0.038 C 
HETATM    4  C5  UNL     1      -0.006   2.072   0.633  1.00  0.00     0.004 C 
HETATM    5  C6  UNL     1       1.216   1.191   0.726  1.00  0.00     0.023 C 
HETATM    6  C7  UNL     1       1.333   0.447  -0.587  1.00  0.00     0.101 C 
HETATM    7  C8  UNL     1       0.228  -0.612  -0.575  1.00  0.00     0.060 C 
ENDROOT
BRANCH   6   8
HETATM    8  N1  UNL     1       2.593  -0.235  -0.731  1.00  0.00    -0.143 NA
BRANCH   8   9
HETATM    9  N2  UNL     1       2.825  -1.180   0.251  1.00  0.00    -0.348 N 
ATOM     10  H22 UNL     1       2.157  -1.365   1.000  1.00  0.00     0.172 HD
ATOM     11  H21 UNL     1       3.718  -1.663   0.149  1.00  0.00     0.172 HD
ENDBRANCH   8   9
ENDBRANCH   6   8
BRANCH   1  12
HETATM   12  O1  UNL     1      -1.510  -0.316   1.079  1.00  0.00    -0.385 OA
HETATM   13  C1  UNL     1      -1.729  -1.647   1.334  1.00  0.00     0.202 C 
ENDBRANCH   1  12
TORSDOF 3
