REMARK  3 active torsions:
REMARK  status: ('A' for Active; 'I' for Inactive)
REMARK    1  A    between atoms: S1_2  and  C2_3 
REMARK    2  A    between atoms: C2_3  and  C3_4 
REMARK    3  A    between atoms: C3_4  and  N1_5 
ROOT
HETATM    1  C3  UNL     1       0.046  -0.064   0.463  1.00  0.00     0.135 C 
HETATM    2  C4  UNL     1      -0.534  -0.647  -0.794  1.00  0.00     0.067 C 
HETATM    3  C5  UNL     1      -2.032  -0.819  -0.729  1.00  0.00     0.235 C 
HETATM    4  N2  UNL     1      -2.568   0.418  -0.153  1.00  0.00    -0.075 N 
ATOM      5  H21 UNL     1      -3.550   0.577  -0.379  1.00  0.00     0.277 HD
ATOM      6  H22 UNL     1      -2.199   1.262  -0.592  1.00  0.00     0.277 HD
HETATM    7  C6  UNL     1      -2.311   0.351   1.262  1.00  0.00     0.235 C 
HETATM    8  C7  UNL     1      -0.926  -0.039   1.614  1.00  0.00     0.067 C 
ENDROOT
BRANCH   1   9
HETATM    9  C2  UNL     1       1.221  -0.894   0.932  1.00  0.00     0.112 C 
BRANCH   9  10
HETATM   10  S1  UNL     1       2.546  -1.038  -0.247  1.00  0.00    -0.171 SA
HETATM   11  C1  UNL     1       3.393   0.503  -0.551  1.00  0.00     0.089 C 
ENDBRANCH   9  10
ENDBRANCH   1   9
BRANCH   1  12
HETATM   12  N1  UNL     1       0.440   1.291   0.159  1.00  0.00    -0.070 N 
ATOM     13  H13 UNL     1       0.913   1.728   0.950  1.00  0.00     0.275 HD
ATOM     14  H12 UNL     1       1.205   1.314  -0.515  1.00  0.00     0.275 HD
ATOM     15  H11 UNL     1      -0.352   1.851  -0.157  1.00  0.00     0.275 HD
ENDBRANCH   1  12
TORSDOF 3
