REMARK  6 active torsions:
REMARK  status: ('A' for Active; 'I' for Inactive)
REMARK    1  A    between atoms: C2_2  and  C3_7 
REMARK    2  A    between atoms: N1_3  and  O1_5 
REMARK    3  A    between atoms: C4_8  and  O2_9 
REMARK    4  A    between atoms: C7_14  and  S1_15 
REMARK    5  A    between atoms: S1_15  and  N3_16 
REMARK    6  A    between atoms: S1_15  and  N4_19 
ROOT
HETATM    1  C3  UNL     1      -1.430   0.085  -0.042  1.00  0.00     0.091 A 
HETATM    2  C4  UNL     1      -0.749   0.203   1.148  1.00  0.00     0.107 A 
HETATM    3  C5  UNL     1       0.639   0.272   1.190  1.00  0.00     0.117 A 
HETATM    4  C6  UNL     1       1.287   0.385   2.471  1.00  0.00     0.105 C 
HETATM    5  N2  UNL     1       1.791   0.468   3.528  1.00  0.00    -0.191 NA
HETATM    6  C7  UNL     1       1.384   0.224   0.030  1.00  0.00     0.155 A 
HETATM    7  N5  UNL     1       0.702   0.108  -1.120  1.00  0.00    -0.307 N 
HETATM    8  C8  UNL     1       1.417   0.043  -2.373  1.00  0.00     0.160 C 
HETATM    9  C9  UNL     1      -0.647   0.040  -1.177  1.00  0.00     0.263 A 
HETATM   10  O4  UNL     1      -1.241  -0.069  -2.303  1.00  0.00    -0.267 OA
ENDROOT
BRANCH   2  11
HETATM   11  O2  UNL     1      -1.459   0.255   2.327  1.00  0.00    -0.358 OA
ATOM     12  H2  UNL     1      -0.989   0.336   3.148  1.00  0.00     0.217 HD
ENDBRANCH   2  11
BRANCH   6  13
HETATM   13  S1  UNL     1       3.096   0.314   0.058  1.00  0.00     0.148 S 
HETATM   14  O3  UNL     1       3.623   0.977  -1.210  1.00  0.00    -0.222 OA
BRANCH  13  15
HETATM   15  N3  UNL     1       3.661   1.242   1.198  1.00  0.00    -0.340 N 
ATOM     16  H32 UNL     1       3.052   1.736   1.850  1.00  0.00     0.167 HD
ATOM     17  H31 UNL     1       4.679   1.296   1.215  1.00  0.00     0.167 HD
ENDBRANCH  13  15
BRANCH  13  18
HETATM   18  N4  UNL     1       3.877  -1.205   0.196  1.00  0.00    -0.340 N 
ATOM     19  H42 UNL     1       3.354  -2.079   0.255  1.00  0.00     0.167 HD
ATOM     20  H41 UNL     1       4.895  -1.151   0.213  1.00  0.00     0.167 HD
ENDBRANCH  13  18
ENDBRANCH   6  13
BRANCH   1  21
HETATM   21  C2  UNL     1      -2.883   0.009  -0.139  1.00  0.00     0.046 C 
HETATM   22  C1  UNL     1      -3.767   0.052   1.039  1.00  0.00     0.071 C 
HETATM   23  N1  UNL     1      -3.406  -0.101  -1.317  1.00  0.00    -0.273 N 
ATOM     24  H1  UNL     1      -2.785  -0.130  -2.126  1.00  0.00     0.194 HD
BRANCH  23  25
HETATM   25  O1  UNL     1      -4.745  -0.179  -1.524  1.00  0.00    -0.290 OA
ATOM     26  H1  UNL     1      -5.129  -0.260  -2.389  1.00  0.00     0.244 HD
ENDBRANCH  23  25
ENDBRANCH   1  21
TORSDOF 6
