REMARK  5 active torsions:
REMARK  status: ('A' for Active; 'I' for Inactive)
REMARK    1  A    between atoms: O1_2  and  C2_3 
REMARK    2  A    between atoms: C2_3  and  C3_5 
REMARK    3  A    between atoms: C4_6  and  C5_7 
REMARK    4  A    between atoms: C8_19  and  N5_20 
REMARK    5  A    between atoms: N6_23  and  N7_24 
ROOT
HETATM    1  C3  UNL     1       1.090  -0.418   0.459  1.00  0.00     0.171 A 
HETATM    2  C4  UNL     1      -0.001  -1.018  -0.097  1.00  0.00     0.146 A 
HETATM    3  O3  UNL     1       0.279  -2.335  -0.083  1.00  0.00    -0.273 OA
HETATM    4  C8  UNL     1       1.450  -2.540   0.439  1.00  0.00     0.244 A 
HETATM    5  N6  UNL     1       2.010  -1.381   0.799  1.00  0.00    -0.217 N 
ENDROOT
BRANCH   2   6
HETATM    6  C5  UNL     1      -1.222  -0.432  -0.608  1.00  0.00     0.131 A 
HETATM    7  N1  UNL     1      -1.677   0.815  -0.708  1.00  0.00    -0.278 N 
HETATM    8  N2  UNL     1      -2.868   0.888  -1.251  1.00  0.00    -0.237 N 
ATOM      9  H1  UNL     1      -1.152   1.631  -0.394  1.00  0.00     0.189 HD
HETATM   10  C6  UNL     1      -3.684   2.066  -1.524  1.00  0.00     0.200 C 
HETATM   11  N3  UNL     1      -3.273  -0.334  -1.545  1.00  0.00    -0.268 N 
HETATM   12  C7  UNL     1      -2.267  -1.186  -1.156  1.00  0.00     0.146 A 
ATOM     13  H3  UNL     1      -4.160  -0.595  -1.977  1.00  0.00     0.190 HD
HETATM   14  N4  UNL     1      -2.345  -2.437  -1.302  1.00  0.00    -0.382 N 
ATOM     15  H42 UNL     1      -1.598  -3.069  -1.013  1.00  0.00     0.157 HD
ATOM     16  H41 UNL     1      -3.106  -2.986  -1.701  1.00  0.00     0.157 HD
ENDBRANCH   2   6
BRANCH   1  17
HETATM   17  C2  UNL     1       1.338   0.984   0.696  1.00  0.00     0.314 C 
HETATM   18  O2  UNL     1       0.577   1.935   0.429  1.00  0.00    -0.257 OA
BRANCH  17  19
HETATM   19  O1  UNL     1       2.552   1.413   1.294  1.00  0.00    -0.321 OA
HETATM   20  C1  UNL     1       2.815   2.780   1.535  1.00  0.00     0.213 C 
ENDBRANCH  17  19
ENDBRANCH   1  17
BRANCH   5  21
HETATM   21  N7  UNL     1       3.245  -1.149   1.388  1.00  0.00    -0.335 N 
ATOM     22  H72 UNL     1       3.672  -0.265   1.663  1.00  0.00     0.177 HD
ATOM     23  H71 UNL     1       3.928  -1.864   1.640  1.00  0.00     0.177 HD
ENDBRANCH   5  21
BRANCH   4  24
HETATM   24  N5  UNL     1       1.986  -3.721   0.582  1.00  0.00    -0.363 N 
ATOM     25  H52 UNL     1       1.559  -4.605   0.307  1.00  0.00     0.159 HD
ATOM     26  H51 UNL     1       2.906  -3.882   0.992  1.00  0.00     0.159 HD
ENDBRANCH   4  24
TORSDOF 5
