REMARK  6 active torsions:
REMARK  status: ('A' for Active; 'I' for Inactive)
REMARK    1  A    between atoms: O1_2  and  C2_3 
REMARK    2  A    between atoms: C2_3  and  C3_5 
REMARK    3  A    between atoms: C3_5  and  N1_7 
REMARK    4  A    between atoms: C5_8  and  N2_9 
REMARK    5  A    between atoms: N3_12  and  N4_13 
REMARK    6  A    between atoms: C8_19  and  O4_20 
ROOT
HETATM    1  N1  UNL     1       0.012   0.595   0.153  1.00  0.00    -0.150 N 
HETATM    2  C5  UNL     1      -0.727   1.052  -0.865  1.00  0.00     0.704 A 
HETATM    3  N3  UNL     1      -2.024   0.770  -1.048  1.00  0.00    -0.053 N 
HETATM    4  C6  UNL     1      -2.649  -0.026  -0.164  1.00  0.00     0.300 A 
HETATM    5  O3  UNL     1      -3.881  -0.324  -0.294  1.00  0.00    -0.264 OA
HETATM    6  C7  UNL     1      -1.919  -0.522   0.907  1.00  0.00     0.132 A 
HETATM    7  C8  UNL     1      -2.240  -1.349   1.978  1.00  0.00     0.174 A 
HETATM    8  N5  UNL     1      -1.119  -1.488   2.703  1.00  0.00    -0.278 N 
ATOM      9  H5  UNL     1      -1.057  -2.045   3.555  1.00  0.00     0.189 HD
HETATM   10  N6  UNL     1      -0.111  -0.823   2.188  1.00  0.00    -0.282 N 
ATOM     11  H6  UNL     1       0.840  -0.773   2.555  1.00  0.00     0.188 HD
HETATM   12  C9  UNL     1      -0.585  -0.215   1.071  1.00  0.00     0.159 A 
ENDROOT
BRANCH   1  13
HETATM   13  C3  UNL     1       1.382   0.953   0.258  1.00  0.00     0.205 C 
HETATM   14  C4  UNL     1       1.651   1.613   1.564  1.00  0.00     0.044 C 
BRANCH  13  15
HETATM   15  C2  UNL     1       2.324  -0.150  -0.011  1.00  0.00     0.282 C 
HETATM   16  O2  UNL     1       3.206  -0.389   0.856  1.00  0.00    -0.263 OA
BRANCH  15  17
HETATM   17  O1  UNL     1       2.306  -0.930  -1.135  1.00  0.00    -0.325 OA
HETATM   18  C1  UNL     1       3.257  -1.964  -1.297  1.00  0.00     0.213 C 
ENDBRANCH  15  17
ENDBRANCH  13  15
ENDBRANCH   1  13
BRANCH   2  19
HETATM   19  N2  UNL     1      -0.188   1.835  -1.770  1.00  0.00    -0.232 N 
ATOM     20  H22 UNL     1       0.799   2.050  -1.631  1.00  0.00     0.174 HD
ATOM     21  H21 UNL     1      -0.751   2.183  -2.546  1.00  0.00     0.174 HD
ENDBRANCH   2  19
BRANCH   3  22
HETATM   22  N4  UNL     1      -2.761   1.280  -2.142  1.00  0.00    -0.321 N 
ATOM     23  H42 UNL     1      -2.287   1.884  -2.813  1.00  0.00     0.178 HD
ATOM     24  H41 UNL     1      -3.748   1.065  -2.281  1.00  0.00     0.178 HD
ENDBRANCH   3  22
BRANCH   7  25
HETATM   25  O4  UNL     1      -3.481  -1.903   2.221  1.00  0.00    -0.344 OA
ATOM     26  H4  UNL     1      -3.700  -2.468   2.953  1.00  0.00     0.219 HD
ENDBRANCH   7  25
TORSDOF 6
