REMARK  4 active torsions:
REMARK  status: ('A' for Active; 'I' for Inactive)
REMARK    1  A    between atoms: N1_1  and  C1_4 
REMARK    2  A    between atoms: C2_9  and  C3_10 
REMARK    3  A    between atoms: C5_15  and  C6_16 
REMARK    4  A    between atoms: N6_17  and  O1_19 
ROOT
HETATM    1  C3  UNL     1       0.223  -0.543  -0.241  1.00  0.00     0.115 A 
HETATM    2  N4  UNL     1      -0.330  -1.721  -0.703  1.00  0.00    -0.284 N 
ATOM      3  H4  UNL     1       0.186  -2.482  -1.145  1.00  0.00     0.188 HD
HETATM    4  N5  UNL     1      -1.625  -1.707  -0.483  1.00  0.00    -0.198 N 
HETATM    5  C4  UNL     1      -1.983  -0.563   0.113  1.00  0.00     0.143 A 
HETATM    6  C5  UNL     1      -0.801   0.203   0.278  1.00  0.00     0.048 A 
HETATM    7  C7  UNL     1      -3.423  -0.557   0.353  1.00  0.00     0.279 A 
HETATM    8  O2  UNL     1      -4.118   0.347   0.892  1.00  0.00    -0.265 OA
HETATM    9  N7  UNL     1      -3.875  -1.811  -0.163  1.00  0.00    -0.272 N 
ATOM     10  H7  UNL     1      -4.842  -2.135  -0.157  1.00  0.00     0.174 HD
HETATM   11  C8  UNL     1      -2.770  -2.537  -0.685  1.00  0.00     0.349 A 
HETATM   12  O3  UNL     1      -2.806  -3.689  -1.220  1.00  0.00    -0.245 OA
ENDROOT
BRANCH   1  13
HETATM   13  C2  UNL     1       1.634  -0.223  -0.322  1.00  0.00     0.195 A 
HETATM   14  N3  UNL     1       2.545  -1.091  -0.879  1.00  0.00    -0.275 N 
HETATM   15  N2  UNL     1       3.747  -0.577  -0.836  1.00  0.00    -0.263 N 
ATOM     16  H3  UNL     1       2.316  -2.005  -1.270  1.00  0.00     0.189 HD
HETATM   17  C1  UNL     1       3.619   0.633  -0.246  1.00  0.00     0.238 A 
ATOM     18  H2  UNL     1       4.608  -1.003  -1.179  1.00  0.00     0.190 HD
HETATM   19  O4  UNL     1       2.369   0.782   0.029  1.00  0.00    -0.258 OA
BRANCH  17  20
HETATM   20  N1  UNL     1       4.586   1.453  -0.020  1.00  0.00    -0.364 N 
ATOM     21  H12 UNL     1       5.575   1.335  -0.238  1.00  0.00     0.159 HD
ATOM     22  H11 UNL     1       4.489   2.366   0.425  1.00  0.00     0.159 HD
ENDBRANCH  17  20
ENDBRANCH   1  13
BRANCH   6  23
HETATM   23  C6  UNL     1      -0.759   1.514   0.888  1.00  0.00     0.130 C 
HETATM   24  N6  UNL     1       0.238   2.270   1.079  1.00  0.00    -0.280 N 
ATOM     25  H6  UNL     1       1.153   1.939   0.773  1.00  0.00     0.193 HD
BRANCH  24  26
HETATM   26  O1  UNL     1       0.168   3.503   1.670  1.00  0.00    -0.290 OA
ATOM     27  H1  UNL     1       0.916   4.070   1.813  1.00  0.00     0.244 HD
ENDBRANCH  24  26
ENDBRANCH   6  23
TORSDOF 4
