REMARK  5 active torsions:
REMARK  status: ('A' for Active; 'I' for Inactive)
REMARK    1  A    between atoms: O1_2  and  C2_3 
REMARK    2  A    between atoms: C2_3  and  O2_4 
REMARK    3  A    between atoms: C2_3  and  C3_6 
REMARK    4  A    between atoms: C7_14  and  N2_15 
REMARK    5  A    between atoms: N2_15  and  O5_17 
ROOT
HETATM    1  C3  UNL     1      -2.091  -0.520  -0.044  1.00  0.00     0.142 A 
HETATM    2  N1  UNL     1      -1.678  -1.024  -1.215  1.00  0.00    -0.308 N 
ATOM      3  H1  UNL     1      -2.367  -1.417  -1.856  1.00  0.00     0.170 HD
HETATM    4  C4  UNL     1      -0.368  -1.026  -1.572  1.00  0.00     0.265 A 
HETATM    5  O3  UNL     1       0.020  -1.503  -2.679  1.00  0.00    -0.267 OA
HETATM    6  C5  UNL     1       0.564  -0.494  -0.707  1.00  0.00     0.131 A 
HETATM    7  C6  UNL     1       1.910  -0.461  -1.001  1.00  0.00     0.238 A 
HETATM    8  O4  UNL     1       2.344  -0.922  -2.087  1.00  0.00    -0.283 OA
HETATM    9  C7  UNL     1       2.832   0.080  -0.114  1.00  0.00     0.194 A 
HETATM   10  N3  UNL     1       2.315   0.556   1.027  1.00  0.00    -0.279 N 
ATOM     11  H3  UNL     1       2.958   0.961   1.707  1.00  0.00     0.189 HD
HETATM   12  N4  UNL     1       1.029   0.536   1.331  1.00  0.00    -0.283 N 
ATOM     13  H4  UNL     1       0.723   0.923   2.224  1.00  0.00     0.188 HD
HETATM   14  C9  UNL     1       0.114   0.019   0.493  1.00  0.00     0.141 A 
HETATM   15  N5  UNL     1      -1.205   0.005   0.819  1.00  0.00    -0.326 N 
ATOM     16  H5  UNL     1      -1.519   0.389   1.710  1.00  0.00     0.169 HD
ENDROOT
BRANCH   1  17
HETATM   17  C2  UNL     1      -3.542  -0.560   0.264  1.00  0.00     0.325 C 
BRANCH  17  18
HETATM   18  O1  UNL     1      -3.993   0.651   0.787  1.00  0.00    -0.359 OA
HETATM   19  C1  UNL     1      -5.068   1.158   0.087  1.00  0.00     0.205 C 
ENDBRANCH  17  18
BRANCH  17  20
HETATM   20  O2  UNL     1      -3.730  -1.514   1.283  1.00  0.00    -0.365 OA
ATOM     21  H2  UNL     1      -3.423  -2.339   0.927  1.00  0.00     0.213 HD
ENDBRANCH  17  20
ENDBRANCH   1  17
BRANCH   9  22
HETATM   22  N2  UNL     1       4.219   0.121  -0.403  1.00  0.00    -0.244 N 
HETATM   23  C8  UNL     1       5.131   0.697   0.560  1.00  0.00     0.187 C 
BRANCH  22  24
HETATM   24  O5  UNL     1       4.737  -0.358  -1.548  1.00  0.00    -0.286 OA
ATOM     25  H5  UNL     1       5.667  -0.331  -1.742  1.00  0.00     0.244 HD
ENDBRANCH  22  24
ENDBRANCH   9  22
TORSDOF 5
