REMARK  5 active torsions:
REMARK  status: ('A' for Active; 'I' for Inactive)
REMARK    1  A    between atoms: C2_5  and  N3_6 
REMARK    2  A    between atoms: N3_6  and  C3_8 
REMARK    3  A    between atoms: C6_11  and  C7_12 
REMARK    4  A    between atoms: C7_12  and  C8_13 
REMARK    5  A    between atoms: C8_13  and  O1_14 
ROOT
HETATM    1  C3  UNL     1       1.268   0.015  -1.620  1.00  0.00     0.083 C 
HETATM    2  C4  UNL     1       0.431   0.755  -0.625  1.00  0.00     0.025 C 
HETATM    3  C5  UNL     1      -0.630  -0.275  -0.128  1.00  0.00     0.007 C 
HETATM    4  C6  UNL     1      -1.635  -0.296  -1.222  1.00  0.00    -0.009 C 
HETATM    5  C13 UNL     1      -0.944  -0.882  -2.442  1.00  0.00     0.007 C 
HETATM    6  C14 UNL     1       0.511  -1.011  -2.395  1.00  0.00     0.025 C 
ENDROOT
BRANCH   1   7
HETATM    7  N3  UNL     1       2.392  -0.568  -0.909  1.00  0.00    -0.370 N 
ATOM      8  H3  UNL     1       2.374  -1.556  -0.656  1.00  0.00     0.161 HD
BRANCH   7   9
HETATM    9  C2  UNL     1       3.431   0.168  -0.590  1.00  0.00     0.129 A 
HETATM   10  N2  UNL     1       3.564   1.472  -0.871  1.00  0.00    -0.283 N 
HETATM   11  N1  UNL     1       4.743   1.875  -0.394  1.00  0.00    -0.294 N 
ATOM     12  H2  UNL     1       2.885   2.053  -1.362  1.00  0.00     0.189 HD
HETATM   13  C1  UNL     1       5.257   3.241  -0.503  1.00  0.00     0.178 C 
HETATM   14  C20 UNL     1       5.384   0.846   0.197  1.00  0.00     0.067 A 
HETATM   15  C15 UNL     1       4.559  -0.252   0.080  1.00  0.00     0.039 A 
HETATM   16  C19 UNL     1       6.611   0.732   0.835  1.00  0.00     0.076 A 
HETATM   17  C16 UNL     1       4.937  -1.479   0.594  1.00  0.00     0.044 A 
HETATM   18  C17 UNL     1       6.172  -1.573   1.231  1.00  0.00     0.073 A 
HETATM   19 CL1  UNL     1       6.670  -3.116   1.889  1.00  0.00    -0.081 Cl
HETATM   20  C18 UNL     1       6.995  -0.469   1.345  1.00  0.00     0.140 A 
HETATM   21  F1  UNL     1       8.203  -0.543   1.963  1.00  0.00    -0.204 F 
ENDBRANCH   7   9
ENDBRANCH   1   7
BRANCH   4  22
HETATM   22  C7  UNL     1      -2.929  -0.964  -1.034  1.00  0.00     0.073 C 
BRANCH  22  23
HETATM   23  C8  UNL     1      -3.868  -0.512   0.015  1.00  0.00     0.163 C 
HETATM   24  C9  UNL     1      -3.318  -0.798   1.404  1.00  0.00     0.087 C 
HETATM   25  C10 UNL     1      -4.548  -1.184   2.250  1.00  0.00     0.119 C 
HETATM   26  N4  UNL     1      -5.281   0.044   2.459  1.00  0.00    -0.419 N 
HETATM   27  C11 UNL     1      -6.184   0.398   1.419  1.00  0.00     0.140 C 
ATOM     28  H4  UNL     1      -5.159   0.617   3.294  1.00  0.00     0.153 HD
HETATM   29  C12 UNL     1      -5.596   1.007   0.199  1.00  0.00     0.190 C 
HETATM   30  O2  UNL     1      -4.261   0.796  -0.018  1.00  0.00    -0.354 OA
BRANCH  23  31
HETATM   31  O1  UNL     1      -5.022  -1.358  -0.152  1.00  0.00    -0.365 OA
ATOM     32  H1  UNL     1      -5.625  -1.068   0.522  1.00  0.00     0.213 HD
ENDBRANCH  23  31
ENDBRANCH  22  23
ENDBRANCH   4  22
TORSDOF 5
