REMARK  3 active torsions:
REMARK  status: ('A' for Active; 'I' for Inactive)
REMARK    1  A    between atoms: C3_3  and  C4_4 
REMARK    2  A    between atoms: C4_4  and  N1_5 
REMARK    3  A    between atoms: N1_5  and  C5_8 
ROOT
HETATM    1  C4  UNL     1       0.317  -0.277   0.468  1.00  0.00     0.237 C 
ENDROOT
BRANCH   1   2
HETATM    2  C3  UNL     1      -0.972  -0.513  -0.262  1.00  0.00     0.014 C 
HETATM    3  C2  UNL     1      -1.532   0.741  -0.837  1.00  0.00     0.034 C 
HETATM    4  C1  UNL     1      -2.634   1.198   0.142  1.00  0.00     0.232 C 
HETATM    5  N3  UNL     1      -3.764   0.351  -0.069  1.00  0.00    -0.075 N 
HETATM    6  C9  UNL     1      -3.384  -1.041   0.062  1.00  0.00     0.232 C 
ATOM      7  H32 UNL     1      -4.540   0.592   0.548  1.00  0.00     0.277 HD
ATOM      8  H31 UNL     1      -4.217   0.538  -0.963  1.00  0.00     0.277 HD
HETATM    9  C8  UNL     1      -1.989  -1.189   0.619  1.00  0.00     0.034 C 
ENDBRANCH   1   2
BRANCH   1  10
HETATM   10  N1  UNL     1       1.309   0.230  -0.449  1.00  0.00    -0.067 N 
ATOM     11  H12 UNL     1       1.454  -0.411  -1.229  1.00  0.00     0.277 HD
ATOM     12  H11 UNL     1       0.958   1.036  -0.966  1.00  0.00     0.277 HD
BRANCH  10  13
HETATM   13  C5  UNL     1       2.559   0.537   0.219  1.00  0.00     0.236 C 
HETATM   14  C6  UNL     1       3.735   0.446  -0.725  1.00  0.00     0.267 C 
HETATM   15  N2  UNL     1       4.492  -0.151   0.358  1.00  0.00    -0.071 N 
HETATM   16  C7  UNL     1       3.239  -0.602   0.923  1.00  0.00     0.267 C 
ATOM     17  H22 UNL     1       5.246  -0.811   0.167  1.00  0.00     0.277 HD
ATOM     18  H21 UNL     1       5.143   0.407   0.910  1.00  0.00     0.277 HD
ENDBRANCH  10  13
ENDBRANCH   1  10
TORSDOF 3
