REMARK  13 active torsions:
REMARK  status: ('A' for Active; 'I' for Inactive)
REMARK    1  A    between atoms: O1_2  and  C2_3 
REMARK    2  A    between atoms: C5_6  and  O2_7 
REMARK       I    between atoms: N1_9  and  C6_10 
REMARK       I    between atoms: C6_10  and  N4_22 
REMARK    3  A    between atoms: N2_11  and  N3_13 
REMARK    4  A    between atoms: N3_13  and  C7_15 
REMARK    5  A    between atoms: C7_15  and  C8_16 
REMARK    6  A    between atoms: C7_15  and  C9_19 
REMARK    7  A    between atoms: C8_16  and  O3_17 
REMARK    8  A    between atoms: C9_19  and  O4_20 
REMARK    9  A    between atoms: N4_22  and  C10_24 
REMARK   10  A    between atoms: C10_24  and  C11_25 
REMARK   11  A    between atoms: C11_25  and  C12_26 
REMARK   12  A    between atoms: C12_26  and  C13_27 
REMARK   13  A    between atoms: C13_27  and  N5_28 
ROOT
HETATM    1  C2  UNL     1      -3.019   2.725  -0.474  1.00  0.00     0.160 C 
HETATM    2  C3  UNL     1      -1.973   2.402   0.258  1.00  0.00     0.058 C 
HETATM    3  C4  UNL     1      -0.848   3.038   0.961  1.00  0.00     0.114 C 
HETATM    4  C5  UNL     1      -1.007   1.833   1.900  1.00  0.00     0.248 C 
HETATM    5  N1  UNL     1      -1.470   1.150   0.707  1.00  0.00    -0.157 N 
HETATM    6  C6  UNL     1      -1.495  -0.126   0.115  1.00  0.00     0.697 C 
HETATM    7  N2  UNL     1      -2.593  -0.713  -0.176  1.00  0.00    -0.136 N 
ATOM      8  H2  UNL     1      -3.485  -0.258   0.020  1.00  0.00     0.205 HD
HETATM    9  N4  UNL     1      -0.250  -0.756  -0.155  1.00  0.00    -0.225 N 
ATOM     10  H4  UNL     1      -0.198  -1.774  -0.120  1.00  0.00     0.177 HD
ENDROOT
BRANCH   7  11
HETATM   11  N3  UNL     1      -2.566  -1.991  -0.768  1.00  0.00    -0.313 N 
ATOM     12  H3  UNL     1      -1.940  -2.150  -1.557  1.00  0.00     0.181 HD
BRANCH  11  13
HETATM   13  C7  UNL     1      -3.377  -3.074  -0.311  1.00  0.00     0.147 C 
BRANCH  13  14
HETATM   14  C8  UNL     1      -3.107  -3.441   1.132  1.00  0.00     0.193 C 
BRANCH  14  15
HETATM   15  O3  UNL     1      -1.757  -3.828   1.295  1.00  0.00    -0.399 OA
ATOM     16  H3  UNL     1      -1.587  -4.058   2.201  1.00  0.00     0.209 HD
ENDBRANCH  14  15
ENDBRANCH  13  14
BRANCH  13  17
HETATM   17  C9  UNL     1      -4.834  -2.691  -0.420  1.00  0.00     0.193 C 
BRANCH  17  18
HETATM   18  O4  UNL     1      -5.596  -3.752   0.026  1.00  0.00    -0.399 OA
ATOM     19  H4  UNL     1      -6.512  -3.511  -0.043  1.00  0.00     0.209 HD
ENDBRANCH  17  18
ENDBRANCH  13  17
ENDBRANCH  11  13
ENDBRANCH   7  11
BRANCH   9  20
HETATM   20  C10 UNL     1       0.950  -0.006  -0.478  1.00  0.00     0.138 C 
BRANCH  20  21
HETATM   21  C11 UNL     1       2.066  -0.977  -0.701  1.00  0.00     0.022 C 
BRANCH  21  22
HETATM   22  C12 UNL     1       3.376  -0.356  -1.056  1.00  0.00     0.021 C 
BRANCH  22  23
HETATM   23  C13 UNL     1       3.831   0.563   0.052  1.00  0.00     0.122 C 
BRANCH  23  24
HETATM   24  N5  UNL     1       5.116   1.149  -0.307  1.00  0.00    -0.367 N 
HETATM   25  C14 UNL     1       6.175   0.443  -0.100  1.00  0.00     0.196 C 
HETATM   26  N6  UNL     1       6.122  -0.857   0.455  1.00  0.00    -0.067 NA
HETATM   27  N7  UNL     1       7.419   1.064  -0.470  1.00  0.00    -0.067 NA
ATOM     28  H5  UNL     1       5.176   2.085  -0.708  1.00  0.00     0.161 HD
ENDBRANCH  23  24
ENDBRANCH  22  23
ENDBRANCH  21  22
ENDBRANCH  20  21
ENDBRANCH   9  20
BRANCH   4  29
HETATM   29  O2  UNL     1      -2.018   2.095   2.801  1.00  0.00    -0.375 OA
ATOM     30  H2  UNL     1      -2.116   1.350   3.382  1.00  0.00     0.212 HD
ENDBRANCH   4  29
BRANCH   1  31
HETATM   31  O1  UNL     1      -3.336   4.032  -0.802  1.00  0.00    -0.366 OA
HETATM   32  C1  UNL     1      -2.703   5.173  -0.309  1.00  0.00     0.209 C 
ENDBRANCH   1  31
TORSDOF 13
