REMARK  14 active torsions:
REMARK  status: ('A' for Active; 'I' for Inactive)
REMARK    1  A    between atoms: N2_4  and  N3_6 
REMARK       I    between atoms: N3_6  and  C1_8 
REMARK    2  A    between atoms: N5_10  and  N6_12 
REMARK       I    between atoms: N6_12  and  C2_14 
REMARK    3  A    between atoms: C2_14  and  O2_16 
REMARK    4  A    between atoms: O2_16  and  C3_17 
REMARK    5  A    between atoms: C3_17  and  C4_18 
REMARK    6  A    between atoms: C4_18  and  C5_19 
REMARK    7  A    between atoms: C5_19  and  C6_20 
REMARK    8  A    between atoms: C6_20  and  O3_21 
REMARK    9  A    between atoms: O3_21  and  N7_22 
REMARK   10  A    between atoms: C7_23  and  C8_24 
REMARK   11  A    between atoms: C8_24  and  O4_25 
REMARK   12  A    between atoms: C11_29  and  C12_30 
REMARK   13  A    between atoms: C12_30  and  O5_31 
REMARK   14  A    between atoms: O5_31  and  N8_32 
ROOT
HETATM    1  C3  UNL     1       0.937  -0.302   1.735  1.00  0.00     0.180 C 
ENDROOT
BRANCH   1   2
HETATM    2  O2  UNL     1       2.061  -0.743   1.009  1.00  0.00    -0.303 OA
BRANCH   2   3
HETATM    3  C2  UNL     1       3.350  -0.348   1.212  1.00  0.00     0.379 C 
HETATM    4  N6  UNL     1       4.427  -0.860   0.404  1.00  0.00    -0.243 N 
ATOM      5  H6  UNL     1       4.230  -1.533  -0.337  1.00  0.00     0.192 HD
HETATM    6  O1  UNL     1       3.631   0.467   2.101  1.00  0.00    -0.237 OA
BRANCH   4   7
HETATM    7  N5  UNL     1       5.734  -0.441   0.630  1.00  0.00    -0.268 N 
HETATM    8  C1  UNL     1       6.468  -0.126  -0.368  1.00  0.00     0.223 C 
HETATM    9  N3  UNL     1       5.956  -0.203  -1.681  1.00  0.00    -0.258 N 
HETATM   10  N4  UNL     1       7.793   0.299  -0.144  1.00  0.00    -0.061 NA
ATOM     11  H3  UNL     1       5.026   0.160  -1.889  1.00  0.00     0.191 HD
ATOM     12  H5  UNL     1       6.102  -0.386   1.580  1.00  0.00     0.190 HD
BRANCH   9  13
HETATM   13  N2  UNL     1       6.729  -0.780  -2.700  1.00  0.00    -0.247 N 
HETATM   14  N1  UNL     1       7.972  -1.036  -2.509  1.00  0.00    -0.331 N 
ATOM     15  H12 UNL     1       8.386  -0.812  -1.604  1.00  0.00     0.178 HD
ATOM     16  H11 UNL     1       8.534  -1.455  -3.250  1.00  0.00     0.178 HD
ATOM     17  H2  UNL     1       6.300  -0.998  -3.599  1.00  0.00     0.207 HD
ENDBRANCH   9  13
ENDBRANCH   4   7
ENDBRANCH   2   3
ENDBRANCH   1   2
BRANCH   1  18
HETATM   18  C4  UNL     1       0.738   1.174   1.557  1.00  0.00     0.029 C 
BRANCH  18  19
HETATM   19  C5  UNL     1      -0.438   1.725   2.310  1.00  0.00     0.030 C 
BRANCH  19  20
HETATM   20  C6  UNL     1      -1.708   1.037   1.810  1.00  0.00     0.194 C 
BRANCH  20  21
HETATM   21  O3  UNL     1      -1.792   1.291   0.472  1.00  0.00    -0.303 OA
BRANCH  21  22
HETATM   22  N7  UNL     1      -2.828   0.817  -0.150  1.00  0.00    -0.184 NA
HETATM   23  C7  UNL     1      -2.591   0.336  -1.484  1.00  0.00     0.110 C 
HETATM   24  C9  UNL     1      -2.701  -1.165  -1.473  1.00  0.00     0.026 C 
HETATM   25  C10 UNL     1      -3.040  -1.468  -0.032  1.00  0.00     0.026 C 
HETATM   26  C11 UNL     1      -3.572  -0.170   0.546  1.00  0.00     0.113 C 
BRANCH  23  27
HETATM   27  C8  UNL     1      -1.250   0.785  -1.996  1.00  0.00     0.186 C 
BRANCH  27  28
HETATM   28  O4  UNL     1      -1.069   0.295  -3.295  1.00  0.00    -0.399 OA
ATOM     29  H4  UNL     1      -0.222   0.579  -3.618  1.00  0.00     0.209 HD
ENDBRANCH  27  28
ENDBRANCH  23  27
BRANCH  26  30
HETATM   30  C12 UNL     1      -5.055  -0.012   0.180  1.00  0.00     0.222 C 
BRANCH  30  31
HETATM   31  O5  UNL     1      -5.822  -0.963   0.842  1.00  0.00    -0.286 OA
BRANCH  31  32
HETATM   32  N8  UNL     1      -7.124  -0.868   0.555  1.00  0.00    -0.311 N 
ATOM     33  H82 UNL     1      -7.499  -0.167  -0.084  1.00  0.00     0.184 HD
ATOM     34  H81 UNL     1      -7.687  -1.566   1.041  1.00  0.00     0.184 HD
ENDBRANCH  31  32
ENDBRANCH  30  31
ENDBRANCH  26  30
ENDBRANCH  21  22
ENDBRANCH  20  21
ENDBRANCH  19  20
ENDBRANCH  18  19
ENDBRANCH   1  18
TORSDOF 14
