REMARK  12 active torsions:
REMARK  status: ('A' for Active; 'I' for Inactive)
REMARK    1  A    between atoms: N2_4  and  N3_6 
REMARK    2  A    between atoms: N3_6  and  C1_8 
REMARK    3  A    between atoms: C1_8  and  C2_9 
REMARK    4  A    between atoms: C1_8  and  C6_17 
REMARK    5  A    between atoms: C2_9  and  C3_10 
REMARK    6  A    between atoms: C3_10  and  C4_11 
REMARK    7  A    between atoms: C4_11  and  N4_12 
REMARK    8  A    between atoms: C6_17  and  O1_18 
REMARK    9  A    between atoms: C6_17  and  C7_20 
REMARK   10  A    between atoms: N9_25  and  C8_26 
REMARK   11  A    between atoms: C8_26  and  C9_27 
REMARK   12  A    between atoms: C12_30  and  N10_31 
ROOT
HETATM    1  C6  UNL     1       0.554  -0.695  -1.077  1.00  0.00     0.212 C 
ENDROOT
BRANCH   1   2
HETATM    2  C1  UNL     1       1.638  -0.947  -0.046  1.00  0.00     0.137 C 
BRANCH   2   3
HETATM    3  N3  UNL     1       1.315  -0.234   1.153  1.00  0.00    -0.315 N 
ATOM      4  H3  UNL     1       1.194  -0.743   2.029  1.00  0.00     0.182 HD
BRANCH   3   5
HETATM    5  N2  UNL     1       1.165   1.147   1.130  1.00  0.00    -0.253 N 
HETATM    6  N1  UNL     1       0.750   1.816   2.126  1.00  0.00    -0.331 N 
ATOM      7  H12 UNL     1       0.520   1.300   2.975  1.00  0.00     0.178 HD
ATOM      8  H11 UNL     1       0.640   2.830   2.109  1.00  0.00     0.178 HD
ATOM      9  H2  UNL     1       1.399   1.647   0.272  1.00  0.00     0.207 HD
ENDBRANCH   3   5
ENDBRANCH   2   3
BRANCH   2  10
HETATM   10  C2  UNL     1       2.963  -0.501  -0.655  1.00  0.00     0.031 C 
BRANCH  10  11
HETATM   11  C3  UNL     1       4.050  -0.752   0.369  1.00  0.00     0.022 C 
BRANCH  11  12
HETATM   12  C4  UNL     1       5.379  -0.310  -0.227  1.00  0.00     0.122 C 
BRANCH  12  13
HETATM   13  N4  UNL     1       6.430  -0.537   0.724  1.00  0.00    -0.367 N 
HETATM   14  C5  UNL     1       7.607  -0.112   0.486  1.00  0.00     0.196 C 
HETATM   15  N5  UNL     1       7.880   0.579  -0.711  1.00  0.00    -0.067 NA
HETATM   16  N6  UNL     1       8.630  -0.338   1.422  1.00  0.00    -0.067 NA
ATOM     17  H4  UNL     1       6.234  -1.039   1.590  1.00  0.00     0.161 HD
ENDBRANCH  12  13
ENDBRANCH  11  12
ENDBRANCH  10  11
ENDBRANCH   2  10
ENDBRANCH   1   2
BRANCH   1  18
HETATM   18  O1  UNL     1       0.814  -1.365  -2.271  1.00  0.00    -0.386 OA
ATOM     19  H1  UNL     1       0.135  -1.207  -2.917  1.00  0.00     0.210 HD
ENDBRANCH   1  18
BRANCH   1  20
HETATM   20  C7  UNL     1      -0.716  -1.286  -0.540  1.00  0.00     0.144 A 
HETATM   21  N7  UNL     1      -1.054  -2.580  -0.462  1.00  0.00    -0.270 N 
HETATM   22  N8  UNL     1      -2.242  -2.646   0.068  1.00  0.00    -0.225 N 
ATOM     23  H7  UNL     1      -0.484  -3.371  -0.763  1.00  0.00     0.190 HD
HETATM   24  N9  UNL     1      -2.716  -1.422   0.350  1.00  0.00    -0.218 N 
ATOM     25  H8  UNL     1      -2.746  -3.515   0.246  1.00  0.00     0.210 HD
HETATM   26  N11 UNL     1      -1.759  -0.607  -0.034  1.00  0.00    -0.268 N 
ATOM     27  H11 UNL     1      -1.803   0.409   0.042  1.00  0.00     0.190 HD
BRANCH  24  28
HETATM   28  C8  UNL     1      -3.991  -1.169   0.948  1.00  0.00     0.176 C 
BRANCH  28  29
HETATM   29  C9  UNL     1      -5.047  -1.024  -0.120  1.00  0.00     0.009 C 
HETATM   30  C10 UNL     1      -6.359  -0.767   0.641  1.00  0.00     0.008 C 
HETATM   31  C11 UNL     1      -6.235   0.709   0.949  1.00  0.00     0.033 C 
HETATM   32  C12 UNL     1      -5.436   1.322  -0.153  1.00  0.00     0.184 C 
HETATM   33  C13 UNL     1      -4.869   0.185  -0.980  1.00  0.00     0.039 C 
BRANCH  32  34
HETATM   34  N10 UNL     1      -6.293   2.107  -1.020  1.00  0.00    -0.075 N 
ATOM     35 3H10 UNL     1      -7.076   1.560  -1.377  1.00  0.00     0.274 HD
ATOM     36 2H10 UNL     1      -6.822   2.807  -0.499  1.00  0.00     0.274 HD
ATOM     37 1H10 UNL     1      -5.747   2.526  -1.773  1.00  0.00     0.274 HD
ENDBRANCH  32  34
ENDBRANCH  28  29
ENDBRANCH  24  28
ENDBRANCH   1  20
TORSDOF 12
