REMARK  7 active torsions:
REMARK  status: ('A' for Active; 'I' for Inactive)
REMARK    1  A    between atoms: C2_2  and  N1_4 
REMARK    2  A    between atoms: N1_4  and  C4_5 
REMARK    3  A    between atoms: N1_4  and  C11_18 
REMARK    4  A    between atoms: C5_6  and  C6_7 
REMARK    5  A    between atoms: C6_7  and  C7_8 
REMARK    6  A    between atoms: C6_7  and  C10_15 
REMARK    7  A    between atoms: C11_18  and  C12_19 
ROOT
HETATM    1  C4  UNL     1       0.447  -0.628  -0.188  1.00  0.00     0.088 C 
HETATM    2  C5  UNL     1       1.555  -1.039   0.378  1.00  0.00     0.008 C 
ENDROOT
BRANCH   1   3
HETATM    3  N1  UNL     1      -0.811  -0.539   0.511  1.00  0.00    -0.361 N 
BRANCH   3   4
HETATM    4  C2  UNL     1      -1.587  -1.731   0.531  1.00  0.00     0.080 C 
HETATM    5  C1  UNL     1      -2.874  -1.702   1.272  1.00  0.00     0.032 C 
HETATM    6  C3  UNL     1      -1.830  -2.274  -0.875  1.00  0.00     0.032 C 
ENDBRANCH   3   4
BRANCH   3   7
HETATM    7  C11 UNL     1      -1.094   0.738   1.071  1.00  0.00     0.120 C 
BRANCH   7   8
HETATM    8  C12 UNL     1      -2.233   1.463   0.556  1.00  0.00     0.047 A 
HETATM    9  C13 UNL     1      -2.179   2.084  -0.671  1.00  0.00     0.031 A 
HETATM   10  C14 UNL     1      -3.262   2.794  -1.179  1.00  0.00     0.004 A 
HETATM   11  C15 UNL     1      -4.416   2.877  -0.436  1.00  0.00     0.017 A 
HETATM   12  C16 UNL     1      -4.444   2.246   0.787  1.00  0.00     0.088 A 
HETATM   13  N4  UNL     1      -3.376   1.573   1.238  1.00  0.00    -0.365 N 
ATOM     14  H4  UNL     1      -3.440   1.121   2.150  1.00  0.00     0.165 HD
ENDBRANCH   7   8
ENDBRANCH   3   7
ENDBRANCH   1   3
BRANCH   2  15
HETATM   15  C6  UNL     1       2.795  -1.099  -0.410  1.00  0.00     0.142 C 
BRANCH  15  16
HETATM   16  C7  UNL     1       3.675   0.070  -0.162  1.00  0.00     0.094 A 
HETATM   17  N2  UNL     1       4.193   0.438   1.021  1.00  0.00    -0.354 N 
HETATM   18  C8  UNL     1       4.952   1.555   0.882  1.00  0.00     0.106 A 
ATOM     19  H2  UNL     1       4.038  -0.053   1.901  1.00  0.00     0.166 HD
HETATM   20  C9  UNL     1       4.891   1.882  -0.448  1.00  0.00     0.106 A 
HETATM   21  N3  UNL     1       4.115   0.971  -1.052  1.00  0.00    -0.354 N 
ATOM     22  H3  UNL     1       3.891   0.964  -2.047  1.00  0.00     0.166 HD
ENDBRANCH  15  16
BRANCH  15  23
HETATM   23  C10 UNL     1       3.573  -2.378  -0.152  1.00  0.00     0.368 C 
HETATM   24  F1  UNL     1       3.936  -2.503   1.170  1.00  0.00    -0.213 F 
HETATM   25  F2  UNL     1       4.693  -2.359  -0.970  1.00  0.00    -0.213 F 
ENDBRANCH  15  23
ENDBRANCH   2  15
TORSDOF 7
