REMARK  8 active torsions:
REMARK  status: ('A' for Active; 'I' for Inactive)
REMARK    1  A    between atoms: C2_2  and  C5_5 
REMARK    2  A    between atoms: C5_5  and  C6_6 
REMARK    3  A    between atoms: C6_6  and  C7_7 
REMARK    4  A    between atoms: C7_7  and  C8_8 
REMARK    5  A    between atoms: C8_8  and  C9_9 
REMARK    6  A    between atoms: C9_9  and  O1_10 
REMARK    7  A    between atoms: C9_9  and  C14_18 
REMARK    8  A    between atoms: O1_10  and  C10_11 
ROOT
HETATM    1  C9  UNL     1       1.521  -0.865  -1.367  1.00  0.00     0.193 C 
ENDROOT
BRANCH   1   2
HETATM    2  C8  UNL     1       0.262  -0.309  -0.775  1.00  0.00     0.038 C 
BRANCH   2   3
HETATM    3  C7  UNL     1      -0.217  -0.887   0.491  1.00  0.00     0.003 C 
BRANCH   3   4
HETATM    4  C6  UNL     1      -1.476  -0.178   0.929  1.00  0.00     0.001 C 
BRANCH   4   5
HETATM    5  C5  UNL     1      -2.590  -0.294  -0.055  1.00  0.00     0.008 C 
BRANCH   5   6
HETATM    6  C2  UNL     1      -3.824   0.426   0.448  1.00  0.00    -0.051 C 
HETATM    7  C1  UNL     1      -4.332  -0.112   1.745  1.00  0.00     0.014 C 
HETATM    8  C3  UNL     1      -3.541   1.903   0.627  1.00  0.00     0.014 C 
HETATM    9  C4  UNL     1      -4.920   0.300  -0.589  1.00  0.00     0.014 C 
ENDBRANCH   5   6
ENDBRANCH   4   5
ENDBRANCH   3   4
ENDBRANCH   2   3
ENDBRANCH   1   2
BRANCH   1  10
HETATM   10  O1  UNL     1       2.606  -0.719  -0.492  1.00  0.00    -0.373 OA
BRANCH  10  11
HETATM   11  C10 UNL     1       3.547   0.192  -0.923  1.00  0.00     0.149 C 
HETATM   12  C11 UNL     1       3.580   1.415   0.020  1.00  0.00     0.061 C 
HETATM   13  C12 UNL     1       4.609   1.042   1.035  1.00  0.00     0.235 C 
HETATM   14  N1  UNL     1       5.144  -0.255   0.666  1.00  0.00    -0.073 N 
HETATM   15  C13 UNL     1       4.971  -0.261  -0.796  1.00  0.00     0.264 C 
ATOM     16  H12 UNL     1       6.095  -0.435   0.987  1.00  0.00     0.277 HD
ATOM     17  H11 UNL     1       4.724  -1.048   1.152  1.00  0.00     0.277 HD
ENDBRANCH  10  11
ENDBRANCH   1  10
BRANCH   1  18
HETATM   18  C14 UNL     1       1.414  -2.214  -1.982  1.00  0.00     0.281 C 
HETATM   19  F1  UNL     1       0.465  -2.135  -2.997  1.00  0.00    -0.204 F 
HETATM   20 CL1  UNL     1       1.167  -3.538  -0.865  1.00  0.00    -0.063 Cl
HETATM   21 CL2  UNL     1       2.931  -2.614  -2.881  1.00  0.00    -0.063 Cl
ENDBRANCH   1  18
TORSDOF 8
