REMARK  7 active torsions:
REMARK  status: ('A' for Active; 'I' for Inactive)
REMARK    1  A    between atoms: C2_2  and  C3_3 
REMARK    2  A    between atoms: C3_3  and  C4_4 
REMARK    3  A    between atoms: C4_4  and  C5_5 
REMARK    4  A    between atoms: C5_5  and  N1_6 
REMARK    5  A    between atoms: N1_6  and  C6_9 
REMARK    6  A    between atoms: C11_17  and  C13_19 
REMARK    7  A    between atoms: C13_19  and  C14_20 
ROOT
HETATM    1  C6  UNL     1       0.323  -0.492  -0.523  1.00  0.00     0.195 C 
HETATM    2  C7  UNL     1       0.080  -0.950   0.851  1.00  0.00     0.109 C 
HETATM    3  C8  UNL     1      -1.242  -1.541   1.061  1.00  0.00     0.085 A 
HETATM    4  N2  UNL     1      -1.621  -2.531   1.895  1.00  0.00    -0.354 N 
ATOM      5  H2  UNL     1      -0.997  -3.038   2.523  1.00  0.00     0.166 HD
HETATM    6  C9  UNL     1      -2.930  -2.749   1.778  1.00  0.00     0.106 A 
HETATM    7  C10 UNL     1      -3.352  -1.842   0.825  1.00  0.00     0.110 A 
HETATM    8  N3  UNL     1      -2.338  -1.105   0.384  1.00  0.00    -0.336 N 
HETATM    9  C11 UNL     1      -2.181  -0.057  -0.607  1.00  0.00     0.042 C 
HETATM   10  C12 UNL     1      -3.251  -0.297  -1.653  1.00  0.00     0.039 C 
HETATM   11  C16 UNL     1      -0.863  -0.347  -1.369  1.00  0.00     0.064 C 
ENDROOT
BRANCH   1  12
HETATM   12  N1  UNL     1       1.156   0.717  -0.571  1.00  0.00    -0.070 N 
ATOM     13  H12 UNL     1       0.691   1.502  -0.115  1.00  0.00     0.277 HD
ATOM     14  H11 UNL     1       1.211   1.088  -1.520  1.00  0.00     0.277 HD
BRANCH  12  15
HETATM   15  C5  UNL     1       2.450   0.507  -0.030  1.00  0.00     0.233 C 
BRANCH  15  16
HETATM   16  C4  UNL     1       3.355  -0.393  -0.814  1.00  0.00     0.031 C 
BRANCH  16  17
HETATM   17  C3  UNL     1       4.680  -0.494  -0.081  1.00  0.00     0.028 C 
BRANCH  17  18
HETATM   18  C2  UNL     1       5.344   0.816   0.079  1.00  0.00    -0.037 C 
HETATM   19  C1  UNL     1       6.548   1.047  -0.442  1.00  0.00     0.007 C 
ENDBRANCH  17  18
ENDBRANCH  16  17
ENDBRANCH  15  16
ENDBRANCH  12  15
ENDBRANCH   1  12
BRANCH   9  20
HETATM   20  C13 UNL     1      -2.115   1.286  -0.063  1.00  0.00     0.109 C 
BRANCH  20  21
HETATM   21  C14 UNL     1      -3.180   1.920   0.712  1.00  0.00     0.242 C 
HETATM   22  C15 UNL     1      -3.603   1.291   2.005  1.00  0.00     0.090 C 
HETATM   23  F1  UNL     1      -4.301   2.265  -0.048  1.00  0.00    -0.207 F 
HETATM   24  F2  UNL     1      -2.688   3.197   1.081  1.00  0.00    -0.207 F 
ENDBRANCH  20  21
ENDBRANCH   9  20
TORSDOF 7
