REMARK  11 active torsions:
REMARK  status: ('A' for Active; 'I' for Inactive)
REMARK    1  A    between atoms: C2_2  and  N1_3 
REMARK    2  A    between atoms: C2_2  and  C23_40 
REMARK    3  A    between atoms: N1_3  and  C3_5 
REMARK    4  A    between atoms: C3_5  and  C4_6 
REMARK    5  A    between atoms: C3_5  and  C8_16 
REMARK    6  A    between atoms: C4_6  and  C5_7 
REMARK    7  A    between atoms: C5_7  and  C6_8 
REMARK    8  A    between atoms: C6_8  and  N2_9 
REMARK       I    between atoms: N2_9  and  C7_11 
REMARK       I    between atoms: C8_16  and  N5_18 
REMARK       I    between atoms: N6_24  and  C14_25 
REMARK    9  A    between atoms: C14_25  and  C15_27 
REMARK   10  A    between atoms: C15_27  and  N7_28 
REMARK   11  A    between atoms: C15_27  and  C16_32 
ROOT
HETATM    1  C8  UNL     1      -1.452  -0.523   0.895  1.00  0.00     0.257 C 
HETATM    2  O1  UNL     1      -0.954  -0.512   2.086  1.00  0.00    -0.270 OA
HETATM    3  N5  UNL     1      -0.569  -0.460  -0.212  1.00  0.00    -0.261 N 
HETATM    4  C9  UNL     1      -0.869  -0.493  -1.601  1.00  0.00     0.156 C 
HETATM    5  C10 UNL     1       0.503  -0.702  -2.259  1.00  0.00     0.046 C 
HETATM    6  C11 UNL     1       0.891   0.627  -2.828  1.00  0.00     0.011 C 
HETATM    7  C12 UNL     1       2.333   1.003  -2.561  1.00  0.00     0.020 C 
HETATM    8  C13 UNL     1       3.163  -0.285  -2.504  1.00  0.00     0.127 C 
HETATM    9  N6  UNL     1       2.773  -0.983  -1.309  1.00  0.00    -0.330 N 
HETATM   10  C14 UNL     1       3.638  -1.475  -0.325  1.00  0.00     0.252 C 
HETATM   11  O2  UNL     1       3.151  -2.133   0.671  1.00  0.00    -0.271 OA
HETATM   12  C22 UNL     1       1.343  -1.184  -1.127  1.00  0.00     0.207 C 
HETATM   13  N8  UNL     1       0.843  -0.359  -0.035  1.00  0.00    -0.110 NA
ENDROOT
BRANCH   1  14
HETATM   14  C3  UNL     1      -2.933  -0.607   0.783  1.00  0.00     0.171 C 
BRANCH  14  15
HETATM   15  N1  UNL     1      -3.338  -1.588   1.746  1.00  0.00    -0.405 N 
ATOM     16  H1  UNL     1      -2.666  -2.052   2.357  1.00  0.00     0.154 HD
BRANCH  15  17
HETATM   17  C2  UNL     1      -4.733  -1.878   1.801  1.00  0.00     0.077 C 
HETATM   18  C1  UNL     1      -4.954  -2.891   2.893  1.00  0.00     0.032 C 
BRANCH  17  19
HETATM   19  C23 UNL     1      -5.124  -2.486   0.475  1.00  0.00     0.007 C 
HETATM   20  C24 UNL     1      -4.399  -3.709   0.028  1.00  0.00     0.007 C 
HETATM   21  C25 UNL     1      -5.726  -4.176  -0.595  1.00  0.00     0.001 C 
HETATM   22  C26 UNL     1      -6.402  -3.278   0.454  1.00  0.00     0.007 C 
ENDBRANCH  17  19
ENDBRANCH  15  17
ENDBRANCH  14  15
BRANCH  14  23
HETATM   23  C4  UNL     1      -3.509   0.745   1.028  1.00  0.00     0.036 C 
BRANCH  23  24
HETATM   24  C5  UNL     1      -3.087   1.771   0.025  1.00  0.00     0.022 C 
BRANCH  24  25
HETATM   25  C6  UNL     1      -3.667   3.127   0.277  1.00  0.00     0.122 C 
BRANCH  25  26
HETATM   26  N2  UNL     1      -3.206   4.031  -0.731  1.00  0.00    -0.365 N 
HETATM   27  C7  UNL     1      -3.620   5.385  -0.704  1.00  0.00     0.181 C 
HETATM   28  N3  UNL     1      -4.835   5.712  -0.432  1.00  0.00    -0.374 N 
HETATM   29  N4  UNL     1      -2.712   6.450  -0.975  1.00  0.00    -0.064 NA
ATOM     30  H32 UNL     1      -5.485   4.950  -0.238  1.00  0.00     0.158 HD
ATOM     31  H31 UNL     1      -5.133   6.687  -0.413  1.00  0.00     0.158 HD
ATOM     32  H2  UNL     1      -2.581   3.702  -1.467  1.00  0.00     0.162 HD
ENDBRANCH  25  26
ENDBRANCH  24  25
ENDBRANCH  23  24
ENDBRANCH  14  23
ENDBRANCH   1  14
BRANCH  10  33
HETATM   33  C15 UNL     1       5.091  -1.319  -0.303  1.00  0.00     0.278 C 
BRANCH  33  34
HETATM   34  N7  UNL     1       5.724  -2.589   0.139  1.00  0.00    -0.066 N 
ATOM     35  H73 UNL     1       5.358  -2.909   1.036  1.00  0.00     0.275 HD
ATOM     36  H72 UNL     1       5.431  -3.383  -0.431  1.00  0.00     0.275 HD
ATOM     37  H71 UNL     1       6.738  -2.480   0.154  1.00  0.00     0.275 HD
ENDBRANCH  33  34
BRANCH  33  38
HETATM   38  C16 UNL     1       5.557  -0.231   0.637  1.00  0.00     0.025 C 
HETATM   39  C17 UNL     1       7.063  -0.179   0.569  1.00  0.00     0.007 C 
HETATM   40  C18 UNL     1       7.590   1.201   0.895  1.00  0.00     0.000 C 
HETATM   41  C19 UNL     1       6.680   1.806   1.936  1.00  0.00     0.000 C 
HETATM   42  C20 UNL     1       5.386   2.178   1.247  1.00  0.00     0.000 C 
HETATM   43  C21 UNL     1       4.906   1.056   0.340  1.00  0.00     0.007 C 
ENDBRANCH  33  38
ENDBRANCH  10  33
TORSDOF 11
