REMARK  8 active torsions:
REMARK  status: ('A' for Active; 'I' for Inactive)
REMARK    1  A    between atoms: N1_1  and  C1_4 
REMARK    2  A    between atoms: N5_11  and  C2_12 
REMARK    3  A    between atoms: C2_12  and  C3_13 
REMARK    4  A    between atoms: C3_13  and  C4_14 
REMARK    5  A    between atoms: C5_17  and  C6_18 
REMARK    6  A    between atoms: N7_19  and  N8_21 
REMARK    7  A    between atoms: N8_21  and  C7_23 
REMARK    8  A    between atoms: C10_32  and  O1_33 
ROOT
HETATM    1  C4  UNL     1       2.443  -1.658  -1.116  1.00  0.00     0.110 A 
HETATM    2  N6  UNL     1       1.287  -1.408  -0.478  1.00  0.00    -0.346 N 
ATOM      3  H6  UNL     1       1.151  -0.552   0.060  1.00  0.00     0.166 HD
HETATM    4  C5  UNL     1       0.310  -2.342  -0.580  1.00  0.00     0.109 A 
HETATM    5  C10 UNL     1       0.500  -3.499  -1.310  1.00  0.00     0.215 A 
HETATM    6  O2  UNL     1       1.641  -3.724  -1.928  1.00  0.00    -0.248 OA
HETATM    7  C11 UNL     1       2.605  -2.821  -1.838  1.00  0.00     0.317 A 
HETATM    8  O3  UNL     1       3.718  -3.005  -2.420  1.00  0.00    -0.257 OA
ENDROOT
BRANCH   4   9
HETATM    9  C6  UNL     1      -0.977  -2.141   0.087  1.00  0.00     0.142 C 
HETATM   10  N7  UNL     1      -1.202  -1.078   0.780  1.00  0.00    -0.295 N 
ATOM     11  H7  UNL     1      -0.462  -0.380   0.853  1.00  0.00     0.186 HD
BRANCH  10  12
HETATM   12  N8  UNL     1      -2.395  -0.841   1.426  1.00  0.00    -0.131 N 
ATOM     13  H8  UNL     1      -2.665  -1.478   2.176  1.00  0.00     0.205 HD
BRANCH  12  14
HETATM   14  C7  UNL     1      -3.280   0.237   1.117  1.00  0.00     0.707 C 
HETATM   15  N9  UNL     1      -2.982   1.476   1.302  1.00  0.00    -0.135 N 
HETATM   16  N10 UNL     1      -3.892   2.482   0.980  1.00  0.00    -0.321 N 
ATOM     17  H9  UNL     1      -2.071   1.724   1.688  1.00  0.00     0.205 HD
HETATM   18  C8  UNL     1      -4.871   2.306  -0.071  1.00  0.00     0.160 C 
ATOM     19  H10 UNL     1      -3.867   3.361   1.497  1.00  0.00     0.180 HD
HETATM   20  C9  UNL     1      -5.187   0.866  -0.342  1.00  0.00     0.159 C 
HETATM   21  N11 UNL     1      -4.559  -0.056   0.578  1.00  0.00    -0.222 N 
ATOM     22  H11 UNL     1      -5.036  -0.918   0.840  1.00  0.00     0.177 HD
ENDBRANCH  12  14
ENDBRANCH  10  12
ENDBRANCH   4   9
BRANCH   5  23
HETATM   23  O1  UNL     1      -0.554  -4.420  -1.371  1.00  0.00    -0.339 OA
ATOM     24  H1  UNL     1      -0.423  -5.216  -1.873  1.00  0.00     0.220 HD
ENDBRANCH   5  23
BRANCH   1  25
HETATM   25  C3  UNL     1       3.562  -0.694  -1.059  1.00  0.00     0.056 C 
BRANCH  25  26
HETATM   26  C2  UNL     1       3.453   0.434  -0.380  1.00  0.00     0.139 C 
BRANCH  26  27
HETATM   27  N5  UNL     1       4.534   1.351  -0.332  1.00  0.00    -0.081 N 
HETATM   28  C1  UNL     1       4.509   2.525   0.335  1.00  0.00     0.713 A 
HETATM   29  N2  UNL     1       5.714   3.101   0.138  1.00  0.00    -0.115 N 
HETATM   30  N3  UNL     1       6.450   2.323  -0.614  1.00  0.00    -0.213 N 
ATOM     31  H2  UNL     1       6.005   4.002   0.516  1.00  0.00     0.207 HD
HETATM   32  N4  UNL     1       5.711   1.252  -0.895  1.00  0.00    -0.207 N 
ATOM     33  H3  UNL     1       7.405   2.502  -0.925  1.00  0.00     0.210 HD
ATOM     34  H4  UNL     1       6.019   0.466  -1.468  1.00  0.00     0.211 HD
BRANCH  28  35
HETATM   35  N1  UNL     1       3.530   3.004   1.026  1.00  0.00    -0.231 N 
ATOM     36  H12 UNL     1       3.511   3.891   1.530  1.00  0.00     0.174 HD
ATOM     37  H11 UNL     1       2.620   2.569   1.175  1.00  0.00     0.174 HD
ENDBRANCH  28  35
ENDBRANCH  26  27
ENDBRANCH  25  26
ENDBRANCH   1  25
TORSDOF 8
