REMARK  8 active torsions:
REMARK  status: ('A' for Active; 'I' for Inactive)
REMARK    1  A    between atoms: C7_7  and  N1_8 
REMARK       I    between atoms: N1_8  and  C8_10 
REMARK    2  A    between atoms: C8_10  and  C9_12 
REMARK    3  A    between atoms: C9_12  and  O2_13 
REMARK    4  A    between atoms: O2_13  and  C10_14 
REMARK    5  A    between atoms: C10_14  and  C11_16 
REMARK    6  A    between atoms: C11_16  and  S1_17 
REMARK    7  A    between atoms: S1_17  and  C12_18 
REMARK    8  A    between atoms: C13_21  and  C14_22 
ROOT
HETATM    1  N1  UNL     1      -0.169   0.212  -0.155  1.00  0.00    -0.325 N 
ATOM      2  H1  UNL     1       0.057  -0.107   0.787  1.00  0.00     0.169 HD
HETATM    3  C8  UNL     1       0.877   0.744  -0.886  1.00  0.00     0.246 C 
HETATM    4  O1  UNL     1       0.763   1.190  -2.036  1.00  0.00    -0.271 OA
ENDROOT
BRANCH   1   5
HETATM    5  C7  UNL     1      -1.513   0.059  -0.560  1.00  0.00     0.046 A 
HETATM    6  C6  UNL     1      -1.800   0.017  -1.906  1.00  0.00     0.031 A 
HETATM    7  C5  UNL     1      -3.103  -0.271  -2.314  1.00  0.00     0.011 A 
HETATM    8  C4  UNL     1      -4.087  -0.510  -1.367  1.00  0.00    -0.042 A 
HETATM    9  C3  UNL     1      -5.373  -0.981  -1.936  1.00  0.00     0.078 C 
HETATM   10  C25 UNL     1      -3.847  -0.470  -0.010  1.00  0.00    -0.000 A 
HETATM   11  C2  UNL     1      -6.534  -0.832  -1.047  1.00  0.00    -0.050 C 
HETATM   12  C1  UNL     1      -7.730  -0.624  -1.540  1.00  0.00     0.020 C 
HETATM   13  C26 UNL     1      -6.303  -0.869   0.405  1.00  0.00     0.013 C 
HETATM   14  C24 UNL     1      -4.923  -0.657   0.853  1.00  0.00     0.057 C 
HETATM   15  C27 UNL     1      -7.239  -1.207   1.244  1.00  0.00     0.201 C 
HETATM   16  C23 UNL     1      -4.881  -0.545   2.254  1.00  0.00     0.262 C 
HETATM   17  N3  UNL     1      -3.850  -0.893   3.080  1.00  0.00    -0.285 N 
HETATM   18  O5  UNL     1      -5.884  -0.073   2.827  1.00  0.00    -0.267 OA
HETATM   19  C21 UNL     1      -2.554  -0.669   2.767  1.00  0.00     0.250 C 
HETATM   20  C22 UNL     1      -4.193  -1.505   4.343  1.00  0.00     0.163 C 
HETATM   21  C20 UNL     1      -2.015  -0.039   1.638  1.00  0.00     0.089 C 
HETATM   22  O4  UNL     1      -1.738  -1.086   3.608  1.00  0.00    -0.268 OA
HETATM   23  C19 UNL     1      -2.519  -0.177   0.357  1.00  0.00     0.008 A 
HETATM   24  F1  UNL     1      -8.487  -1.539   0.781  1.00  0.00    -0.218 F 
ENDBRANCH   1   5
BRANCH   3  25
HETATM   25  C9  UNL     1       2.258   0.803  -0.290  1.00  0.00     0.281 C 
BRANCH  25  26
HETATM   26  O2  UNL     1       3.123   1.514  -1.162  1.00  0.00    -0.311 OA
BRANCH  26  27
HETATM   27  C10 UNL     1       2.881   2.863  -1.369  1.00  0.00     0.269 C 
HETATM   28  O3  UNL     1       1.903   3.410  -0.755  1.00  0.00    -0.264 OA
BRANCH  27  29
HETATM   29  C11 UNL     1       3.705   3.695  -2.265  1.00  0.00     0.192 C 
BRANCH  29  30
HETATM   30  S1  UNL     1       5.308   4.143  -1.558  1.00  0.00    -0.095 SA
BRANCH  30  31
HETATM   31  C12 UNL     1       6.374   2.682  -1.511  1.00  0.00     0.112 A 
HETATM   32  N2  UNL     1       6.525   1.763  -0.589  1.00  0.00    -0.344 N 
HETATM   33  C13 UNL     1       7.366   0.788  -0.769  1.00  0.00     0.057 A 
ATOM     34  H2  UNL     1       5.981   1.813   0.272  1.00  0.00     0.167 HD
HETATM   35  C18 UNL     1       8.071   0.768  -1.945  1.00  0.00     0.083 A 
HETATM   36  S3  UNL     1       7.483   2.161  -2.732  1.00  0.00    -0.075 SA
BRANCH  33  37
HETATM   37  C14 UNL     1       7.554  -0.274   0.259  1.00  0.00     0.032 A 
HETATM   38  C15 UNL     1       8.382  -1.357   0.199  1.00  0.00     0.021 A 
HETATM   39  C16 UNL     1       8.387  -2.191   1.252  1.00  0.00     0.008 A 
HETATM   40  C17 UNL     1       7.561  -1.885   2.299  1.00  0.00     0.050 A 
HETATM   41  S2  UNL     1       6.804  -0.446   1.782  1.00  0.00    -0.100 SA
ENDBRANCH  33  37
ENDBRANCH  30  31
ENDBRANCH  29  30
ENDBRANCH  27  29
ENDBRANCH  26  27
ENDBRANCH  25  26
ENDBRANCH   3  25
TORSDOF 8
