REMARK  13 active torsions:
REMARK  status: ('A' for Active; 'I' for Inactive)
REMARK       I    between atoms: N1_2  and  C2_4 
REMARK    1  A    between atoms: C2_4  and  C3_6 
REMARK    2  A    between atoms: C3_6  and  C4_7 
REMARK    3  A    between atoms: C4_7  and  C5_8 
REMARK    4  A    between atoms: C4_7  and  C24_32 
REMARK    5  A    between atoms: C5_8  and  C6_9 
REMARK    6  A    between atoms: C6_9  and  C7_10 
REMARK    7  A    between atoms: C6_9  and  C12_16 
REMARK    8  A    between atoms: C7_10  and  C8_11 
REMARK    9  A    between atoms: C10_13  and  C11_14 
REMARK   10  A    between atoms: C12_16  and  C13_17 
REMARK   11  A    between atoms: C16_22  and  C17_23 
REMARK   12  A    between atoms: C17_23  and  O4_25 
REMARK       I    between atoms: C24_32  and  N3_34 
REMARK   13  A    between atoms: N3_34  and  C25_36 
ROOT
HETATM    1  C6  UNL     1       0.136  -1.110   0.933  1.00  0.00    -0.004 C 
ENDROOT
BRANCH   1   2
HETATM    2  C5  UNL     1      -1.253  -1.495   1.272  1.00  0.00     0.020 C 
BRANCH   2   3
HETATM    3  C4  UNL     1      -2.211  -1.785   0.178  1.00  0.00     0.087 C 
BRANCH   3   4
HETATM    4  C3  UNL     1      -3.527  -2.179   0.870  1.00  0.00     0.117 C 
BRANCH   4   5
HETATM    5  C2  UNL     1      -4.573  -2.517  -0.110  1.00  0.00     0.217 C 
HETATM    6  N1  UNL     1      -5.874  -2.819   0.355  1.00  0.00    -0.365 N 
HETATM    7  C1  UNL     1      -6.902  -3.150  -0.591  1.00  0.00     0.149 C 
ATOM      8  H1  UNL     1      -6.080  -2.802   1.354  1.00  0.00     0.161 HD
HETATM    9  O1  UNL     1      -4.312  -2.537  -1.326  1.00  0.00    -0.274 OA
ENDBRANCH   4   5
ENDBRANCH   3   4
BRANCH   3  10
HETATM   10  C24 UNL     1      -2.619  -0.522  -0.584  1.00  0.00     0.226 C 
HETATM   11  O5  UNL     1      -2.436  -0.526  -1.830  1.00  0.00    -0.273 OA
HETATM   12  N3  UNL     1      -3.156   0.542   0.103  1.00  0.00    -0.327 N 
ATOM     13  H3  UNL     1      -3.258   0.431   1.112  1.00  0.00     0.169 HD
BRANCH  12  14
HETATM   14  C25 UNL     1      -3.578   1.765  -0.442  1.00  0.00     0.034 A 
HETATM   15  C26 UNL     1      -3.305   2.204  -1.718  1.00  0.00     0.030 A 
HETATM   16  C27 UNL     1      -3.782   3.438  -2.189  1.00  0.00     0.009 A 
HETATM   17  C28 UNL     1      -4.541   4.267  -1.407  1.00  0.00    -0.062 A 
HETATM   18  C29 UNL     1      -5.064   5.570  -1.860  1.00  0.00     0.048 C 
HETATM   19  C30 UNL     1      -4.819   3.833  -0.124  1.00  0.00     0.009 A 
HETATM   20  C31 UNL     1      -4.361   2.635   0.345  1.00  0.00     0.030 A 
ENDBRANCH  12  14
ENDBRANCH   3  10
ENDBRANCH   2   3
ENDBRANCH   1   2
BRANCH   1  21
HETATM   21  C7  UNL     1       0.884  -2.122   0.140  1.00  0.00     0.039 C 
BRANCH  21  22
HETATM   22  C8  UNL     1       0.985  -3.433   0.838  1.00  0.00    -0.081 C 
HETATM   23  C9  UNL     1       1.650  -3.515   2.149  1.00  0.00     0.043 C 
HETATM   24  C10 UNL     1       0.480  -4.499   0.273  1.00  0.00     0.043 C 
BRANCH  24  25
HETATM   25  C11 UNL     1       0.530  -5.826   0.878  1.00  0.00     0.259 C 
HETATM   26  O2  UNL     1       0.025  -6.811   0.285  1.00  0.00    -0.302 OA
ENDBRANCH  24  25
ENDBRANCH  21  22
ENDBRANCH   1  21
BRANCH   1  27
HETATM   27  C12 UNL     1       0.384   0.276   0.512  1.00  0.00     0.062 C 
BRANCH  27  28
HETATM   28  C13 UNL     1       1.779   0.642   0.166  1.00  0.00     0.017 A 
HETATM   29  N2  UNL     1       2.654   1.128   1.095  1.00  0.00    -0.358 N 
HETATM   30  C14 UNL     1       3.861   1.344   0.554  1.00  0.00     0.044 A 
ATOM     31  H2  UNL     1       2.420   1.304   2.072  1.00  0.00     0.166 HD
HETATM   32  C15 UNL     1       5.065   1.822   1.071  1.00  0.00     0.048 A 
HETATM   33  C21 UNL     1       3.743   0.981  -0.769  1.00  0.00    -0.002 A 
HETATM   34  C16 UNL     1       6.154   1.932   0.246  1.00  0.00     0.041 A 
HETATM   35  C19 UNL     1       6.014   1.561  -1.084  1.00  0.00     0.018 A 
HETATM   36  C20 UNL     1       4.832   1.087  -1.612  1.00  0.00     0.015 A 
HETATM   37  C22 UNL     1       2.469   0.549  -1.019  1.00  0.00    -0.027 A 
HETATM   38  C23 UNL     1       1.904   0.099  -2.337  1.00  0.00     0.051 C 
BRANCH  34  39
HETATM   39  C17 UNL     1       7.450   2.428   0.734  1.00  0.00     0.293 C 
HETATM   40  O3  UNL     1       7.558   2.758   1.940  1.00  0.00    -0.259 OA
BRANCH  39  41
HETATM   41  O4  UNL     1       8.563   2.550  -0.076  1.00  0.00    -0.323 OA
HETATM   42  C18 UNL     1       9.807   3.034   0.426  1.00  0.00     0.213 C 
ENDBRANCH  39  41
ENDBRANCH  34  39
ENDBRANCH  27  28
ENDBRANCH   1  27
TORSDOF 13
