REMARK  10 active torsions:
REMARK  status: ('A' for Active; 'I' for Inactive)
REMARK    1  A    between atoms: C2_2  and  C3_3 
REMARK    2  A    between atoms: C3_3  and  S1_4 
REMARK    3  A    between atoms: S1_4  and  C4_5 
REMARK    4  A    between atoms: C4_5  and  C5_7 
REMARK    5  A    between atoms: C5_7  and  C6_8 
REMARK    6  A    between atoms: C5_7  and  S2_13 
REMARK    7  A    between atoms: C6_8  and  C7_9 
REMARK    8  A    between atoms: C7_9  and  O3_11 
REMARK    9  A    between atoms: S2_13  and  C9_14 
REMARK   10  A    between atoms: N2_26  and  C18_27 
ROOT
HETATM    1  C9  UNL     1       2.384  -1.530  -0.617  1.00  0.00     0.148 A 
HETATM    2  N1  UNL     1       1.592  -2.565  -0.288  1.00  0.00    -0.330 N 
ATOM      3  H1  UNL     1       2.021  -3.470  -0.096  1.00  0.00     0.168 HD
HETATM    4  C10 UNL     1       0.231  -2.448  -0.201  1.00  0.00     0.093 A 
HETATM    5  S3  UNL     1      -1.014  -3.552   0.171  1.00  0.00    -0.070 SA
HETATM    6  C11 UNL     1      -2.341  -2.486   0.014  1.00  0.00     0.036 A 
HETATM    7  C12 UNL     1      -3.708  -2.682   0.182  1.00  0.00     0.009 A 
HETATM    8  C13 UNL     1      -4.107  -3.943   0.459  1.00  0.00     0.015 A 
HETATM    9  C14 UNL     1      -5.478  -4.197   0.574  1.00  0.00     0.001 A 
HETATM   10  C15 UNL     1      -6.378  -3.174   0.404  1.00  0.00     0.002 A 
HETATM   11  C16 UNL     1      -5.941  -1.880   0.118  1.00  0.00     0.031 A 
HETATM   12  C17 UNL     1      -4.601  -1.608   0.005  1.00  0.00     0.050 A 
HETATM   13  N2  UNL     1      -4.055  -0.431  -0.313  1.00  0.00    -0.303 N 
HETATM   14  C24 UNL     1      -2.692  -0.258  -0.485  1.00  0.00     0.261 A 
HETATM   15  O4  UNL     1      -2.382   0.897  -0.802  1.00  0.00    -0.267 OA
HETATM   16  C25 UNL     1      -1.779  -1.290  -0.325  1.00  0.00     0.069 A 
HETATM   17  C26 UNL     1      -0.410  -1.267  -0.442  1.00  0.00     0.083 A 
HETATM   18  C27 UNL     1       0.428  -0.189  -0.786  1.00  0.00     0.261 A 
HETATM   19  O5  UNL     1       0.056   0.965  -1.044  1.00  0.00    -0.267 OA
HETATM   20  N3  UNL     1       1.764  -0.377  -0.854  1.00  0.00    -0.303 N 
ATOM     21  H3  UNL     1       2.341   0.426  -1.106  1.00  0.00     0.171 HD
ENDROOT
BRANCH   1  22
HETATM   22  S2  UNL     1       4.156  -1.712  -0.739  1.00  0.00    -0.080 SA
BRANCH  22  23
HETATM   23  C5  UNL     1       4.917  -0.185  -1.277  1.00  0.00     0.145 C 
BRANCH  23  24
HETATM   24  C4  UNL     1       4.775   0.848  -0.223  1.00  0.00     0.201 C 
HETATM   25  O1  UNL     1       4.648   0.457   0.938  1.00  0.00    -0.284 OA
BRANCH  24  26
HETATM   26  S1  UNL     1       4.791   2.604  -0.633  1.00  0.00    -0.088 SA
BRANCH  26  27
HETATM   27  C3  UNL     1       4.462   3.524   0.888  1.00  0.00     0.108 C 
BRANCH  27  28
HETATM   28  C2  UNL     1       5.588   3.446   1.844  1.00  0.00    -0.026 C 
HETATM   29  C1  UNL     1       6.719   2.796   1.572  1.00  0.00     0.007 C 
ENDBRANCH  27  28
ENDBRANCH  26  27
ENDBRANCH  24  26
ENDBRANCH  23  24
BRANCH  23  30
HETATM   30  C6  UNL     1       6.314  -0.336  -1.770  1.00  0.00     0.135 C 
BRANCH  30  31
HETATM   31  C7  UNL     1       7.305  -0.719  -0.760  1.00  0.00     0.259 C 
HETATM   32  O2  UNL     1       8.206   0.045  -0.345  1.00  0.00    -0.265 OA
BRANCH  31  33
HETATM   33  O3  UNL     1       7.250  -2.015  -0.217  1.00  0.00    -0.326 OA
HETATM   34  C8  UNL     1       8.222  -2.340   0.756  1.00  0.00     0.213 C 
ENDBRANCH  31  33
ENDBRANCH  30  31
ENDBRANCH  23  30
ENDBRANCH  22  23
ENDBRANCH   1  22
BRANCH  13  35
HETATM   35  C18 UNL     1      -4.869   0.775  -0.333  1.00  0.00     0.037 C 
HETATM   36  C19 UNL     1      -4.880   1.381  -1.735  1.00  0.00     0.039 C 
HETATM   37  C20 UNL     1      -3.987   1.779   0.485  1.00  0.00     0.031 C 
HETATM   38  C21 UNL     1      -4.913   2.442   1.526  1.00  0.00     0.002 C 
HETATM   39  C22 UNL     1      -6.179   2.472   0.762  1.00  0.00     0.002 C 
HETATM   40  C23 UNL     1      -6.111   0.931   0.385  1.00  0.00     0.031 C 
ENDBRANCH  13  35
TORSDOF 10
