REMARK  18 active torsions:
REMARK  status: ('A' for Active; 'I' for Inactive)
REMARK    1  A    between atoms: N1_1  and  C1_4 
REMARK    2  A    between atoms: C2_9  and  N4_10 
REMARK    3  A    between atoms: N4_10  and  C3_12 
REMARK    4  A    between atoms: C3_12  and  C4_13 
REMARK    5  A    between atoms: C4_13  and  C5_14 
REMARK    6  A    between atoms: C8_17  and  C9_18 
REMARK    7  A    between atoms: C10_19  and  C11_20 
REMARK    8  A    between atoms: C11_20  and  C12_21 
REMARK    9  A    between atoms: C11_20  and  C29_42 
REMARK   10  A    between atoms: C12_21  and  N5_22 
REMARK   11  A    between atoms: C15_25  and  C16_26 
REMARK   12  A    between atoms: C16_26  and  O1_27 
REMARK   13  A    between atoms: C16_26  and  N6_29 
REMARK   14  A    between atoms: N7_45  and  C32_46 
REMARK   15  A    between atoms: C32_46  and  C33_47 
REMARK   16  A    between atoms: C33_47  and  C34_48 
REMARK   17  A    between atoms: C34_48  and  C35_49 
REMARK   18  A    between atoms: C35_49  and  N8_50 
ROOT
HETATM    1  C11 UNL     1      -0.160  -1.850  -0.259  1.00  0.00     0.135 C 
ENDROOT
BRANCH   1   2
HETATM    2  C10 UNL     1      -1.370  -2.694  -0.457  1.00  0.00    -0.088 C 
HETATM    3  C9  UNL     1      -2.374  -3.338  -0.600  1.00  0.00    -0.066 C 
BRANCH   3   4
HETATM    4  C8  UNL     1      -3.611  -4.065  -0.753  1.00  0.00     0.017 A 
HETATM    5  C7  UNL     1      -4.563  -3.542  -1.620  1.00  0.00     0.021 A 
HETATM    6  C6  UNL     1      -5.777  -4.162  -1.777  1.00  0.00     0.009 A 
HETATM    7  C5  UNL     1      -6.106  -5.315  -1.096  1.00  0.00    -0.057 A 
HETATM    8  C40 UNL     1      -5.162  -5.846  -0.230  1.00  0.00     0.009 A 
HETATM    9  C39 UNL     1      -3.930  -5.209  -0.075  1.00  0.00     0.021 A 
BRANCH   7  10
HETATM   10  C4  UNL     1      -7.423  -5.924  -1.276  1.00  0.00     0.058 C 
BRANCH  10  11
HETATM   11  C3  UNL     1      -8.442  -5.375  -0.294  1.00  0.00     0.142 C 
BRANCH  11  12
HETATM   12  N4  UNL     1      -9.706  -6.027  -0.550  1.00  0.00    -0.224 N 
ATOM     13  H4  UNL     1      -9.696  -6.932  -1.020  1.00  0.00     0.177 HD
BRANCH  12  14
HETATM   14  C2  UNL     1     -10.836  -5.529  -0.219  1.00  0.00     0.707 A 
HETATM   15  N3  UNL     1     -12.028  -6.097  -0.437  1.00  0.00    -0.117 N 
HETATM   16  N2  UNL     1     -12.992  -5.296   0.042  1.00  0.00    -0.118 N 
ATOM     17  H3  UNL     1     -12.180  -6.996  -0.895  1.00  0.00     0.206 HD
HETATM   18  C1  UNL     1     -12.366  -4.229   0.556  1.00  0.00     0.705 A 
ATOM     19  H2  UNL     1     -13.998  -5.465   0.019  1.00  0.00     0.206 HD
HETATM   20  N12 UNL     1     -11.029  -4.355   0.403  1.00  0.00    -0.020 N 
ATOM     21  H12 UNL     1     -10.312  -3.693   0.700  1.00  0.00     0.203 HD
BRANCH  18  22
HETATM   22  N1  UNL     1     -12.979  -3.226   1.124  1.00  0.00    -0.233 N 
ATOM     23  H12 UNL     1     -13.988  -3.131   1.239  1.00  0.00     0.174 HD
ATOM     24  H11 UNL     1     -12.502  -2.414   1.515  1.00  0.00     0.174 HD
ENDBRANCH  18  22
ENDBRANCH  12  14
ENDBRANCH  11  12
ENDBRANCH  10  11
ENDBRANCH   7  10
ENDBRANCH   3   4
ENDBRANCH   1   2
BRANCH   1  25
HETATM   25  C12 UNL     1       0.522  -1.550  -1.579  1.00  0.00     0.151 C 
BRANCH  25  26
HETATM   26  N5  UNL     1       1.704  -0.733  -1.326  1.00  0.00    -0.365 N 
HETATM   27  C13 UNL     1       1.685   0.603  -1.297  1.00  0.00     0.091 A 
HETATM   28  C14 UNL     1       2.800   1.338  -1.058  1.00  0.00     0.033 A 
HETATM   29  C15 UNL     1       4.051   0.704  -0.827  1.00  0.00     0.018 A 
HETATM   30  C27 UNL     1       4.042  -0.664  -0.863  1.00  0.00     0.033 A 
HETATM   31  C28 UNL     1       2.862  -1.381  -1.114  1.00  0.00     0.091 A 
BRANCH  29  32
HETATM   32  C16 UNL     1       5.175   1.530  -0.480  1.00  0.00     0.152 C 
BRANCH  32  33
HETATM   33  O1  UNL     1       4.770   2.689   0.057  1.00  0.00    -0.345 OA
ATOM     34  H1  UNL     1       5.513   3.235   0.286  1.00  0.00     0.219 HD
ENDBRANCH  32  33
BRANCH  32  35
HETATM   35  N6  UNL     1       6.544   1.382  -0.588  1.00  0.00    -0.341 N 
HETATM   36  C17 UNL     1       7.095   0.251  -1.217  1.00  0.00     0.066 C 
HETATM   37  C18 UNL     1       7.719  -0.810  -0.374  1.00  0.00     0.050 C 
HETATM   38  C19 UNL     1       9.164  -0.771  -0.144  1.00  0.00    -0.005 C 
HETATM   39  C20 UNL     1      10.110  -0.171  -1.104  1.00  0.00     0.010 C 
HETATM   40  C25 UNL     1       9.648   0.158   0.914  1.00  0.00    -0.006 C 
HETATM   41  C21 UNL     1      10.419   0.928  -0.108  1.00  0.00    -0.009 C 
HETATM   42  C22 UNL     1       9.681   2.195  -0.389  1.00  0.00     0.011 C 
HETATM   43  C23 UNL     1       8.536   2.291   0.584  1.00  0.00     0.005 C 
HETATM   44  C24 UNL     1       8.625   1.088   1.467  1.00  0.00     0.011 C 
HETATM   45  C26 UNL     1       7.207   2.556   0.004  1.00  0.00     0.135 C 
ENDBRANCH  32  35
ENDBRANCH  29  32
ENDBRANCH  25  26
ENDBRANCH   1  25
BRANCH   1  46
HETATM   46  C29 UNL     1      -0.646  -0.575   0.372  1.00  0.00     0.045 A 
HETATM   47  C30 UNL     1      -0.022  -0.079   1.484  1.00  0.00     0.047 A 
HETATM   48  C31 UNL     1      -0.480   1.098   2.090  1.00  0.00     0.113 A 
HETATM   49  N7  UNL     1      -1.537   1.691   1.527  1.00  0.00    -0.289 N 
HETATM   50  N10 UNL     1      -2.119   1.163   0.430  1.00  0.00    -0.241 N 
HETATM   51  N11 UNL     1      -1.704   0.062  -0.150  1.00  0.00    -0.289 N 
ATOM     52  H10 UNL     1      -2.924   1.645   0.031  1.00  0.00     0.208 HD
ATOM     53  H11 UNL     1      -2.175  -0.301  -0.979  1.00  0.00     0.188 HD
BRANCH  49  54
HETATM   54  C32 UNL     1      -2.073   2.916   2.082  1.00  0.00     0.150 C 
BRANCH  54  55
HETATM   55  C33 UNL     1      -1.394   4.107   1.416  1.00  0.00     0.023 C 
BRANCH  55  56
HETATM   56  C34 UNL     1      -1.991   5.342   2.025  1.00  0.00     0.022 C 
BRANCH  56  57
HETATM   57  C35 UNL     1      -1.393   6.587   1.432  1.00  0.00     0.129 C 
BRANCH  57  58
HETATM   58  N8  UNL     1      -1.624   6.673  -0.010  1.00  0.00    -0.352 N 
HETATM   59  C36 UNL     1      -2.711   7.253  -0.590  1.00  0.00     0.108 A 
HETATM   60  C37 UNL     1      -2.597   7.155  -1.944  1.00  0.00     0.106 A 
HETATM   61  N9  UNL     1      -1.439   6.513  -2.187  1.00  0.00    -0.361 N 
HETATM   62  C38 UNL     1      -0.862   6.228  -1.011  1.00  0.00     0.182 A 
ATOM     63  H9  UNL     1      -1.065   6.283  -3.108  1.00  0.00     0.166 HD
ENDBRANCH  57  58
ENDBRANCH  56  57
ENDBRANCH  55  56
ENDBRANCH  54  55
ENDBRANCH  49  54
ENDBRANCH   1  46
TORSDOF 18
