REMARK  13 active torsions:
REMARK  status: ('A' for Active; 'I' for Inactive)
REMARK    1  A    between atoms: C3_3  and  N1_4 
REMARK    2  A    between atoms: N1_4  and  C4_5 
REMARK    3  A    between atoms: C4_5  and  C5_6 
REMARK    4  A    between atoms: C20_26  and  N5_27 
REMARK    5  A    between atoms: C20_26  and  C32_46 
REMARK       I    between atoms: N5_27  and  C21_29 
REMARK    6  A    between atoms: C21_29  and  C22_31 
REMARK    7  A    between atoms: C22_31  and  C23_32 
REMARK    8  A    between atoms: C23_32  and  C24_33 
REMARK    9  A    between atoms: C24_33  and  N6_34 
REMARK   10  A    between atoms: N6_34  and  C25_36 
REMARK   11  A    between atoms: C25_36  and  C26_40 
REMARK       I    between atoms: C32_46  and  N8_48 
REMARK   12  A    between atoms: N8_48  and  C33_50 
REMARK   13  A    between atoms: C33_50  and  C34_51 
ROOT
HETATM    1  C1  UNL     1       1.825  -1.579  -3.344  1.00  0.00     0.013 C 
HETATM    2  C2  UNL     1       0.717  -1.382  -2.919  1.00  0.00    -0.089 C 
HETATM    3  C3  UNL     1      -0.606  -1.191  -2.440  1.00  0.00     0.336 C 
ENDROOT
BRANCH   3   4
HETATM    4  N1  UNL     1      -0.992  -0.027  -1.787  1.00  0.00    -0.025 N 
HETATM    5  C16 UNL     1      -1.093   0.900  -3.024  1.00  0.00     0.273 C 
HETATM    6  C17 UNL     1       0.327   1.281  -3.151  1.00  0.00     0.014 C 
HETATM    7  C18 UNL     1       0.885   1.267  -1.952  1.00  0.00     0.020 C 
HETATM    8  C19 UNL     1       2.049   1.455  -1.104  1.00  0.00     0.195 C 
HETATM    9  C41 UNL     1      -0.223   0.856  -1.056  1.00  0.00     0.236 C 
HETATM   10  O1  UNL     1       3.204   1.580  -1.524  1.00  0.00    -0.289 OA
HETATM   11  C20 UNL     1       1.576   1.468   0.334  1.00  0.00     0.181 C 
HETATM   12  C40 UNL     1       0.264   0.718   0.295  1.00  0.00     0.088 C 
BRANCH   4  13
HETATM   13  C4  UNL     1      -2.385   0.001  -1.392  1.00  0.00     0.216 C 
BRANCH  13  14
HETATM   14  C5  UNL     1      -2.938  -0.823  -0.377  1.00  0.00    -0.005 A 
HETATM   15  C6  UNL     1      -2.304  -1.736   0.390  1.00  0.00     0.016 A 
HETATM   16  C7  UNL     1      -2.930  -2.513   1.377  1.00  0.00     0.033 A 
HETATM   17  C8  UNL     1      -4.276  -2.366   1.614  1.00  0.00     0.062 A 
HETATM   18  N2  UNL     1      -5.216  -2.898   2.437  1.00  0.00    -0.296 N 
HETATM   19  C11 UNL     1      -4.940  -1.440   0.843  1.00  0.00     0.045 A 
HETATM   20  N3  UNL     1      -6.411  -2.328   2.190  1.00  0.00    -0.280 N 
ATOM     21  H2  UNL     1      -5.043  -3.620   3.136  1.00  0.00     0.187 HD
HETATM   22  C9  UNL     1      -7.676  -2.583   2.819  1.00  0.00     0.179 C 
HETATM   23  C10 UNL     1      -6.255  -1.410   1.191  1.00  0.00     0.132 A 
HETATM   24  N4  UNL     1      -7.082  -0.500   0.486  1.00  0.00    -0.369 N 
HETATM   25  C14 UNL     1      -6.466   0.544  -0.260  1.00  0.00     0.128 C 
HETATM   26  C15 UNL     1      -8.527  -0.687   0.568  1.00  0.00     0.151 C 
HETATM   27  C13 UNL     1      -5.153   0.268  -0.874  1.00  0.00     0.060 C 
HETATM   28  C12 UNL     1      -4.334  -0.697  -0.104  1.00  0.00    -0.029 A 
ENDBRANCH  13  14
ENDBRANCH   4  13
BRANCH  11  29
HETATM   29  N5  UNL     1       2.589   0.813   1.147  1.00  0.00    -0.337 N 
HETATM   30  C21 UNL     1       3.031  -0.500   1.048  1.00  0.00     0.218 C 
HETATM   31  O2  UNL     1       2.554  -1.268   0.191  1.00  0.00    -0.274 OA
ATOM     32  H5  UNL     1       3.024   1.383   1.872  1.00  0.00     0.164 HD
BRANCH  30  33
HETATM   33  C22 UNL     1       4.075  -1.006   1.962  1.00  0.00     0.104 C 
BRANCH  33  34
HETATM   34  C23 UNL     1       4.488  -2.413   1.765  1.00  0.00     0.029 C 
BRANCH  34  35
HETATM   35  C24 UNL     1       5.087  -2.763   0.446  1.00  0.00     0.121 C 
BRANCH  35  36
HETATM   36  N6  UNL     1       5.428  -4.184   0.459  1.00  0.00    -0.376 N 
ATOM     37  H6  UNL     1       5.236  -4.745   1.289  1.00  0.00     0.161 HD
BRANCH  36  38
HETATM   38  C25 UNL     1       6.022  -4.784  -0.673  1.00  0.00     0.104 C 
HETATM   39  N7  UNL     1       5.280  -5.272  -1.593  1.00  0.00    -0.385 N 
ATOM     40  H72 UNL     1       4.267  -5.214  -1.486  1.00  0.00     0.157 HD
ATOM     41  H71 UNL     1       5.709  -5.705  -2.411  1.00  0.00     0.157 HD
BRANCH  38  42
HETATM   42  C26 UNL     1       7.484  -4.868  -0.827  1.00  0.00     0.007 A 
HETATM   43  C27 UNL     1       8.333  -4.361   0.120  1.00  0.00     0.015 A 
HETATM   44  C28 UNL     1       9.711  -4.410   0.037  1.00  0.00     0.001 A 
HETATM   45  C29 UNL     1      10.249  -5.011  -1.078  1.00  0.00     0.000 A 
HETATM   46  C30 UNL     1       9.443  -5.536  -2.057  1.00  0.00     0.001 A 
HETATM   47  C31 UNL     1       8.054  -5.464  -1.931  1.00  0.00     0.015 A 
ENDBRANCH  38  42
ENDBRANCH  36  38
ENDBRANCH  35  36
ENDBRANCH  34  35
ENDBRANCH  33  34
ENDBRANCH  30  33
ENDBRANCH  11  29
BRANCH  11  48
HETATM   48  C32 UNL     1       1.469   2.875   0.739  1.00  0.00     0.254 C 
HETATM   49  O3  UNL     1       2.575   3.461   1.025  1.00  0.00    -0.270 OA
HETATM   50  N8  UNL     1       0.295   3.631   0.847  1.00  0.00    -0.353 N 
ATOM     51  H8  UNL     1      -0.607   3.204   0.636  1.00  0.00     0.162 HD
BRANCH  50  52
HETATM   52  C33 UNL     1       0.361   5.033   1.262  1.00  0.00     0.179 C 
BRANCH  52  53
HETATM   53  C34 UNL     1      -0.964   5.670   1.331  1.00  0.00     0.028 A 
HETATM   54  C35 UNL     1      -2.060   4.942   1.723  1.00  0.00     0.027 A 
HETATM   55  C36 UNL     1      -3.309   5.572   1.775  1.00  0.00     0.003 A 
HETATM   56  C37 UNL     1      -3.446   6.898   1.441  1.00  0.00     0.017 A 
HETATM   57  C38 UNL     1      -2.311   7.578   1.056  1.00  0.00     0.090 A 
HETATM   58  N9  UNL     1      -1.094   6.963   1.005  1.00  0.00    -0.363 N 
HETATM   59  C39 UNL     1       0.042   7.775   0.584  1.00  0.00     0.155 C 
ENDBRANCH  52  53
ENDBRANCH  50  52
ENDBRANCH  11  48
ENDBRANCH   3   4
TORSDOF 13
