REMARK  14 active torsions:
REMARK  status: ('A' for Active; 'I' for Inactive)
REMARK       I    between atoms: C1_4  and  N3_6 
REMARK       I    between atoms: N3_6  and  C2_8 
REMARK    1  A    between atoms: C2_8  and  C3_10 
REMARK    2  A    between atoms: C3_10  and  C4_11 
REMARK    3  A    between atoms: C7_14  and  C8_15 
REMARK    4  A    between atoms: C8_15  and  C9_16 
REMARK    5  A    between atoms: C9_16  and  C10_17 
REMARK    6  A    between atoms: N4_20  and  C13_21 
REMARK    7  A    between atoms: C13_21  and  C14_22 
REMARK    8  A    between atoms: C17_25  and  C18_26 
REMARK    9  A    between atoms: C19_27  and  N5_28 
REMARK   10  A    between atoms: N5_28  and  C20_29 
REMARK   11  A    between atoms: C20_29  and  C21_30 
REMARK   12  A    between atoms: C21_30  and  S1_31 
REMARK   13  A    between atoms: N6_41  and  C27_42 
REMARK   14  A    between atoms: C27_42  and  C28_43 
ROOT
HETATM    1  C14 UNL     1      -0.631  -1.860  -0.207  1.00  0.00    -0.040 A 
HETATM    2  C15 UNL     1      -1.494  -1.010  -0.875  1.00  0.00     0.009 A 
HETATM    3  C16 UNL     1      -2.620  -0.517  -0.283  1.00  0.00     0.010 A 
HETATM    4  C17 UNL     1      -2.986  -0.816   0.999  1.00  0.00    -0.032 A 
HETATM    5  C34 UNL     1      -2.090  -1.681   1.650  1.00  0.00     0.010 A 
HETATM    6  C35 UNL     1      -0.962  -2.188   1.088  1.00  0.00     0.009 A 
ENDROOT
BRANCH   1   7
HETATM    7  C13 UNL     1       0.595  -2.411  -0.813  1.00  0.00     0.166 C 
BRANCH   7   8
HETATM    8  N4  UNL     1       1.763  -1.587  -0.566  1.00  0.00    -0.362 N 
HETATM    9  C12 UNL     1       2.508  -1.821   0.529  1.00  0.00     0.091 A 
HETATM   10  C11 UNL     1       3.612  -1.027   0.745  1.00  0.00     0.024 A 
HETATM   11  C10 UNL     1       3.952  -0.018  -0.130  1.00  0.00    -0.052 A 
HETATM   12  C37 UNL     1       3.165   0.192  -1.242  1.00  0.00     0.024 A 
HETATM   13  C36 UNL     1       2.065  -0.612  -1.441  1.00  0.00     0.091 A 
BRANCH  11  14
HETATM   14  C9  UNL     1       5.168   0.813   0.159  1.00  0.00     0.068 C 
BRANCH  14  15
HETATM   15  C8  UNL     1       6.366   0.209  -0.496  1.00  0.00     0.007 C 
BRANCH  15  16
HETATM   16  C7  UNL     1       7.574   0.572  -0.141  1.00  0.00     0.029 A 
HETATM   17  C6  UNL     1       7.934   1.487   0.808  1.00  0.00     0.031 A 
HETATM   18  C5  UNL     1       9.324   1.548   0.840  1.00  0.00     0.032 A 
HETATM   19  C4  UNL     1       9.802   0.664  -0.096  1.00  0.00     0.037 A 
HETATM   20  N7  UNL     1       8.703   0.087  -0.675  1.00  0.00    -0.356 N 
ATOM     21  H7  UNL     1       8.739  -0.617  -1.413  1.00  0.00     0.166 HD
BRANCH  19  22
HETATM   22  C3  UNL     1      11.030   0.384  -0.419  1.00  0.00     0.104 C 
BRANCH  22  23
HETATM   23  C2  UNL     1      12.180   0.986   0.181  1.00  0.00     0.249 C 
HETATM   24  N3  UNL     1      13.487   0.585  -0.272  1.00  0.00    -0.298 N 
HETATM   25  C1  UNL     1      14.668   1.139   0.276  1.00  0.00     0.188 C 
ATOM     26  H3  UNL     1      13.563  -0.117  -1.008  1.00  0.00     0.171 HD
HETATM   27  N1  UNL     1      15.820   0.749  -0.161  1.00  0.00    -0.373 N 
HETATM   28  N2  UNL     1      14.590   2.127   1.311  1.00  0.00    -0.064 NA
ATOM     29  H12 UNL     1      16.671   1.148   0.234  1.00  0.00     0.158 HD
ATOM     30  H11 UNL     1      15.876   0.046  -0.898  1.00  0.00     0.158 HD
HETATM   31  O1  UNL     1      12.145   1.859   1.094  1.00  0.00    -0.268 OA
ENDBRANCH  22  23
ENDBRANCH  19  22
ENDBRANCH  15  16
ENDBRANCH  14  15
ENDBRANCH  11  14
ENDBRANCH   7   8
ENDBRANCH   1   7
BRANCH   4  32
HETATM   32  C18 UNL     1      -4.150  -0.353   1.716  1.00  0.00     0.165 C 
HETATM   33  C19 UNL     1      -5.503  -0.805   1.536  1.00  0.00     0.309 C 
HETATM   34  C26 UNL     1      -5.852   0.563   1.994  1.00  0.00     0.258 C 
HETATM   35  O5  UNL     1      -6.865   1.104   2.478  1.00  0.00    -0.271 OA
HETATM   36  N6  UNL     1      -4.534   1.055   1.659  1.00  0.00    -0.314 N 
BRANCH  33  37
HETATM   37  N5  UNL     1      -6.175  -1.236   0.392  1.00  0.00    -0.051 N 
HETATM   38  C22 UNL     1      -6.278  -0.479  -0.775  1.00  0.00     0.238 A 
HETATM   39  C23 UNL     1      -6.006  -1.384  -1.984  1.00  0.00     0.030 A 
HETATM   40  C24 UNL     1      -5.633  -2.713  -1.415  1.00  0.00     0.030 A 
HETATM   41  C25 UNL     1      -5.717  -2.572   0.060  1.00  0.00     0.238 A 
BRANCH  37  42
HETATM   42  C20 UNL     1      -7.576  -1.437   0.848  1.00  0.00     0.256 C 
BRANCH  42  43
HETATM   43  C21 UNL     1      -8.429  -2.152  -0.124  1.00  0.00     0.193 C 
BRANCH  43  44
HETATM   44  S1  UNL     1     -10.068  -2.278   0.619  1.00  0.00     0.103 S 
HETATM   45  O2  UNL     1      -9.933  -2.976   1.943  1.00  0.00    -0.595 OA
HETATM   46  O3  UNL     1     -10.981  -3.079  -0.238  1.00  0.00    -0.595 OA
HETATM   47  O4  UNL     1     -10.686  -0.746   0.928  1.00  0.00    -0.595 OA
ENDBRANCH  43  44
ENDBRANCH  42  43
ENDBRANCH  37  42
ENDBRANCH  33  37
BRANCH  36  48
HETATM   48  C27 UNL     1      -4.055   2.378   1.469  1.00  0.00     0.106 C 
BRANCH  48  49
HETATM   49  C28 UNL     1      -4.217   3.013   0.177  1.00  0.00    -0.021 A 
HETATM   50  C29 UNL     1      -3.150   3.261  -0.658  1.00  0.00     0.013 A 
HETATM   51  C30 UNL     1      -3.285   3.879  -1.890  1.00  0.00     0.001 A 
HETATM   52  C31 UNL     1      -4.533   4.266  -2.312  1.00  0.00     0.000 A 
HETATM   53  C32 UNL     1      -5.627   4.031  -1.497  1.00  0.00     0.001 A 
HETATM   54  C33 UNL     1      -5.456   3.420  -0.288  1.00  0.00     0.013 A 
ENDBRANCH  48  49
ENDBRANCH  36  48
ENDBRANCH   4  32
TORSDOF 14
