REMARK  11 active torsions:
REMARK  status: ('A' for Active; 'I' for Inactive)
REMARK    1  A    between atoms: C2_2  and  N1_3 
REMARK    2  A    between atoms: N1_3  and  C3_4 
REMARK    3  A    between atoms: N1_3  and  C5_6 
REMARK    4  A    between atoms: C5_6  and  O1_7 
REMARK    5  A    between atoms: C5_6  and  C6_9 
REMARK    6  A    between atoms: C6_9  and  N2_10 
REMARK    7  A    between atoms: N2_10  and  C7_12 
REMARK    8  A    between atoms: C7_12  and  O2_13 
REMARK    9  A    between atoms: C7_12  and  C8_15 
REMARK   10  A    between atoms: C9_16  and  C10_17 
REMARK   11  A    between atoms: C10_17  and  O3_18 
ROOT
HETATM    1  C7  UNL     1       0.162   0.354  -0.127  1.00  0.00     0.143 C 
ENDROOT
BRANCH   1   2
HETATM    2  N2  UNL     1      -0.784   1.336  -0.036  1.00  0.00    -0.354 N 
ATOM      3  H2  UNL     1      -0.463   2.279   0.185  1.00  0.00     0.162 HD
BRANCH   2   4
HETATM    4  C6  UNL     1      -2.244   1.138  -0.234  1.00  0.00     0.097 C 
HETATM    5  C21 UNL     1      -2.551   0.767  -1.619  1.00  0.00     0.040 C 
HETATM    6  C22 UNL     1      -2.227   2.101  -2.400  1.00  0.00     0.003 C 
HETATM    7  C23 UNL     1      -2.784   3.147  -1.461  1.00  0.00     0.003 C 
HETATM    8  C24 UNL     1      -2.846   2.548  -0.073  1.00  0.00     0.040 C 
BRANCH   4   9
HETATM    9  C5  UNL     1      -2.770   0.276   0.810  1.00  0.00     0.142 C 
BRANCH   9  10
HETATM   10  N1  UNL     1      -4.034  -0.259   1.038  1.00  0.00    -0.364 N 
BRANCH  10  11
HETATM   11  C2  UNL     1      -4.195  -1.072   2.281  1.00  0.00     0.120 C 
HETATM   12  C1  UNL     1      -3.896  -2.512   2.023  1.00  0.00     0.026 C 
ENDBRANCH  10  11
BRANCH  10  13
HETATM   13  C3  UNL     1      -5.206  -0.180   0.242  1.00  0.00     0.120 C 
HETATM   14  C4  UNL     1      -5.396  -1.361  -0.710  1.00  0.00     0.026 C 
ENDBRANCH  10  13
ENDBRANCH   9  10
BRANCH   9  15
HETATM   15  O1  UNL     1      -1.888  -0.081   1.748  1.00  0.00    -0.348 OA
ATOM     16  H1  UNL     1      -1.025   0.284   1.592  1.00  0.00     0.219 HD
ENDBRANCH   9  15
ENDBRANCH   4   9
ENDBRANCH   2   4
ENDBRANCH   1   2
BRANCH   1  17
HETATM   17  O2  UNL     1      -0.484  -0.803  -0.447  1.00  0.00    -0.346 OA
ATOM     18  H2  UNL     1       0.174  -1.486  -0.510  1.00  0.00     0.219 HD
ENDBRANCH   1  17
BRANCH   1  19
HETATM   19  C8  UNL     1       1.547   0.066  -0.020  1.00  0.00     0.001 C 
HETATM   20  C9  UNL     1       2.547   0.849   0.270  1.00  0.00    -0.027 C 
HETATM   21  C12 UNL     1       4.033   0.711   0.436  1.00  0.00    -0.012 C 
HETATM   22  C13 UNL     1       4.799  -0.355  -0.146  1.00  0.00     0.010 C 
HETATM   23  C14 UNL     1       5.419  -1.380   0.774  1.00  0.00     0.013 C 
HETATM   24  C19 UNL     1       3.903  -1.186  -0.977  1.00  0.00     0.018 C 
HETATM   25  C15 UNL     1       4.529  -2.455   1.219  1.00  0.00    -0.012 C 
HETATM   26  C16 UNL     1       3.196  -1.811   1.465  1.00  0.00     0.014 C 
HETATM   27  C20 UNL     1       3.669  -3.169   0.172  1.00  0.00     0.014 C 
HETATM   28  C17 UNL     1       3.019  -1.854   0.004  1.00  0.00    -0.035 C 
HETATM   29  C18 UNL     1       1.728  -1.457  -0.306  1.00  0.00     0.053 C 
BRANCH  20  30
HETATM   30  C10 UNL     1       2.169   2.260   0.533  1.00  0.00     0.206 C 
BRANCH  30  31
HETATM   31  O3  UNL     1       2.851   3.071  -0.426  1.00  0.00    -0.391 OA
HETATM   32  C11 UNL     1       2.413   2.706  -1.688  1.00  0.00     0.201 C 
ENDBRANCH  30  31
ENDBRANCH  20  30
ENDBRANCH   1  19
TORSDOF 11
