REMARK  4 active torsions:
REMARK  status: ('A' for Active; 'I' for Inactive)
REMARK    1  A    between atoms: C5_5  and  C6_6 
REMARK    2  A    between atoms: C6_6  and  N2_9 
REMARK    3  A    between atoms: N2_9  and  C8_12 
REMARK    4  A    between atoms: C8_12  and  C9_13 
ROOT
HETATM    1  C6  UNL     1      -0.681  -1.231  -1.032  1.00  0.00     0.325 C 
HETATM    2  C7  UNL     1      -0.627  -2.592  -0.494  1.00  0.00     0.097 C 
HETATM    3  N1  UNL     1      -0.564  -3.674  -0.073  1.00  0.00    -0.195 NA
ENDROOT
BRANCH   1   4
HETATM    4  C5  UNL     1      -1.897  -0.566  -0.495  1.00  0.00    -0.014 A 
HETATM    5  C4  UNL     1      -2.909  -1.319   0.111  1.00  0.00     0.011 A 
HETATM    6  C3  UNL     1      -4.040  -0.712   0.612  1.00  0.00     0.007 A 
HETATM    7  C2  UNL     1      -4.229   0.643   0.544  1.00  0.00    -0.062 A 
HETATM    8  C1  UNL     1      -5.452   1.298   1.086  1.00  0.00     0.048 C 
HETATM    9  C15 UNL     1      -3.237   1.383  -0.050  1.00  0.00     0.007 A 
HETATM   10  C14 UNL     1      -2.080   0.786  -0.565  1.00  0.00     0.011 A 
ENDBRANCH   1   4
BRANCH   1  11
HETATM   11  N2  UNL     1       0.468  -0.471  -0.589  1.00  0.00    -0.049 N 
ATOM     12  H22 UNL     1       0.394   0.513  -0.846  1.00  0.00     0.279 HD
ATOM     13  H21 UNL     1       0.483  -0.362   0.425  1.00  0.00     0.279 HD
BRANCH  11  14
HETATM   14  C8  UNL     1       1.713  -1.079  -1.094  1.00  0.00     0.298 C 
BRANCH  14  15
HETATM   15  C9  UNL     1       2.873  -0.279  -0.620  1.00  0.00     0.079 A 
HETATM   16  C10 UNL     1       3.477   0.790  -1.245  1.00  0.00     0.037 A 
HETATM   17  C11 UNL     1       4.522   1.232  -0.446  1.00  0.00     0.035 A 
HETATM   18  C12 UNL     1       4.492   0.382   0.650  1.00  0.00     0.049 A 
HETATM   19  C13 UNL     1       5.440   0.468   1.798  1.00  0.00     0.076 C 
HETATM   20  O1  UNL     1       3.516  -0.488   0.516  1.00  0.00    -0.318 OA
ENDBRANCH  14  15
ENDBRANCH  11  14
ENDBRANCH   1  11
TORSDOF 4
