REMARK  4 active torsions:
REMARK  status: ('A' for Active; 'I' for Inactive)
REMARK    1  A    between atoms: C2_2  and  C3_3 
REMARK    2  A    between atoms: C3_3  and  C4_4 
REMARK    3  A    between atoms: C5_5  and  N1_6 
REMARK    4  A    between atoms: C12_13  and  O1_14 
ROOT
HETATM    1  N1  UNL     1       0.658   0.087   0.841  1.00  0.00    -0.279 N 
HETATM    2  C6  UNL     1       0.208   0.289   2.089  1.00  0.00     0.118 A 
HETATM    3  C7  UNL     1      -1.169   0.360   2.092  1.00  0.00     0.051 A 
HETATM    4  C8  UNL     1      -1.540   0.191   0.777  1.00  0.00     0.060 A 
HETATM    5  C9  UNL     1      -2.901   0.191   0.287  1.00  0.00    -0.008 A 
HETATM    6  C10 UNL     1      -3.140   0.009  -1.064  1.00  0.00     0.016 A 
HETATM    7  C11 UNL     1      -4.418   0.001  -1.586  1.00  0.00     0.037 A 
HETATM    8  C12 UNL     1      -5.453   0.187  -0.662  1.00  0.00     0.065 A 
HETATM    9  C13 UNL     1      -5.219   0.366   0.670  1.00  0.00     0.037 A 
HETATM   10  C14 UNL     1      -3.937   0.371   1.167  1.00  0.00     0.016 A 
HETATM   11  N2  UNL     1      -0.400   0.029   0.060  1.00  0.00    -0.294 N 
ATOM     12  H2  UNL     1      -0.367  -0.118  -0.949  1.00  0.00     0.187 HD
ENDROOT
BRANCH   1  13
HETATM   13  C5  UNL     1       2.011  -0.046   0.408  1.00  0.00     0.111 C 
HETATM   14  C4  UNL     1       2.318  -0.241  -0.845  1.00  0.00    -0.007 C 
BRANCH  14  15
HETATM   15  C3  UNL     1       3.709  -0.380  -1.311  1.00  0.00     0.028 C 
BRANCH  15  16
HETATM   16  C2  UNL     1       4.651  -0.255  -0.134  1.00  0.00    -0.001 C 
HETATM   17  C1  UNL     1       6.096  -0.392  -0.556  1.00  0.00     0.005 C 
ENDBRANCH  15  16
ENDBRANCH  14  15
ENDBRANCH   1  13
BRANCH   8  18
HETATM   18  O1  UNL     1      -6.734   0.179  -1.175  1.00  0.00    -0.361 OA
ATOM     19  H1  UNL     1      -7.436   0.305  -0.548  1.00  0.00     0.217 HD
ENDBRANCH   8  18
TORSDOF 4
