REMARK  5 active torsions:
REMARK  status: ('A' for Active; 'I' for Inactive)
REMARK    1  A    between atoms: C5_5  and  C6_6 
REMARK    2  A    between atoms: C6_6  and  C7_7 
REMARK    3  A    between atoms: C7_7  and  C8_8 
REMARK    4  A    between atoms: C8_8  and  C9_9 
REMARK    5  A    between atoms: N2_16  and  O1_18 
ROOT
HETATM    1  C6  UNL     1      -0.403  -0.042  -1.572  1.00  0.00     0.042 C 
HETATM    2  N2  UNL     1      -0.492  -0.381  -2.812  1.00  0.00    -0.273 N 
ATOM      3  H2  UNL     1      -1.399  -0.664  -3.184  1.00  0.00     0.194 HD
ENDROOT
BRANCH   1   4
HETATM    4  C5  UNL     1      -1.593  -0.076  -0.750  1.00  0.00    -0.012 A 
HETATM    5  C4  UNL     1      -2.791  -0.573  -1.284  1.00  0.00     0.014 A 
HETATM    6  C3  UNL     1      -3.968  -0.618  -0.583  1.00  0.00     0.007 A 
HETATM    7  C2  UNL     1      -4.026  -0.163   0.716  1.00  0.00    -0.062 A 
HETATM    8  C1  UNL     1      -5.303  -0.203   1.502  1.00  0.00     0.048 C 
HETATM    9  C15 UNL     1      -2.867   0.332   1.270  1.00  0.00     0.007 A 
HETATM   10  C14 UNL     1      -1.672   0.375   0.549  1.00  0.00     0.014 A 
ENDBRANCH   1   4
BRANCH   1  11
HETATM   11  C7  UNL     1       0.918   0.316  -1.043  1.00  0.00     0.064 C 
BRANCH  11  12
HETATM   12  C8  UNL     1       1.501  -0.640  -0.059  1.00  0.00     0.046 C 
BRANCH  12  13
HETATM   13  C9  UNL     1       2.843  -0.139   0.397  1.00  0.00    -0.042 A 
HETATM   14  C10 UNL     1       4.011  -0.484  -0.254  1.00  0.00     0.010 A 
HETATM   15  C11 UNL     1       5.181   0.048   0.270  1.00  0.00     0.018 A 
HETATM   16  C12 UNL     1       5.170   0.872   1.376  1.00  0.00     0.087 A 
HETATM   17  N1  UNL     1       4.026   1.191   1.989  1.00  0.00    -0.375 N 
HETATM   18  C13 UNL     1       2.867   0.686   1.499  1.00  0.00     0.094 A 
ATOM     19  H1  UNL     1       4.025   1.801   2.807  1.00  0.00     0.164 HD
ENDBRANCH  12  13
ENDBRANCH  11  12
ENDBRANCH   1  11
BRANCH   2  20
HETATM   20  O1  UNL     1       0.598  -0.372  -3.648  1.00  0.00    -0.290 OA
ATOM     21  H1  UNL     1       0.532  -0.622  -4.562  1.00  0.00     0.244 HD
ENDBRANCH   2  20
TORSDOF 5
