REMARK  4 active torsions:
REMARK  status: ('A' for Active; 'I' for Inactive)
REMARK    1  A    between atoms: C7_7  and  C8_8 
REMARK    2  A    between atoms: C8_8  and  N1_9 
REMARK    3  A    between atoms: N1_9  and  C9_12 
REMARK    4  A    between atoms: C9_12  and  C10_13 
ROOT
HETATM    1  N1  UNL     1       0.772  -0.370   0.892  1.00  0.00    -0.066 N 
ATOM      2  H11 UNL     1       0.868   0.392   0.221  1.00  0.00     0.277 HD
ATOM      3  H12 UNL     1       0.677  -1.147   0.238  1.00  0.00     0.277 HD
ENDROOT
BRANCH   1   4
HETATM    4  C8  UNL     1      -0.418  -0.214   1.700  1.00  0.00     0.271 C 
BRANCH   4   5
HETATM    5  C7  UNL     1      -1.576  -0.080   0.777  1.00  0.00    -0.032 A 
HETATM    6  C6  UNL     1      -2.297  -1.184   0.329  1.00  0.00     0.015 A 
HETATM    7  C4  UNL     1      -3.358  -0.996  -0.525  1.00  0.00    -0.061 A 
HETATM    8  C3  UNL     1      -3.736   0.275  -0.959  1.00  0.00     0.013 A 
HETATM    9  C5  UNL     1      -4.127  -2.192  -1.000  1.00  0.00     0.048 C 
HETATM   10  C2  UNL     1      -3.022   1.368  -0.515  1.00  0.00    -0.061 A 
HETATM   11  C1  UNL     1      -3.417   2.726  -0.972  1.00  0.00     0.048 C 
HETATM   12  C14 UNL     1      -1.966   1.168   0.336  1.00  0.00     0.015 A 
ENDBRANCH   4   5
ENDBRANCH   1   4
BRANCH   1  13
HETATM   13  C9  UNL     1       1.963  -0.508   1.707  1.00  0.00     0.291 C 
BRANCH  13  14
HETATM   14  C10 UNL     1       3.129  -0.662   0.811  1.00  0.00     0.060 A 
HETATM   15  C11 UNL     1       3.938   0.315   0.281  1.00  0.00     0.063 A 
HETATM   16  C12 UNL     1       4.902  -0.331  -0.503  1.00  0.00     0.074 A 
HETATM   17  C13 UNL     1       5.985   0.346  -1.266  1.00  0.00     0.079 C 
HETATM   18  O1  UNL     1       4.637  -1.601  -0.408  1.00  0.00    -0.243 OA
HETATM   19  N2  UNL     1       3.609  -1.829   0.351  1.00  0.00    -0.264 N 
ATOM     20  H2  UNL     1       3.226  -2.750   0.565  1.00  0.00     0.194 HD
ENDBRANCH  13  14
ENDBRANCH   1  13
TORSDOF 4
