REMARK  4 active torsions:
REMARK  status: ('A' for Active; 'I' for Inactive)
REMARK    1  A    between atoms: O1_2  and  C2_3 
REMARK    2  A    between atoms: C2_3  and  C3_4 
REMARK    3  A    between atoms: C3_4  and  O2_5 
REMARK    4  A    between atoms: O2_5  and  C4_6 
ROOT
HETATM    1  C4  UNL     1      -1.502   0.037   0.180  1.00  0.00     0.345 C 
HETATM    2  N1  UNL     1      -2.384  -1.079   0.419  1.00  0.00    -0.078 NA
HETATM    3  N2  UNL     1      -3.639  -0.519   0.149  1.00  0.00    -0.017 NA
HETATM    4  N3  UNL     1      -3.449   0.559  -0.690  1.00  0.00    -0.017 NA
HETATM    5  N4  UNL     1      -2.085   0.555  -1.068  1.00  0.00    -0.078 NA
ENDROOT
BRANCH   1   6
HETATM    6  O2  UNL     1      -0.187  -0.290   0.054  1.00  0.00    -0.351 OA
BRANCH   6   7
HETATM    7  C3  UNL     1       0.649   0.393   0.917  1.00  0.00     0.197 C 
BRANCH   7   8
HETATM    8  C2  UNL     1       2.101  -0.007   0.735  1.00  0.00     0.193 C 
BRANCH   8   9
HETATM    9  O1  UNL     1       2.437   0.295  -0.583  1.00  0.00    -0.394 OA
HETATM   10  C1  UNL     1       3.764  -0.037  -0.861  1.00  0.00     0.201 C 
ENDBRANCH   8   9
ENDBRANCH   7   8
ENDBRANCH   6   7
ENDBRANCH   1   6
TORSDOF 4
