REMARK  5 active torsions:
REMARK  status: ('A' for Active; 'I' for Inactive)
REMARK    1  A    between atoms: N1_1  and  C1_4 
REMARK    2  A    between atoms: N4_10  and  N5_11 
REMARK    3  A    between atoms: N5_11  and  N6_13 
REMARK    4  A    between atoms: C3_16  and  N7_17 
REMARK    5  A    between atoms: N7_17  and  O1_19 
ROOT
HETATM    1  C1  UNL     1      -1.555   0.662   0.187  1.00  0.00     0.150 A 
HETATM    2  N2  UNL     1      -2.000  -0.431  -0.458  1.00  0.00    -0.335 N 
ATOM      3  H2  UNL     1      -2.999  -0.576  -0.601  1.00  0.00     0.168 HD
HETATM    4  C2  UNL     1      -1.104  -1.334  -0.914  1.00  0.00     0.201 A 
HETATM    5  N3  UNL     1       0.223  -1.130  -0.717  1.00  0.00    -0.272 N 
ATOM      6  H3  UNL     1       0.882  -1.825  -1.070  1.00  0.00     0.190 HD
HETATM    7  N4  UNL     1       0.698  -0.070  -0.088  1.00  0.00    -0.159 N 
HETATM    8  C3  UNL     1      -0.205   0.832   0.366  1.00  0.00     0.210 A 
ENDROOT
BRANCH   7   9
HETATM    9  N5  UNL     1       2.065   0.115   0.101  1.00  0.00    -0.226 N 
ATOM     10  H5  UNL     1       2.399   0.945   0.591  1.00  0.00     0.210 HD
BRANCH   9  11
HETATM   11  N6  UNL     1       2.981  -0.823  -0.373  1.00  0.00    -0.329 N 
ATOM     12  H62 UNL     1       2.630  -1.647  -0.861  1.00  0.00     0.178 HD
ATOM     13  H61 UNL     1       3.982  -0.687  -0.235  1.00  0.00     0.178 HD
ENDBRANCH   9  11
ENDBRANCH   7   9
BRANCH   8  14
HETATM   14  N7  UNL     1       0.289   1.973   1.042  1.00  0.00    -0.247 N 
ATOM     15  H7  UNL     1       0.445   2.856   0.555  1.00  0.00     0.196 HD
BRANCH  14  16
HETATM   16  O1  UNL     1       0.528   1.847   2.278  1.00  0.00    -0.288 OA
ATOM     17  H1  UNL     1       0.860   2.613   2.732  1.00  0.00     0.244 HD
ENDBRANCH  14  16
ENDBRANCH   8  14
BRANCH   1  18
HETATM   18  N1  UNL     1      -2.387   1.537   0.630  1.00  0.00    -0.382 N 
ATOM     19  H12 UNL     1      -3.390   1.411   0.497  1.00  0.00     0.157 HD
ATOM     20  H11 UNL     1      -2.049   2.366   1.119  1.00  0.00     0.157 HD
ENDBRANCH   1  18
TORSDOF 5
