REMARK  15 active torsions:
REMARK  status: ('A' for Active; 'I' for Inactive)
REMARK    1  A    between atoms: O1_2  and  C2_3 
REMARK    2  A    between atoms: C2_3  and  C3_5 
REMARK    3  A    between atoms: C3_5  and  O3_6 
REMARK    4  A    between atoms: C3_5  and  C4_8 
REMARK    5  A    between atoms: C3_5  and  C6_14 
REMARK    6  A    between atoms: C5_9  and  N1_10 
REMARK    7  A    between atoms: N1_10  and  O4_12 
REMARK    8  A    between atoms: C6_14  and  N2_15 
REMARK    9  A    between atoms: C7_16  and  O5_17 
REMARK   10  A    between atoms: C8_19  and  N3_20 
REMARK   11  A    between atoms: N3_20  and  O6_22 
REMARK   12  A    between atoms: N4_24  and  C9_25 
REMARK   13  A    between atoms: C10_28  and  N6_29 
REMARK   14  A    between atoms: C11_34  and  N8_35 
REMARK   15  A    between atoms: C12_38  and  N9_39 
ROOT
HETATM    1  N2  UNL     1       0.648  -0.742  -0.448  1.00  0.00    -0.272 N 
HETATM    2  C7  UNL     1       0.256  -0.088  -1.544  1.00  0.00     0.194 A 
HETATM    3  C8  UNL     1      -1.122  -0.031  -1.572  1.00  0.00     0.189 A 
HETATM    4  N4  UNL     1      -1.561  -0.654  -0.490  1.00  0.00    -0.226 N 
HETATM    5  C13 UNL     1      -0.478  -1.087   0.194  1.00  0.00     0.338 A 
HETATM    6  O9  UNL     1      -0.596  -1.727   1.290  1.00  0.00    -0.246 OA
ENDROOT
BRANCH   4   7
HETATM    7  C9  UNL     1      -2.936  -0.837  -0.108  1.00  0.00     0.170 A 
HETATM    8  N5  UNL     1      -3.604  -1.979  -0.342  1.00  0.00    -0.173 N 
HETATM    9  C10 UNL     1      -4.911  -2.127   0.034  1.00  0.00     0.679 A 
ATOM     10  H5  UNL     1      -3.127  -2.751  -0.809  1.00  0.00     0.186 HD
HETATM   11  N7  UNL     1      -5.569  -1.127   0.652  1.00  0.00    -0.175 N 
HETATM   12  C11 UNL     1      -4.947   0.034   0.908  1.00  0.00     0.152 A 
ATOM     13  H7  UNL     1      -6.543  -1.253   0.926  1.00  0.00     0.186 HD
HETATM   14  C12 UNL     1      -3.613   0.185   0.525  1.00  0.00     0.191 A 
BRANCH   9  15
HETATM   15  N6  UNL     1      -5.529  -3.218  -0.197  1.00  0.00    -0.234 N 
ATOM     16  H62 UNL     1      -5.031  -3.975  -0.665  1.00  0.00     0.174 HD
ATOM     17  H61 UNL     1      -6.503  -3.328   0.083  1.00  0.00     0.174 HD
ENDBRANCH   9  15
BRANCH  12  18
HETATM   18  N8  UNL     1      -5.551   1.010   1.498  1.00  0.00    -0.383 N 
ATOM     19  H82 UNL     1      -6.526   0.900   1.778  1.00  0.00     0.157 HD
ATOM     20  H81 UNL     1      -5.078   1.893   1.693  1.00  0.00     0.157 HD
ENDBRANCH  12  18
BRANCH  14  21
HETATM   21  N9  UNL     1      -2.942   1.409   0.792  1.00  0.00    -0.108 N 
HETATM   22  O7  UNL     1      -2.094   1.410   1.704  1.00  0.00    -0.531 OA
HETATM   23  O8  UNL     1      -3.189   2.551   0.102  1.00  0.00    -0.531 OA
ENDBRANCH  14  21
ENDBRANCH   4   7
BRANCH   3  24
HETATM   24  N3  UNL     1      -1.948   0.582  -2.576  1.00  0.00    -0.249 N 
ATOM     25  H3  UNL     1      -1.784   1.547  -2.862  1.00  0.00     0.196 HD
BRANCH  24  26
HETATM   26  O6  UNL     1      -2.869  -0.083  -3.093  1.00  0.00    -0.288 OA
ATOM     27  H6  UNL     1      -3.415   0.322  -3.757  1.00  0.00     0.244 HD
ENDBRANCH  24  26
ENDBRANCH   3  24
BRANCH   2  28
HETATM   28  O5  UNL     1       1.028   0.485  -2.560  1.00  0.00    -0.343 OA
ATOM     29  H5  UNL     1       0.749   0.950  -3.340  1.00  0.00     0.219 HD
ENDBRANCH   2  28
BRANCH   1  30
HETATM   30  C6  UNL     1       1.986  -1.009  -0.039  1.00  0.00     0.198 C 
BRANCH  30  31
HETATM   31  C3  UNL     1       2.608  -0.014   0.868  1.00  0.00     0.228 C 
BRANCH  31  32
HETATM   32  C2  UNL     1       4.003  -0.513   1.155  1.00  0.00     0.307 C 
HETATM   33  O2  UNL     1       4.381  -0.751   2.330  1.00  0.00    -0.261 OA
BRANCH  32  34
HETATM   34  O1  UNL     1       4.932  -0.733   0.148  1.00  0.00    -0.323 OA
HETATM   35  C1  UNL     1       6.245  -1.201   0.408  1.00  0.00     0.213 C 
ENDBRANCH  32  34
ENDBRANCH  31  32
BRANCH  31  36
HETATM   36  O3  UNL     1       1.956   0.096   2.098  1.00  0.00    -0.367 OA
ATOM     37  H3  UNL     1       1.078   0.410   1.917  1.00  0.00     0.212 HD
ENDBRANCH  31  36
BRANCH  31  38
HETATM   38  C4  UNL     1       2.689   1.336   0.327  1.00  0.00    -0.031 C 
HETATM   39  C5  UNL     1       2.770   2.465  -0.102  1.00  0.00     0.035 C 
BRANCH  39  40
HETATM   40  N1  UNL     1       2.875   3.777  -0.577  1.00  0.00    -0.226 N 
ATOM     41  H1  UNL     1       2.125   4.156  -1.155  1.00  0.00     0.204 HD
BRANCH  40  42
HETATM   42  O4  UNL     1       3.950   4.562  -0.289  1.00  0.00    -0.282 OA
ATOM     43  H4  UNL     1       4.021   5.453  -0.611  1.00  0.00     0.245 HD
ENDBRANCH  40  42
ENDBRANCH  39  40
ENDBRANCH  31  38
ENDBRANCH  30  31
ENDBRANCH   1  30
TORSDOF 15
