REMARK  11 active torsions:
REMARK  status: ('A' for Active; 'I' for Inactive)
REMARK    1  A    between atoms: O1_2  and  C2_3 
REMARK    2  A    between atoms: C2_3  and  O2_4 
REMARK    3  A    between atoms: C2_3  and  C3_6 
REMARK    4  A    between atoms: C3_6  and  C4_7 
REMARK    5  A    between atoms: C4_7  and  N1_8 
REMARK    6  A    between atoms: C5_11  and  C6_12 
REMARK       I    between atoms: C6_12  and  N3_14 
REMARK    7  A    between atoms: N3_14  and  C7_16 
REMARK    8  A    between atoms: C8_17  and  O4_18 
REMARK    9  A    between atoms: N4_20  and  O5_21 
REMARK   10  A    between atoms: N5_23  and  O6_24 
REMARK   11  A    between atoms: C11_31  and  N7_32 
ROOT
HETATM    1  N1  UNL     1       1.514  -1.090  -0.967  1.00  0.00    -0.256 N 
HETATM    2  N2  UNL     1       0.346  -0.499  -0.725  1.00  0.00    -0.289 N 
ATOM      3  H2  UNL     1       0.062   0.254  -1.351  1.00  0.00     0.187 HD
HETATM    4  C5  UNL     1      -0.491  -0.818   0.283  1.00  0.00     0.145 A 
HETATM    5  C10 UNL     1      -0.106  -1.829   1.122  1.00  0.00     0.104 A 
HETATM    6  N6  UNL     1      -0.830  -2.262   2.154  1.00  0.00    -0.188 N 
ATOM      7  H6  UNL     1      -1.725  -1.810   2.338  1.00  0.00     0.184 HD
HETATM    8  C11 UNL     1      -0.439  -3.279   2.980  1.00  0.00     0.679 A 
HETATM    9  N8  UNL     1       0.728  -3.888   2.762  1.00  0.00    -0.155 N 
ATOM     10  H8  UNL     1       1.022  -4.647   3.377  1.00  0.00     0.187 HD
HETATM   11  C12 UNL     1       1.533  -3.509   1.727  1.00  0.00     0.277 A 
HETATM   12  O8  UNL     1       2.632  -4.092   1.531  1.00  0.00    -0.266 OA
HETATM   13  C13 UNL     1       1.104  -2.485   0.922  1.00  0.00     0.132 A 
HETATM   14  C14 UNL     1       1.881  -2.069  -0.150  1.00  0.00     0.280 A 
HETATM   15  O9  UNL     1       2.994  -2.654  -0.362  1.00  0.00    -0.265 OA
ENDROOT
BRANCH   4  16
HETATM   16  C6  UNL     1      -1.759  -0.105   0.443  1.00  0.00     0.276 C 
HETATM   17  O3  UNL     1      -2.497  -0.222   1.406  1.00  0.00    -0.266 OA
HETATM   18  N3  UNL     1      -2.148   0.776  -0.594  1.00  0.00    -0.313 N 
ATOM     19  H3  UNL     1      -1.498   0.840  -1.377  1.00  0.00     0.169 HD
BRANCH  18  20
HETATM   20  C7  UNL     1      -3.290   1.570  -0.702  1.00  0.00     0.163 A 
HETATM   21  C8  UNL     1      -4.350   1.821   0.115  1.00  0.00     0.221 A 
HETATM   22  N4  UNL     1      -5.208   2.690  -0.518  1.00  0.00    -0.107 N 
HETATM   23  N5  UNL     1      -4.708   2.976  -1.688  1.00  0.00    -0.091 N 
HETATM   24  C9  UNL     1      -3.555   2.328  -1.848  1.00  0.00     0.320 A 
HETATM   25  O7  UNL     1      -2.821   2.385  -2.860  1.00  0.00    -0.262 OA
BRANCH  21  26
HETATM   26  O4  UNL     1      -4.577   1.314   1.379  1.00  0.00    -0.341 OA
ATOM     27  H4  UNL     1      -5.317   1.489   1.949  1.00  0.00     0.219 HD
ENDBRANCH  21  26
BRANCH  22  28
HETATM   28  O5  UNL     1      -6.372   3.148   0.023  1.00  0.00    -0.264 OA
ATOM     29  H5  UNL     1      -6.965   3.748  -0.414  1.00  0.00     0.247 HD
ENDBRANCH  22  28
BRANCH  23  30
HETATM   30  O6  UNL     1      -5.274   3.818  -2.627  1.00  0.00    -0.263 OA
ATOM     31  H6  UNL     1      -4.910   4.026  -3.479  1.00  0.00     0.247 HD
ENDBRANCH  23  30
ENDBRANCH  18  20
ENDBRANCH   4  16
BRANCH   1  32
HETATM   32  C4  UNL     1       2.293  -0.609  -2.069  1.00  0.00     0.157 C 
BRANCH  32  33
HETATM   33  C3  UNL     1       3.164   0.561  -1.803  1.00  0.00     0.082 C 
BRANCH  33  34
HETATM   34  C2  UNL     1       4.248   0.381  -0.787  1.00  0.00     0.257 C 
BRANCH  34  35
HETATM   35  O1  UNL     1       4.895   1.654  -0.707  1.00  0.00    -0.366 OA
HETATM   36  C1  UNL     1       4.879   2.019   0.653  1.00  0.00     0.204 C 
ENDBRANCH  34  35
BRANCH  34  37
HETATM   37  O2  UNL     1       5.238  -0.480  -1.318  1.00  0.00    -0.371 OA
ATOM     38  H2  UNL     1       4.808  -1.326  -1.371  1.00  0.00     0.212 HD
ENDBRANCH  34  37
ENDBRANCH  33  34
ENDBRANCH  32  33
ENDBRANCH   1  32
BRANCH   8  39
HETATM   39  N7  UNL     1      -1.204  -3.649   3.974  1.00  0.00    -0.234 N 
ATOM     40  H72 UNL     1      -2.096  -3.183   4.141  1.00  0.00     0.174 HD
ATOM     41  H71 UNL     1      -0.912  -4.408   4.590  1.00  0.00     0.174 HD
ENDBRANCH   8  39
TORSDOF 11
