REMARK  12 active torsions:
REMARK  status: ('A' for Active; 'I' for Inactive)
REMARK    1  A    between atoms: O1_2  and  N1_3 
REMARK    2  A    between atoms: N1_3  and  C3_5 
REMARK    3  A    between atoms: C3_5  and  O2_6 
REMARK    4  A    between atoms: C4_8  and  N2_9 
REMARK    5  A    between atoms: C7_19  and  C8_20 
REMARK       I    between atoms: N7_23  and  C9_24 
REMARK    6  A    between atoms: C9_24  and  C10_26 
REMARK    7  A    between atoms: C10_26  and  N8_27 
REMARK    8  A    between atoms: C10_26  and  O4_31 
REMARK    9  A    between atoms: C11_33  and  N9_34 
REMARK   10  A    between atoms: N9_34  and  O5_36 
REMARK   11  A    between atoms: C12_38  and  O6_39 
REMARK   12  A    between atoms: N10_41  and  O7_42 
ROOT
HETATM    1  N2  UNL     1      -2.356   0.703   1.768  1.00  0.00    -0.133 N 
HETATM    2  C5  UNL     1      -2.532   2.028   1.943  1.00  0.00     0.685 A 
HETATM    3  N3  UNL     1      -3.615   2.585   2.449  1.00  0.00    -0.234 N 
ATOM      4  H31 UNL     1      -3.748   3.588   2.581  1.00  0.00     0.174 HD
ATOM      5  H32 UNL     1      -4.458   2.111   2.772  1.00  0.00     0.174 HD
HETATM    6  N4  UNL     1      -1.431   2.647   1.522  1.00  0.00    -0.172 N 
ATOM      7  H4  UNL     1      -1.274   3.655   1.531  1.00  0.00     0.186 HD
HETATM    8  C6  UNL     1      -0.558   1.717   1.082  1.00  0.00     0.170 A 
HETATM    9  N5  UNL     1       0.659   1.493   0.551  1.00  0.00    -0.321 N 
ATOM     10  H5  UNL     1       1.331   2.225   0.322  1.00  0.00     0.169 HD
HETATM   11  C7  UNL     1       0.877   0.158   0.358  1.00  0.00     0.168 A 
HETATM   12  N10 UNL     1      -0.226  -0.445   0.779  1.00  0.00    -0.184 N 
HETATM   13  C13 UNL     1      -1.121   0.482   1.228  1.00  0.00     0.202 A 
ENDROOT
BRANCH  11  14
HETATM   14  C8  UNL     1       2.125  -0.397  -0.193  1.00  0.00     0.132 A 
HETATM   15  N6  UNL     1       3.200   0.300  -0.569  1.00  0.00    -0.283 N 
HETATM   16  N7  UNL     1       4.180  -0.454  -1.035  1.00  0.00    -0.198 N 
ATOM     17  H6  UNL     1       3.259   1.316  -0.503  1.00  0.00     0.188 HD
HETATM   18  C9  UNL     1       5.448   0.076  -1.495  1.00  0.00     0.300 C 
HETATM   19  C11 UNL     1       3.757  -1.724  -0.977  1.00  0.00     0.186 A 
HETATM   20  O3  UNL     1       6.290  -0.715  -1.930  1.00  0.00    -0.266 OA
HETATM   21  C12 UNL     1       2.452  -1.708  -0.443  1.00  0.00     0.146 A 
BRANCH  18  22
HETATM   22  C10 UNL     1       5.706   1.536  -1.432  1.00  0.00     0.411 C 
BRANCH  22  23
HETATM   23  N8  UNL     1       5.706   1.970  -0.033  1.00  0.00    -0.044 N 
ATOM     24  H83 UNL     1       4.848   1.708   0.452  1.00  0.00     0.278 HD
ATOM     25  H82 UNL     1       6.363   1.437   0.537  1.00  0.00     0.278 HD
ATOM     26  H81 UNL     1       5.883   2.974   0.010  1.00  0.00     0.278 HD
ENDBRANCH  22  23
BRANCH  22  27
HETATM   27  O4  UNL     1       6.985   1.748  -1.992  1.00  0.00    -0.363 OA
ATOM     28  H4  UNL     1       7.150   2.683  -1.952  1.00  0.00     0.212 HD
ENDBRANCH  22  27
ENDBRANCH  18  22
BRANCH  19  29
HETATM   29  N9  UNL     1       4.507  -2.873  -1.389  1.00  0.00    -0.249 N 
ATOM     30  H9  UNL     1       5.449  -2.758  -1.763  1.00  0.00     0.196 HD
BRANCH  29  31
HETATM   31  O5  UNL     1       3.969  -4.112  -1.283  1.00  0.00    -0.288 OA
ATOM     32  H5  UNL     1       4.466  -4.874  -1.556  1.00  0.00     0.244 HD
ENDBRANCH  29  31
ENDBRANCH  19  29
BRANCH  21  33
HETATM   33  O6  UNL     1       1.705  -2.829  -0.241  1.00  0.00    -0.355 OA
ATOM     34  H6  UNL     1       1.931  -3.735  -0.414  1.00  0.00     0.218 HD
ENDBRANCH  21  33
ENDBRANCH  11  14
BRANCH  12  35
HETATM   35  O7  UNL     1      -0.528  -1.778   0.807  1.00  0.00    -0.279 OA
ATOM     36  H7  UNL     1      -1.318  -2.210   1.109  1.00  0.00     0.245 HD
ENDBRANCH  12  35
BRANCH   1  37
HETATM   37  C4  UNL     1      -3.252  -0.343   2.104  1.00  0.00     0.174 C 
HETATM   38  C3  UNL     1      -4.235  -0.816   1.174  1.00  0.00     0.178 C 
BRANCH  38  39
HETATM   39  N1  UNL     1      -4.670  -0.399  -0.080  1.00  0.00    -0.240 N 
HETATM   40  C2  UNL     1      -4.231   0.751  -0.804  1.00  0.00     0.188 C 
BRANCH  39  41
HETATM   41  O1  UNL     1      -5.658  -1.131  -0.744  1.00  0.00    -0.281 OA
HETATM   42  C1  UNL     1      -6.822  -0.367  -0.542  1.00  0.00     0.238 C 
ENDBRANCH  39  41
ENDBRANCH  38  39
BRANCH  38  43
HETATM   43  O2  UNL     1      -4.865  -1.894   1.629  1.00  0.00    -0.344 OA
ATOM     44  H2  UNL     1      -4.568  -2.179   2.485  1.00  0.00     0.219 HD
ENDBRANCH  38  43
ENDBRANCH   1  37
TORSDOF 12
