REMARK  3 active torsions:
REMARK  status: ('A' for Active; 'I' for Inactive)
REMARK    1  A    between atoms: N3_5  and  C2_6 
REMARK    2  A    between atoms: C2_6  and  C3_7 
REMARK    3  A    between atoms: C3_7  and  N4_8 
ROOT
HETATM    1  C1  UNL     1      -3.398  -0.412  -0.548  1.00  0.00     0.195 C 
HETATM    2  N1  UNL     1      -2.057   0.138  -0.420  1.00  0.00    -0.197 N 
HETATM    3  N2  UNL     1      -1.581   1.214  -1.028  1.00  0.00     0.064 NA
HETATM    4  O1  UNL     1      -0.335   1.389  -0.659  1.00  0.00    -0.125 OA
HETATM    5  N3  UNL     1       0.017   0.454   0.174  1.00  0.00    -0.157 N 
HETATM    6  N5  UNL     1      -1.057  -0.315   0.315  1.00  0.00     0.019 NA
ENDROOT
BRANCH   5   7
HETATM    7  C2  UNL     1       1.302   0.265   0.828  1.00  0.00     0.204 C 
BRANCH   7   8
HETATM    8  C3  UNL     1       2.222  -0.608  -0.005  1.00  0.00     0.253 C 
BRANCH   8   9
HETATM    9  N4  UNL     1       2.390   0.101  -1.277  1.00  0.00    -0.078 N 
ATOM     10  H43 UNL     1       1.510   0.327  -1.740  1.00  0.00     0.274 HD
ATOM     11  H42 UNL     1       2.720   1.060  -1.171  1.00  0.00     0.274 HD
ATOM     12  H41 UNL     1       3.008  -0.486  -1.837  1.00  0.00     0.274 HD
ENDBRANCH   8   9
ENDBRANCH   7   8
ENDBRANCH   5   7
TORSDOF 3
