REMARK  3 active torsions:
REMARK  status: ('A' for Active; 'I' for Inactive)
REMARK    1  A    between atoms: N2_4  and  C3_5 
REMARK    2  A    between atoms: C3_5  and  C4_6 
REMARK    3  A    between atoms: C4_6  and  N3_7 
ROOT
HETATM    1  C1  UNL     1       3.394  -0.646   0.225  1.00  0.00     0.180 C 
HETATM    2  N1  UNL     1       2.124  -0.026  -0.170  1.00  0.00    -0.275 N 
HETATM    3  C2  UNL     1       1.012  -0.052   0.562  1.00  0.00     0.222 A 
HETATM    4  N2  UNL     1       0.061   0.614  -0.116  1.00  0.00    -0.269 N 
HETATM    5  N4  UNL     1       0.613   1.026  -1.234  1.00  0.00    -0.225 N 
ATOM      6  H4  UNL     1       0.139   1.563  -1.960  1.00  0.00     0.210 HD
HETATM    7  N5  UNL     1       1.868   0.642  -1.276  1.00  0.00    -0.225 N 
ATOM      8  H5  UNL     1       2.528   0.828  -2.031  1.00  0.00     0.210 HD
ENDROOT
BRANCH   4   9
HETATM    9  C3  UNL     1      -1.286   0.802   0.356  1.00  0.00     0.178 C 
BRANCH   9  10
HETATM   10  C4  UNL     1      -2.147  -0.347  -0.122  1.00  0.00     0.251 C 
BRANCH  10  11
HETATM   11  N3  UNL     1      -3.498  -0.132   0.367  1.00  0.00    -0.078 N 
ATOM     12  H33 UNL     1      -3.536  -0.006   1.378  1.00  0.00     0.274 HD
ATOM     13  H32 UNL     1      -3.873   0.779   0.101  1.00  0.00     0.274 HD
ATOM     14  H31 UNL     1      -4.078  -0.906   0.045  1.00  0.00     0.274 HD
ENDBRANCH  10  11
ENDBRANCH   9  10
ENDBRANCH   4   9
TORSDOF 3
