REMARK  11 active torsions:
REMARK  status: ('A' for Active; 'I' for Inactive)
REMARK    1  A    between atoms: N1_2  and  C2_3 
REMARK    2  A    between atoms: N1_2  and  C4_7 
REMARK    3  A    between atoms: C2_3  and  C3_4 
REMARK    4  A    between atoms: C3_4  and  O1_5 
REMARK    5  A    between atoms: C4_7  and  C5_8 
REMARK    6  A    between atoms: C5_8  and  C6_9 
REMARK    7  A    between atoms: C5_8  and  O2_23 
REMARK    8  A    between atoms: C6_9  and  N2_10 
REMARK    9  A    between atoms: N2_10  and  C7_12 
REMARK   10  A    between atoms: C10_17  and  N4_18 
REMARK   11  A    between atoms: O2_23  and  N6_24 
ROOT
HETATM    1  C6  UNL     1       0.319   0.152   0.790  1.00  0.00     0.157 C 
ENDROOT
BRANCH   1   2
HETATM    2  C5  UNL     1      -0.958  -0.685   0.785  1.00  0.00     0.197 C 
BRANCH   2   3
HETATM    3  C4  UNL     1      -1.455  -0.860  -0.649  1.00  0.00     0.307 C 
BRANCH   3   4
HETATM    4  N1  UNL     1      -1.800   0.388  -1.277  1.00  0.00     0.088 N 
HETATM    5  C1  UNL     1      -2.198   0.202  -2.660  1.00  0.00     0.310 C 
BRANCH   4   6
HETATM    6  C2  UNL     1      -2.772   1.165  -0.543  1.00  0.00     0.297 C 
BRANCH   6   7
HETATM    7  C3  UNL     1      -4.080   0.459  -0.334  1.00  0.00     0.194 C 
BRANCH   7   8
HETATM    8  O1  UNL     1      -4.907   1.328   0.378  1.00  0.00    -0.399 OA
ATOM      9  H1  UNL     1      -5.735   0.881   0.510  1.00  0.00     0.209 HD
ENDBRANCH   7   8
ENDBRANCH   6   7
ENDBRANCH   4   6
ENDBRANCH   3   4
ENDBRANCH   2   3
BRANCH   2  10
HETATM   10  O2  UNL     1      -0.674  -1.970   1.258  1.00  0.00    -0.279 OA
BRANCH  10  11
HETATM   11  N6  UNL     1      -1.547  -2.289   2.264  1.00  0.00    -0.311 N 
ATOM     12  H62 UNL     1      -2.285  -1.673   2.605  1.00  0.00     0.184 HD
ATOM     13  H61 UNL     1      -1.340  -3.226   2.609  1.00  0.00     0.184 HD
ENDBRANCH  10  11
ENDBRANCH   2  10
ENDBRANCH   1   2
BRANCH   1  14
HETATM   14  N2  UNL     1       1.316  -0.423  -0.063  1.00  0.00    -0.373 N 
ATOM     15  H2  UNL     1       0.991  -1.150  -0.700  1.00  0.00     0.161 HD
BRANCH  14  16
HETATM   16  C7  UNL     1       2.547  -0.145  -0.127  1.00  0.00     0.118 A 
HETATM   17  C8  UNL     1       3.309  -0.849  -1.048  1.00  0.00     0.066 A 
HETATM   18  C9  UNL     1       4.644  -0.575  -1.145  1.00  0.00     0.110 A 
HETATM   19  N3  UNL     1       5.191   0.364  -0.353  1.00  0.00    -0.202 N 
HETATM   20  C10 UNL     1       4.460   1.057   0.546  1.00  0.00     0.677 A 
ATOM     21  H3  UNL     1       6.189   0.559  -0.434  1.00  0.00     0.183 HD
HETATM   22  N5  UNL     1       3.141   0.799   0.654  1.00  0.00    -0.177 N 
ATOM     23  H5  UNL     1       2.581   1.318   1.330  1.00  0.00     0.185 HD
BRANCH  20  24
HETATM   24  N4  UNL     1       5.012   1.952   1.295  1.00  0.00    -0.234 N 
ATOM     25  H42 UNL     1       6.010   2.147   1.213  1.00  0.00     0.174 HD
ATOM     26  H41 UNL     1       4.460   2.476   1.974  1.00  0.00     0.174 HD
ENDBRANCH  20  24
ENDBRANCH  14  16
ENDBRANCH   1  14
TORSDOF 11
