REMARK  7 active torsions:
REMARK  status: ('A' for Active; 'I' for Inactive)
REMARK    1  A    between atoms: C5_5  and  O1_6 
REMARK    2  A    between atoms: O1_6  and  C6_7 
REMARK    3  A    between atoms: C8_9  and  N1_10 
REMARK    4  A    between atoms: N1_10  and  C9_12 
REMARK    5  A    between atoms: C11_15  and  O3_16 
REMARK    6  A    between atoms: C12_18  and  O4_19 
REMARK    7  A    between atoms: C14_23  and  C15_24 
ROOT
HETATM    1  C6  UNL     1       0.397   1.331   0.202  1.00  0.00     0.072 A 
HETATM    2  C7  UNL     1      -0.517   0.371  -0.150  1.00  0.00     0.069 A 
HETATM    3  C8  UNL     1      -1.881   0.594  -0.130  1.00  0.00     0.072 A 
HETATM    4  C13 UNL     1      -2.316   1.842   0.263  1.00  0.00     0.149 A 
HETATM    5  F1  UNL     1      -3.668   2.081   0.287  1.00  0.00    -0.203 F 
HETATM    6  C14 UNL     1      -1.436   2.854   0.630  1.00  0.00    -0.010 A 
HETATM    7  C19 UNL     1      -0.090   2.561   0.588  1.00  0.00     0.047 A 
ENDROOT
BRANCH   3   8
HETATM    8  N1  UNL     1      -2.820  -0.382  -0.492  1.00  0.00    -0.359 N 
ATOM      9  H1  UNL     1      -3.810  -0.137  -0.470  1.00  0.00     0.162 HD
BRANCH   8  10
HETATM   10  C9  UNL     1      -2.449  -1.725  -0.897  1.00  0.00     0.252 C 
HETATM   11  O2  UNL     1      -1.798  -2.363   0.124  1.00  0.00    -0.361 OA
HETATM   12  C10 UNL     1      -2.157  -3.709   0.083  1.00  0.00     0.205 C 
HETATM   13  C11 UNL     1      -3.666  -3.586  -0.167  1.00  0.00     0.175 C 
HETATM   14  C12 UNL     1      -3.665  -2.531  -1.255  1.00  0.00     0.197 C 
BRANCH  13  15
HETATM   15  O3  UNL     1      -4.345  -3.232   0.966  1.00  0.00    -0.391 OA
ATOM     16  H3  UNL     1      -5.279  -3.156   0.811  1.00  0.00     0.210 HD
ENDBRANCH  13  15
BRANCH  14  17
HETATM   17  O4  UNL     1      -4.841  -1.794  -1.121  1.00  0.00    -0.389 OA
ATOM     18  H4  UNL     1      -5.610  -2.304  -1.347  1.00  0.00     0.210 HD
ENDBRANCH  14  17
ENDBRANCH   8  10
ENDBRANCH   3   8
BRANCH   1  19
HETATM   19  O1  UNL     1       1.721   1.094   0.177  1.00  0.00    -0.346 OA
BRANCH  19  20
HETATM   20  C5  UNL     1       2.473  -0.006  -0.158  1.00  0.00     0.129 C 
HETATM   21  C4  UNL     1       3.350  -0.543   0.930  1.00  0.00     0.033 C 
HETATM   22  C3  UNL     1       4.673  -1.035   0.509  1.00  0.00     0.007 C 
HETATM   23  C2  UNL     1       4.762  -1.654  -0.845  1.00  0.00    -0.019 C 
HETATM   24  C1  UNL     1       4.592  -3.156  -0.789  1.00  0.00     0.010 C 
HETATM   25  C21 UNL     1       3.785  -1.112  -1.846  1.00  0.00     0.007 C 
HETATM   26  C20 UNL     1       3.329   0.275  -1.402  1.00  0.00     0.033 C 
ENDBRANCH  19  20
ENDBRANCH   1  19
BRANCH   6  27
HETATM   27  C15 UNL     1      -2.008   4.141   1.031  1.00  0.00     0.022 C 
HETATM   28  C16 UNL     1      -1.072   5.220   1.428  1.00  0.00     0.009 C 
HETATM   29  C17 UNL     1      -1.151   4.722   2.858  1.00  0.00     0.001 C 
HETATM   30  C18 UNL     1      -2.480   4.064   2.482  1.00  0.00     0.009 C 
ENDBRANCH   6  27
TORSDOF 7
