REMARK  5 active torsions:
REMARK  status: ('A' for Active; 'I' for Inactive)
REMARK    1  A    between atoms: C2_2  and  N1_3 
REMARK    2  A    between atoms: C4_8  and  N3_9 
REMARK       I    between atoms: N3_9  and  C5_11 
REMARK    3  A    between atoms: C5_11  and  C6_13 
REMARK    4  A    between atoms: C11_18  and  C12_19 
REMARK       I    between atoms: C12_19  and  N4_21 
REMARK    5  A    between atoms: N4_21  and  C13_23 
ROOT
HETATM    1  C6  UNL     1      -0.151  -1.570   0.094  1.00  0.00     0.091 C 
HETATM    2  C7  UNL     1      -0.074  -3.038   0.125  1.00  0.00     0.015 C 
HETATM    3  C8  UNL     1       0.058  -3.682   1.456  1.00  0.00     0.001 C 
HETATM    4  C9  UNL     1       0.458  -2.750   2.553  1.00  0.00     0.001 C 
HETATM    5  C10 UNL     1      -0.548  -1.642   2.582  1.00  0.00     0.015 C 
HETATM    6  C11 UNL     1      -0.701  -0.900   1.307  1.00  0.00     0.091 C 
ENDROOT
BRANCH   1   7
HETATM    7  C5  UNL     1       1.209  -0.967  -0.257  1.00  0.00     0.227 C 
HETATM    8  N3  UNL     1       1.355   0.407  -0.400  1.00  0.00    -0.321 N 
ATOM      9  H3  UNL     1       0.505   0.952  -0.256  1.00  0.00     0.169 HD
HETATM   10  O1  UNL     1       2.107  -1.794  -0.390  1.00  0.00    -0.273 OA
BRANCH   8  11
HETATM   11  C4  UNL     1       2.487   1.149  -0.710  1.00  0.00     0.118 A 
HETATM   12  C3  UNL     1       2.483   2.547  -0.816  1.00  0.00     0.148 A 
HETATM   13  N2  UNL     1       3.715   2.961  -1.124  1.00  0.00    -0.284 N 
HETATM   14 CL1  UNL     1       1.086   3.580  -0.583  1.00  0.00    -0.060 Cl
HETATM   15  N1  UNL     1       4.479   1.918  -1.214  1.00  0.00    -0.276 N 
ATOM     16  H2  UNL     1       4.004   3.929  -1.264  1.00  0.00     0.188 HD
HETATM   17  C18 UNL     1       3.778   0.785  -0.970  1.00  0.00     0.163 A 
HETATM   18  N5  UNL     1       4.407  -0.496  -1.013  1.00  0.00    -0.079 NA
BRANCH  15  19
HETATM   19  C2  UNL     1       5.898   1.947  -1.533  1.00  0.00     0.146 C 
HETATM   20  C1  UNL     1       6.739   2.064  -0.287  1.00  0.00     0.028 C 
ENDBRANCH  15  19
ENDBRANCH   8  11
ENDBRANCH   1   7
BRANCH   6  21
HETATM   21  C12 UNL     1      -2.166  -0.588   1.130  1.00  0.00     0.223 C 
HETATM   22  O2  UNL     1      -3.028  -1.084   1.933  1.00  0.00    -0.273 OA
HETATM   23  N4  UNL     1      -2.601   0.252   0.077  1.00  0.00    -0.356 N 
ATOM     24  H4  UNL     1      -1.918   0.650  -0.568  1.00  0.00     0.162 HD
BRANCH  23  25
HETATM   25  C13 UNL     1      -3.981   0.546  -0.090  1.00  0.00     0.084 C 
HETATM   26  C14 UNL     1      -4.530   0.193  -1.443  1.00  0.00     0.025 C 
HETATM   27  C15 UNL     1      -5.905   0.872  -1.396  1.00  0.00     0.002 C 
HETATM   28  C16 UNL     1      -5.748   2.047  -0.460  1.00  0.00     0.002 C 
HETATM   29  C17 UNL     1      -4.288   2.038  -0.014  1.00  0.00     0.025 C 
ENDBRANCH  23  25
ENDBRANCH   6  21
TORSDOF 5
