REMARK  6 active torsions:
REMARK  status: ('A' for Active; 'I' for Inactive)
REMARK    1  A    between atoms: O1_2  and  C2_3 
REMARK    2  A    between atoms: C6_10  and  C7_11 
REMARK    3  A    between atoms: C7_11  and  C8_12 
REMARK    4  A    between atoms: C14_22  and  N4_23 
REMARK    5  A    between atoms: N4_23  and  C15_25 
REMARK    6  A    between atoms: C15_25  and  C16_26 
ROOT
HETATM    1  C2  UNL     1      -1.951   2.744   0.508  1.00  0.00     0.225 A 
HETATM    2  N1  UNL     1      -0.670   3.118   0.383  1.00  0.00    -0.321 N 
ATOM      3  H1  UNL     1      -0.423   4.079   0.618  1.00  0.00     0.169 HD
HETATM    4  C3  UNL     1       0.302   2.298  -0.034  1.00  0.00     0.051 A 
HETATM    5  C4  UNL     1       1.612   2.695  -0.159  1.00  0.00     0.055 A 
HETATM    6  C5  UNL     1       2.597   1.839  -0.589  1.00  0.00     0.043 A 
HETATM    7 CL1  UNL     1       4.249   2.404  -0.751  1.00  0.00    -0.084 Cl
HETATM    8  C6  UNL     1       2.249   0.531  -0.906  1.00  0.00    -0.024 A 
HETATM    9  C11 UNL     1       0.927   0.061  -0.801  1.00  0.00    -0.037 A 
HETATM   10  C12 UNL     1       0.572  -1.314  -1.130  1.00  0.00     0.050 C 
HETATM   11  C13 UNL     1      -0.014   0.994  -0.356  1.00  0.00     0.041 A 
HETATM   12  C14 UNL     1      -1.338   0.623  -0.223  1.00  0.00     0.117 A 
HETATM   13  N5  UNL     1      -2.303   1.493   0.207  1.00  0.00    -0.308 N 
ATOM     14  H5  UNL     1      -3.273   1.191   0.296  1.00  0.00     0.171 HD
ENDROOT
BRANCH   8  15
HETATM   15  C7  UNL     1       3.323  -0.393  -1.352  1.00  0.00     0.099 C 
BRANCH  15  16
HETATM   16  C8  UNL     1       4.134  -0.946  -0.249  1.00  0.00     0.029 A 
HETATM   17  C9  UNL     1       3.916  -2.064   0.533  1.00  0.00     0.114 A 
HETATM   18  N2  UNL     1       4.924  -2.170   1.395  1.00  0.00    -0.360 N 
HETATM   19  C10 UNL     1       5.800  -1.164   1.211  1.00  0.00     0.180 A 
ATOM     20  H2  UNL     1       5.019  -2.907   2.094  1.00  0.00     0.166 HD
HETATM   21  N3  UNL     1       5.290  -0.437   0.203  1.00  0.00    -0.354 N 
ATOM     22  H3  UNL     1       5.730   0.403  -0.174  1.00  0.00     0.166 HD
ENDBRANCH  15  16
ENDBRANCH   8  15
BRANCH  12  23
HETATM   23  N4  UNL     1      -1.678  -0.562  -0.511  1.00  0.00    -0.375 N 
ATOM     24  H4  UNL     1      -0.975  -1.226  -0.836  1.00  0.00     0.161 HD
BRANCH  23  25
HETATM   25  C15 UNL     1      -3.048  -0.978  -0.383  1.00  0.00     0.126 C 
BRANCH  25  26
HETATM   26  C16 UNL     1      -3.248  -2.421  -0.810  1.00  0.00     0.003 A 
HETATM   27  C17 UNL     1      -4.711  -2.888  -0.678  1.00  0.00     0.007 A 
HETATM   28  C18 UNL     1      -3.669  -3.342   0.292  1.00  0.00     0.007 A 
ENDBRANCH  25  26
ENDBRANCH  23  25
ENDBRANCH  12  23
BRANCH   1  29
HETATM   29  O1  UNL     1      -2.908   3.680   0.956  1.00  0.00    -0.327 OA
HETATM   30  C1  UNL     1      -2.497   4.997   1.265  1.00  0.00     0.213 C 
ENDBRANCH   1  29
TORSDOF 6
