REMARK  7 active torsions:
REMARK  status: ('A' for Active; 'I' for Inactive)
REMARK    1  A    between atoms: N1_4  and  O1_5 
REMARK    2  A    between atoms: C6_10  and  C7_11 
REMARK    3  A    between atoms: C7_11  and  C8_12 
REMARK    4  A    between atoms: N2_14  and  C10_15 
REMARK    5  A    between atoms: C10_15  and  C11_16 
REMARK    6  A    between atoms: C11_16  and  C12_17 
REMARK    7  A    between atoms: C16_23  and  N4_24 
ROOT
HETATM    1  C8  UNL     1       0.519   0.144  -0.045  1.00  0.00    -0.004 A 
HETATM    2  C9  UNL     1      -0.585   0.419   0.722  1.00  0.00     0.105 A 
HETATM    3  N2  UNL     1      -1.353  -0.707   0.823  1.00  0.00    -0.341 N 
HETATM    4  C15 UNL     1      -0.789  -1.704   0.151  1.00  0.00     0.135 A 
HETATM    5  N3  UNL     1      -1.142  -2.991  -0.059  1.00  0.00    -0.176 N 
ATOM      6  H3  UNL     1      -2.002  -3.355   0.351  1.00  0.00     0.186 HD
HETATM    7  C16 UNL     1      -0.357  -3.802  -0.813  1.00  0.00     0.677 A 
HETATM    8  N5  UNL     1       0.792  -3.321  -1.363  1.00  0.00    -0.201 N 
ATOM      9  H5  UNL     1       1.380  -3.931  -1.930  1.00  0.00     0.183 HD
HETATM   10  C17 UNL     1       1.149  -2.048  -1.159  1.00  0.00     0.122 A 
HETATM   11  C18 UNL     1       0.386  -1.182  -0.399  1.00  0.00     0.036 A 
ENDROOT
BRANCH   1  12
HETATM   12  C7  UNL     1       1.571   1.051  -0.424  1.00  0.00     0.027 C 
BRANCH  12  13
HETATM   13  C6  UNL     1       2.887   0.981   0.154  1.00  0.00    -0.005 A 
HETATM   14  C2  UNL     1       3.920   1.584  -0.600  1.00  0.00    -0.032 A 
HETATM   15  C1  UNL     1       3.594   2.228  -1.897  1.00  0.00     0.050 C 
HETATM   16  C3  UNL     1       5.218   1.588  -0.156  1.00  0.00     0.130 A 
HETATM   17  N1  UNL     1       5.568   1.026   1.001  1.00  0.00    -0.245 N 
HETATM   18  C4  UNL     1       4.627   0.447   1.744  1.00  0.00     0.147 A 
HETATM   19  C5  UNL     1       3.283   0.422   1.325  1.00  0.00     0.062 A 
HETATM   20 CL1  UNL     1       2.086  -0.336   2.331  1.00  0.00    -0.082 Cl
BRANCH  17  21
HETATM   21  O1  UNL     1       6.873   1.032   1.442  1.00  0.00    -0.284 OA
ATOM     22  H1  UNL     1       7.122   0.631   2.267  1.00  0.00     0.245 HD
ENDBRANCH  17  21
ENDBRANCH  12  13
ENDBRANCH   1  12
BRANCH   3  23
HETATM   23  C10 UNL     1      -2.597  -0.819   1.581  1.00  0.00     0.130 C 
BRANCH  23  24
HETATM   24  C11 UNL     1      -3.792  -0.609   0.721  1.00  0.00     0.024 C 
BRANCH  24  25
HETATM   25  C12 UNL     1      -3.883   0.709   0.023  1.00  0.00    -0.021 C 
HETATM   26  C13 UNL     1      -3.929   1.893   0.927  1.00  0.00     0.009 C 
HETATM   27  C14 UNL     1      -5.128   0.755  -0.876  1.00  0.00     0.009 C 
ENDBRANCH  24  25
ENDBRANCH  23  24
ENDBRANCH   3  23
BRANCH   7  28
HETATM   28  N4  UNL     1      -0.766  -5.005  -0.962  1.00  0.00    -0.234 N 
ATOM     29  H42 UNL     1      -1.627  -5.365  -0.550  1.00  0.00     0.174 HD
ATOM     30  H41 UNL     1      -0.176  -5.614  -1.529  1.00  0.00     0.174 HD
ENDBRANCH   7  28
TORSDOF 7
