REMARK  4 active torsions:
REMARK  status: ('A' for Active; 'I' for Inactive)
REMARK    1  A    between atoms: O1_1  and  C1_3 
REMARK    2  A    between atoms: C1_3  and  C2_4 
REMARK    3  A    between atoms: C5_9  and  N1_10 
REMARK    4  A    between atoms: C9_16  and  O4_17 
ROOT
HETATM    1  C2  UNL     1      -2.031   0.626   0.037  1.00  0.00     0.177 C 
HETATM    2  O2  UNL     1      -0.888   0.898  -0.713  1.00  0.00    -0.369 OA
HETATM    3  C3  UNL     1       0.138   0.386   0.035  1.00  0.00     0.203 C 
HETATM    4  C4  UNL     1      -0.351  -0.848   0.738  1.00  0.00     0.189 C 
HETATM    5  O3  UNL     1       0.445  -1.650  -0.043  1.00  0.00    -0.353 OA
HETATM    6  C5  UNL     1       1.074  -0.568  -0.651  1.00  0.00     0.260 C 
HETATM    7  C9  UNL     1      -1.834  -0.849   0.344  1.00  0.00     0.180 C 
ENDROOT
BRANCH   6   8
HETATM    8  N1  UNL     1       2.431  -0.363  -0.185  1.00  0.00    -0.322 N 
HETATM    9  C6  UNL     1       3.397   0.302  -0.837  1.00  0.00     0.111 A 
HETATM   10  C7  UNL     1       4.562   0.300  -0.098  1.00  0.00     0.106 A 
HETATM   11  N2  UNL     1       4.276  -0.385   1.023  1.00  0.00    -0.361 N 
HETATM   12  C8  UNL     1       2.992  -0.781   0.965  1.00  0.00     0.184 A 
ATOM     13  H2  UNL     1       4.924  -0.573   1.788  1.00  0.00     0.166 HD
ENDBRANCH   6   8
BRANCH   1  14
HETATM   14  C1  UNL     1      -3.300   0.868  -0.751  1.00  0.00     0.198 C 
BRANCH  14  15
HETATM   15  O1  UNL     1      -3.310   2.205  -1.130  1.00  0.00    -0.398 OA
ATOM     16  H1  UNL     1      -4.107   2.357  -1.625  1.00  0.00     0.209 HD
ENDBRANCH  14  15
ENDBRANCH   1  14
BRANCH   7  17
HETATM   17  O4  UNL     1      -2.618  -1.274   1.391  1.00  0.00    -0.390 OA
ATOM     18  H4  UNL     1      -2.495  -2.196   1.583  1.00  0.00     0.210 HD
ENDBRANCH   7  17
TORSDOF 4
