REMARK  3 active torsions:
REMARK  status: ('A' for Active; 'I' for Inactive)
REMARK    1  A    between atoms: C6_8  and  N3_9 
REMARK    2  A    between atoms: C7_12  and  O3_13 
REMARK    3  A    between atoms: C8_15  and  O4_16 
ROOT
HETATM    1  N1  UNL     1      -3.497   0.273  -1.724  1.00  0.00    -0.195 NA
HETATM    2  C1  UNL     1      -2.623   0.255  -0.964  1.00  0.00     0.087 C 
HETATM    3  C2  UNL     1      -1.490   0.241  -0.009  1.00  0.00     0.165 C 
HETATM    4  C3  UNL     1      -2.066   0.252   1.351  1.00  0.00     0.087 C 
HETATM    5  N2  UNL     1      -2.521   0.255   2.417  1.00  0.00    -0.195 NA
HETATM    6  C4  UNL     1      -0.705   1.475  -0.218  1.00  0.00     0.045 C 
HETATM    7  C5  UNL     1       0.710   1.453   0.190  1.00  0.00     0.037 C 
HETATM    8  C6  UNL     1       1.311   0.094   0.371  1.00  0.00     0.187 C 
HETATM    9  C7  UNL     1       0.660  -0.832  -0.642  1.00  0.00     0.178 C 
HETATM   10  C8  UNL     1      -0.763  -1.038  -0.197  1.00  0.00     0.186 C 
ENDROOT
BRANCH  10  11
HETATM   11  O4  UNL     1      -0.732  -1.793   0.985  1.00  0.00    -0.390 OA
ATOM     12  H4  UNL     1      -0.266  -2.612   0.865  1.00  0.00     0.210 HD
ENDBRANCH  10  11
BRANCH   9  13
HETATM   13  O3  UNL     1       1.328  -2.025  -0.788  1.00  0.00    -0.391 OA
ATOM     14  H3  UNL     1       0.921  -2.604  -1.422  1.00  0.00     0.210 HD
ENDBRANCH   9  13
BRANCH   8  15
HETATM   15  N3  UNL     1       2.730   0.154   0.076  1.00  0.00    -0.148 N 
HETATM   16  O1  UNL     1       3.243  -0.535  -0.836  1.00  0.00    -0.536 OA
HETATM   17  O2  UNL     1       3.569   0.983   0.800  1.00  0.00    -0.536 OA
ENDBRANCH   8  15
TORSDOF 3
