REMARK  6 active torsions:
REMARK  status: ('A' for Active; 'I' for Inactive)
REMARK    1  A    between atoms: O1_1  and  N1_3 
REMARK    2  A    between atoms: C2_5  and  O2_6 
REMARK    3  A    between atoms: O2_6  and  C3_7 
REMARK    4  A    between atoms: C4_8  and  O3_9 
REMARK    5  A    between atoms: C5_11  and  O4_12 
REMARK    6  A    between atoms: N2_16  and  O5_17 
ROOT
HETATM    1  C3  UNL     1       0.011  -0.771   0.111  1.00  0.00     0.278 C 
HETATM    2  C4  UNL     1      -1.087  -0.583  -0.906  1.00  0.00     0.197 C 
HETATM    3  C5  UNL     1      -1.952   0.566  -0.494  1.00  0.00     0.152 C 
HETATM    4  C6  UNL     1      -2.591   0.166   0.843  1.00  0.00     0.056 C 
HETATM    5  C7  UNL     1      -1.458   0.068   1.828  1.00  0.00     0.155 C 
HETATM    6  N2  UNL     1      -0.442  -0.857   1.453  1.00  0.00    -0.264 N 
ENDROOT
BRANCH   1   7
HETATM    7  O2  UNL     1       0.959   0.224  -0.112  1.00  0.00    -0.328 OA
BRANCH   7   8
HETATM    8  C2  UNL     1       2.160  -0.256  -0.562  1.00  0.00     0.316 A 
HETATM    9  C1  UNL     1       3.374   0.174   0.259  1.00  0.00     0.247 A 
HETATM   10  N1  UNL     1       3.910   0.756  -0.948  1.00  0.00    -0.158 N 
HETATM   11  O6  UNL     1       2.761   0.445  -1.634  1.00  0.00    -0.223 OA
BRANCH  10  12
HETATM   12  O1  UNL     1       5.001   1.307  -1.191  1.00  0.00    -0.267 OA
ATOM     13  H1  UNL     1       5.354   1.690  -1.986  1.00  0.00     0.247 HD
ENDBRANCH  10  12
ENDBRANCH   7   8
ENDBRANCH   1   7
BRANCH   2  14
HETATM   14  O3  UNL     1      -0.472  -0.278  -2.122  1.00  0.00    -0.389 OA
ATOM     15  H3  UNL     1      -1.164  -0.160  -2.763  1.00  0.00     0.210 HD
ENDBRANCH   2  14
BRANCH   6  16
HETATM   16  O5  UNL     1      -0.662  -2.091   1.903  1.00  0.00    -0.290 OA
ATOM     17  H5  UNL     1      -0.965  -2.149   2.801  1.00  0.00     0.244 HD
ENDBRANCH   6  16
BRANCH   3  18
HETATM   18  O4  UNL     1      -2.900   0.900  -1.435  1.00  0.00    -0.393 OA
ATOM     19  H4  UNL     1      -3.449   1.630  -1.173  1.00  0.00     0.210 HD
ENDBRANCH   3  18
TORSDOF 6
