REMARK  3 active torsions:
REMARK  status: ('A' for Active; 'I' for Inactive)
REMARK    1  A    between atoms: C2_2  and  N1_3 
REMARK    2  A    between atoms: N1_3  and  C3_5 
REMARK    3  A    between atoms: C6_8  and  O1_9 
ROOT
HETATM    1  C3  UNL     1       0.161  -0.006   0.125  1.00  0.00     0.111 C 
HETATM    2  C4  UNL     1       1.174   1.147   0.232  1.00  0.00     0.030 C 
HETATM    3  C5  UNL     1       2.297   0.592   1.074  1.00  0.00     0.034 C 
HETATM    4  C6  UNL     1       3.070  -0.311   0.106  1.00  0.00     0.121 C 
HETATM    5  C7  UNL     1       2.198  -1.411  -0.370  1.00  0.00     0.071 C 
HETATM    6  C8  UNL     1       0.747  -1.330  -0.050  1.00  0.00     0.194 C 
HETATM    7  F1  UNL     1       0.561  -2.141   1.090  1.00  0.00    -0.247 F 
ENDROOT
BRANCH   1   8
HETATM    8  N1  UNL     1      -0.916   0.391  -0.748  1.00  0.00    -0.406 N 
ATOM      9  H1  UNL     1      -0.746   0.745  -1.689  1.00  0.00     0.154 HD
BRANCH   8  10
HETATM   10  C2  UNL     1      -2.246   0.258  -0.212  1.00  0.00     0.022 A 
HETATM   11  C1  UNL     1      -2.860  -1.139  -0.154  1.00  0.00     0.038 C 
HETATM   12  C9  UNL     1      -3.228   1.379  -0.224  1.00  0.00     0.032 A 
HETATM   13  C10 UNL     1      -2.474   1.095   1.036  1.00  0.00     0.032 A 
ENDBRANCH   8  10
ENDBRANCH   1   8
BRANCH   4  14
HETATM   14  O1  UNL     1       3.434   0.529  -0.966  1.00  0.00    -0.395 OA
ATOM     15  H1  UNL     1       3.913  -0.031  -1.566  1.00  0.00     0.210 HD
ENDBRANCH   4  14
TORSDOF 3
