REMARK  4 active torsions:
REMARK  status: ('A' for Active; 'I' for Inactive)
REMARK    1  A    between atoms: O1_2  and  C2_3 
REMARK    2  A    between atoms: C2_3  and  O2_4 
REMARK    3  A    between atoms: C2_3  and  N1_6 
REMARK    4  A    between atoms: N1_6  and  C3_8 
ROOT
HETATM    1  C3  UNL     1      -0.396  -0.387  -0.748  1.00  0.00     0.092 C 
HETATM    2  C4  UNL     1      -1.707   0.407  -0.912  1.00  0.00     0.011 C 
HETATM    3  C5  UNL     1      -2.716  -0.674  -0.669  1.00  0.00     0.007 C 
HETATM    4  C6  UNL     1      -2.023  -1.718   0.221  1.00  0.00     0.010 C 
HETATM    5  C7  UNL     1      -0.752  -0.983   0.598  1.00  0.00     0.042 C 
HETATM    6  C8  UNL     1      -1.172   0.244   1.366  1.00  0.00     0.176 C 
HETATM    7  F1  UNL     1      -0.190   0.740   2.183  1.00  0.00    -0.249 F 
HETATM    8  C9  UNL     1      -1.637   1.259   0.329  1.00  0.00     0.044 C 
ENDROOT
BRANCH   1   9
HETATM    9  N1  UNL     1       0.658   0.563  -0.693  1.00  0.00    -0.370 N 
ATOM     10  H1  UNL     1       0.485   1.568  -0.713  1.00  0.00     0.158 HD
BRANCH   9  11
HETATM   11  C2  UNL     1       1.977   0.018  -0.607  1.00  0.00     0.363 C 
BRANCH  11  12
HETATM   12  O1  UNL     1       2.872   1.077  -0.561  1.00  0.00    -0.349 OA
HETATM   13  C1  UNL     1       3.731   1.023   0.522  1.00  0.00     0.206 C 
ENDBRANCH  11  12
BRANCH  11  14
HETATM   14  O2  UNL     1       2.299  -0.748  -1.753  1.00  0.00    -0.355 OA
ATOM     15  H2  UNL     1       1.686  -1.473  -1.784  1.00  0.00     0.214 HD
ENDBRANCH  11  14
ENDBRANCH   9  11
ENDBRANCH   1   9
TORSDOF 4
