REMARK  9 active torsions:
REMARK  status: ('A' for Active; 'I' for Inactive)
REMARK    1  A    between atoms: C2_2  and  C3_3 
REMARK    2  A    between atoms: C3_3  and  N1_4 
REMARK    3  A    between atoms: N2_7  and  C6_8 
REMARK    4  A    between atoms: C6_8  and  C7_9 
REMARK    5  A    between atoms: C7_9  and  C8_10 
REMARK    6  A    between atoms: C8_10  and  S1_11 
REMARK    7  A    between atoms: S1_11  and  C9_13 
REMARK    8  A    between atoms: C9_13  and  C10_14 
REMARK    9  A    between atoms: C10_14  and  N3_15 
ROOT
HETATM    1  C6  UNL     1      -0.204  -0.967  -0.288  1.00  0.00     0.273 C 
ENDROOT
BRANCH   1   2
HETATM    2  N2  UNL     1      -0.775   0.332   0.001  1.00  0.00     0.091 N 
HETATM    3  C5  UNL     1      -1.475   0.421   1.236  1.00  0.00     0.292 C 
HETATM    4  C4  UNL     1      -2.906  -0.077   1.059  1.00  0.00     0.152 C 
HETATM    5  N1  UNL     1      -3.638   0.788   0.219  1.00  0.00    -0.390 N 
HETATM    6  C14 UNL     1      -2.781   1.541  -0.695  1.00  0.00     0.152 C 
HETATM    7  C13 UNL     1      -1.606   0.688  -1.136  1.00  0.00     0.292 C 
BRANCH   5   8
HETATM    8  C3  UNL     1      -4.835   0.366  -0.381  1.00  0.00     0.058 C 
BRANCH   8   9
HETATM    9  C2  UNL     1      -5.986   0.199   0.527  1.00  0.00     0.040 C 
HETATM   10  C1  UNL     1      -5.835  -0.837   1.588  1.00  0.00     0.010 C 
ENDBRANCH   8   9
ENDBRANCH   5   8
ENDBRANCH   1   2
BRANCH   1  11
HETATM   11  C7  UNL     1       0.566  -0.862  -1.562  1.00  0.00     0.043 C 
BRANCH  11  12
HETATM   12  C8  UNL     1       1.655   0.151  -1.502  1.00  0.00     0.110 C 
BRANCH  12  13
HETATM   13  S1  UNL     1       2.866  -0.195  -0.309  1.00  0.00     0.016 S 
HETATM   14  O1  UNL     1       2.264  -0.251   1.227  1.00  0.00    -0.258 OA
BRANCH  13  15
HETATM   15  C9  UNL     1       4.240   0.939  -0.385  1.00  0.00     0.139 C 
BRANCH  15  16
HETATM   16  C10 UNL     1       5.234   0.576   0.667  1.00  0.00     0.285 C 
BRANCH  16  17
HETATM   17  N3  UNL     1       5.761  -0.762   0.512  1.00  0.00     0.092 N 
HETATM   18  C11 UNL     1       6.610  -1.051  -0.626  1.00  0.00     0.302 A 
HETATM   19  C12 UNL     1       7.166  -1.009   0.781  1.00  0.00     0.302 A 
ENDBRANCH  16  17
ENDBRANCH  15  16
ENDBRANCH  13  15
ENDBRANCH  12  13
ENDBRANCH  11  12
ENDBRANCH   1  11
TORSDOF 9
