REMARK  13 active torsions:
REMARK  status: ('A' for Active; 'I' for Inactive)
REMARK    1  A    between atoms: C2_2  and  C3_3 
REMARK    2  A    between atoms: C3_3  and  C4_4 
REMARK    3  A    between atoms: C4_4  and  C5_5 
REMARK    4  A    between atoms: C5_5  and  C6_6 
REMARK    5  A    between atoms: C6_6  and  C7_7 
REMARK    6  A    between atoms: C8_8  and  C9_9 
REMARK    7  A    between atoms: C10_10  and  C11_11 
REMARK    8  A    between atoms: C11_11  and  N1_12 
REMARK    9  A    between atoms: C13_14  and  O1_15 
REMARK   10  A    between atoms: N3_19  and  C14_20 
REMARK   11  A    between atoms: C14_20  and  C15_21 
REMARK   12  A    between atoms: C15_21  and  O2_22 
REMARK   13  A    between atoms: O2_22  and  O3_24 
ROOT
HETATM    1  N1  UNL     1      -2.627  -1.117  -0.514  1.00  0.00    -0.279 N 
HETATM    2  C12 UNL     1      -3.023  -2.426  -0.465  1.00  0.00     0.169 A 
HETATM    3  C13 UNL     1      -3.869  -2.607   0.597  1.00  0.00     0.173 A 
HETATM    4  N2  UNL     1      -3.973  -1.407   1.173  1.00  0.00    -0.262 N 
ATOM      5  H2  UNL     1      -4.534  -1.195   1.998  1.00  0.00     0.191 HD
HETATM    6  N3  UNL     1      -3.215  -0.515   0.488  1.00  0.00    -0.230 N 
ENDROOT
BRANCH   1   7
HETATM    7  C11 UNL     1      -1.704  -0.618  -1.509  1.00  0.00     0.178 C 
BRANCH   7   8
HETATM    8  C10 UNL     1      -0.317  -0.728  -1.007  1.00  0.00     0.004 C 
HETATM    9  C9  UNL     1      -0.037  -1.212   0.175  1.00  0.00     0.062 C 
BRANCH   9  10
HETATM   10  C8  UNL     1       1.287  -1.343   0.713  1.00  0.00    -0.079 C 
HETATM   11  C7  UNL     1       2.403  -1.473   1.159  1.00  0.00    -0.102 C 
BRANCH  11  12
HETATM   12  C6  UNL     1       3.751  -1.655   1.700  1.00  0.00     0.094 C 
BRANCH  12  13
HETATM   13  C5  UNL     1       4.760  -1.911   0.586  1.00  0.00     0.012 C 
BRANCH  13  14
HETATM   14  C4  UNL     1       4.801  -0.761  -0.374  1.00  0.00     0.005 C 
BRANCH  14  15
HETATM   15  C3  UNL     1       5.195   0.522   0.311  1.00  0.00     0.026 C 
BRANCH  15  16
HETATM   16  C2  UNL     1       5.197   1.586  -0.760  1.00  0.00    -0.037 C 
HETATM   17  C1  UNL     1       4.383   2.630  -0.621  1.00  0.00     0.007 C 
ENDBRANCH  15  16
ENDBRANCH  14  15
ENDBRANCH  13  14
ENDBRANCH  12  13
ENDBRANCH  11  12
ENDBRANCH   9  10
ENDBRANCH   7   8
ENDBRANCH   1   7
BRANCH   6  18
HETATM   18  C14 UNL     1      -3.189   0.849   0.900  1.00  0.00     0.170 C 
BRANCH  18  19
HETATM   19  C15 UNL     1      -4.300   1.684   0.377  1.00  0.00     0.025 C 
BRANCH  19  20
HETATM   20  O2  UNL     1      -4.387   1.856  -0.981  1.00  0.00     0.000 OA
HETATM   21  C16 UNL     1      -5.586   2.592  -1.286  1.00  0.00     0.000 C 
BRANCH  20  22
HETATM   22  O3  UNL     1      -3.387   2.663  -1.405  1.00  0.00    -0.253 OA
ATOM     23  H3  UNL     1      -3.447   2.782  -2.346  1.00  0.00     0.253 HD
ENDBRANCH  20  22
ENDBRANCH  19  20
ENDBRANCH  18  19
ENDBRANCH   6  18
BRANCH   3  24
HETATM   24  O1  UNL     1      -4.506  -3.754   1.026  1.00  0.00    -0.344 OA
ATOM     25  H1  UNL     1      -5.093  -3.880   1.763  1.00  0.00     0.219 HD
ENDBRANCH   3  24
TORSDOF 13
