REMARK  5 active torsions:
REMARK  status: ('A' for Active; 'I' for Inactive)
REMARK    1  A    between atoms: C2_2  and  C3_3 
REMARK    2  A    between atoms: C3_3  and  C4_4 
REMARK    3  A    between atoms: C4_4  and  C5_5 
REMARK    4  A    between atoms: C5_5  and  N2_7 
REMARK    5  A    between atoms: N2_7  and  N3_8 
ROOT
HETATM    1  C5  UNL     1      -1.678  -0.040  -0.265  1.00  0.00     0.212 C 
HETATM    2  N1  UNL     1      -2.817  -0.858  -0.393  1.00  0.00    -0.065 NA
ENDROOT
BRANCH   1   3
HETATM    3  C4  UNL     1      -0.379  -0.614  -0.017  1.00  0.00     0.062 C 
BRANCH   3   4
HETATM    4  C3  UNL     1       0.684   0.170   0.101  1.00  0.00     0.004 C 
BRANCH   4   5
HETATM    5  C2  UNL     1       2.013  -0.323   0.349  1.00  0.00    -0.010 C 
HETATM    6  C1  UNL     1       3.035   0.497   0.457  1.00  0.00     0.011 C 
ENDBRANCH   4   5
ENDBRANCH   3   4
ENDBRANCH   1   3
BRANCH   1   7
HETATM    7  N2  UNL     1      -1.794   1.189  -0.368  1.00  0.00    -0.318 NA
BRANCH   7   8
HETATM    8  N3  UNL     1      -1.904   2.431  -0.478  1.00  0.00    -0.279 N 
ATOM      9  H32 UNL     1      -1.540   1.490  -0.624  1.00  0.00     0.191 HD
ATOM     10  H31 UNL     1      -2.000   3.443  -0.563  1.00  0.00     0.191 HD
ENDBRANCH   7   8
ENDBRANCH   1   7
TORSDOF 5
