REMARK  1 active torsions:
REMARK  status: ('A' for Active; 'I' for Inactive)
REMARK    1  A    between atoms: C1_2  and  C2_4 
ROOT
HETATM    1  C2  UNL     1       0.205  -0.435   0.197  1.00  0.00     0.084 A 
HETATM    2  C3  UNL     1      -1.176  -0.293  -0.345  1.00  0.00     0.004 A 
HETATM    3  C4  UNL     1      -2.244  -0.253   0.769  1.00  0.00     0.011 A 
HETATM    4  C5  UNL     1      -0.898   0.393   0.932  1.00  0.00     0.004 A 
ENDROOT
BRANCH   1   5
HETATM    5  C1  UNL     1       1.317   0.363  -0.316  1.00  0.00     0.236 C 
HETATM    6  N1  UNL     1       2.642  -0.114  -0.180  1.00  0.00    -0.062 NA
HETATM    7  O1  UNL     1       1.113   1.461  -0.873  1.00  0.00    -0.276 OA
ENDBRANCH   1   5
TORSDOF 1
