REMARK  1 active torsions:
REMARK  status: ('A' for Active; 'I' for Inactive)
REMARK    1  A    between atoms: N2_4  and  N3_6 
ROOT
HETATM    1  N3  UNL     1       1.917   0.437   0.455  1.00  0.00    -0.272 N 
ATOM      2  H3  UNL     1       2.329   1.369   0.403  1.00  0.00     0.190 HD
HETATM    3  C1  UNL     1       0.652   0.301   0.180  1.00  0.00     0.116 A 
HETATM    4  C2  UNL     1      -0.262   1.351  -0.202  1.00  0.00     0.047 A 
HETATM    5  C3  UNL     1      -1.461   0.859  -0.405  1.00  0.00    -0.004 A 
HETATM    6  C4  UNL     1      -1.427  -0.586  -0.167  1.00  0.00     0.148 A 
HETATM    7  N4  UNL     1      -0.082  -0.901   0.198  1.00  0.00    -0.372 N 
ATOM      8  H4  UNL     1       0.280  -1.826   0.429  1.00  0.00     0.161 HD
ENDROOT
BRANCH   1   9
HETATM    9  N2  UNL     1       2.723  -0.619   0.812  1.00  0.00    -0.248 N 
HETATM   10  N1  UNL     1       3.857  -0.864   0.288  1.00  0.00    -0.331 N 
ATOM     11  H12 UNL     1       4.174  -0.226  -0.442  1.00  0.00     0.178 HD
ATOM     12  H11 UNL     1       4.455  -1.647   0.553  1.00  0.00     0.178 HD
ATOM     13  H2  UNL     1       2.390  -1.246   1.544  1.00  0.00     0.207 HD
ENDBRANCH   1   9
TORSDOF 1
