REMARK  1 active torsions:
REMARK  status: ('A' for Active; 'I' for Inactive)
REMARK    1  A    between atoms: N2_4  and  C1_6 
ROOT
HETATM    1  C1  UNL     1       0.942  -0.421   0.337  1.00  0.00     0.192 C 
HETATM    2  C2  UNL     1      -0.433  -0.978   0.573  1.00  0.00     0.056 C 
HETATM    3  C3  UNL     1      -1.409   0.058   0.082  1.00  0.00     0.125 C 
HETATM    4  N3  UNL     1      -0.671   1.287   0.159  1.00  0.00    -0.359 N 
ATOM      5  H3  UNL     1      -1.086   2.218   0.124  1.00  0.00     0.162 HD
HETATM    6  C4  UNL     1       0.713   1.025   0.291  1.00  0.00     0.241 C 
HETATM    7  O1  UNL     1       1.596   1.908   0.357  1.00  0.00    -0.271 OA
ENDROOT
BRANCH   1   8
HETATM    8  N2  UNL     1       1.550  -0.947  -0.829  1.00  0.00    -0.329 N 
HETATM    9  N1  UNL     1       2.343  -0.386  -1.565  1.00  0.00    -0.349 N 
ATOM     10  H12 UNL     1       2.585   0.568  -1.297  1.00  0.00     0.176 HD
ATOM     11  H11 UNL     1       2.781  -0.765  -2.405  1.00  0.00     0.176 HD
ATOM     12  H2  UNL     1       1.296  -1.902  -1.081  1.00  0.00     0.180 HD
ENDBRANCH   1   8
TORSDOF 1
