REMARK  9 active torsions:
REMARK  status: ('A' for Active; 'I' for Inactive)
REMARK    1  A    between atoms: C3_3  and  N1_4 
REMARK    2  A    between atoms: N1_4  and  C4_5 
REMARK    3  A    between atoms: N1_4  and  C7_8 
REMARK    4  A    between atoms: C7_8  and  C8_9 
REMARK    5  A    between atoms: C8_9  and  C9_10 
REMARK    6  A    between atoms: C9_10  and  N2_11 
REMARK    7  A    between atoms: N3_15  and  C12_16 
REMARK    8  A    between atoms: C12_16  and  C13_17 
REMARK    9  A    between atoms: C13_17  and  C14_18 
ROOT
HETATM    1  C1  UNL     1      -5.641  -3.601  -0.476  1.00  0.00     0.013 C 
HETATM    2  C2  UNL     1      -4.649  -2.945  -0.594  1.00  0.00    -0.087 C 
HETATM    3  C3  UNL     1      -3.472  -2.142  -0.728  1.00  0.00     0.366 C 
ENDROOT
BRANCH   3   4
HETATM    4  N1  UNL     1      -3.583  -0.842   0.003  1.00  0.00     0.109 N 
BRANCH   4   5
HETATM    5  C4  UNL     1      -4.582  -0.034  -0.651  1.00  0.00     0.353 C 
HETATM    6  C5  UNL     1      -4.993   1.058   0.205  1.00  0.00    -0.158 C 
HETATM    7  C6  UNL     1      -5.382   1.977   0.925  1.00  0.00     0.098 C 
ENDBRANCH   4   5
BRANCH   4   8
HETATM    8  C7  UNL     1      -2.205  -0.329  -0.223  1.00  0.00     0.279 C 
BRANCH   8   9
HETATM    9  C8  UNL     1      -1.882   0.957   0.382  1.00  0.00     0.075 C 
BRANCH   9  10
HETATM   10  C9  UNL     1      -0.478   1.397   0.073  1.00  0.00     0.067 C 
BRANCH  10  11
HETATM   11  N2  UNL     1       0.610   0.616   0.435  1.00  0.00    -0.348 N 
HETATM   12  C10 UNL     1       0.930  -0.579  -0.217  1.00  0.00     0.166 C 
HETATM   13  C11 UNL     1       2.214  -0.231  -0.947  1.00  0.00     0.260 C 
HETATM   14  O1  UNL     1       2.693  -0.837  -1.966  1.00  0.00    -0.267 OA
HETATM   15  N3  UNL     1       2.765   0.886  -0.282  1.00  0.00    -0.331 N 
HETATM   16  C16 UNL     1       1.829   1.345   0.696  1.00  0.00     0.256 C 
BRANCH  15  17
HETATM   17  C12 UNL     1       4.070   1.458  -0.571  1.00  0.00     0.129 C 
BRANCH  17  18
HETATM   18  C13 UNL     1       5.133   0.820   0.271  1.00  0.00     0.034 C 
BRANCH  18  19
HETATM   19  C14 UNL     1       5.239  -0.668   0.043  1.00  0.00     0.125 C 
HETATM   20  C15 UNL     1       6.322  -1.157   0.910  1.00  0.00     0.059 C 
HETATM   21  N4  UNL     1       7.176  -1.558   1.595  1.00  0.00    -0.197 NA
ENDBRANCH  18  19
ENDBRANCH  17  18
ENDBRANCH  15  17
ENDBRANCH  10  11
ENDBRANCH   9  10
ENDBRANCH   8   9
ENDBRANCH   4   8
ENDBRANCH   3   4
TORSDOF 9
