REMARK  9 active torsions:
REMARK  status: ('A' for Active; 'I' for Inactive)
REMARK    1  A    between atoms: C2_2  and  C3_3 
REMARK    2  A    between atoms: C3_3  and  N1_4 
REMARK    3  A    between atoms: N1_4  and  C4_5 
REMARK    4  A    between atoms: N1_4  and  C6_8 
REMARK    5  A    between atoms: C4_5  and  C5_6 
REMARK    6  A    between atoms: C6_8  and  C7_9 
REMARK    7  A    between atoms: C7_9  and  N2_10 
REMARK    8  A    between atoms: N3_13  and  S1_14 
REMARK    9  A    between atoms: S1_14  and  C10_17 
ROOT
HETATM    1  N2  UNL     1       0.459   0.177   0.363  1.00  0.00     0.095 N 
HETATM    2  C8  UNL     1       1.455   0.736  -0.489  1.00  0.00     0.288 C 
HETATM    3  C9  UNL     1       2.356  -0.158  -1.226  1.00  0.00     0.138 C 
HETATM    4  N3  UNL     1       2.970  -1.079  -0.324  1.00  0.00    -0.204 NA
HETATM    5  C12 UNL     1       2.071  -1.735   0.569  1.00  0.00     0.138 C 
HETATM    6  C13 UNL     1       0.780  -1.125   0.878  1.00  0.00     0.288 C 
ENDROOT
BRANCH   1   7
HETATM    7  C7  UNL     1      -0.846   0.087  -0.367  1.00  0.00     0.317 C 
BRANCH   7   8
HETATM    8  C6  UNL     1      -1.882  -0.092   0.670  1.00  0.00     0.093 C 
BRANCH   8   9
HETATM    9  N1  UNL     1      -3.213  -0.256   0.316  1.00  0.00    -0.362 N 
BRANCH   9  10
HETATM   10  C3  UNL     1      -4.023   0.726  -0.227  1.00  0.00     0.089 C 
BRANCH  10  11
HETATM   11  C2  UNL     1      -3.376   2.059  -0.228  1.00  0.00     0.007 C 
HETATM   12  C1  UNL     1      -3.154   2.808  -1.282  1.00  0.00     0.012 C 
ENDBRANCH  10  11
ENDBRANCH   9  10
BRANCH   9  13
HETATM   13  C4  UNL     1      -3.764  -1.576   0.478  1.00  0.00     0.196 C 
BRANCH  13  14
HETATM   14  C5  UNL     1      -4.818  -1.464   1.555  1.00  0.00     0.251 C 
HETATM   15  O1  UNL     1      -5.452  -2.420   1.965  1.00  0.00    -0.305 OA
ENDBRANCH  13  14
ENDBRANCH   9  13
ENDBRANCH   8   9
ENDBRANCH   7   8
ENDBRANCH   1   7
BRANCH   4  16
HETATM   16  S1  UNL     1       4.341  -0.448   0.514  1.00  0.00     0.233 S 
HETATM   17  O2  UNL     1       3.989   0.677   1.445  1.00  0.00    -0.207 OA
HETATM   18  O3  UNL     1       4.825  -1.597   1.401  1.00  0.00    -0.207 OA
BRANCH  16  19
HETATM   19  C10 UNL     1       5.604   0.005  -0.577  1.00  0.00     0.115 C 
HETATM   20  C11 UNL     1       5.964   1.275  -0.689  1.00  0.00     0.024 C 
ENDBRANCH  16  19
ENDBRANCH   4  16
TORSDOF 9
