REMARK  5 active torsions:
REMARK  status: ('A' for Active; 'I' for Inactive)
REMARK    1  A    between atoms: N1_1  and  C1_4 
REMARK    2  A    between atoms: C3_11  and  N4_12 
REMARK    3  A    between atoms: N4_12  and  C4_14 
REMARK    4  A    between atoms: C4_14  and  N5_15 
REMARK    5  A    between atoms: N5_15  and  N6_16 
ROOT
HETATM    1  C1  UNL     1       3.636  -0.204   0.142  1.00  0.00     0.195 A 
HETATM    2  O1  UNL     1       3.783   1.004  -0.310  1.00  0.00    -0.216 OA
HETATM    3  N2  UNL     1       2.628   1.517  -0.624  1.00  0.00    -0.240 N 
ATOM      4  H2  UNL     1       2.478   2.453  -1.001  1.00  0.00     0.196 HD
HETATM    5  C2  UNL     1       1.668   0.617  -0.372  1.00  0.00     0.173 A 
HETATM    6  N3  UNL     1       0.329   0.384  -0.417  1.00  0.00    -0.173 N 
ATOM      7  H3  UNL     1      -0.384   1.037  -0.742  1.00  0.00     0.186 HD
HETATM    8  C3  UNL     1       0.114  -0.848   0.038  1.00  0.00     0.681 A 
HETATM    9  N7  UNL     1       1.297  -1.392   0.366  1.00  0.00    -0.184 N 
ATOM     10  H7  UNL     1       1.430  -2.331   0.742  1.00  0.00     0.184 HD
HETATM   11  C5  UNL     1       2.290  -0.498   0.120  1.00  0.00     0.148 A 
ENDROOT
BRANCH   8  12
HETATM   12  N4  UNL     1      -1.185  -1.450   0.140  1.00  0.00    -0.211 N 
ATOM     13  H4  UNL     1      -1.266  -2.401   0.499  1.00  0.00     0.179 HD
BRANCH  12  14
HETATM   14  C4  UNL     1      -2.382  -0.740  -0.254  1.00  0.00     0.273 C 
BRANCH  14  15
HETATM   15  N5  UNL     1      -2.509   0.465   0.543  1.00  0.00    -0.128 NA
BRANCH  15  16
HETATM   16  N6  UNL     1      -3.661   1.152   0.165  1.00  0.00    -0.347 N 
ATOM     17  H62 UNL     1      -4.306   0.842  -0.562  1.00  0.00     0.172 HD
ATOM     18  H61 UNL     1      -3.750   1.999   0.726  1.00  0.00     0.172 HD
ENDBRANCH  15  16
ENDBRANCH  14  15
ENDBRANCH  12  14
ENDBRANCH   8  12
BRANCH   1  19
HETATM   19  N1  UNL     1       4.564  -0.987   0.537  1.00  0.00    -0.376 N 
ATOM     20  H12 UNL     1       5.560  -0.769   0.553  1.00  0.00     0.158 HD
ATOM     21  H11 UNL     1       4.448  -1.936   0.892  1.00  0.00     0.158 HD
ENDBRANCH   1  19
TORSDOF 5
