REMARK  5 active torsions:
REMARK  status: ('A' for Active; 'I' for Inactive)
REMARK    1  A    between atoms: C7_8  and  N1_9 
REMARK    2  A    between atoms: N1_9  and  N2_11 
REMARK    3  A    between atoms: N2_11  and  N3_13 
REMARK    4  A    between atoms: C8_15  and  C9_16 
REMARK    5  A    between atoms: N4_19  and  O1_20 
ROOT
HETATM    1  N2  UNL     1      -0.493  -0.793   1.074  1.00  0.00    -0.243 N 
ATOM      2  H2  UNL     1      -0.827  -0.889   2.033  1.00  0.00     0.208 HD
ENDROOT
BRANCH   1   3
HETATM    3  N1  UNL     1      -1.299  -1.141   0.015  1.00  0.00    -0.286 N 
ATOM      4  H1  UNL     1      -0.974  -1.930  -0.544  1.00  0.00     0.188 HD
BRANCH   3   5
HETATM    5  C7  UNL     1      -2.506  -0.560  -0.402  1.00  0.00     0.055 A 
HETATM    6  C2  UNL     1      -3.120   0.498   0.211  1.00  0.00    -0.032 A 
HETATM    7  C1  UNL     1      -2.522   1.120   1.412  1.00  0.00     0.050 C 
HETATM    8  C3  UNL     1      -4.324   1.001  -0.292  1.00  0.00     0.033 A 
HETATM    9  C4  UNL     1      -4.923   0.468  -1.394  1.00  0.00     0.034 A 
HETATM   10 CL1  UNL     1      -6.425   1.076  -2.044  1.00  0.00    -0.084 Cl
HETATM   11  C5  UNL     1      -4.324  -0.590  -2.021  1.00  0.00     0.026 A 
HETATM   12  C6  UNL     1      -3.146  -1.078  -1.523  1.00  0.00     0.033 A 
ENDBRANCH   3   5
ENDBRANCH   1   3
BRANCH   1  13
HETATM   13  N3  UNL     1       0.800  -0.302   0.813  1.00  0.00    -0.297 N 
HETATM   14  C8  UNL     1       1.795  -1.028   0.519  1.00  0.00     0.120 C 
ATOM     15  H3  UNL     1       0.945   0.706   0.864  1.00  0.00     0.187 HD
BRANCH  14  16
HETATM   16  C9  UNL     1       3.089  -0.412   0.268  1.00  0.00    -0.017 A 
HETATM   17  C10 UNL     1       4.213  -1.146  -0.057  1.00  0.00     0.032 A 
HETATM   18  C11 UNL     1       5.430  -0.542  -0.291  1.00  0.00     0.123 A 
HETATM   19  N4  UNL     1       5.532   0.783  -0.203  1.00  0.00    -0.247 N 
HETATM   20  C12 UNL     1       4.464   1.522   0.110  1.00  0.00     0.123 A 
HETATM   21  C13 UNL     1       3.239   0.951   0.348  1.00  0.00     0.032 A 
BRANCH  19  22
HETATM   22  O1  UNL     1       6.732   1.411  -0.431  1.00  0.00    -0.284 OA
ATOM     23  H1  UNL     1       6.805   2.356  -0.368  1.00  0.00     0.245 HD
ENDBRANCH  19  22
ENDBRANCH  14  16
ENDBRANCH   1  13
TORSDOF 5
