REMARK  4 active torsions:
REMARK  status: ('A' for Active; 'I' for Inactive)
REMARK    1  A    between atoms: C6_7  and  C7_8 
REMARK    2  A    between atoms: C7_8  and  N1_9 
REMARK    3  A    between atoms: N1_9  and  C8_12 
REMARK    4  A    between atoms: C8_12  and  C9_13 
ROOT
HETATM    1  C9  UNL     1      -0.815  -0.708   0.440  1.00  0.00     0.154 C 
HETATM    2  C10 UNL     1      -1.500   0.287  -0.577  1.00  0.00     0.102 C 
HETATM    3  C11 UNL     1      -2.936   0.300  -0.199  1.00  0.00     0.230 C 
HETATM    4  C12 UNL     1      -3.687   1.557  -0.514  1.00  0.00     0.070 C 
HETATM    5  C13 UNL     1      -5.108   1.121  -0.172  1.00  0.00     0.032 C 
HETATM    6  C14 UNL     1      -5.108  -0.291  -0.670  1.00  0.00     0.236 C 
HETATM    7  N2  UNL     1      -3.728  -0.697  -0.854  1.00  0.00    -0.043 N 
ATOM      8  H21 UNL     1      -3.536  -1.646  -0.533  1.00  0.00     0.280 HD
ATOM      9  H22 UNL     1      -3.473  -0.844  -1.831  1.00  0.00     0.280 HD
HETATM   10  O1  UNL     1      -3.016   0.066   1.193  1.00  0.00    -0.329 OA
HETATM   11  C15 UNL     1      -2.754  -1.286   1.433  1.00  0.00     0.341 C 
HETATM   12  O2  UNL     1      -1.803  -1.721   0.476  1.00  0.00    -0.360 OA
ENDROOT
BRANCH   1  13
HETATM   13  C8  UNL     1       0.475  -1.216  -0.185  1.00  0.00     0.264 C 
BRANCH  13  14
HETATM   14  N1  UNL     1       1.556  -0.360   0.188  1.00  0.00    -0.069 N 
ATOM     15  H12 UNL     1       1.958  -0.647   1.081  1.00  0.00     0.277 HD
ATOM     16  H11 UNL     1       1.216   0.565   0.449  1.00  0.00     0.277 HD
BRANCH  14  17
HETATM   17  C7  UNL     1       2.554  -0.269  -0.811  1.00  0.00     0.274 C 
BRANCH  17  18
HETATM   18  C6  UNL     1       3.886   0.167  -0.217  1.00  0.00     0.006 A 
HETATM   19  C1  UNL     1       4.387   1.416  -0.362  1.00  0.00     0.124 A 
HETATM   20  F1  UNL     1       3.683   2.359  -0.959  1.00  0.00    -0.206 F 
HETATM   21  C2  UNL     1       5.711   1.718  -0.036  1.00  0.00     0.043 A 
HETATM   22  C3  UNL     1       6.544   0.701   0.436  1.00  0.00     0.003 A 
HETATM   23  C4  UNL     1       6.017  -0.599   0.606  1.00  0.00     0.001 A 
HETATM   24  C5  UNL     1       4.731  -0.846   0.308  1.00  0.00     0.012 A 
ENDBRANCH  17  18
ENDBRANCH  14  17
ENDBRANCH  13  14
ENDBRANCH   1  13
TORSDOF 4
