REMARK  7 active torsions:
REMARK  status: ('A' for Active; 'I' for Inactive)
REMARK    1  A    between atoms: N1_2  and  C2_4 
REMARK    2  A    between atoms: C2_4  and  N2_6 
REMARK    3  A    between atoms: N2_6  and  N3_8 
REMARK    4  A    between atoms: C3_10  and  C4_11 
REMARK    5  A    between atoms: C3_10  and  C6_14 
REMARK    6  A    between atoms: C6_14  and  C7_15 
REMARK    7  A    between atoms: C7_15  and  C9_18 
ROOT
HETATM    1  C4  UNL     1       0.363  -2.165   0.318  1.00  0.00     0.177 C 
HETATM    2  C5  UNL     1       0.129  -2.360   1.771  1.00  0.00     0.065 C 
HETATM    3  N4  UNL     1      -0.066  -2.511   2.900  1.00  0.00    -0.197 NA
ENDROOT
BRANCH   1   4
HETATM    4  C3  UNL     1       0.605  -0.756   0.007  1.00  0.00     0.018 C 
HETATM    5  N3  UNL     1       1.713  -0.415  -0.541  1.00  0.00    -0.306 N 
ATOM      6  H3  UNL     1       1.841   0.577  -0.740  1.00  0.00     0.186 HD
BRANCH   5   7
HETATM    7  N2  UNL     1       2.753  -1.260  -0.889  1.00  0.00    -0.277 N 
ATOM      8  H2  UNL     1       2.554  -2.163  -1.319  1.00  0.00     0.189 HD
BRANCH   7   9
HETATM    9  C2  UNL     1       4.090  -0.871  -0.648  1.00  0.00     0.186 C 
HETATM   10  S1  UNL     1       5.259  -1.961  -1.102  1.00  0.00    -0.040 SA
BRANCH   9  11
HETATM   11  N1  UNL     1       4.483   0.342  -0.067  1.00  0.00    -0.370 N 
HETATM   12  C1  UNL     1       3.575   1.352   0.360  1.00  0.00     0.148 C 
ATOM     13  H1  UNL     1       5.481   0.512   0.058  1.00  0.00     0.161 HD
ENDBRANCH   9  11
ENDBRANCH   7   9
ENDBRANCH   5   7
BRANCH   4  14
HETATM   14  C6  UNL     1      -0.396   0.325   0.300  1.00  0.00     0.076 C 
BRANCH  14  15
HETATM   15  C7  UNL     1      -1.688   0.070  -0.435  1.00  0.00     0.120 C 
HETATM   16  C8  UNL     1      -1.374   0.051  -1.865  1.00  0.00     0.066 C 
HETATM   17  N5  UNL     1      -1.130   0.048  -3.006  1.00  0.00    -0.197 NA
BRANCH  15  18
HETATM   18  C9  UNL     1      -2.728   1.104  -0.200  1.00  0.00     0.046 C 
HETATM   19  C10 UNL     1      -3.962   0.723  -0.994  1.00  0.00     0.033 C 
HETATM   20  C11 UNL     1      -3.144   1.237   1.240  1.00  0.00     0.033 C 
HETATM   21 CL1  UNL     1      -2.151   2.696  -0.756  1.00  0.00    -0.119 Cl
ENDBRANCH  15  18
ENDBRANCH  14  15
ENDBRANCH   4  14
ENDBRANCH   1   4
TORSDOF 7
