REMARK  14 active torsions:
REMARK  status: ('A' for Active; 'I' for Inactive)
REMARK    1  A    between atoms: C2_2  and  C3_3 
REMARK    2  A    between atoms: C3_3  and  C4_4 
REMARK    3  A    between atoms: C4_4  and  C5_5 
REMARK    4  A    between atoms: C5_5  and  C18_28 
REMARK    5  A    between atoms: N1_6  and  C6_8 
REMARK    6  A    between atoms: C7_11  and  N3_12 
REMARK    7  A    between atoms: C13_21  and  C14_22 
REMARK    8  A    between atoms: C18_28  and  N5_30 
REMARK    9  A    between atoms: N5_30  and  C20_33 
REMARK   10  A    between atoms: C20_33  and  C21_34 
REMARK   11  A    between atoms: C20_33  and  C24_38 
REMARK   12  A    between atoms: C21_34  and  N6_35 
REMARK       I    between atoms: C24_38  and  N7_40 
REMARK   13  A    between atoms: N7_40  and  C25_42 
REMARK   14  A    between atoms: C25_42  and  C26_43 
ROOT
HETATM    1  C5  UNL     1       0.283  -1.232   1.434  1.00  0.00     0.034 C 
HETATM    2  N1  UNL     1       1.370  -0.692   0.821  1.00  0.00    -0.197 N 
ATOM      3  H1  UNL     1       1.472   0.210   1.285  1.00  0.00     0.183 HD
ENDROOT
BRANCH   1   4
HETATM    4  C4  UNL     1      -0.106  -2.654   1.286  1.00  0.00     0.055 C 
BRANCH   4   5
HETATM    5  C3  UNL     1       0.913  -3.644   1.806  1.00  0.00     0.005 C 
BRANCH   5   6
HETATM    6  C2  UNL     1       0.443  -5.055   1.591  1.00  0.00    -0.004 C 
HETATM    7  C1  UNL     1      -0.857  -5.297   2.303  1.00  0.00     0.005 C 
ENDBRANCH   5   6
ENDBRANCH   4   5
ENDBRANCH   1   4
BRANCH   1   8
HETATM    8  C18 UNL     1      -0.931  -0.266   1.444  1.00  0.00     0.228 C 
HETATM    9  C19 UNL     1      -0.383   1.159   1.602  1.00  0.00     0.046 C 
BRANCH   8  10
HETATM   10  N5  UNL     1      -1.780  -0.386   0.317  1.00  0.00    -0.052 N 
ATOM     11  H52 UNL     1      -1.582   0.329  -0.383  1.00  0.00     0.279 HD
ATOM     12  H51 UNL     1      -1.555  -1.211  -0.239  1.00  0.00     0.279 HD
BRANCH  10  13
HETATM   13  C20 UNL     1      -3.193  -0.372   0.724  1.00  0.00     0.305 C 
BRANCH  13  14
HETATM   14  C21 UNL     1      -4.068  -1.218  -0.138  1.00  0.00     0.314 C 
BRANCH  14  15
HETATM   15  N6  UNL     1      -3.750  -2.619  -0.172  1.00  0.00     0.082 N 
HETATM   16  C22 UNL     1      -4.705  -3.231  -1.124  1.00  0.00     0.309 C 
HETATM   17  C23 UNL     1      -4.082  -3.269   1.100  1.00  0.00     0.309 C 
ENDBRANCH  14  15
ENDBRANCH  13  14
BRANCH  13  18
HETATM   18  C24 UNL     1      -3.744   1.031   0.597  1.00  0.00     0.250 C 
HETATM   19  O4  UNL     1      -2.993   1.871   0.100  1.00  0.00    -0.271 OA
HETATM   20  N7  UNL     1      -5.037   1.315   1.033  1.00  0.00    -0.359 N 
ATOM     21  H7  UNL     1      -5.529   0.516   1.433  1.00  0.00     0.162 HD
BRANCH  20  22
HETATM   22  C25 UNL     1      -5.789   2.511   1.021  1.00  0.00     0.131 C 
BRANCH  22  23
HETATM   23  C26 UNL     1      -6.184   3.123  -0.271  1.00  0.00    -0.035 C 
HETATM   24  C27 UNL     1      -7.009   4.390   0.106  1.00  0.00     0.016 C 
HETATM   25  C28 UNL     1      -5.122   3.605  -1.189  1.00  0.00     0.016 C 
HETATM   26  C29 UNL     1      -7.101   2.212  -1.074  1.00  0.00     0.016 C 
ENDBRANCH  22  23
ENDBRANCH  20  22
ENDBRANCH  13  18
ENDBRANCH  10  13
ENDBRANCH   8  10
ENDBRANCH   1   8
BRANCH   2  27
HETATM   27  C6  UNL     1       2.286  -0.695   0.024  1.00  0.00     0.684 A 
HETATM   28  N2  UNL     1       3.087   0.384  -0.016  1.00  0.00    -0.175 N 
HETATM   29  C7  UNL     1       4.149   0.514  -0.865  1.00  0.00     0.136 A 
ATOM     30  H2  UNL     1       2.890   1.152   0.626  1.00  0.00     0.186 HD
HETATM   31  C13 UNL     1       4.419  -0.518  -1.732  1.00  0.00     0.009 A 
HETATM   32  C16 UNL     1       3.588  -1.627  -1.683  1.00  0.00     0.032 A 
HETATM   33  C17 UNL     1       3.841  -2.817  -2.592  1.00  0.00     0.069 C 
HETATM   34  N4  UNL     1       2.556  -1.691  -0.824  1.00  0.00    -0.195 N 
ATOM     35  H4  UNL     1       1.964  -2.522  -0.820  1.00  0.00     0.184 HD
BRANCH  29  36
HETATM   36  N3  UNL     1       4.923   1.682  -0.854  1.00  0.00    -0.273 N 
HETATM   37  C8  UNL     1       6.277   1.854  -0.406  1.00  0.00     0.176 C 
HETATM   38  C9  UNL     1       6.465   3.008   0.544  1.00  0.00     0.106 C 
HETATM   39  C10 UNL     1       6.515   2.581   1.998  1.00  0.00     0.050 C 
HETATM   40  C11 UNL     1       7.821   3.637   0.230  1.00  0.00     0.050 C 
HETATM   41  O1  UNL     1       5.544   4.036   0.383  1.00  0.00    -0.219 OA
HETATM   42  O2  UNL     1       5.006   4.050  -0.843  1.00  0.00    -0.137 OA
HETATM   43  C12 UNL     1       4.306   2.911  -1.310  1.00  0.00     0.396 C 
HETATM   44  O3  UNL     1       3.305   2.984  -2.011  1.00  0.00    -0.235 OA
ENDBRANCH  29  36
BRANCH  31  45
HETATM   45  C14 UNL     1       5.545  -0.449  -2.687  1.00  0.00     0.040 C 
HETATM   46  C15 UNL     1       5.120   0.477  -3.837  1.00  0.00     0.010 C 
ENDBRANCH  31  45
ENDBRANCH   2  27
TORSDOF 14
