REMARK  13 active torsions:
REMARK  status: ('A' for Active; 'I' for Inactive)
REMARK    1  A    between atoms: C2_2  and  C3_3 
REMARK    2  A    between atoms: C3_3  and  C4_4 
REMARK    3  A    between atoms: C4_4  and  C5_5 
REMARK    4  A    between atoms: C5_5  and  C6_6 
REMARK       I    between atoms: C6_6  and  N1_8 
REMARK    5  A    between atoms: N1_8  and  C7_10 
REMARK    6  A    between atoms: C7_10  and  C8_11 
REMARK    7  A    between atoms: C9_12  and  O2_13 
REMARK    8  A    between atoms: C11_15  and  C12_16 
REMARK    9  A    between atoms: C12_16  and  C13_17 
REMARK   10  A    between atoms: C13_17  and  C15_19 
REMARK       I    between atoms: C15_19  and  N2_21 
REMARK   11  A    between atoms: N2_21  and  C16_23 
REMARK   12  A    between atoms: C23_31  and  O5_32 
REMARK   13  A    between atoms: N3_36  and  C26_37 
ROOT
HETATM    1  C8  UNL     1      -1.180   0.076   0.924  1.00  0.00     0.104 C 
HETATM    2  C9  UNL     1      -0.600  -1.325   0.705  1.00  0.00     0.160 C 
HETATM    3  C11 UNL     1       0.926  -1.139   0.662  1.00  0.00     0.152 C 
HETATM    4  O4  UNL     1       1.426  -0.761   1.892  1.00  0.00    -0.370 OA
HETATM    5  C22 UNL     1       0.526  -0.082   2.642  1.00  0.00     0.220 C 
HETATM    6  C23 UNL     1       1.128   0.933   3.616  1.00  0.00     0.182 C 
HETATM    7  C24 UNL     1       0.019   1.953   3.621  1.00  0.00     0.184 C 
HETATM    8  C25 UNL     1       0.400   2.935   2.497  1.00  0.00     0.311 C 
HETATM    9  N3  UNL     1       0.329   2.013   1.383  1.00  0.00     0.134 N 
HETATM   10  C31 UNL     1      -0.369   0.875   1.833  1.00  0.00     0.298 C 
HETATM   11  O6  UNL     1      -1.086   1.370   2.963  1.00  0.00    -0.340 OA
ENDROOT
BRANCH   3  12
HETATM   12  C12 UNL     1       1.615  -2.328   0.123  1.00  0.00     0.048 C 
BRANCH  12  13
HETATM   13  C13 UNL     1       3.108  -2.239   0.053  1.00  0.00     0.076 C 
HETATM   14  C14 UNL     1       3.645  -3.592  -0.503  1.00  0.00     0.020 C 
BRANCH  13  15
HETATM   15  C15 UNL     1       3.587  -1.161  -0.805  1.00  0.00     0.221 C 
HETATM   16  O3  UNL     1       2.834  -0.434  -1.463  1.00  0.00    -0.273 OA
HETATM   17  N2  UNL     1       5.007  -0.914  -0.908  1.00  0.00    -0.356 N 
ATOM     18  H2  UNL     1       5.648  -1.504  -0.378  1.00  0.00     0.162 HD
BRANCH  17  19
HETATM   19  C16 UNL     1       5.549   0.132  -1.729  1.00  0.00     0.084 C 
HETATM   20  C17 UNL     1       6.512   1.021  -0.959  1.00  0.00     0.025 C 
HETATM   21  C18 UNL     1       7.963   0.609  -1.197  1.00  0.00     0.002 C 
HETATM   22  C19 UNL     1       8.331   0.802  -2.664  1.00  0.00     0.000 C 
HETATM   23  C20 UNL     1       7.086   0.684  -3.527  1.00  0.00     0.002 C 
HETATM   24  C21 UNL     1       6.282  -0.467  -2.926  1.00  0.00     0.025 C 
ENDBRANCH  17  19
ENDBRANCH  13  15
ENDBRANCH  12  13
ENDBRANCH   3  12
BRANCH   2  25
HETATM   25  O2  UNL     1      -0.979  -2.238   1.639  1.00  0.00    -0.388 OA
HETATM   26  C10 UNL     1      -1.565  -3.395   1.228  1.00  0.00     0.202 C 
ENDBRANCH   2  25
BRANCH   1  27
HETATM   27  C7  UNL     1      -2.620   0.065   1.367  1.00  0.00     0.135 C 
BRANCH  27  28
HETATM   28  N1  UNL     1      -3.463  -0.544   0.387  1.00  0.00    -0.360 N 
HETATM   29  C6  UNL     1      -4.855  -0.680   0.555  1.00  0.00     0.217 C 
HETATM   30  O1  UNL     1      -5.360  -0.238   1.629  1.00  0.00    -0.274 OA
ATOM     31  H1  UNL     1      -3.038  -0.895  -0.471  1.00  0.00     0.162 HD
BRANCH  29  32
HETATM   32  C5  UNL     1      -5.732  -1.300  -0.448  1.00  0.00     0.103 C 
BRANCH  32  33
HETATM   33  C4  UNL     1      -7.168  -1.279   0.031  1.00  0.00     0.009 C 
BRANCH  33  34
HETATM   34  C3  UNL     1      -8.084  -1.900  -0.982  1.00  0.00     0.000 C 
BRANCH  34  35
HETATM   35  C2  UNL     1      -9.502  -1.856  -0.458  1.00  0.00    -0.005 C 
HETATM   36  C1  UNL     1     -10.475  -2.469  -1.443  1.00  0.00     0.005 C 
ENDBRANCH  34  35
ENDBRANCH  33  34
ENDBRANCH  32  33
ENDBRANCH  29  32
ENDBRANCH  27  28
ENDBRANCH   1  27
BRANCH   6  37
HETATM   37  O5  UNL     1       1.328   0.361   4.867  1.00  0.00    -0.390 OA
ATOM     38  H5  UNL     1       1.702   0.991   5.472  1.00  0.00     0.210 HD
ENDBRANCH   6  37
BRANCH   9  39
HETATM   39  C26 UNL     1      -0.010   2.646   0.188  1.00  0.00     0.227 C 
HETATM   40  C27 UNL     1       1.059   3.705  -0.120  1.00  0.00     0.036 C 
HETATM   41  C28 UNL     1       0.465   4.555  -1.193  1.00  0.00     0.002 C 
HETATM   42  C29 UNL     1      -1.021   4.396  -1.078  1.00  0.00     0.002 C 
HETATM   43  C30 UNL     1      -1.257   3.477   0.137  1.00  0.00     0.036 C 
ENDBRANCH   9  39
TORSDOF 13
