REMARK  12 active torsions:
REMARK  status: ('A' for Active; 'I' for Inactive)
REMARK    1  A    between atoms: N1_1  and  C1_4 
REMARK    2  A    between atoms: C2_7  and  N3_8 
REMARK    3  A    between atoms: C8_16  and  N5_17 
REMARK    4  A    between atoms: N5_17  and  C9_19 
REMARK    5  A    between atoms: C9_19  and  C10_20 
REMARK    6  A    between atoms: N8_25  and  C11_26 
REMARK    7  A    between atoms: C11_26  and  C12_27 
REMARK    8  A    between atoms: C12_27  and  O1_28 
REMARK    9  A    between atoms: O1_28  and  N9_29 
REMARK   10  A    between atoms: C13_31  and  C14_32 
REMARK       I    between atoms: N11_36  and  C16_38 
REMARK   11  A    between atoms: C17_43  and  O4_44 
REMARK   12  A    between atoms: C18_46  and  O5_47 
ROOT
HETATM    1  C10 UNL     1      -0.014   0.595  -2.062  1.00  0.00     0.117 A 
HETATM    2  N6  UNL     1       0.756   1.224  -2.956  1.00  0.00    -0.281 N 
ATOM      3  H6  UNL     1       0.461   1.528  -3.884  1.00  0.00     0.188 HD
HETATM    4  N7  UNL     1       1.958   1.387  -2.442  1.00  0.00    -0.238 N 
ATOM      5  H7  UNL     1       2.747   1.837  -2.907  1.00  0.00     0.208 HD
HETATM    6  N8  UNL     1       1.974   0.875  -1.233  1.00  0.00    -0.253 N 
HETATM    7  C18 UNL     1       0.767   0.369  -0.952  1.00  0.00     0.188 A 
ENDROOT
BRANCH   1   8
HETATM    8  C9  UNL     1      -1.474   0.192  -2.205  1.00  0.00     0.125 C 
BRANCH   8   9
HETATM    9  N5  UNL     1      -1.979   0.569  -3.465  1.00  0.00    -0.348 N 
ATOM     10  H5  UNL     1      -1.333   1.088  -4.060  1.00  0.00     0.167 HD
BRANCH   9  11
HETATM   11  C8  UNL     1      -3.107   0.356  -3.954  1.00  0.00     0.136 A 
HETATM   12  C7  UNL     1      -4.101  -0.321  -3.309  1.00  0.00     0.123 A 
HETATM   13  N4  UNL     1      -3.942  -0.820  -2.074  1.00  0.00    -0.185 N 
HETATM   14  C20 UNL     1      -5.352  -0.524  -3.924  1.00  0.00     0.109 A 
HETATM   15  C2  UNL     1      -4.894  -1.489  -1.410  1.00  0.00     0.682 A 
ATOM     16  H4  UNL     1      -3.043  -0.682  -1.613  1.00  0.00     0.184 HD
HETATM   17  N2  UNL     1      -6.085  -1.669  -2.023  1.00  0.00    -0.175 N 
HETATM   18  C1  UNL     1      -6.342  -1.209  -3.256  1.00  0.00     0.144 A 
ATOM     19  H2  UNL     1      -6.819  -2.176  -1.527  1.00  0.00     0.186 HD
HETATM   20  N14 UNL     1      -5.601  -0.058  -5.160  1.00  0.00    -0.347 N 
HETATM   21  C19 UNL     1      -4.616   0.608  -5.789  1.00  0.00     0.182 A 
ATOM     22  H14 UNL     1      -6.507  -0.205  -5.606  1.00  0.00     0.167 HD
HETATM   23  N13 UNL     1      -3.427   0.806  -5.215  1.00  0.00    -0.337 N 
ATOM     24  H13 UNL     1      -2.718   1.318  -5.739  1.00  0.00     0.168 HD
BRANCH  15  25
HETATM   25  N3  UNL     1      -4.675  -2.004  -0.088  1.00  0.00    -0.218 N 
HETATM   26  C3  UNL     1      -5.645  -2.730   0.690  1.00  0.00     0.141 C 
HETATM   27  C4  UNL     1      -5.167  -2.678   2.125  1.00  0.00     0.022 C 
HETATM   28  C5  UNL     1      -3.778  -2.076   2.099  1.00  0.00     0.022 C 
HETATM   29  C6  UNL     1      -3.436  -1.857   0.641  1.00  0.00     0.141 C 
ENDBRANCH  15  25
BRANCH  18  30
HETATM   30  N1  UNL     1      -7.473  -1.373  -3.855  1.00  0.00    -0.383 N 
ATOM     31  H12 UNL     1      -8.206  -1.880  -3.360  1.00  0.00     0.157 HD
ATOM     32  H11 UNL     1      -7.668  -1.023  -4.793  1.00  0.00     0.157 HD
ENDBRANCH  18  30
ENDBRANCH   9  11
ENDBRANCH   8   9
ENDBRANCH   1   8
BRANCH   7  33
HETATM   33  O5  UNL     1       0.311  -0.267   0.196  1.00  0.00    -0.343 OA
ATOM     34  H5  UNL     1       0.850  -0.423   0.962  1.00  0.00     0.219 HD
ENDBRANCH   7  33
BRANCH   6  35
HETATM   35  C11 UNL     1       3.114   0.854  -0.331  1.00  0.00     0.181 C 
BRANCH  35  36
HETATM   36  C12 UNL     1       3.063   2.124   0.497  1.00  0.00     0.223 C 
BRANCH  36  37
HETATM   37  O1  UNL     1       4.123   2.220   1.415  1.00  0.00    -0.279 OA
BRANCH  37  38
HETATM   38  N9  UNL     1       4.225   3.283   2.225  1.00  0.00    -0.276 N 
HETATM   39  C13 UNL     1       5.040   3.407   3.170  1.00  0.00     0.148 C 
ATOM     40  H9  UNL     1       3.584   4.059   2.058  1.00  0.00     0.193 HD
BRANCH  39  41
HETATM   41  C14 UNL     1       6.017   2.401   3.543  1.00  0.00     0.117 A 
HETATM   42  N10 UNL     1       6.200   1.220   2.955  1.00  0.00    -0.186 N 
HETATM   43  C15 UNL     1       7.218   0.576   3.609  1.00  0.00     0.690 A 
ATOM     44  H10 UNL     1       5.675   0.859   2.159  1.00  0.00     0.184 HD
HETATM   45  N11 UNL     1       7.706  -0.591   3.354  1.00  0.00    -0.133 N 
HETATM   46  N12 UNL     1       7.658   1.370   4.601  1.00  0.00    -0.168 N 
HETATM   47  C16 UNL     1       7.153  -1.327   2.280  1.00  0.00     0.302 C 
ATOM     48  H11 UNL     1       8.470  -0.973   3.912  1.00  0.00     0.190 HD
HETATM   49  O2  UNL     1       6.102  -1.993   2.435  1.00  0.00    -0.629 OA
HETATM   50  O3  UNL     1       7.777  -1.311   1.050  1.00  0.00    -0.629 OA
HETATM   51  C17 UNL     1       6.939   2.498   4.584  1.00  0.00     0.184 A 
ATOM     52  H12 UNL     1       8.410   1.150   5.254  1.00  0.00     0.186 HD
BRANCH  51  53
HETATM   53  O4  UNL     1       7.030   3.609   5.416  1.00  0.00    -0.344 OA
ATOM     54  H4  UNL     1       7.658   3.675   6.125  1.00  0.00     0.219 HD
ENDBRANCH  51  53
ENDBRANCH  39  41
ENDBRANCH  37  38
ENDBRANCH  36  37
ENDBRANCH  35  36
ENDBRANCH   6  35
TORSDOF 12
