REMARK  15 active torsions:
REMARK  status: ('A' for Active; 'I' for Inactive)
REMARK    1  A    between atoms: C5_6  and  O2_7 
REMARK    2  A    between atoms: C9_12  and  O3_13 
REMARK    3  A    between atoms: O3_13  and  C10_14 
REMARK    4  A    between atoms: C10_14  and  C11_16 
REMARK    5  A    between atoms: C11_16  and  N1_17 
REMARK    6  A    between atoms: C11_16  and  C12_21 
REMARK    7  A    between atoms: C12_21  and  N2_22 
REMARK    8  A    between atoms: C12_21  and  C21_43 
REMARK    9  A    between atoms: N2_22  and  C13_24 
REMARK   10  A    between atoms: C13_24  and  C14_28 
REMARK       I    between atoms: C14_28  and  N4_30 
REMARK   11  A    between atoms: N4_30  and  C15_32 
REMARK   12  A    between atoms: C18_35  and  O6_36 
REMARK   13  A    between atoms: C19_38  and  N5_39 
REMARK   14  A    between atoms: C21_43  and  C22_48 
REMARK   15  A    between atoms: N6_44  and  O9_46 
ROOT
HETATM    1  C12 UNL     1       0.181   0.130   1.402  1.00  0.00     0.181 C 
ENDROOT
BRANCH   1   2
HETATM    2  C11 UNL     1      -1.118   0.801   1.725  1.00  0.00     0.311 C 
BRANCH   2   3
HETATM    3  C10 UNL     1      -2.277   0.269   1.037  1.00  0.00     0.297 C 
HETATM    4  O4  UNL     1      -2.981  -0.649   1.544  1.00  0.00    -0.262 OA
BRANCH   3   5
HETATM    5  O3  UNL     1      -2.652   0.755  -0.207  1.00  0.00    -0.279 OA
BRANCH   5   6
HETATM    6  C9  UNL     1      -3.782   0.213  -0.840  1.00  0.00     0.091 A 
HETATM    7  C3  UNL     1      -4.940   0.788  -0.565  1.00  0.00     0.118 A 
HETATM    8  O1  UNL     1      -5.283   1.800   0.203  1.00  0.00    -0.309 OA
HETATM    9  C4  UNL     1      -6.117   0.320  -1.147  1.00  0.00     0.032 A 
HETATM   10  C2  UNL     1      -6.565   2.025   0.170  1.00  0.00     0.084 A 
HETATM   11  C1  UNL     1      -7.258   3.116   0.946  1.00  0.00     0.079 C 
HETATM   12  C5  UNL     1      -7.149   1.115  -0.671  1.00  0.00     0.107 A 
HETATM   13  C6  UNL     1      -6.064  -0.700  -1.972  1.00  0.00    -0.009 A 
HETATM   14  C7  UNL     1      -4.848  -1.431  -2.366  1.00  0.00     0.035 A 
HETATM   15  C8  UNL     1      -3.586  -0.925  -1.734  1.00  0.00     0.072 A 
BRANCH  12  16
HETATM   16  O2  UNL     1      -8.496   1.003  -0.991  1.00  0.00    -0.357 OA
ATOM     17  H2  UNL     1      -8.901   0.372  -1.574  1.00  0.00     0.217 HD
ENDBRANCH  12  16
ENDBRANCH   5   6
ENDBRANCH   3   5
ENDBRANCH   2   3
BRANCH   2  18
HETATM   18  N1  UNL     1      -1.011   2.217   1.269  1.00  0.00    -0.064 N 
ATOM     19  H13 UNL     1      -0.973   2.322   0.255  1.00  0.00     0.275 HD
ATOM     20  H12 UNL     1      -1.861   2.762   1.412  1.00  0.00     0.275 HD
ATOM     21  H11 UNL     1      -0.195   2.591   1.753  1.00  0.00     0.275 HD
ENDBRANCH   2  18
ENDBRANCH   1   2
BRANCH   1  22
HETATM   22  N2  UNL     1       0.498   0.246  -0.022  1.00  0.00    -0.359 N 
ATOM     23  H2  UNL     1      -0.192   0.693  -0.626  1.00  0.00     0.162 HD
BRANCH  22  24
HETATM   24  C13 UNL     1       1.686  -0.214  -0.618  1.00  0.00     0.165 C 
HETATM   25  N3  UNL     1       1.642  -1.087  -1.560  1.00  0.00    -0.381 N 
ATOM     26  H32 UNL     1       0.715  -1.418  -1.827  1.00  0.00     0.157 HD
ATOM     27  H31 UNL     1       2.504  -1.421  -1.992  1.00  0.00     0.157 HD
BRANCH  24  28
HETATM   28  C14 UNL     1       3.037   0.268  -0.229  1.00  0.00     0.289 C 
HETATM   29  O5  UNL     1       3.048   1.131   0.679  1.00  0.00    -0.264 OA
HETATM   30  N4  UNL     1       4.167  -0.252  -0.873  1.00  0.00    -0.320 N 
ATOM     31  H4  UNL     1       3.976  -0.953  -1.589  1.00  0.00     0.169 HD
BRANCH  30  32
HETATM   32  C15 UNL     1       5.517   0.049  -0.678  1.00  0.00     0.037 A 
HETATM   33  C16 UNL     1       5.954   1.128   0.054  1.00  0.00     0.032 A 
HETATM   34  C17 UNL     1       7.307   1.345   0.215  1.00  0.00     0.041 A 
HETATM   35  C18 UNL     1       8.279   0.501  -0.343  1.00  0.00     0.098 A 
HETATM   36  C19 UNL     1       7.849  -0.579  -1.077  1.00  0.00     0.138 A 
HETATM   37  C20 UNL     1       6.493  -0.791  -1.235  1.00  0.00     0.068 A 
BRANCH  35  38
HETATM   38  O6  UNL     1       9.596   0.802  -0.121  1.00  0.00    -0.358 OA
ATOM     39  H6  UNL     1      10.254   0.231  -0.499  1.00  0.00     0.217 HD
ENDBRANCH  35  38
BRANCH  36  40
HETATM   40  N5  UNL     1       8.746  -1.507  -1.687  1.00  0.00    -0.113 N 
HETATM   41  O7  UNL     1       9.830  -1.151  -2.139  1.00  0.00    -0.532 OA
HETATM   42  O8  UNL     1       8.317  -2.819  -1.761  1.00  0.00    -0.532 OA
ENDBRANCH  36  40
ENDBRANCH  30  32
ENDBRANCH  24  28
ENDBRANCH  22  24
ENDBRANCH   1  22
BRANCH   1  43
HETATM   43  C21 UNL     1       0.401  -1.213   1.910  1.00  0.00     0.121 C 
HETATM   44  N6  UNL     1       1.141  -1.320   3.007  1.00  0.00    -0.266 N 
ATOM     45  H6  UNL     1       1.335  -2.234   3.416  1.00  0.00     0.194 HD
BRANCH  44  46
HETATM   46  O9  UNL     1       1.630  -0.202   3.568  1.00  0.00    -0.290 OA
ATOM     47  H9  UNL     1       2.160  -0.279   4.353  1.00  0.00     0.244 HD
ENDBRANCH  44  46
BRANCH  43  48
HETATM   48  C22 UNL     1      -0.123  -2.471   1.401  1.00  0.00     0.281 C 
HETATM   49  N7  UNL     1       0.151  -3.697   2.108  1.00  0.00    -0.056 NA
HETATM   50  O10 UNL     1      -0.817  -2.626   0.372  1.00  0.00    -0.270 OA
ENDBRANCH  43  48
ENDBRANCH   1  43
TORSDOF 15
