REMARK  16 active torsions:
REMARK  status: ('A' for Active; 'I' for Inactive)
REMARK    1  A    between atoms: C2_2  and  C3_3 
REMARK    2  A    between atoms: C4_6  and  C5_7 
REMARK    3  A    between atoms: C5_7  and  N2_8 
REMARK    4  A    between atoms: N2_8  and  C6_10 
REMARK    5  A    between atoms: C6_10  and  O1_11 
REMARK    6  A    between atoms: C6_10  and  C7_13 
REMARK    7  A    between atoms: N3_15  and  C9_17 
REMARK    8  A    between atoms: C13_23  and  C14_24 
REMARK    9  A    between atoms: C14_24  and  C15_25 
REMARK   10  A    between atoms: C16_28  and  N6_29 
REMARK   11  A    between atoms: C17_34  and  O2_35 
REMARK   12  A    between atoms: C19_41  and  C20_42 
REMARK   13  A    between atoms: C20_42  and  O3_43 
REMARK   14  A    between atoms: O3_43  and  C21_44 
REMARK   15  A    between atoms: C21_44  and  N11_48 
REMARK   16  A    between atoms: N11_48  and  O4_50 
ROOT
HETATM    1  C7  UNL     1       0.139  -1.315  -0.692  1.00  0.00     0.089 A 
HETATM    2  C8  UNL     1       0.369  -0.221   0.148  1.00  0.00     0.120 A 
HETATM    3  N3  UNL     1       1.597  -0.013   0.516  1.00  0.00    -0.371 N 
ATOM      4  H3  UNL     1       2.332  -0.639   0.188  1.00  0.00     0.161 HD
HETATM    5  N4  UNL     1      -0.606   0.597   0.577  1.00  0.00    -0.326 N 
ATOM      6  H4  UNL     1      -0.379   1.380   1.190  1.00  0.00     0.169 HD
HETATM    7  C12 UNL     1      -1.874   0.389   0.203  1.00  0.00     0.141 A 
HETATM    8  C13 UNL     1      -3.039   1.092   0.514  1.00  0.00     0.029 A 
HETATM    9  C18 UNL     1      -4.029   0.410  -0.158  1.00  0.00     0.123 A 
HETATM   10  N8  UNL     1      -3.456  -0.614  -0.807  1.00  0.00    -0.302 N 
ATOM     11  H8  UNL     1      -3.961  -1.285  -1.386  1.00  0.00     0.186 HD
HETATM   12  N9  UNL     1      -2.134  -0.641  -0.596  1.00  0.00    -0.236 N 
HETATM   13  C19 UNL     1      -1.175  -1.515  -1.068  1.00  0.00     0.099 A 
ENDROOT
BRANCH   1  14
HETATM   14  C6  UNL     1       1.138  -2.065  -1.071  1.00  0.00     0.152 C 
BRANCH  14  15
HETATM   15  N2  UNL     1       2.491  -1.867  -0.696  1.00  0.00    -0.364 N 
ATOM     16  H2  UNL     1       2.803  -2.065   0.255  1.00  0.00     0.162 HD
BRANCH  15  17
HETATM   17  C5  UNL     1       3.414  -1.381  -1.686  1.00  0.00     0.179 C 
BRANCH  17  18
HETATM   18  C4  UNL     1       4.797  -1.230  -1.090  1.00  0.00     0.034 A 
HETATM   19  N1  UNL     1       5.216  -0.108  -0.596  1.00  0.00    -0.355 N 
HETATM   20  C3  UNL     1       6.431  -0.024  -0.083  1.00  0.00     0.050 A 
ATOM     21  H1  UNL     1       4.608   0.711  -0.603  1.00  0.00     0.166 HD
HETATM   22  S1  UNL     1       7.030  -1.606  -0.298  1.00  0.00    -0.087 SA
HETATM   23  C22 UNL     1       5.658  -2.298  -1.052  1.00  0.00     0.078 A 
BRANCH  20  24
HETATM   24  C2  UNL     1       7.054   1.208   0.525  1.00  0.00     0.060 C 
HETATM   25  C1  UNL     1       7.785   2.026  -0.487  1.00  0.00     0.012 C 
ENDBRANCH  20  24
ENDBRANCH  17  18
ENDBRANCH  15  17
ENDBRANCH  14  15
BRANCH  14  26
HETATM   26  O1  UNL     1       1.013  -3.192  -1.917  1.00  0.00    -0.346 OA
ATOM     27  H1  UNL     1       0.106  -3.325  -2.168  1.00  0.00     0.219 HD
ENDBRANCH  14  26
ENDBRANCH   1  14
BRANCH  13  28
HETATM   28  C20 UNL     1      -1.556  -2.494  -1.853  1.00  0.00     0.178 C 
BRANCH  28  29
HETATM   29  O3  UNL     1      -2.942  -2.572  -2.152  1.00  0.00    -0.288 OA
BRANCH  29  30
HETATM   30  C21 UNL     1      -3.589  -3.796  -2.167  1.00  0.00     0.241 C 
HETATM   31  N10 UNL     1      -2.986  -4.799  -1.591  1.00  0.00    -0.364 N 
ATOM     32 2H10 UNL     1      -2.075  -4.644  -1.160  1.00  0.00     0.159 HD
ATOM     33 1H10 UNL     1      -3.463  -5.701  -1.602  1.00  0.00     0.159 HD
BRANCH  30  34
HETATM   34  N11 UNL     1      -4.850  -4.011  -2.764  1.00  0.00    -0.233 N 
ATOM     35  H11 UNL     1      -4.939  -3.990  -3.780  1.00  0.00     0.198 HD
BRANCH  34  36
HETATM   36  O4  UNL     1      -5.935  -4.243  -2.005  1.00  0.00    -0.287 OA
ATOM     37  H4  UNL     1      -6.784  -4.388  -2.407  1.00  0.00     0.244 HD
ENDBRANCH  34  36
ENDBRANCH  30  34
ENDBRANCH  29  30
ENDBRANCH  28  29
ENDBRANCH  13  28
BRANCH   3  38
HETATM   38  C9  UNL     1       1.939   1.096   1.387  1.00  0.00     0.083 A 
HETATM   39  C10 UNL     1       3.078   0.954   2.359  1.00  0.00     0.027 A 
HETATM   40  C11 UNL     1       1.678   0.948   2.871  1.00  0.00     0.027 A 
ENDBRANCH   3  38
BRANCH   8  41
HETATM   41  C14 UNL     1      -3.139   2.169   1.285  1.00  0.00     0.051 C 
BRANCH  41  42
HETATM   42  C15 UNL     1      -4.408   2.802   1.527  1.00  0.00     0.101 A 
HETATM   43  N5  UNL     1      -5.001   3.686   0.701  1.00  0.00    -0.188 N 
HETATM   44  C16 UNL     1      -6.175   4.085   1.223  1.00  0.00     0.678 A 
ATOM     45  H5  UNL     1      -4.617   4.005  -0.188  1.00  0.00     0.184 HD
HETATM   46  N7  UNL     1      -6.346   3.455   2.398  1.00  0.00    -0.169 N 
HETATM   47  C17 UNL     1      -5.268   2.664   2.597  1.00  0.00     0.182 A 
ATOM     48  H7  UNL     1      -7.144   3.555   3.025  1.00  0.00     0.186 HD
BRANCH  44  49
HETATM   49  N6  UNL     1      -6.991   4.934   0.674  1.00  0.00    -0.234 N 
ATOM     50  H62 UNL     1      -6.861   5.412  -0.218  1.00  0.00     0.174 HD
ATOM     51  H61 UNL     1      -7.881   5.237   1.070  1.00  0.00     0.174 HD
ENDBRANCH  44  49
BRANCH  47  52
HETATM   52  O2  UNL     1      -5.018   1.831   3.679  1.00  0.00    -0.344 OA
ATOM     53  H2  UNL     1      -5.610   1.736   4.416  1.00  0.00     0.219 HD
ENDBRANCH  47  52
ENDBRANCH  41  42
ENDBRANCH   8  41
TORSDOF 16
