REMARK  15 active torsions:
REMARK  status: ('A' for Active; 'I' for Inactive)
REMARK    1  A    between atoms: C2_2  and  C3_4 
REMARK    2  A    between atoms: C4_5  and  C5_6 
REMARK    3  A    between atoms: C5_6  and  C6_7 
REMARK    4  A    between atoms: C6_7  and  C7_8 
REMARK    5  A    between atoms: C7_8  and  C8_9 
REMARK    6  A    between atoms: C8_9  and  S1_10 
REMARK    7  A    between atoms: S1_10  and  N1_13 
REMARK    8  A    between atoms: N1_13  and  C9_15 
REMARK    9  A    between atoms: C9_15  and  C10_16 
REMARK   10  A    between atoms: C12_23  and  N4_24 
REMARK   11  A    between atoms: N4_24  and  C13_26 
REMARK   12  A    between atoms: C13_26  and  O4_27 
REMARK   13  A    between atoms: C13_26  and  C14_29 
REMARK   14  A    between atoms: C14_29  and  C17_32 
REMARK   15  A    between atoms: C17_32  and  C18_33 
ROOT
HETATM    1  C3  UNL     1       0.968  -1.683   4.637  1.00  0.00     0.181 C 
HETATM    2  C4  UNL     1       1.294  -0.996   3.316  1.00  0.00     0.141 C 
HETATM    3  N2  UNL     1       0.014  -0.763   2.661  1.00  0.00    -0.250 N 
HETATM    4  N3  UNL     1      -0.301  -0.700   1.377  1.00  0.00    -0.128 N 
ATOM      5  H3  UNL     1       0.362  -0.831   0.613  1.00  0.00     0.206 HD
HETATM    6  C12 UNL     1      -1.611  -0.440   1.211  1.00  0.00     0.696 A 
HETATM    7  N5  UNL     1      -2.130  -0.338   2.452  1.00  0.00    -0.168 N 
ATOM      8  H5  UNL     1      -3.105  -0.145   2.683  1.00  0.00     0.186 HD
HETATM    9  C22 UNL     1      -1.131  -0.537   3.329  1.00  0.00     0.207 A 
HETATM   10  C23 UNL     1      -1.167  -0.558   4.810  1.00  0.00     0.290 C 
HETATM   11  O5  UNL     1      -2.207  -0.346   5.478  1.00  0.00    -0.264 OA
HETATM   12  N6  UNL     1       0.122  -0.844   5.428  1.00  0.00    -0.336 N 
HETATM   13  C24 UNL     1       0.381  -0.255   6.705  1.00  0.00     0.154 C 
ENDROOT
BRANCH   2  14
HETATM   14  C5  UNL     1       1.969   0.319   3.511  1.00  0.00     0.030 C 
BRANCH  14  15
HETATM   15  C6  UNL     1       2.297   1.002   2.203  1.00  0.00     0.003 C 
BRANCH  15  16
HETATM   16  C7  UNL     1       3.218   0.167   1.346  1.00  0.00     0.017 C 
BRANCH  16  17
HETATM   17  C8  UNL     1       3.560   0.819   0.049  1.00  0.00     0.163 C 
BRANCH  17  18
HETATM   18  S1  UNL     1       4.641  -0.278  -0.840  1.00  0.00     0.226 S 
HETATM   19  O2  UNL     1       3.915  -1.588  -0.987  1.00  0.00    -0.206 OA
HETATM   20  O3  UNL     1       5.876  -0.453  -0.005  1.00  0.00    -0.206 OA
BRANCH  18  21
HETATM   21  N1  UNL     1       5.105   0.373  -2.356  1.00  0.00    -0.314 N 
ATOM     22  H1  UNL     1       6.073   0.578  -2.603  1.00  0.00     0.172 HD
BRANCH  21  23
HETATM   23  C9  UNL     1       4.001   0.603  -3.245  1.00  0.00     0.210 C 
BRANCH  23  24
HETATM   24  C10 UNL     1       4.593   1.178  -4.534  1.00  0.00     0.256 C 
HETATM   25  C11 UNL     1       3.491   1.446  -5.516  1.00  0.00     0.091 C 
HETATM   26  F1  UNL     1       5.562   0.331  -5.024  1.00  0.00    -0.205 F 
HETATM   27  F2  UNL     1       5.151   2.409  -4.162  1.00  0.00    -0.205 F 
ENDBRANCH  23  24
ENDBRANCH  21  23
ENDBRANCH  18  21
ENDBRANCH  17  18
ENDBRANCH  16  17
ENDBRANCH  15  16
ENDBRANCH  14  15
ENDBRANCH   2  14
BRANCH   1  28
HETATM   28  C2  UNL     1       2.089  -2.360   5.242  1.00  0.00     0.147 C 
HETATM   29  C1  UNL     1       2.260  -2.591   6.686  1.00  0.00     0.093 C 
HETATM   30  O1  UNL     1       3.035  -2.825   4.563  1.00  0.00    -0.296 OA
ENDBRANCH   1  28
BRANCH   6  31
HETATM   31  N4  UNL     1      -2.259  -0.311   0.103  1.00  0.00    -0.198 N 
ATOM     32  H4  UNL     1      -3.257  -0.112   0.171  1.00  0.00     0.180 HD
BRANCH  31  33
HETATM   33  C13 UNL     1      -1.708  -0.421  -1.207  1.00  0.00     0.242 C 
BRANCH  33  34
HETATM   34  O4  UNL     1      -1.016  -1.618  -1.338  1.00  0.00    -0.376 OA
ATOM     35  H4  UNL     1      -0.649  -1.691  -2.211  1.00  0.00     0.212 HD
ENDBRANCH  33  34
BRANCH  33  36
HETATM   36  C14 UNL     1      -2.846  -0.345  -2.249  1.00  0.00    -0.003 C 
HETATM   37  C15 UNL     1      -3.737  -1.516  -1.906  1.00  0.00     0.019 C 
HETATM   38  C16 UNL     1      -2.196  -0.601  -3.574  1.00  0.00     0.019 C 
BRANCH  36  39
HETATM   39  C17 UNL     1      -3.478   0.974  -2.069  1.00  0.00     0.021 C 
BRANCH  39  40
HETATM   40  C18 UNL     1      -4.611   1.364  -2.923  1.00  0.00    -0.051 C 
HETATM   41  C19 UNL     1      -4.336   1.408  -4.398  1.00  0.00     0.014 C 
HETATM   42  C20 UNL     1      -4.977   2.809  -2.530  1.00  0.00     0.014 C 
HETATM   43  C21 UNL     1      -5.869   0.565  -2.700  1.00  0.00     0.014 C 
ENDBRANCH  39  40
ENDBRANCH  36  39
ENDBRANCH  33  36
ENDBRANCH  31  33
ENDBRANCH   6  31
TORSDOF 15
