REMARK  13 active torsions:
REMARK  status: ('A' for Active; 'I' for Inactive)
REMARK    1  A    between atoms: C2_2  and  O2_4 
REMARK    2  A    between atoms: O2_4  and  C3_5 
REMARK    3  A    between atoms: C3_5  and  N1_6 
REMARK    4  A    between atoms: N1_6  and  C5_8 
REMARK    5  A    between atoms: C5_8  and  C6_9 
REMARK    6  A    between atoms: C5_8  and  C19_34 
REMARK       I    between atoms: C6_9  and  N2_11 
REMARK    7  A    between atoms: C11_17  and  C12_18 
REMARK    8  A    between atoms: C12_18  and  C18_30 
REMARK    9  A    between atoms: N3_19  and  C13_21 
REMARK   10  A    between atoms: C13_21  and  C14_22 
REMARK   11  A    between atoms: C13_21  and  C17_27 
REMARK   12  A    between atoms: C14_22  and  C15_23 
REMARK   13  A    between atoms: C15_23  and  C16_24 
ROOT
HETATM    1  C6  UNL     1      -1.234  -0.389  -0.363  1.00  0.00     0.244 C 
HETATM    2  O3  UNL     1      -0.887   0.282   0.645  1.00  0.00    -0.271 OA
HETATM    3  N2  UNL     1      -0.415  -1.309  -1.023  1.00  0.00    -0.330 N 
HETATM    4  C7  UNL     1      -0.948  -2.109  -2.142  1.00  0.00     0.201 C 
HETATM    5  S1  UNL     1       0.505  -2.373  -3.186  1.00  0.00    -0.137 SA
HETATM    6  C8  UNL     1       1.675  -1.383  -2.073  1.00  0.00     0.028 C 
HETATM    7  C9  UNL     1       1.481   0.015  -2.603  1.00  0.00     0.029 C 
HETATM    8  C10 UNL     1       2.985  -1.959  -2.426  1.00  0.00     0.029 C 
HETATM    9  C11 UNL     1       0.990  -1.754  -0.821  1.00  0.00     0.155 C 
ENDROOT
BRANCH   9  10
HETATM   10  C12 UNL     1       1.578  -1.353   0.502  1.00  0.00     0.062 C 
HETATM   11  N3  UNL     1       1.760  -0.026   0.725  1.00  0.00    -0.377 N 
ATOM     12  H3  UNL     1       1.098   0.543   0.197  1.00  0.00     0.160 HD
BRANCH  11  13
HETATM   13  C13 UNL     1       2.619   0.755   1.490  1.00  0.00     0.183 C 
BRANCH  13  14
HETATM   14  C14 UNL     1       4.030   0.673   0.975  1.00  0.00     0.046 C 
BRANCH  14  15
HETATM   15  C15 UNL     1       4.957   1.511   1.835  1.00  0.00     0.116 C 
BRANCH  15  16
HETATM   16  C16 UNL     1       6.365   1.372   1.321  1.00  0.00     0.172 C 
HETATM   17  O4  UNL     1       7.262   2.052   1.892  1.00  0.00    -0.648 OA
HETATM   18  O5  UNL     1       6.589   0.518   0.268  1.00  0.00    -0.648 OA
ENDBRANCH  15  16
ENDBRANCH  14  15
ENDBRANCH  13  14
BRANCH  13  19
HETATM   19  C17 UNL     1       2.213   2.221   1.322  1.00  0.00     0.196 C 
HETATM   20  O6  UNL     1       1.576   2.546   0.291  1.00  0.00    -0.646 OA
HETATM   21  O7  UNL     1       2.504   3.196   2.246  1.00  0.00    -0.646 OA
ENDBRANCH  13  19
ENDBRANCH  11  13
BRANCH  10  22
HETATM   22  C18 UNL     1       2.311  -2.372   1.267  1.00  0.00     0.228 C 
HETATM   23 CL1  UNL     1       2.907  -1.840   2.869  1.00  0.00    -0.077 Cl
HETATM   24 CL2  UNL     1       1.169  -3.746   1.716  1.00  0.00    -0.077 Cl
HETATM   25 CL3  UNL     1       3.654  -3.214   0.518  1.00  0.00    -0.077 Cl
ENDBRANCH  10  22
ENDBRANCH   9  10
BRANCH   1  26
HETATM   26  C5  UNL     1      -2.664  -0.135  -0.846  1.00  0.00     0.176 C 
BRANCH  26  27
HETATM   27  N1  UNL     1      -3.524  -0.002   0.241  1.00  0.00    -0.383 N 
HETATM   28  C4  UNL     1      -4.922  -0.203  -0.145  1.00  0.00     0.146 C 
BRANCH  27  29
HETATM   29  C3  UNL     1      -3.479   0.972   1.219  1.00  0.00     0.299 C 
BRANCH  29  30
HETATM   30  O2  UNL     1      -4.380   0.537   2.299  1.00  0.00    -0.302 OA
BRANCH  30  31
HETATM   31  C2  UNL     1      -4.141  -0.697   2.874  1.00  0.00     0.256 C 
HETATM   32  C1  UNL     1      -5.020  -1.156   3.971  1.00  0.00     0.126 C 
HETATM   33  O1  UNL     1      -3.201  -1.394   2.464  1.00  0.00    -0.266 OA
ENDBRANCH  30  31
ENDBRANCH  29  30
ENDBRANCH  27  29
ENDBRANCH  26  27
BRANCH  26  34
HETATM   34  C19 UNL     1      -2.503   1.022  -1.787  1.00  0.00     0.009 C 
HETATM   35  C20 UNL     1      -1.948   2.278  -1.244  1.00  0.00     0.012 C 
HETATM   36  C21 UNL     1      -3.752   1.244  -2.646  1.00  0.00     0.012 C 
ENDBRANCH  26  34
ENDBRANCH   1  26
TORSDOF 13
