REMARK  1 active torsions:
REMARK  status: ('A' for Active; 'I' for Inactive)
REMARK    1  A    between atoms: C8_11  and  C9_12 
ROOT
HETATM    1  C1  UNL     1       4.194  -0.663   0.505  1.00  0.00     0.000 C 
HETATM    2  C2  UNL     1       3.080  -1.016   1.396  1.00  0.00     0.000 C 
HETATM    3  C3  UNL     1       1.842  -1.589   0.807  1.00  0.00     0.000 C 
HETATM    4  C4  UNL     1       1.688  -1.606  -0.654  1.00  0.00     0.001 C 
HETATM    5  C5  UNL     1       0.536  -0.860  -1.223  1.00  0.00     0.013 C 
HETATM    6  C6  UNL     1       0.217   0.483  -0.701  1.00  0.00     0.065 C 
HETATM    7  C7  UNL     1       0.913   1.601  -1.317  1.00  0.00     0.017 C 
HETATM    8  N1  UNL     1       0.062   2.440  -1.756  1.00  0.00    -0.274 N 
ATOM      9  H1  UNL     1       0.329   3.304  -2.228  1.00  0.00     0.193 HD
HETATM   10  O1  UNL     1      -1.225   2.088  -1.543  1.00  0.00    -0.274 OA
HETATM   11  C8  UNL     1      -1.234   0.767  -1.044  1.00  0.00     0.166 C 
HETATM   12  C16 UNL     1       2.411   1.682  -1.385  1.00  0.00     0.055 C 
HETATM   13  C17 UNL     1       3.024   1.552   0.018  1.00  0.00     0.006 C 
HETATM   14  C18 UNL     1       4.253   0.740  -0.014  1.00  0.00     0.000 C 
ENDROOT
BRANCH  11  15
HETATM   15  C9  UNL     1      -2.131   0.754   0.156  1.00  0.00     0.022 C 
HETATM   16  C10 UNL     1      -3.540   1.053  -0.329  1.00  0.00     0.012 C 
HETATM   17  C11 UNL     1      -4.379  -0.147   0.044  1.00  0.00    -0.014 C 
HETATM   18  C12 UNL     1      -4.572  -0.135   1.524  1.00  0.00     0.005 C 
HETATM   19  C15 UNL     1      -3.320  -1.255  -0.084  1.00  0.00     0.010 C 
HETATM   20  C13 UNL     1      -3.159  -0.343   2.056  1.00  0.00     0.005 C 
HETATM   21  C14 UNL     1      -2.286  -0.563   0.818  1.00  0.00    -0.007 C 
ENDBRANCH  11  15
TORSDOF 1
