REMARK  3 active torsions:
REMARK  status: ('A' for Active; 'I' for Inactive)
REMARK    1  A    between atoms: C2_2  and  N1_3 
REMARK    2  A    between atoms: C4_5  and  C6_7 
REMARK    3  A    between atoms: C8_10  and  O1_11 
ROOT
HETATM    1  C6  UNL     1      -2.074   0.803  -0.510  1.00  0.00     0.139 C 
HETATM    2  C7  UNL     1      -2.871   0.968   0.735  1.00  0.00     0.060 C 
HETATM    3  N2  UNL     1      -3.499   1.134   1.689  1.00  0.00    -0.197 NA
ENDROOT
BRANCH   1   4
HETATM    4  C4  UNL     1      -1.110  -0.320  -0.224  1.00  0.00     0.049 C 
HETATM    5  C3  UNL     1      -0.257   0.071   0.955  1.00  0.00     0.290 C 
HETATM    6  N1  UNL     1       0.918  -0.451   0.240  1.00  0.00     0.118 N 
HETATM    7  C8  UNL     1       0.159  -0.356  -0.988  1.00  0.00     0.367 C 
HETATM    8  C5  UNL     1      -1.800  -1.634   0.011  1.00  0.00     0.022 C 
BRANCH   6   9
HETATM    9  C2  UNL     1       2.008   0.494   0.400  1.00  0.00     0.271 C 
HETATM   10  C1  UNL     1       3.353  -0.089   0.006  1.00  0.00     0.037 C 
ENDBRANCH   6   9
BRANCH   7  11
HETATM   11  O1  UNL     1       0.432   0.650  -1.861  1.00  0.00    -0.367 OA
ATOM     12  H1  UNL     1      -0.066   0.712  -2.667  1.00  0.00     0.212 HD
ENDBRANCH   7  11
ENDBRANCH   1   4
TORSDOF 3
