REMARK  2 active torsions:
REMARK  status: ('A' for Active; 'I' for Inactive)
REMARK    1  A    between atoms: C1_2  and  N1_3 
REMARK    2  A    between atoms: N1_3  and  C2_5 
ROOT
HETATM    1  C2  UNL     1       0.779  -0.163  -0.099  1.00  0.00     0.096 C 
HETATM    2  C3  UNL     1      -0.321  -0.246  -1.176  1.00  0.00     0.009 C 
HETATM    3  C4  UNL     1      -0.911   1.131  -0.990  1.00  0.00     0.007 C 
HETATM    4  C5  UNL     1      -1.064   1.106   0.514  1.00  0.00     0.012 C 
HETATM    5  C6  UNL     1      -0.140  -0.017   1.033  1.00  0.00    -0.015 A 
HETATM    6  C7  UNL     1      -0.681  -0.800   2.049  1.00  0.00     0.017 A 
HETATM    7  C8  UNL     1      -0.719  -1.482   0.819  1.00  0.00    -0.003 A 
HETATM    8  C9  UNL     1      -1.324  -1.177  -0.488  1.00  0.00     0.012 C 
ENDROOT
BRANCH   1   9
HETATM    9  N1  UNL     1       1.698   0.885  -0.335  1.00  0.00    -0.362 N 
ATOM     10  H1  UNL     1       1.384   1.855  -0.302  1.00  0.00     0.162 HD
BRANCH   9  11
HETATM   11  C1  UNL     1       3.060   0.587  -0.618  1.00  0.00     0.348 C 
HETATM   12  O1  UNL     1       3.480  -0.618  -0.666  1.00  0.00    -0.284 OA
ENDBRANCH   9  11
ENDBRANCH   1   9
TORSDOF 2
