REMARK  4 active torsions:
REMARK  status: ('A' for Active; 'I' for Inactive)
REMARK    1  A    between atoms: N1_1  and  N2_4 
REMARK    2  A    between atoms: N2_4  and  C1_5 
REMARK    3  A    between atoms: C1_5  and  C2_6 
REMARK    4  A    between atoms: C1_5  and  C3_9 
ROOT
HETATM    1  C1  UNL     1       0.944   0.313   0.271  1.00  0.00     0.176 C 
ENDROOT
BRANCH   1   2
HETATM    2  N2  UNL     1       1.214   1.340   0.914  1.00  0.00    -0.332 NA
BRANCH   2   3
HETATM    3  N1  UNL     1       1.467   2.283   1.694  1.00  0.00    -0.280 N 
ATOM      4  H12 UNL     1       1.318   1.595   2.432  1.00  0.00     0.191 HD
ATOM      5  H11 UNL     1       1.689   3.127   2.222  1.00  0.00     0.191 HD
ENDBRANCH   2   3
ENDBRANCH   1   2
BRANCH   1   6
HETATM    6  C2  UNL     1       1.845  -0.820   0.289  1.00  0.00     0.293 C 
HETATM    7  N3  UNL     1       2.743  -1.040  -0.776  1.00  0.00    -0.055 NA
HETATM    8  O1  UNL     1       1.825  -1.611   1.261  1.00  0.00    -0.268 OA
ENDBRANCH   1   6
BRANCH   1   9
HETATM    9  C3  UNL     1      -0.284   0.229  -0.512  1.00  0.00     0.057 A 
HETATM   10  C4  UNL     1      -1.240  -0.888  -0.112  1.00  0.00     0.012 A 
HETATM   11  C5  UNL     1      -2.292   0.087   0.324  1.00  0.00     0.002 A 
HETATM   12  C6  UNL     1      -1.356   1.219  -0.077  1.00  0.00     0.012 A 
ENDBRANCH   1   9
TORSDOF 4
