REMARK  13 active torsions:
REMARK  status: ('A' for Active; 'I' for Inactive)
REMARK    1  A    between atoms: C2_2  and  C3_3 
REMARK    2  A    between atoms: C2_2  and  C13_15 
REMARK    3  A    between atoms: C3_3  and  O1_4 
REMARK    4  A    between atoms: O1_4  and  C4_5 
REMARK    5  A    between atoms: C4_5  and  C5_7 
REMARK    6  A    between atoms: C5_7  and  C6_8 
REMARK    7  A    between atoms: C13_15  and  C15_17 
REMARK    8  A    between atoms: C16_18  and  C17_19 
REMARK    9  A    between atoms: C18_20  and  C19_21 
REMARK   10  A    between atoms: C19_21  and  C20_22 
REMARK   11  A    between atoms: N2_25  and  O3_27 
REMARK   12  A    between atoms: C22_30  and  O5_31 
REMARK   13  A    between atoms: C23_33  and  O6_34 
ROOT
HETATM    1  C20 UNL     1       7.121   1.488  -0.900  1.00  0.00     0.115 C 
HETATM    2  C21 UNL     1       8.343   1.053  -1.549  1.00  0.00     0.115 C 
HETATM    3  N1  UNL     1       9.332   0.701  -2.056  1.00  0.00    -0.190 NA
HETATM    4  N2  UNL     1       7.206   2.347   0.032  1.00  0.00    -0.263 N 
ATOM      5  H2  UNL     1       8.142   2.685   0.254  1.00  0.00     0.194 HD
ENDROOT
BRANCH   1   6
HETATM    6  C19 UNL     1       5.842   0.877  -1.370  1.00  0.00     0.098 C 
BRANCH   6   7
HETATM    7  C18 UNL     1       4.672   1.410  -0.694  1.00  0.00    -0.017 C 
HETATM    8  C17 UNL     1       3.845   0.765   0.074  1.00  0.00     0.034 C 
BRANCH   8   9
HETATM    9  C16 UNL     1       3.905  -0.634   0.430  1.00  0.00     0.088 A 
HETATM   10  C15 UNL     1       2.951  -1.246   1.278  1.00  0.00     0.022 A 
HETATM   11  C23 UNL     1       3.352  -2.558   1.368  1.00  0.00     0.134 A 
HETATM   12  C22 UNL     1       4.509  -2.719   0.596  1.00  0.00     0.218 A 
HETATM   13  O4  UNL     1       4.751  -1.546   0.091  1.00  0.00    -0.285 OA
BRANCH  10  14
HETATM   14  C13 UNL     1       1.783  -0.596   1.903  1.00  0.00     0.050 C 
HETATM   15  C14 UNL     1       1.202  -1.488   2.999  1.00  0.00     0.020 C 
BRANCH  14  16
HETATM   16  C2  UNL     1       0.628  -0.443   0.919  1.00  0.00    -0.057 C 
HETATM   17  C1  UNL     1       0.719  -0.879  -0.295  1.00  0.00     0.017 C 
BRANCH  16  18
HETATM   18  C3  UNL     1      -0.562   0.217   1.468  1.00  0.00     0.213 C 
BRANCH  18  19
HETATM   19  O1  UNL     1      -1.605   0.364   0.578  1.00  0.00    -0.317 OA
BRANCH  19  20
HETATM   20  C4  UNL     1      -1.685   1.170  -0.536  1.00  0.00     0.259 C 
HETATM   21  O2  UNL     1      -0.659   1.898  -0.781  1.00  0.00    -0.265 OA
BRANCH  20  22
HETATM   22  C5  UNL     1      -2.869   1.198  -1.398  1.00  0.00     0.116 C 
BRANCH  22  23
HETATM   23  C6  UNL     1      -4.090   0.525  -0.852  1.00  0.00    -0.002 C 
HETATM   24  C7  UNL     1      -4.544   1.172   0.406  1.00  0.00     0.005 C 
HETATM   25  C8  UNL     1      -5.821   0.558   0.950  1.00  0.00     0.000 C 
HETATM   26  C9  UNL     1      -6.737   0.064  -0.127  1.00  0.00     0.000 C 
HETATM   27  C10 UNL     1      -6.509   0.907  -1.366  1.00  0.00     0.004 C 
HETATM   28  C11 UNL     1      -5.161   0.501  -1.923  1.00  0.00    -0.014 C 
HETATM   29  C12 UNL     1      -5.309  -0.878  -2.530  1.00  0.00     0.010 C 
ENDBRANCH  22  23
ENDBRANCH  20  22
ENDBRANCH  19  20
ENDBRANCH  18  19
ENDBRANCH  16  18
ENDBRANCH  14  16
ENDBRANCH  10  14
BRANCH  11  30
HETATM   30  O6  UNL     1       2.737  -3.571   2.090  1.00  0.00    -0.356 OA
ATOM     31  H6  UNL     1       3.014  -4.478   2.152  1.00  0.00     0.218 HD
ENDBRANCH  11  30
BRANCH  12  32
HETATM   32  O5  UNL     1       5.205  -3.908   0.443  1.00  0.00    -0.339 OA
ATOM     33  H5  UNL     1       5.028  -4.765   0.812  1.00  0.00     0.220 HD
ENDBRANCH  12  32
ENDBRANCH   8   9
ENDBRANCH   6   7
ENDBRANCH   1   6
BRANCH   4  34
HETATM   34  O3  UNL     1       6.196   2.860   0.758  1.00  0.00    -0.289 OA
ATOM     35  H3  UNL     1       6.260   3.502   1.455  1.00  0.00     0.244 HD
ENDBRANCH   4  34
TORSDOF 13
