REMARK  15 active torsions:
REMARK  status: ('A' for Active; 'I' for Inactive)
REMARK    1  A    between atoms: C2_2  and  O1_5 
REMARK    2  A    between atoms: O1_5  and  C5_6 
REMARK    3  A    between atoms: C5_6  and  C6_8 
REMARK    4  A    between atoms: C6_8  and  C7_9 
REMARK    5  A    between atoms: C7_9  and  C8_10 
REMARK    6  A    between atoms: C8_10  and  C9_11 
REMARK    7  A    between atoms: C9_11  and  C10_12 
REMARK    8  A    between atoms: C10_12  and  C11_13 
REMARK    9  A    between atoms: C11_13  and  C12_14 
REMARK   10  A    between atoms: C11_13  and  N1_23 
REMARK   11  A    between atoms: C12_14  and  C13_15 
REMARK   12  A    between atoms: C18_20  and  O3_21 
REMARK   13  A    between atoms: N1_23  and  N2_25 
REMARK   14  A    between atoms: N2_25  and  C19_27 
REMARK   15  A    between atoms: N5_35  and  O4_37 
ROOT
HETATM    1  C11 UNL     1      -1.845   0.355   0.327  1.00  0.00     0.023 C 
ENDROOT
BRANCH   1   2
HETATM    2  C10 UNL     1      -1.349   0.143   1.656  1.00  0.00    -0.000 C 
BRANCH   2   3
HETATM    3  C9  UNL     1      -0.115  -0.582   1.947  1.00  0.00     0.029 C 
BRANCH   3   4
HETATM    4  C8  UNL     1       1.200  -0.066   1.506  1.00  0.00     0.010 C 
BRANCH   4   5
HETATM    5  C7  UNL     1       1.358   0.053   0.042  1.00  0.00     0.066 C 
BRANCH   5   6
HETATM    6  C6  UNL     1       2.737   0.536  -0.298  1.00  0.00     0.106 C 
HETATM    7  N5  UNL     1       2.856   1.682  -0.836  1.00  0.00    -0.267 N 
ATOM      8  H5  UNL     1       2.031   2.247  -1.038  1.00  0.00     0.194 HD
BRANCH   6   9
HETATM    9  C5  UNL     1       3.872  -0.280  -0.004  1.00  0.00     0.308 C 
HETATM   10  O2  UNL     1       3.826  -1.418   0.515  1.00  0.00    -0.258 OA
BRANCH   9  11
HETATM   11  O1  UNL     1       5.153   0.192  -0.302  1.00  0.00    -0.306 OA
BRANCH  11  12
HETATM   12  C2  UNL     1       6.268  -0.580  -0.025  1.00  0.00     0.060 C 
HETATM   13  C1  UNL     1       6.291  -1.903  -0.729  1.00  0.00     0.046 C 
HETATM   14  C3  UNL     1       6.501  -0.831   1.444  1.00  0.00     0.046 C 
HETATM   15  C4  UNL     1       7.493   0.203  -0.520  1.00  0.00     0.046 C 
ENDBRANCH  11  12
ENDBRANCH   9  11
ENDBRANCH   6   9
BRANCH   7  16
HETATM   16  O4  UNL     1       4.109   2.148  -1.141  1.00  0.00    -0.290 OA
ATOM     17  H4  UNL     1       4.198   3.004  -1.543  1.00  0.00     0.244 HD
ENDBRANCH   7  16
ENDBRANCH   5   6
ENDBRANCH   4   5
ENDBRANCH   3   4
ENDBRANCH   2   3
ENDBRANCH   1   2
BRANCH   1  18
HETATM   18  C12 UNL     1      -2.163  -0.582  -0.755  1.00  0.00     0.065 C 
BRANCH  18  19
HETATM   19  C13 UNL     1      -3.284  -1.490  -0.459  1.00  0.00     0.020 C 
HETATM   20  C14 UNL     1      -3.174  -2.451   0.669  1.00  0.00     0.007 C 
HETATM   21  C15 UNL     1      -4.591  -2.934   0.972  1.00  0.00     0.001 C 
HETATM   22  C16 UNL     1      -5.272  -3.549  -0.200  1.00  0.00     0.002 C 
HETATM   23  C17 UNL     1      -5.116  -2.740  -1.469  1.00  0.00     0.032 C 
HETATM   24  C18 UNL     1      -3.682  -2.321  -1.682  1.00  0.00     0.122 C 
BRANCH  24  25
HETATM   25  O3  UNL     1      -3.578  -1.609  -2.854  1.00  0.00    -0.395 OA
ATOM     26  H3  UNL     1      -3.825  -2.125  -3.613  1.00  0.00     0.210 HD
ENDBRANCH  24  25
ENDBRANCH  18  19
ENDBRANCH   1  18
BRANCH   1  27
HETATM   27  N1  UNL     1      -2.116   1.622  -0.011  1.00  0.00    -0.291 N 
ATOM     28  H1  UNL     1      -2.470   1.803  -0.950  1.00  0.00     0.187 HD
BRANCH  27  29
HETATM   29  N2  UNL     1      -1.945   2.688   0.831  1.00  0.00    -0.132 N 
ATOM     30  H2  UNL     1      -1.485   2.576   1.735  1.00  0.00     0.205 HD
BRANCH  29  31
HETATM   31  C19 UNL     1      -2.383   3.835   0.446  1.00  0.00     0.696 A 
HETATM   32  N3  UNL     1      -2.236   4.917   1.246  1.00  0.00    -0.200 N 
HETATM   33  C20 UNL     1      -2.675   6.135   0.890  1.00  0.00     0.107 A 
ATOM     34  H3  UNL     1      -1.776   4.803   2.149  1.00  0.00     0.183 HD
HETATM   35  C21 UNL     1      -3.302   6.330  -0.322  1.00  0.00     0.035 A 
HETATM   36  C22 UNL     1      -3.454   5.230  -1.142  1.00  0.00     0.107 A 
HETATM   37  N4  UNL     1      -2.994   4.030  -0.734  1.00  0.00    -0.200 N 
ATOM     38  H4  UNL     1      -3.116   3.229  -1.354  1.00  0.00     0.183 HD
ENDBRANCH  29  31
ENDBRANCH  27  29
ENDBRANCH   1  27
TORSDOF 15
