REMARK  12 active torsions:
REMARK  status: ('A' for Active; 'I' for Inactive)
REMARK    1  A    between atoms: C2_2  and  C3_3 
REMARK    2  A    between atoms: C3_3  and  C4_4 
REMARK    3  A    between atoms: C4_4  and  C5_5 
REMARK    4  A    between atoms: C5_5  and  O2_7 
REMARK    5  A    between atoms: O2_7  and  C6_8 
REMARK    6  A    between atoms: C6_8  and  C7_9 
REMARK    7  A    between atoms: C7_9  and  S1_10 
REMARK    8  A    between atoms: S1_10  and  C8_11 
REMARK    9  A    between atoms: C13_19  and  N2_20 
REMARK   10  A    between atoms: C15_26  and  C16_27 
REMARK   11  A    between atoms: C16_27  and  C17_28 
REMARK   12  A    between atoms: C17_28  and  O3_29 
ROOT
HETATM    1  C8  UNL     1       0.480   0.566  -1.477  1.00  0.00     0.146 A 
HETATM    2  N1  UNL     1       0.431   0.308  -0.164  1.00  0.00    -0.330 N 
ATOM      3  H1  UNL     1       1.297   0.242   0.371  1.00  0.00     0.168 HD
HETATM    4  C9  UNL     1      -0.775   0.132   0.469  1.00  0.00     0.091 A 
HETATM    5  S2  UNL     1      -1.162  -0.225   2.085  1.00  0.00    -0.075 SA
HETATM    6  C10 UNL     1      -2.880  -0.276   1.934  1.00  0.00     0.001 A 
HETATM    7  C11 UNL     1      -3.087  -0.012   0.637  1.00  0.00    -0.026 A 
HETATM    8  C12 UNL     1      -1.978   0.203  -0.161  1.00  0.00     0.049 A 
HETATM    9  C13 UNL     1      -1.882   0.473  -1.545  1.00  0.00     0.114 A 
HETATM   10  N3  UNL     1      -0.648   0.642  -2.129  1.00  0.00    -0.323 N 
ATOM     11  H3  UNL     1      -0.613   0.838  -3.129  1.00  0.00     0.169 HD
HETATM   12  C14 UNL     1      -4.516   0.134   0.082  1.00  0.00     0.056 C 
HETATM   13  C15 UNL     1      -5.525   0.448   1.091  1.00  0.00     0.054 C 
HETATM   14  S3  UNL     1      -5.484  -0.860   2.361  1.00  0.00    -0.159 SA
HETATM   15  C18 UNL     1      -3.827  -0.595   3.035  1.00  0.00     0.121 C 
ENDROOT
BRANCH   1  16
HETATM   16  S1  UNL     1       2.025   0.810  -2.345  1.00  0.00    -0.092 SA
BRANCH  16  17
HETATM   17  C7  UNL     1       2.583  -0.811  -2.936  1.00  0.00     0.109 C 
BRANCH  17  18
HETATM   18  C6  UNL     1       2.912  -1.641  -1.690  1.00  0.00     0.189 C 
BRANCH  18  19
HETATM   19  O2  UNL     1       3.915  -0.941  -1.009  1.00  0.00    -0.321 OA
BRANCH  19  20
HETATM   20  C5  UNL     1       4.497  -1.349   0.168  1.00  0.00     0.258 C 
HETATM   21  O1  UNL     1       4.109  -2.427   0.675  1.00  0.00    -0.265 OA
BRANCH  20  22
HETATM   22  C4  UNL     1       5.567  -0.523   0.821  1.00  0.00     0.111 C 
BRANCH  22  23
HETATM   23  C3  UNL     1       5.798   0.726   0.008  1.00  0.00     0.009 C 
BRANCH  23  24
HETATM   24  C2  UNL     1       6.861   1.574   0.639  1.00  0.00    -0.004 C 
HETATM   25  C1  UNL     1       8.167   0.857   0.742  1.00  0.00     0.005 C 
ENDBRANCH  23  24
ENDBRANCH  22  23
ENDBRANCH  20  22
ENDBRANCH  19  20
ENDBRANCH  18  19
ENDBRANCH  17  18
ENDBRANCH  16  17
ENDBRANCH   1  16
BRANCH   9  26
HETATM   26  N2  UNL     1      -2.822   0.509  -2.356  1.00  0.00    -0.385 N 
ATOM     27  H22 UNL     1      -3.737   0.384  -1.923  1.00  0.00     0.157 HD
ATOM     28  H21 UNL     1      -2.753   0.704  -3.355  1.00  0.00     0.157 HD
ENDBRANCH   9  26
BRANCH  13  29
HETATM   29  C16 UNL     1      -6.872   0.663   0.529  1.00  0.00     0.041 C 
BRANCH  29  30
HETATM   30  C17 UNL     1      -7.535  -0.428  -0.210  1.00  0.00     0.165 C 
BRANCH  30  31
HETATM   31  O3  UNL     1      -6.930  -0.890  -1.353  1.00  0.00    -0.401 OA
ATOM     32  H3  UNL     1      -7.357  -1.593  -1.829  1.00  0.00     0.209 HD
ENDBRANCH  30  31
ENDBRANCH  29  30
ENDBRANCH  13  29
TORSDOF 12
