REMARK  7 active torsions:
REMARK  status: ('A' for Active; 'I' for Inactive)
REMARK    1  A    between atoms: C2_2  and  O1_3 
REMARK    2  A    between atoms: C2_2  and  N1_5 
REMARK    3  A    between atoms: N2_8  and  C5_9 
REMARK    4  A    between atoms: C5_9  and  C6_10 
REMARK    5  A    between atoms: C6_10  and  N3_11 
REMARK    6  A    between atoms: N3_11  and  C7_13 
REMARK    7  A    between atoms: C11_24  and  N7_25 
ROOT
HETATM    1  C7  UNL     1      -2.836   0.754  -0.605  1.00  0.00     0.132 A 
HETATM    2  N4  UNL     1      -2.401   2.018  -0.695  1.00  0.00    -0.337 N 
ATOM      3  H4  UNL     1      -1.403   2.197  -0.801  1.00  0.00     0.168 HD
HETATM    4  C8  UNL     1      -3.270   3.071  -0.647  1.00  0.00     0.182 A 
HETATM    5  N5  UNL     1      -4.597   2.873  -0.507  1.00  0.00    -0.346 N 
ATOM      6  H5  UNL     1      -5.229   3.673  -0.474  1.00  0.00     0.167 HD
HETATM    7  C9  UNL     1      -5.096   1.613  -0.410  1.00  0.00     0.133 A 
HETATM    8  C10 UNL     1      -6.447   1.404  -0.267  1.00  0.00     0.288 A 
HETATM    9  O2  UNL     1      -7.279   2.336  -0.218  1.00  0.00    -0.265 OA
HETATM   10  N6  UNL     1      -6.880   0.138  -0.176  1.00  0.00    -0.154 N 
ATOM     11  H6  UNL     1      -7.878  -0.043  -0.069  1.00  0.00     0.187 HD
HETATM   12  C11 UNL     1      -6.015  -0.908  -0.224  1.00  0.00     0.679 A 
HETATM   13  N8  UNL     1      -4.697  -0.694  -0.364  1.00  0.00    -0.186 N 
ATOM     14  H8  UNL     1      -4.065  -1.494  -0.398  1.00  0.00     0.184 HD
HETATM   15  C12 UNL     1      -4.188   0.549  -0.461  1.00  0.00     0.125 A 
ENDROOT
BRANCH   1  16
HETATM   16  N3  UNL     1      -2.044  -0.218  -0.649  1.00  0.00    -0.373 N 
ATOM     17  H3  UNL     1      -2.477  -1.138  -0.570  1.00  0.00     0.161 HD
BRANCH  16  18
HETATM   18  C6  UNL     1      -0.622  -0.221  -0.794  1.00  0.00     0.141 C 
BRANCH  18  19
HETATM   19  C5  UNL     1       0.143  -0.300   0.470  1.00  0.00     0.143 C 
BRANCH  19  20
HETATM   20  N2  UNL     1       1.541  -0.278   0.255  1.00  0.00    -0.374 N 
HETATM   21  C4  UNL     1       2.339  -0.365   1.435  1.00  0.00     0.140 C 
HETATM   22  C3  UNL     1       3.778  -0.735   1.153  1.00  0.00     0.136 C 
HETATM   23  N1  UNL     1       4.162  -0.130  -0.092  1.00  0.00    -0.201 NA
HETATM   24  N9  UNL     1       3.448  -0.698  -1.138  1.00  0.00    -0.313 N 
HETATM   25  C13 UNL     1       2.081  -1.050  -0.793  1.00  0.00     0.190 C 
ATOM     26  H9  UNL     1       3.846  -0.854  -2.064  1.00  0.00     0.181 HD
BRANCH  23  27
HETATM   27  C2  UNL     1       5.588  -0.291  -0.307  1.00  0.00     0.208 C 
HETATM   28  C1  UNL     1       6.301   0.439   0.811  1.00  0.00     0.058 C 
BRANCH  27  29
HETATM   29  O1  UNL     1       5.966  -1.628  -0.255  1.00  0.00    -0.380 OA
ATOM     30  H1  UNL     1       5.519  -2.086  -0.957  1.00  0.00     0.211 HD
ENDBRANCH  27  29
ENDBRANCH  23  27
ENDBRANCH  19  20
ENDBRANCH  18  19
ENDBRANCH  16  18
ENDBRANCH   1  16
BRANCH  12  31
HETATM   31  N7  UNL     1      -6.472  -2.108  -0.133  1.00  0.00    -0.234 N 
ATOM     32  H72 UNL     1      -7.473  -2.271  -0.027  1.00  0.00     0.174 HD
ATOM     33  H71 UNL     1      -5.822  -2.894  -0.169  1.00  0.00     0.174 HD
ENDBRANCH  12  31
TORSDOF 7
