REMARK  8 active torsions:
REMARK  status: ('A' for Active; 'I' for Inactive)
REMARK    1  A    between atoms: C2_2  and  C4_4 
REMARK    2  A    between atoms: C4_4  and  C5_5 
REMARK    3  A    between atoms: C5_5  and  N1_6 
REMARK    4  A    between atoms: N1_6  and  C6_8 
REMARK    5  A    between atoms: C7_11  and  N3_12 
REMARK    6  A    between atoms: C9_14  and  N4_15 
REMARK    7  A    between atoms: C11_20  and  N5_21 
REMARK    8  A    between atoms: C13_28  and  N7_29 
REMARK       I    between atoms: N7_29  and  C14_31 
REMARK       I    between atoms: C14_31  and  N8_32 
REMARK       I    between atoms: C14_31  and  N9_36 
ROOT
HETATM    1  C6  UNL     1       0.825   1.260  -0.111  1.00  0.00     0.707 A 
HETATM    2  N2  UNL     1       0.080   0.161   0.152  1.00  0.00    -0.021 N 
ATOM      3  H2  UNL     1       0.517  -0.745   0.321  1.00  0.00     0.203 HD
HETATM    4  C7  UNL     1      -1.253   0.306   0.182  1.00  0.00     0.709 A 
HETATM    5  N6  UNL     1      -1.817   1.535  -0.048  1.00  0.00    -0.021 N 
ATOM      6  H6  UNL     1      -2.833   1.623  -0.019  1.00  0.00     0.203 HD
HETATM    7  C13 UNL     1      -1.082   2.622  -0.309  1.00  0.00     0.710 A 
HETATM    8  N10 UNL     1       0.257   2.453  -0.334  1.00  0.00    -0.021 N 
ATOM      9  H10 UNL     1       0.854   3.257  -0.528  1.00  0.00     0.203 HD
ENDROOT
BRANCH   4  10
HETATM   10  N3  UNL     1      -2.112  -0.795   0.452  1.00  0.00    -0.213 N 
HETATM   11  C8  UNL     1      -1.664  -2.115   0.718  1.00  0.00     0.174 C 
HETATM   12  C9  UNL     1      -2.297  -2.985  -0.382  1.00  0.00     0.204 C 
HETATM   13  C10 UNL     1      -3.758  -3.045  -0.020  1.00  0.00     0.069 C 
HETATM   14  C11 UNL     1      -4.379  -1.773   0.392  1.00  0.00     0.204 C 
HETATM   15  C12 UNL     1      -3.546  -0.565   0.456  1.00  0.00     0.174 C 
BRANCH  12  16
HETATM   16  N4  UNL     1      -2.187  -2.288  -1.643  1.00  0.00    -0.073 N 
ATOM     17  H43 UNL     1      -2.588  -1.351  -1.607  1.00  0.00     0.274 HD
ATOM     18  H42 UNL     1      -1.226  -2.022  -1.860  1.00  0.00     0.274 HD
ATOM     19  H41 UNL     1      -2.607  -2.865  -2.372  1.00  0.00     0.274 HD
ENDBRANCH  12  16
BRANCH  14  20
HETATM   20  N5  UNL     1      -5.064  -1.993   1.679  1.00  0.00    -0.073 N 
ATOM     21  H53 UNL     1      -5.731  -2.764   1.643  1.00  0.00     0.274 HD
ATOM     22  H52 UNL     1      -4.446  -2.379   2.393  1.00  0.00     0.274 HD
ATOM     23  H51 UNL     1      -5.494  -1.113   1.964  1.00  0.00     0.274 HD
ENDBRANCH  14  20
ENDBRANCH   4  10
BRANCH   1  24
HETATM   24  N1  UNL     1       2.106   1.106  -0.137  1.00  0.00    -0.225 N 
ATOM     25  H1  UNL     1       2.694   1.917  -0.333  1.00  0.00     0.177 HD
BRANCH  24  26
HETATM   26  C5  UNL     1       2.739  -0.169   0.100  1.00  0.00     0.138 C 
BRANCH  26  27
HETATM   27  C4  UNL     1       4.231   0.050   0.237  1.00  0.00     0.024 C 
BRANCH  27  28
HETATM   28  C2  UNL     1       4.899  -1.301   0.488  1.00  0.00    -0.021 C 
HETATM   29  C1  UNL     1       4.599  -2.190  -0.687  1.00  0.00     0.009 C 
HETATM   30  C3  UNL     1       6.372  -1.125   0.726  1.00  0.00     0.009 C 
ENDBRANCH  27  28
ENDBRANCH  26  27
ENDBRANCH  24  26
ENDBRANCH   1  24
BRANCH   7  31
HETATM   31  N7  UNL     1      -1.652   3.760  -0.520  1.00  0.00    -0.172 N 
HETATM   32  C14 UNL     1      -0.949   4.966  -0.803  1.00  0.00     0.494 C 
HETATM   33  N8  UNL     1      -1.889   5.900  -1.424  1.00  0.00    -0.032 N 
HETATM   34  N9  UNL     1      -0.538   5.562   0.464  1.00  0.00    -0.032 N 
ATOM     35  H83 UNL     1      -2.350   5.509  -2.246  1.00  0.00     0.278 HD
ATOM     36  H82 UNL     1      -2.725   6.053  -0.860  1.00  0.00     0.278 HD
ATOM     37  H81 UNL     1      -1.386   6.764  -1.627  1.00  0.00     0.278 HD
ATOM     38  H93 UNL     1      -1.319   5.703   1.104  1.00  0.00     0.278 HD
ATOM     39  H92 UNL     1       0.001   4.919   1.044  1.00  0.00     0.278 HD
ATOM     40  H91 UNL     1      -0.035   6.426   0.261  1.00  0.00     0.278 HD
ATOM     41  H7  UNL     1      -2.671   3.799  -0.482  1.00  0.00     0.181 HD
ENDBRANCH   7  31
TORSDOF 8
