REMARK  11 active torsions:
REMARK  status: ('A' for Active; 'I' for Inactive)
REMARK    1  A    between atoms: O1_2  and  N1_3 
REMARK    2  A    between atoms: N1_3  and  C2_4 
REMARK    3  A    between atoms: C2_4  and  C3_5 
REMARK    4  A    between atoms: C3_5  and  O3_7 
REMARK    5  A    between atoms: C7_12  and  N2_13 
REMARK    6  A    between atoms: N2_13  and  C8_15 
REMARK    7  A    between atoms: C8_15  and  N3_17 
REMARK    8  A    between atoms: N3_17  and  N4_19 
REMARK    9  A    between atoms: N4_19  and  C9_21 
REMARK   10  A    between atoms: C9_21  and  O4_25 
REMARK   11  A    between atoms: O4_25  and  N6_26 
ROOT
HETATM    1  N2  UNL     1       0.388  -0.313   0.039  1.00  0.00    -0.358 N 
ATOM      2  H2  UNL     1       0.457   0.125   0.958  1.00  0.00     0.162 HD
ENDROOT
BRANCH   1   3
HETATM    3  C7  UNL     1      -0.856  -0.203  -0.680  1.00  0.00     0.130 C 
HETATM    4  C2  UNL     1      -1.895   0.400   0.190  1.00  0.00     0.173 C 
HETATM    5  C5  UNL     1      -1.457   1.804   0.542  1.00  0.00     0.116 C 
HETATM    6  S1  UNL     1      -0.957   2.358  -1.132  1.00  0.00    -0.164 SA
HETATM    7  C6  UNL     1      -0.644   0.704  -1.865  1.00  0.00     0.102 C 
BRANCH   4   8
HETATM    8  N1  UNL     1      -2.063  -0.430   1.370  1.00  0.00    -0.078 NA
BRANCH   8   9
HETATM    9  O1  UNL     1      -2.959   0.116   2.233  1.00  0.00    -0.290 OA
HETATM   10  C1  UNL     1      -3.546  -0.851   3.039  1.00  0.00     0.231 C 
ENDBRANCH   8   9
ENDBRANCH   4   8
BRANCH   4  11
HETATM   11  C3  UNL     1      -3.213   0.540  -0.485  1.00  0.00     0.288 C 
HETATM   12  O2  UNL     1      -4.227  -0.017  -0.025  1.00  0.00    -0.263 OA
BRANCH  11  13
HETATM   13  O3  UNL     1      -3.335   1.288  -1.633  1.00  0.00    -0.325 OA
HETATM   14  C4  UNL     1      -4.532   1.478  -2.339  1.00  0.00     0.213 C 
ENDBRANCH  11  13
ENDBRANCH   4  11
ENDBRANCH   1   3
BRANCH   1  15
HETATM   15  C8  UNL     1       1.526  -1.003  -0.469  1.00  0.00     0.187 C 
HETATM   16  S2  UNL     1       1.412  -1.728  -1.919  1.00  0.00    -0.040 SA
BRANCH  15  17
HETATM   17  N3  UNL     1       2.743  -1.094   0.245  1.00  0.00    -0.273 N 
ATOM     18  H3  UNL     1       2.808  -0.647   1.160  1.00  0.00     0.189 HD
BRANCH  17  19
HETATM   19  N4  UNL     1       3.845  -1.761  -0.244  1.00  0.00    -0.262 N 
ATOM     20  H4  UNL     1       3.712  -2.581  -0.837  1.00  0.00     0.190 HD
BRANCH  19  21
HETATM   21  C9  UNL     1       5.164  -1.327   0.063  1.00  0.00     0.255 C 
HETATM   22  N5  UNL     1       5.820  -1.851   1.043  1.00  0.00    -0.363 N 
ATOM     23  H52 UNL     1       5.349  -2.581   1.577  1.00  0.00     0.159 HD
ATOM     24  H51 UNL     1       6.766  -1.540   1.263  1.00  0.00     0.159 HD
BRANCH  21  25
HETATM   25  O4  UNL     1       5.805  -0.332  -0.665  1.00  0.00    -0.207 OA
BRANCH  25  26
HETATM   26  N6  UNL     1       7.010   0.216  -0.270  1.00  0.00    -0.302 N 
ATOM     27  H62 UNL     1       7.431  -0.134   0.590  1.00  0.00     0.184 HD
ATOM     28  H61 UNL     1       7.481   0.946  -0.804  1.00  0.00     0.184 HD
ENDBRANCH  25  26
ENDBRANCH  21  25
ENDBRANCH  19  21
ENDBRANCH  17  19
ENDBRANCH  15  17
ENDBRANCH   1  15
TORSDOF 11
