REMARK  9 active torsions:
REMARK  status: ('A' for Active; 'I' for Inactive)
REMARK    1  A    between atoms: N1_1  and  C1_4 
REMARK    2  A    between atoms: C2_7  and  N3_8 
REMARK    3  A    between atoms: N3_8  and  N4_10 
REMARK    4  A    between atoms: C3_15  and  N6_16 
REMARK    5  A    between atoms: N6_16  and  N7_18 
REMARK    6  A    between atoms: N8_20  and  C4_22 
REMARK    7  A    between atoms: N10_25  and  O1_26 
REMARK    8  A    between atoms: O1_26  and  C5_27 
REMARK    9  A    between atoms: C5_27  and  C6_28 
ROOT
HETATM    1  C1  UNL     1      -0.516  -1.949  -0.769  1.00  0.00     0.732 A 
HETATM    2  N2  UNL     1      -1.715  -2.227  -1.302  1.00  0.00    -0.018 N 
ATOM      3  H2  UNL     1      -2.007  -3.197  -1.417  1.00  0.00     0.203 HD
HETATM    4  C2  UNL     1      -2.527  -1.239  -1.682  1.00  0.00     0.725 A 
HETATM    5  N5  UNL     1      -2.116   0.049  -1.518  1.00  0.00    -0.016 N 
ATOM      6  H5  UNL     1      -2.723   0.818  -1.803  1.00  0.00     0.203 HD
HETATM    7  C3  UNL     1      -0.911   0.307  -0.981  1.00  0.00     0.754 A 
HETATM    8  N10 UNL     1      -0.072  -0.695  -0.589  1.00  0.00     0.131 N 
ENDROOT
BRANCH   7   9
HETATM    9  N6  UNL     1      -0.553   1.519  -0.840  1.00  0.00    -0.114 N 
ATOM     10  H6  UNL     1       0.367   1.681  -0.430  1.00  0.00     0.207 HD
BRANCH   9  11
HETATM   11  N7  UNL     1      -1.279   2.630  -1.183  1.00  0.00    -0.226 N 
HETATM   12  N8  UNL     1      -2.215   3.155  -0.551  1.00  0.00    -0.264 N 
ATOM     13  H8  UNL     1      -2.644   3.985  -0.960  1.00  0.00     0.190 HD
ATOM     14  H7  UNL     1      -1.022   3.081  -2.061  1.00  0.00     0.209 HD
BRANCH  12  15
HETATM   15  C4  UNL     1      -2.736   2.701   0.684  1.00  0.00     0.200 C 
HETATM   16  N9  UNL     1      -4.143   2.749   0.871  1.00  0.00    -0.068 NA
HETATM   17  S1  UNL     1      -1.825   2.126   1.907  1.00  0.00    -0.043 SA
ENDBRANCH  12  15
ENDBRANCH   9  11
ENDBRANCH   7   9
BRANCH   8  18
HETATM   18  O1  UNL     1       1.128  -0.372  -0.057  1.00  0.00    -0.243 OA
BRANCH  18  19
HETATM   19  C5  UNL     1       2.131  -1.206   0.411  1.00  0.00     0.247 C 
BRANCH  19  20
HETATM   20  C6  UNL     1       3.330  -0.458   0.935  1.00  0.00     0.273 C 
HETATM   21  N11 UNL     1       2.967   0.417   2.045  1.00  0.00    -0.059 N 
HETATM   22  C7  UNL     1       4.128   1.259   2.252  1.00  0.00     0.244 C 
ATOM     23 2H11 UNL     1       2.101   0.936   1.897  1.00  0.00     0.278 HD
ATOM     24 1H11 UNL     1       2.663  -0.081   2.882  1.00  0.00     0.278 HD
HETATM   25  C8  UNL     1       4.247   2.122   0.987  1.00  0.00     0.103 C 
HETATM   26  S2  UNL     1       3.884   0.820  -0.265  1.00  0.00    -0.132 SA
ENDBRANCH  19  20
ENDBRANCH  18  19
ENDBRANCH   8  18
BRANCH   4  27
HETATM   27  N3  UNL     1      -3.701  -1.463  -2.204  1.00  0.00    -0.138 N 
ATOM     28  H3  UNL     1      -4.308  -0.694  -2.487  1.00  0.00     0.205 HD
BRANCH  27  29
HETATM   29  N4  UNL     1      -4.099  -2.794  -2.362  1.00  0.00    -0.331 N 
ATOM     30  H42 UNL     1      -3.481  -3.552  -2.074  1.00  0.00     0.177 HD
ATOM     31  H41 UNL     1      -5.017  -2.969  -2.770  1.00  0.00     0.177 HD
ENDBRANCH  27  29
ENDBRANCH   4  27
BRANCH   1  32
HETATM   32  N1  UNL     1       0.208  -2.943  -0.428  1.00  0.00    -0.231 N 
ATOM     33  H12 UNL     1      -0.129  -3.896  -0.565  1.00  0.00     0.174 HD
ATOM     34  H11 UNL     1       1.120  -2.732  -0.023  1.00  0.00     0.174 HD
ENDBRANCH   1  32
TORSDOF 9
