REMARK  8 active torsions:
REMARK  status: ('A' for Active; 'I' for Inactive)
REMARK    1  A    between atoms: S1_2  and  C2_3 
REMARK    2  A    between atoms: N3_9  and  C4_11 
REMARK    3  A    between atoms: C5_13  and  C6_14 
REMARK    4  A    between atoms: C9_22  and  C10_23 
REMARK    5  A    between atoms: C10_23  and  N8_24 
REMARK    6  A    between atoms: N8_24  and  N9_26 
REMARK       I    between atoms: N9_26  and  C11_28 
REMARK       I    between atoms: C11_28  and  N10_30 
REMARK    7  A    between atoms: N10_30  and  N11_32 
REMARK    8  A    between atoms: N11_32  and  O3_34 
ROOT
HETATM    1  C6  UNL     1       2.364  -3.627  -0.077  1.00  0.00     0.122 C 
HETATM    2  N4  UNL     1       1.992  -4.770  -0.440  1.00  0.00    -0.304 N 
ATOM      3  H4  UNL     1       2.358  -5.087  -1.338  1.00  0.00     0.177 HD
HETATM    4  C7  UNL     1       1.160  -5.653   0.206  1.00  0.00     0.181 C 
HETATM    5  N5  UNL     1       0.471  -6.405   0.725  1.00  0.00    -0.172 NA
ENDROOT
BRANCH   1   6
HETATM    6  C5  UNL     1       1.909  -3.041   1.218  1.00  0.00     0.271 C 
HETATM    7  O1  UNL     1       2.741  -2.067   1.697  1.00  0.00    -0.336 OA
HETATM    8  C4  UNL     1       2.488  -0.824   1.198  1.00  0.00     0.271 C 
HETATM    9  C12 UNL     1       1.067  -0.421   1.413  1.00  0.00     0.325 C 
HETATM   10  N7  UNL     1       0.299  -1.543   1.975  1.00  0.00    -0.196 NA
HETATM   11  N12 UNL     1       0.365  -0.331   0.109  1.00  0.00    -0.046 N 
HETATM   12  N6  UNL     1       0.554  -2.615   1.155  1.00  0.00    -0.125 NA
HETATM   13  C8  UNL     1      -1.053  -1.070   1.742  1.00  0.00     0.147 C 
HETATM   14  C9  UNL     1      -0.944  -0.025   0.630  1.00  0.00     0.221 C 
ATOM     15 2H12 UNL     1       0.439  -1.136  -0.513  1.00  0.00     0.279 HD
ATOM     16 1H12 UNL     1       0.751   0.314  -0.581  1.00  0.00     0.279 HD
BRANCH   8  17
HETATM   17  N3  UNL     1       2.824  -0.603  -0.167  1.00  0.00    -0.340 N 
HETATM   18  C3  UNL     1       3.665   0.261  -0.598  1.00  0.00     0.163 A 
HETATM   19  N2  UNL     1       4.076   0.573  -1.807  1.00  0.00    -0.278 N 
HETATM   20  S2  UNL     1       4.569   1.350   0.369  1.00  0.00    -0.027 SA
HETATM   21  N1  UNL     1       4.943   1.498  -1.956  1.00  0.00    -0.286 N 
ATOM     22  H2  UNL     1       3.705   0.080  -2.619  1.00  0.00     0.189 HD
HETATM   23  C2  UNL     1       5.425   2.135  -0.904  1.00  0.00     0.129 A 
ATOM     24  H1  UNL     1       5.265   1.746  -2.891  1.00  0.00     0.188 HD
ATOM     25  H3  UNL     1       2.354  -1.183  -0.862  1.00  0.00     0.164 HD
BRANCH  23  26
HETATM   26  S1  UNL     1       6.654   3.458  -0.826  1.00  0.00    -0.108 SA
HETATM   27  C1  UNL     1       5.675   5.003  -0.979  1.00  0.00     0.097 C 
ENDBRANCH  23  26
ENDBRANCH   8  17
BRANCH  14  28
HETATM   28  C10 UNL     1      -2.102  -0.129  -0.319  1.00  0.00     0.173 C 
BRANCH  28  29
HETATM   29  N8  UNL     1      -3.303   0.095   0.434  1.00  0.00    -0.330 N 
ATOM     30  H8  UNL     1      -3.262   0.310   1.430  1.00  0.00     0.180 HD
BRANCH  29  31
HETATM   31  N9  UNL     1      -4.491   0.014  -0.210  1.00  0.00    -0.255 N 
HETATM   32  C11 UNL     1      -5.500   0.971   0.008  1.00  0.00     0.354 C 
HETATM   33  O2  UNL     1      -5.307   1.936   0.805  1.00  0.00    -0.244 OA
HETATM   34  N10 UNL     1      -6.737   0.858  -0.658  1.00  0.00    -0.231 N 
ATOM     35  H10 UNL     1      -6.886   0.078  -1.298  1.00  0.00     0.193 HD
ATOM     36  H9  UNL     1      -4.657  -0.752  -0.863  1.00  0.00     0.191 HD
BRANCH  34  37
HETATM   37  N11 UNL     1      -7.759   1.780  -0.466  1.00  0.00    -0.206 N 
ATOM     38  H11 UNL     1      -8.609   1.554   0.050  1.00  0.00     0.215 HD
BRANCH  37  39
HETATM   39  O3  UNL     1      -7.548   2.980  -1.004  1.00  0.00    -0.274 OA
ATOM     40  H3  UNL     1      -8.247   3.610  -0.873  1.00  0.00     0.246 HD
ENDBRANCH  37  39
ENDBRANCH  34  37
ENDBRANCH  29  31
ENDBRANCH  28  29
ENDBRANCH  14  28
ENDBRANCH   1   6
TORSDOF 8
