REMARK  12 active torsions:
REMARK  status: ('A' for Active; 'I' for Inactive)
REMARK    1  A    between atoms: N1_1  and  C1_4 
REMARK    2  A    between atoms: C2_7  and  N3_8 
REMARK    3  A    between atoms: N3_8  and  C3_10 
REMARK    4  A    between atoms: C4_16  and  O2_17 
REMARK    5  A    between atoms: N9_26  and  C6_27 
REMARK    6  A    between atoms: C6_27  and  C7_28 
REMARK    7  A    between atoms: C9_30  and  N10_31 
REMARK       I    between atoms: N10_31  and  C10_33 
REMARK    8  A    between atoms: C10_33  and  C11_35 
REMARK    9  A    between atoms: C11_35  and  C12_36 
REMARK   10  A    between atoms: C12_36  and  O4_37 
REMARK   11  A    between atoms: C12_36  and  O5_39 
REMARK   12  A    between atoms: N12_43  and  O6_44 
ROOT
HETATM    1  C1  UNL     1      -2.748   0.947   0.471  1.00  0.00     0.147 A 
HETATM    2  N2  UNL     1      -3.669   0.608   1.387  1.00  0.00    -0.174 N 
ATOM      3  H2  UNL     1      -4.029   1.333   2.008  1.00  0.00     0.186 HD
HETATM    4  C2  UNL     1      -4.140  -0.650   1.522  1.00  0.00     0.687 A 
HETATM    5  N6  UNL     1      -3.693  -1.623   0.727  1.00  0.00    -0.172 N 
ATOM      6  H6  UNL     1      -4.052  -2.572   0.834  1.00  0.00     0.186 HD
HETATM    7  C5  UNL     1      -2.780  -1.362  -0.206  1.00  0.00     0.169 A 
HETATM    8  N7  UNL     1      -2.173  -2.141  -1.132  1.00  0.00    -0.268 N 
ATOM      9  H7  UNL     1      -2.324  -3.139  -1.276  1.00  0.00     0.190 HD
HETATM   10  N8  UNL     1      -1.366  -1.382  -1.799  1.00  0.00    -0.238 N 
ATOM     11  H8  UNL     1      -0.773  -1.699  -2.566  1.00  0.00     0.208 HD
HETATM   12  N9  UNL     1      -1.416  -0.112  -1.342  1.00  0.00    -0.265 N 
HETATM   13  C13 UNL     1      -2.280  -0.069  -0.360  1.00  0.00     0.142 A 
ENDROOT
BRANCH  12  14
HETATM   14  C6  UNL     1      -0.581   0.881  -1.912  1.00  0.00     0.212 C 
BRANCH  14  15
HETATM   15  C7  UNL     1       0.795   0.950  -1.373  1.00  0.00     0.082 A 
HETATM   16  C8  UNL     1       1.704  -0.071  -1.691  1.00  0.00     0.081 A 
HETATM   17  C9  UNL     1       2.902   0.207  -1.111  1.00  0.00     0.126 A 
HETATM   18  N11 UNL     1       2.733   1.369  -0.453  1.00  0.00    -0.259 N 
HETATM   19  N12 UNL     1       1.469   1.792  -0.625  1.00  0.00    -0.164 N 
ATOM     20  H11 UNL     1       3.450   1.851   0.089  1.00  0.00     0.191 HD
BRANCH  17  21
HETATM   21  N10 UNL     1       4.082  -0.589  -1.197  1.00  0.00    -0.312 N 
HETATM   22  C10 UNL     1       5.275  -0.208  -0.555  1.00  0.00     0.227 C 
HETATM   23  O3  UNL     1       5.297   0.852   0.106  1.00  0.00    -0.273 OA
ATOM     24  H10 UNL     1       4.061  -1.455  -1.736  1.00  0.00     0.170 HD
BRANCH  22  25
HETATM   25  C11 UNL     1       6.486  -1.041  -0.654  1.00  0.00     0.163 C 
BRANCH  25  26
HETATM   26  C12 UNL     1       7.594  -0.378   0.132  1.00  0.00     0.262 C 
BRANCH  26  27
HETATM   27  O4  UNL     1       7.810   0.873  -0.423  1.00  0.00    -0.371 OA
ATOM     28  H4  UNL     1       8.506   1.290   0.071  1.00  0.00     0.212 HD
ENDBRANCH  26  27
BRANCH  26  29
HETATM   29  O5  UNL     1       7.181  -0.318   1.455  1.00  0.00    -0.371 OA
ATOM     30  H5  UNL     1       7.877   0.099   1.949  1.00  0.00     0.212 HD
ENDBRANCH  26  29
ENDBRANCH  25  26
ENDBRANCH  22  25
ENDBRANCH  17  21
BRANCH  19  31
HETATM   31  O6  UNL     1       0.991   2.955  -0.092  1.00  0.00    -0.268 OA
ATOM     32  H6  UNL     1       1.479   3.564   0.449  1.00  0.00     0.247 HD
ENDBRANCH  19  31
ENDBRANCH  14  15
ENDBRANCH  12  14
BRANCH   1  33
HETATM   33  N1  UNL     1      -2.314   2.145   0.332  1.00  0.00    -0.383 N 
ATOM     34  H12 UNL     1      -2.657   2.889   0.940  1.00  0.00     0.157 HD
ATOM     35  H11 UNL     1      -1.614   2.403  -0.364  1.00  0.00     0.157 HD
ENDBRANCH   1  33
BRANCH   4  36
HETATM   36  N3  UNL     1      -5.107  -0.959   2.500  1.00  0.00    -0.170 N 
ATOM     37  H3  UNL     1      -4.792  -1.279   3.416  1.00  0.00     0.186 HD
BRANCH  36  38
HETATM   38  C3  UNL     1      -6.358  -0.854   2.285  1.00  0.00     0.195 A 
HETATM   39  N4  UNL     1      -7.348  -1.125   3.155  1.00  0.00    -0.221 N 
HETATM   40  O1  UNL     1      -8.487  -0.899   2.576  1.00  0.00    -0.153 OA
ATOM     41  H4  UNL     1      -7.224  -1.454   4.112  1.00  0.00     0.198 HD
HETATM   42  N5  UNL     1      -8.337  -0.489   1.366  1.00  0.00    -0.216 N 
HETATM   43  C4  UNL     1      -7.004  -0.443   1.129  1.00  0.00     0.209 A 
ATOM     44  H5  UNL     1      -9.080  -0.245   0.711  1.00  0.00     0.199 HD
BRANCH  43  45
HETATM   45  O2  UNL     1      -6.419  -0.053  -0.055  1.00  0.00    -0.342 OA
ATOM     46  H2  UNL     1      -6.862   0.229  -0.847  1.00  0.00     0.219 HD
ENDBRANCH  43  45
ENDBRANCH  36  38
ENDBRANCH   4  36
TORSDOF 12
