REMARK  3 active torsions:
REMARK  status: ('A' for Active; 'I' for Inactive)
REMARK    1  A    between atoms: O1_1  and  C1_3 
REMARK    2  A    between atoms: C1_3  and  O2_4 
REMARK    3  A    between atoms: C1_3  and  C2_6 
ROOT
HETATM    1  C2  UNL     1      -1.357  -0.261  -0.187  1.00  0.00     0.182 C 
HETATM    2  C3  UNL     1      -0.627   0.469   0.928  1.00  0.00     0.101 C 
HETATM    3  C4  UNL     1       0.748  -0.067   0.832  1.00  0.00     0.364 C 
HETATM    4  O3  UNL     1       1.651   0.334   1.765  1.00  0.00    -0.355 OA
HETATM    5  C5  UNL     1       2.816  -0.233   1.190  1.00  0.00     0.201 C 
HETATM    6  C6  UNL     1       2.662   0.038  -0.312  1.00  0.00     0.304 C 
HETATM    7  N1  UNL     1       1.326   0.527  -0.385  1.00  0.00     0.142 N 
HETATM    8  C7  UNL     1       0.547   0.123  -1.481  1.00  0.00     0.444 C 
HETATM    9  O4  UNL     1      -0.583  -0.585  -1.248  1.00  0.00    -0.352 OA
ENDROOT
BRANCH   1  10
HETATM   10  C1  UNL     1      -2.655   0.432  -0.536  1.00  0.00     0.282 C 
BRANCH  10  11
HETATM   11  O1  UNL     1      -3.454  -0.366  -1.353  1.00  0.00    -0.369 OA
ATOM     12  H1  UNL     1      -2.984  -0.520  -2.164  1.00  0.00     0.212 HD
ENDBRANCH  10  11
BRANCH  10  13
HETATM   13  O2  UNL     1      -3.341   0.657   0.649  1.00  0.00    -0.369 OA
ATOM     14  H2  UNL     1      -2.796   1.201   1.206  1.00  0.00     0.212 HD
ENDBRANCH  10  13
ENDBRANCH   1  10
TORSDOF 3
