REMARK  3 active torsions:
REMARK  status: ('A' for Active; 'I' for Inactive)
REMARK    1  A    between atoms: O1_1  and  C1_3 
REMARK    2  A    between atoms: C4_7  and  N1_8 
REMARK    3  A    between atoms: C7_12  and  O4_13 
ROOT
HETATM    1  C1  UNL     1      -1.268   0.923   0.188  1.00  0.00     0.179 C 
HETATM    2  C2  UNL     1      -2.644   0.409   0.589  1.00  0.00     0.062 C 
HETATM    3  C3  UNL     1      -2.401  -1.077   0.720  1.00  0.00     0.173 C 
HETATM    4  O2  UNL     1      -1.017  -1.214   0.837  1.00  0.00    -0.355 OA
HETATM    5  C4  UNL     1      -0.487  -0.312  -0.117  1.00  0.00     0.394 C 
ENDROOT
BRANCH   5   6
HETATM    6  N1  UNL     1       0.893  -0.156   0.182  1.00  0.00     0.176 N 
HETATM    7  C5  UNL     1       1.684  -1.293  -0.291  1.00  0.00     0.308 C 
HETATM    8  C6  UNL     1       3.082  -0.677  -0.128  1.00  0.00     0.203 C 
HETATM    9  O3  UNL     1       2.913   0.679  -0.323  1.00  0.00    -0.335 OA
HETATM   10  C7  UNL     1       1.552   0.923  -0.505  1.00  0.00     0.509 C 
BRANCH  10  11
HETATM   11  O4  UNL     1       1.299   2.146   0.138  1.00  0.00    -0.347 OA
ATOM     12  H4  UNL     1       1.734   2.858  -0.316  1.00  0.00     0.214 HD
ENDBRANCH  10  11
ENDBRANCH   5   6
BRANCH   1  13
HETATM   13  O1  UNL     1      -1.374   1.799  -0.884  1.00  0.00    -0.391 OA
ATOM     14  H1  UNL     1      -0.515   2.120  -1.134  1.00  0.00     0.210 HD
ENDBRANCH   1  13
TORSDOF 3
