REMARK  5 active torsions:
REMARK  status: ('A' for Active; 'I' for Inactive)
REMARK    1  A    between atoms: C6_7  and  N1_8 
REMARK    2  A    between atoms: C9_16  and  O4_18 
REMARK    3  A    between atoms: O4_18  and  C11_19 
REMARK    4  A    between atoms: C11_19  and  C12_20 
REMARK    5  A    between atoms: C14_22  and  O5_24 
ROOT
HETATM    1  C1  UNL     1      -0.938   0.726  -2.661  1.00  0.00     0.042 C 
HETATM    2  C2  UNL     1      -2.221   0.653  -1.941  1.00  0.00     0.150 C 
HETATM    3  O1  UNL     1      -2.604  -0.619  -1.543  1.00  0.00    -0.375 OA
HETATM    4  C3  UNL     1      -2.008  -0.886  -0.308  1.00  0.00     0.166 C 
HETATM    5  C4  UNL     1      -3.030  -1.457   0.602  1.00  0.00     0.067 A 
HETATM    6  C5  UNL     1      -4.283  -2.028  -0.100  1.00  0.00     0.060 A 
HETATM    7  C6  UNL     1      -4.277  -0.765   0.806  1.00  0.00     0.216 A 
HETATM    8  C7  UNL     1      -4.486   0.526   0.181  1.00  0.00     0.296 C 
HETATM    9  O2  UNL     1      -5.682   0.811  -0.063  1.00  0.00    -0.262 OA
HETATM   10  O3  UNL     1      -3.571   1.475  -0.178  1.00  0.00    -0.308 OA
HETATM   11  C8  UNL     1      -2.245   1.384  -0.618  1.00  0.00     0.197 C 
HETATM   12  C9  UNL     1      -1.471   0.387   0.236  1.00  0.00     0.112 C 
HETATM   13  C10 UNL     1      -1.822   0.657   1.677  1.00  0.00     0.051 C 
ENDROOT
BRANCH  12  14
HETATM   14  O4  UNL     1      -0.108   0.569   0.116  1.00  0.00    -0.374 OA
BRANCH  14  15
HETATM   15  C11 UNL     1       0.611  -0.374   0.782  1.00  0.00     0.180 C 
BRANCH  15  16
HETATM   16  C12 UNL     1       2.111  -0.172   0.664  1.00  0.00     0.091 C 
HETATM   17  C13 UNL     1       2.462  -0.239  -0.790  1.00  0.00     0.051 C 
HETATM   18  C14 UNL     1       3.937  -0.107  -1.044  1.00  0.00     0.060 C 
HETATM   19  C15 UNL     1       4.734  -1.252  -0.479  1.00  0.00     0.046 C 
HETATM   20  C16 UNL     1       4.391   1.224  -0.486  1.00  0.00     0.095 C 
HETATM   21  C17 UNL     1       3.980   1.348   0.942  1.00  0.00     0.055 C 
HETATM   22  N2  UNL     1       4.885   1.684   1.799  1.00  0.00    -0.401 N 
HETATM   23  C18 UNL     1       2.574   1.087   1.324  1.00  0.00     0.287 C 
ATOM     24  H22 UNL     1       5.854   1.864   1.536  1.00  0.00     0.155 HD
ATOM     25  H21 UNL     1       4.604   1.769   2.776  1.00  0.00     0.155 HD
HETATM   26  F1  UNL     1       2.573   0.906   2.713  1.00  0.00    -0.199 F 
HETATM   27  F2  UNL     1       1.756   2.174   1.041  1.00  0.00    -0.199 F 
BRANCH  18  28
HETATM   28  O5  UNL     1       4.138  -0.093  -2.423  1.00  0.00    -0.390 OA
ATOM     29  H5  UNL     1       5.071  -0.010  -2.584  1.00  0.00     0.210 HD
ENDBRANCH  18  28
ENDBRANCH  15  16
ENDBRANCH  14  15
ENDBRANCH  12  14
BRANCH   7  30
HETATM   30  N1  UNL     1      -5.012  -0.991   2.046  1.00  0.00    -0.060 N 
ATOM     31  H13 UNL     1      -5.169  -1.993   2.158  1.00  0.00     0.275 HD
ATOM     32  H12 UNL     1      -4.395  -0.797   2.835  1.00  0.00     0.275 HD
ATOM     33  H11 UNL     1      -5.895  -0.501   2.190  1.00  0.00     0.275 HD
ENDBRANCH   7  30
TORSDOF 5
