REMARK  12 active torsions:
REMARK  status: ('A' for Active; 'I' for Inactive)
REMARK    1  A    between atoms: C2_2  and  C3_3 
REMARK    2  A    between atoms: C3_3  and  N1_4 
REMARK       I    between atoms: N1_4  and  C4_5 
REMARK    3  A    between atoms: N1_4  and  C15_23 
REMARK    4  A    between atoms: C4_5  and  C5_7 
REMARK    5  A    between atoms: C7_9  and  N2_10 
REMARK    6  A    between atoms: N2_10  and  C8_12 
REMARK    7  A    between atoms: C11_17  and  O3_18 
REMARK    8  A    between atoms: C13_20  and  O4_21 
REMARK    9  A    between atoms: C15_23  and  C16_24 
REMARK   10  A    between atoms: C15_23  and  C22_33 
REMARK       I    between atoms: C16_24  and  N4_26 
REMARK   11  A    between atoms: N4_26  and  C17_28 
REMARK   12  A    between atoms: C24_36  and  N5_37 
REMARK       I    between atoms: N5_37  and  C25_39 
ROOT
HETATM    1  C5  UNL     1      -2.589   0.222   0.579  1.00  0.00     0.070 A 
HETATM    2  C6  UNL     1      -3.252  -0.867   1.187  1.00  0.00     0.051 A 
HETATM    3  C7  UNL     1      -4.591  -0.912   1.427  1.00  0.00     0.059 A 
HETATM    4  C9  UNL     1      -5.374   0.183   1.053  1.00  0.00     0.107 A 
HETATM    5  C10 UNL     1      -6.813   0.174   1.292  1.00  0.00     0.104 C 
HETATM    6  N3  UNL     1      -7.954   0.186   1.476  1.00  0.00    -0.191 NA
HETATM    7  C11 UNL     1      -4.768   1.255   0.463  1.00  0.00     0.125 A 
HETATM    8  C13 UNL     1      -3.387   1.288   0.222  1.00  0.00     0.118 A 
ENDROOT
BRANCH   3   9
HETATM    9  N2  UNL     1      -5.268  -1.984   2.030  1.00  0.00    -0.333 N 
ATOM     10  H2  UNL     1      -6.276  -1.889   2.154  1.00  0.00     0.168 HD
BRANCH   9  11
HETATM   11  C8  UNL     1      -4.677  -3.172   2.476  1.00  0.00     0.353 C 
HETATM   12  O2  UNL     1      -3.484  -3.482   2.421  1.00  0.00    -0.283 OA
ENDBRANCH   9  11
ENDBRANCH   3   9
BRANCH   7  13
HETATM   13  O3  UNL     1      -5.603   2.323   0.114  1.00  0.00    -0.352 OA
HETATM   14  C12 UNL     1      -6.204   2.307  -1.162  1.00  0.00     0.210 C 
ENDBRANCH   7  13
BRANCH   8  15
HETATM   15  O4  UNL     1      -2.916   2.421  -0.365  1.00  0.00    -0.352 OA
HETATM   16  C14 UNL     1      -2.852   2.631  -1.732  1.00  0.00     0.210 C 
ENDBRANCH   8  15
BRANCH   1  17
HETATM   17  C4  UNL     1      -1.171   0.160   0.337  1.00  0.00     0.258 C 
HETATM   18  N1  UNL     1      -0.489  -0.590  -0.639  1.00  0.00    -0.326 N 
HETATM   19  O1  UNL     1      -0.456   0.873   1.122  1.00  0.00    -0.267 OA
BRANCH  18  20
HETATM   20  C3  UNL     1      -1.176  -1.453  -1.569  1.00  0.00     0.154 C 
BRANCH  20  21
HETATM   21  C2  UNL     1      -1.568  -0.905  -2.857  1.00  0.00    -0.017 C 
HETATM   22  C1  UNL     1      -1.096  -1.421  -4.001  1.00  0.00     0.008 C 
ENDBRANCH  20  21
ENDBRANCH  18  20
BRANCH  18  23
HETATM   23  C15 UNL     1       0.970  -0.588  -0.710  1.00  0.00     0.230 C 
BRANCH  23  24
HETATM   24  C16 UNL     1       1.538  -1.328   0.461  1.00  0.00     0.247 C 
HETATM   25  O5  UNL     1       0.810  -1.702   1.422  1.00  0.00    -0.271 OA
HETATM   26  N4  UNL     1       2.915  -1.658   0.566  1.00  0.00    -0.354 N 
ATOM     27  H4  UNL     1       3.533  -1.372  -0.193  1.00  0.00     0.162 HD
BRANCH  26  28
HETATM   28  C17 UNL     1       3.490  -2.365   1.666  1.00  0.00     0.084 C 
HETATM   29  C18 UNL     1       4.252  -3.584   1.178  1.00  0.00     0.025 C 
HETATM   30  C19 UNL     1       5.686  -3.391   1.598  1.00  0.00     0.002 C 
HETATM   31  C20 UNL     1       5.793  -1.874   1.609  1.00  0.00     0.002 C 
HETATM   32  C21 UNL     1       4.529  -1.486   2.328  1.00  0.00     0.025 C 
ENDBRANCH  26  28
ENDBRANCH  23  24
BRANCH  23  33
HETATM   33  C22 UNL     1       1.545   0.809  -0.820  1.00  0.00     0.050 A 
HETATM   34  C23 UNL     1       1.177   1.597  -1.882  1.00  0.00     0.081 A 
HETATM   35  S1  UNL     1       2.022   3.055  -1.600  1.00  0.00    -0.064 SA
HETATM   36  C24 UNL     1       2.798   2.601  -0.157  1.00  0.00     0.151 A 
HETATM   37  N6  UNL     1       2.379   1.355   0.050  1.00  0.00    -0.337 N 
ATOM     38  H6  UNL     1       2.695   0.830   0.865  1.00  0.00     0.168 HD
BRANCH  36  39
HETATM   39  N5  UNL     1       3.627   3.293   0.608  1.00  0.00    -0.307 N 
HETATM   40  C25 UNL     1       3.917   4.594   0.177  1.00  0.00     0.219 C 
HETATM   41  C26 UNL     1       4.975   4.918  -0.819  1.00  0.00     0.117 C 
HETATM   42  O6  UNL     1       3.255   5.553   0.650  1.00  0.00    -0.274 OA
ATOM     43  H5  UNL     1       4.030   2.903   1.460  1.00  0.00     0.171 HD
ENDBRANCH  36  39
ENDBRANCH  23  33
ENDBRANCH  18  23
ENDBRANCH   1  17
TORSDOF 12
