REMARK  13 active torsions:
REMARK  status: ('A' for Active; 'I' for Inactive)
REMARK    1  A    between atoms: O1_2  and  C2_3 
REMARK    2  A    between atoms: C4_5  and  N1_6 
REMARK    3  A    between atoms: C8_10  and  O2_11 
REMARK    4  A    between atoms: C12_15  and  O3_16 
REMARK    5  A    between atoms: C15_19  and  N2_20 
REMARK    6  A    between atoms: N2_20  and  C16_21 
REMARK    7  A    between atoms: C20_27  and  N4_28 
REMARK    8  A    between atoms: N4_28  and  C21_30 
REMARK    9  A    between atoms: C21_30  and  C22_31 
REMARK       I    between atoms: C22_31  and  N5_33 
REMARK   10  A    between atoms: N5_33  and  C23_35 
REMARK   11  A    between atoms: C23_35  and  C24_36 
REMARK   12  A    between atoms: C24_36  and  C25_37 
REMARK   13  A    between atoms: C25_37  and  N6_38 
ROOT
HETATM    1  C16 UNL     1      -0.217   0.710  -1.541  1.00  0.00     0.261 A 
HETATM    2  N3  UNL     1      -0.002   0.872  -2.893  1.00  0.00    -0.326 N 
ATOM      3  H3  UNL     1      -0.775   0.687  -3.533  1.00  0.00     0.169 HD
HETATM    4  C17 UNL     1       1.161   1.257  -3.403  1.00  0.00     0.102 A 
HETATM    5  C18 UNL     1       2.228   1.515  -2.580  1.00  0.00    -0.003 A 
HETATM    6  C19 UNL     1       3.540   1.946  -3.101  1.00  0.00     0.054 C 
HETATM    7  C20 UNL     1       2.032   1.356  -1.207  1.00  0.00     0.112 A 
HETATM    8  N7  UNL     1       0.856   0.971  -0.736  1.00  0.00    -0.302 N 
ATOM      9  H7  UNL     1       0.746   0.864   0.272  1.00  0.00     0.171 HD
ENDROOT
BRANCH   1  10
HETATM   10  N2  UNL     1      -1.281   0.364  -1.146  1.00  0.00    -0.368 NA
BRANCH  10  11
HETATM   11  C15 UNL     1      -2.465  -0.019  -0.723  1.00  0.00     0.147 A 
HETATM   12  C2  UNL     1      -2.901  -1.351  -0.854  1.00  0.00     0.111 A 
HETATM   13  C3  UNL     1      -4.144  -1.684  -0.403  1.00  0.00     0.072 A 
HETATM   14  C4  UNL     1      -4.994  -0.762   0.179  1.00  0.00     0.067 A 
HETATM   15  C12 UNL     1      -4.598   0.550   0.324  1.00  0.00     0.098 A 
HETATM   16  C14 UNL     1      -3.361   0.885  -0.124  1.00  0.00     0.086 A 
BRANCH  12  17
HETATM   17  O1  UNL     1      -2.050  -2.297  -1.442  1.00  0.00    -0.352 OA
HETATM   18  C1  UNL     1      -2.520  -3.626  -1.557  1.00  0.00     0.210 C 
ENDBRANCH  12  17
BRANCH  14  19
HETATM   19  N1  UNL     1      -6.277  -1.166   0.625  1.00  0.00    -0.378 N 
HETATM   20  C5  UNL     1      -6.585  -1.021   2.009  1.00  0.00     0.123 C 
HETATM   21  C6  UNL     1      -7.608  -2.009   2.498  1.00  0.00     0.022 C 
HETATM   22  C7  UNL     1      -8.825  -2.169   1.698  1.00  0.00     0.033 C 
HETATM   23  C8  UNL     1      -9.233  -1.032   0.808  1.00  0.00     0.122 C 
HETATM   24  C10 UNL     1      -8.378  -0.839  -0.403  1.00  0.00     0.051 C 
HETATM   25  C11 UNL     1      -7.130  -1.687  -0.424  1.00  0.00     0.125 C 
BRANCH  23  26
HETATM   26  O2  UNL     1      -9.422   0.142   1.530  1.00  0.00    -0.391 OA
HETATM   27  C9  UNL     1     -10.732   0.544   1.537  1.00  0.00     0.202 C 
ENDBRANCH  23  26
ENDBRANCH  14  19
BRANCH  15  28
HETATM   28  O3  UNL     1      -5.463   1.489   0.917  1.00  0.00    -0.354 OA
HETATM   29  C13 UNL     1      -4.977   2.828   1.030  1.00  0.00     0.210 C 
ENDBRANCH  15  28
ENDBRANCH  10  11
ENDBRANCH   1  10
BRANCH   7  30
HETATM   30  N4  UNL     1       3.050   1.603  -0.462  1.00  0.00    -0.367 N 
ATOM     31  H4  UNL     1       3.922   1.895  -0.904  1.00  0.00     0.161 HD
BRANCH  30  32
HETATM   32  C21 UNL     1       3.007   1.485   0.957  1.00  0.00     0.224 C 
BRANCH  32  33
HETATM   33  C22 UNL     1       4.397   1.396   1.463  1.00  0.00     0.235 C 
HETATM   34  O4  UNL     1       4.606   1.284   2.690  1.00  0.00    -0.272 OA
HETATM   35  N5  UNL     1       5.480   1.435   0.568  1.00  0.00    -0.360 N 
ATOM     36  H5  UNL     1       5.298   1.528  -0.431  1.00  0.00     0.162 HD
BRANCH  35  37
HETATM   37  C23 UNL     1       6.844   1.347   1.031  1.00  0.00     0.124 C 
BRANCH  37  38
HETATM   38  C24 UNL     1       7.822   1.415  -0.131  1.00  0.00     0.050 C 
BRANCH  38  39
HETATM   39  C25 UNL     1       9.244   1.323   0.307  1.00  0.00     0.274 C 
BRANCH  39  40
HETATM   40  N6  UNL     1       9.539   0.095   1.000  1.00  0.00     0.088 N 
HETATM   41  C26 UNL     1      10.935   0.077   1.396  1.00  0.00     0.272 C 
HETATM   42  C27 UNL     1      11.611  -0.637   0.218  1.00  0.00     0.032 C 
HETATM   43  C28 UNL     1      10.624  -1.799   0.044  1.00  0.00     0.032 C 
HETATM   44  C29 UNL     1       9.301  -1.090   0.240  1.00  0.00     0.272 C 
ENDBRANCH  39  40
ENDBRANCH  38  39
ENDBRANCH  37  38
ENDBRANCH  35  37
ENDBRANCH  32  33
ENDBRANCH  30  32
ENDBRANCH   7  30
TORSDOF 13
