REMARK  13 active torsions:
REMARK  status: ('A' for Active; 'I' for Inactive)
REMARK    1  A    between atoms: C2_2  and  N1_3 
REMARK    2  A    between atoms: N1_3  and  C3_5 
REMARK    3  A    between atoms: C4_8  and  N3_9 
REMARK    4  A    between atoms: N3_9  and  C5_11 
REMARK    5  A    between atoms: C5_11  and  C6_12 
REMARK    6  A    between atoms: C6_12  and  C7_13 
REMARK    7  A    between atoms: C7_13  and  N4_14 
REMARK    8  A    between atoms: C15_25  and  N7_26 
REMARK       I    between atoms: N7_26  and  C16_28 
REMARK    9  A    between atoms: C16_28  and  C17_30 
REMARK   10  A    between atoms: N9_34  and  C19_35 
REMARK   11  A    between atoms: C19_35  and  C20_36 
REMARK   12  A    between atoms: C20_36  and  C21_37 
REMARK   13  A    between atoms: C21_37  and  N10_38 
ROOT
HETATM    1  C3  UNL     1      -2.856   0.227   0.844  1.00  0.00     0.129 A 
HETATM    2  N2  UNL     1      -3.658  -0.276  -0.144  1.00  0.00    -0.176 N 
ATOM      3  H2  UNL     1      -4.670  -0.157  -0.108  1.00  0.00     0.186 HD
HETATM    4  C4  UNL     1      -3.081  -0.925  -1.155  1.00  0.00     0.680 A 
HETATM    5  N6  UNL     1      -1.750  -1.092  -1.222  1.00  0.00    -0.191 N 
ATOM      6  H6  UNL     1      -1.357  -1.597  -2.016  1.00  0.00     0.184 HD
HETATM    7  C13 UNL     1      -0.914  -0.615  -0.274  1.00  0.00     0.065 A 
HETATM    8  C14 UNL     1       0.447  -0.794  -0.344  1.00  0.00     0.060 A 
HETATM    9  C15 UNL     1       1.335  -0.318   0.628  1.00  0.00     0.037 A 
HETATM   10  C27 UNL     1       0.756   0.351   1.672  1.00  0.00     0.030 A 
HETATM   11  C28 UNL     1      -0.633   0.535   1.746  1.00  0.00     0.020 A 
HETATM   12  C29 UNL     1      -1.483   0.061   0.784  1.00  0.00     0.036 A 
ENDROOT
BRANCH   9  13
HETATM   13  N7  UNL     1       2.721  -0.542   0.461  1.00  0.00    -0.323 N 
HETATM   14  C16 UNL     1       3.704  -0.456   1.461  1.00  0.00     0.259 C 
HETATM   15  O1  UNL     1       3.445  -0.165   2.649  1.00  0.00    -0.267 OA
ATOM     16  H7  UNL     1       3.038  -0.790  -0.476  1.00  0.00     0.169 HD
BRANCH  14  17
HETATM   17  C17 UNL     1       5.123  -0.721   1.097  1.00  0.00     0.066 A 
HETATM   18  C18 UNL     1       6.177  -0.873   1.970  1.00  0.00     0.125 A 
HETATM   19  N8  UNL     1       7.269  -1.090   1.237  1.00  0.00    -0.309 N 
HETATM   20  N9  UNL     1       6.979  -1.085  -0.033  1.00  0.00    -0.303 N 
ATOM     21  H8  UNL     1       8.203  -1.239   1.618  1.00  0.00     0.186 HD
HETATM   22  C26 UNL     1       5.668  -0.862  -0.159  1.00  0.00     0.128 A 
BRANCH  20  23
HETATM   23  C19 UNL     1       7.925  -1.287  -1.104  1.00  0.00     0.150 C 
BRANCH  23  24
HETATM   24  C20 UNL     1       8.542   0.010  -1.578  1.00  0.00     0.052 C 
BRANCH  24  25
HETATM   25  C21 UNL     1       9.279   0.719  -0.466  1.00  0.00     0.274 C 
BRANCH  25  26
HETATM   26  N10 UNL     1      10.351  -0.091   0.068  1.00  0.00     0.088 N 
HETATM   27  C22 UNL     1      11.004   0.647   1.141  1.00  0.00     0.272 C 
HETATM   28  C23 UNL     1      12.335  -0.097   1.245  1.00  0.00     0.032 C 
HETATM   29  C24 UNL     1      12.704  -0.287  -0.191  1.00  0.00     0.032 C 
HETATM   30  C25 UNL     1      11.384  -0.300  -0.930  1.00  0.00     0.272 C 
ENDBRANCH  25  26
ENDBRANCH  24  25
ENDBRANCH  23  24
ENDBRANCH  20  23
ENDBRANCH  14  17
ENDBRANCH   9  13
BRANCH   4  31
HETATM   31  N3  UNL     1      -3.854  -1.408  -2.068  1.00  0.00    -0.226 N 
ATOM     32  H3  UNL     1      -3.397  -1.901  -2.835  1.00  0.00     0.177 HD
BRANCH  31  33
HETATM   33  C5  UNL     1      -5.267  -1.330  -2.124  1.00  0.00     0.143 C 
BRANCH  33  34
HETATM   34  C6  UNL     1      -5.767  -0.116  -2.913  1.00  0.00     0.064 C 
BRANCH  34  35
HETATM   35  C7  UNL     1      -7.267  -0.101  -2.924  1.00  0.00     0.060 C 
BRANCH  35  36
HETATM   36  N4  UNL     1      -7.919  -0.027  -1.706  1.00  0.00    -0.390 N 
HETATM   37  C8  UNL     1      -7.897   1.096  -0.886  1.00  0.00     0.152 C 
HETATM   38  C9  UNL     1      -9.279   1.697  -0.621  1.00  0.00     0.291 C 
HETATM   39  N5  UNL     1     -10.138   0.765   0.055  1.00  0.00     0.087 N 
HETATM   40  C10 UNL     1     -10.261   1.008   1.459  1.00  0.00     0.310 C 
HETATM   41  C11 UNL     1      -9.823  -0.596  -0.271  1.00  0.00     0.291 C 
HETATM   42  C12 UNL     1      -9.150  -0.747  -1.616  1.00  0.00     0.152 C 
ENDBRANCH  35  36
ENDBRANCH  34  35
ENDBRANCH  33  34
ENDBRANCH  31  33
ENDBRANCH   4  31
BRANCH   1  43
HETATM   43  N1  UNL     1      -3.469   0.915   1.911  1.00  0.00    -0.376 N 
ATOM     44  H1  UNL     1      -2.900   1.303   2.663  1.00  0.00     0.161 HD
BRANCH  43  45
HETATM   45  C2  UNL     1      -4.898   1.068   1.936  1.00  0.00     0.116 C 
HETATM   46  C1  UNL     1      -5.371   1.842   3.134  1.00  0.00     0.026 C 
ENDBRANCH  43  45
ENDBRANCH   1  43
TORSDOF 13
