REMARK  11 active torsions:
REMARK  status: ('A' for Active; 'I' for Inactive)
REMARK    1  A    between atoms: C3_3  and  C4_4 
REMARK    2  A    between atoms: C4_4  and  C5_5 
REMARK    3  A    between atoms: C5_5  and  C6_6 
REMARK    4  A    between atoms: C6_6  and  N1_7 
REMARK    5  A    between atoms: C8_10  and  C9_11 
REMARK    6  A    between atoms: C11_13  and  C12_14 
REMARK    7  A    between atoms: C12_14  and  O2_15 
REMARK    8  A    between atoms: C15_18  and  C16_19 
REMARK       I    between atoms: C16_19  and  N2_21 
REMARK    9  A    between atoms: N2_21  and  C17_23 
REMARK   10  A    between atoms: C17_23  and  C18_24 
REMARK   11  A    between atoms: C18_24  and  N3_25 
ROOT
HETATM    1  C1  UNL     1      -5.376   5.075   3.042  1.00  0.00     0.012 C 
HETATM    2  C2  UNL     1      -4.594   4.404   2.421  1.00  0.00    -0.117 C 
HETATM    3  C3  UNL     1      -3.637   3.557   1.659  1.00  0.00     0.093 C 
ENDROOT
BRANCH   3   4
HETATM    4  C4  UNL     1      -4.348   3.135   0.394  1.00  0.00     0.014 C 
BRANCH   4   5
HETATM    5  C5  UNL     1      -5.566   2.342   0.594  1.00  0.00     0.021 C 
BRANCH   5   6
HETATM    6  C6  UNL     1      -5.489   0.973   1.159  1.00  0.00     0.134 C 
BRANCH   6   7
HETATM    7  N1  UNL     1      -4.804  -0.001   0.378  1.00  0.00    -0.298 N 
HETATM    8  C7  UNL     1      -3.539  -0.348   0.556  1.00  0.00     0.260 A 
HETATM    9  O1  UNL     1      -2.818   0.114   1.486  1.00  0.00    -0.267 OA
HETATM   10  C8  UNL     1      -2.886  -1.257  -0.262  1.00  0.00     0.049 A 
HETATM   11  C25 UNL     1      -3.553  -1.836  -1.305  1.00  0.00    -0.030 A 
HETATM   12  C26 UNL     1      -2.903  -2.812  -2.213  1.00  0.00     0.050 C 
HETATM   13  C27 UNL     1      -4.888  -1.464  -1.481  1.00  0.00     0.032 A 
HETATM   14  C28 UNL     1      -5.592  -2.042  -2.531  1.00  0.00     0.121 A 
HETATM   15  C30 UNL     1      -5.499  -0.569  -0.660  1.00  0.00     0.138 A 
HETATM   16  N5  UNL     1      -6.859  -1.695  -2.699  1.00  0.00    -0.201 N 
HETATM   17  C29 UNL     1      -7.460  -0.810  -1.885  1.00  0.00     0.677 A 
ATOM     18  H5  UNL     1      -7.391  -2.109  -3.464  1.00  0.00     0.183 HD
HETATM   19  N6  UNL     1      -8.700  -0.481  -2.062  1.00  0.00    -0.234 N 
HETATM   20  N7  UNL     1      -6.798  -0.231  -0.854  1.00  0.00    -0.176 N 
ATOM     21  H62 UNL     1      -9.198  -0.917  -2.838  1.00  0.00     0.174 HD
ATOM     22  H61 UNL     1      -9.156   0.191  -1.444  1.00  0.00     0.174 HD
ATOM     23  H7  UNL     1      -7.263   0.439  -0.242  1.00  0.00     0.186 HD
BRANCH  10  24
HETATM   24  C9  UNL     1      -1.501  -1.602   0.016  1.00  0.00    -0.018 A 
HETATM   25  C10 UNL     1      -1.180  -2.798   0.666  1.00  0.00     0.022 A 
HETATM   26  C11 UNL     1       0.099  -3.173   0.982  1.00  0.00    -0.033 A 
HETATM   27  C14 UNL     1       1.130  -2.328   0.643  1.00  0.00     0.026 A 
HETATM   28  C15 UNL     1       0.862  -1.118  -0.009  1.00  0.00     0.033 A 
HETATM   29  C24 UNL     1      -0.432  -0.777  -0.309  1.00  0.00     0.029 A 
BRANCH  26  30
HETATM   30  C12 UNL     1       0.396  -4.460   1.681  1.00  0.00     0.205 C 
BRANCH  30  31
HETATM   31  O2  UNL     1      -0.736  -5.194   1.927  1.00  0.00    -0.391 OA
HETATM   32  C13 UNL     1      -0.375  -6.368   2.578  1.00  0.00     0.201 C 
ENDBRANCH  30  31
ENDBRANCH  26  30
BRANCH  28  33
HETATM   33  C16 UNL     1       1.997  -0.265  -0.327  1.00  0.00     0.251 C 
HETATM   34  O3  UNL     1       2.074   0.813   0.325  1.00  0.00    -0.268 OA
HETATM   35  N2  UNL     1       2.921  -0.657  -1.301  1.00  0.00    -0.355 N 
ATOM     36  H2  UNL     1       2.755  -1.542  -1.780  1.00  0.00     0.162 HD
BRANCH  35  37
HETATM   37  C17 UNL     1       4.109   0.108  -1.685  1.00  0.00     0.153 C 
BRANCH  37  38
HETATM   38  C18 UNL     1       5.031   0.234  -0.493  1.00  0.00     0.292 C 
BRANCH  38  39
HETATM   39  N3  UNL     1       6.243   0.980  -0.773  1.00  0.00     0.093 N 
HETATM   40  C19 UNL     1       7.029   0.895   0.455  1.00  0.00     0.302 C 
HETATM   41  C20 UNL     1       8.167   1.855   0.484  1.00  0.00     0.302 C 
HETATM   42  N4  UNL     1       7.611   3.203   0.365  1.00  0.00     0.087 N 
HETATM   43  C21 UNL     1       8.652   4.201   0.566  1.00  0.00     0.310 C 
HETATM   44  C22 UNL     1       7.024   3.299  -0.957  1.00  0.00     0.302 C 
HETATM   45  C23 UNL     1       5.848   2.357  -1.027  1.00  0.00     0.302 C 
ENDBRANCH  38  39
ENDBRANCH  37  38
ENDBRANCH  35  37
ENDBRANCH  28  33
ENDBRANCH  10  24
ENDBRANCH   6   7
ENDBRANCH   5   6
ENDBRANCH   4   5
ENDBRANCH   3   4
TORSDOF 11
