REMARK  12 active torsions:
REMARK  status: ('A' for Active; 'I' for Inactive)
REMARK    1  A    between atoms: C2_2  and  C3_3 
REMARK    2  A    between atoms: C3_3  and  C4_4 
REMARK    3  A    between atoms: C4_4  and  C5_5 
REMARK    4  A    between atoms: C5_5  and  S1_6 
REMARK    5  A    between atoms: S1_6  and  C6_7 
REMARK    6  A    between atoms: C8_12  and  C9_13 
REMARK    7  A    between atoms: C9_13  and  C10_14 
REMARK    8  A    between atoms: C10_14  and  C11_15 
REMARK    9  A    between atoms: C11_15  and  N2_16 
REMARK   10  A    between atoms: C13_18  and  O2_19 
REMARK   11  A    between atoms: C16_26  and  N4_27 
REMARK   12  A    between atoms: C19_30  and  N5_31 
ROOT
HETATM    1  C6  UNL     1       1.964  -2.116  -0.807  1.00  0.00     0.148 A 
HETATM    2  N1  UNL     1       2.546  -1.317  -1.719  1.00  0.00    -0.303 N 
ATOM      3  H1  UNL     1       3.435  -1.604  -2.128  1.00  0.00     0.171 HD
HETATM    4  C7  UNL     1       2.000  -0.160  -2.109  1.00  0.00     0.257 A 
HETATM    5  O1  UNL     1       2.554   0.579  -2.964  1.00  0.00    -0.267 OA
HETATM    6  C8  UNL     1       0.776   0.197  -1.523  1.00  0.00     0.054 A 
HETATM    7  C16 UNL     1       0.164  -0.596  -0.597  1.00  0.00     0.123 A 
HETATM    8  N6  UNL     1       0.771  -1.750  -0.248  1.00  0.00    -0.322 N 
ATOM      9  H6  UNL     1       0.333  -2.359   0.444  1.00  0.00     0.169 HD
ENDROOT
BRANCH   7  10
HETATM   10  N4  UNL     1      -1.082  -0.332   0.007  1.00  0.00    -0.301 N 
HETATM   11  C17 UNL     1      -1.250   0.253   1.334  1.00  0.00     0.136 C 
HETATM   12  C18 UNL     1      -2.471  -0.468   1.815  1.00  0.00     0.066 C 
HETATM   13  C19 UNL     1      -3.310  -0.619   0.568  1.00  0.00     0.316 C 
HETATM   14  C27 UNL     1      -2.374  -0.599  -0.531  1.00  0.00     0.259 C 
HETATM   15  O4  UNL     1      -2.581  -0.774  -1.743  1.00  0.00    -0.271 OA
BRANCH  13  16
HETATM   16  N5  UNL     1      -4.043  -1.842   0.745  1.00  0.00     0.102 N 
HETATM   17  C20 UNL     1      -4.903  -1.671   1.895  1.00  0.00     0.273 C 
HETATM   18  C21 UNL     1      -5.770  -2.822   2.222  1.00  0.00     0.030 C 
HETATM   19  C22 UNL     1      -7.110  -2.882   1.625  1.00  0.00     0.002 C 
HETATM   20  C23 UNL     1      -7.495  -1.857   0.631  1.00  0.00     0.000 C 
HETATM   21  C24 UNL     1      -7.056  -2.238  -0.777  1.00  0.00     0.002 C 
HETATM   22  C25 UNL     1      -5.687  -1.681  -1.098  1.00  0.00     0.030 C 
HETATM   23  C26 UNL     1      -4.613  -2.440  -0.389  1.00  0.00     0.273 C 
ENDBRANCH  13  16
ENDBRANCH   7  10
BRANCH   6  24
HETATM   24  C9  UNL     1       0.187   1.455  -1.979  1.00  0.00     0.050 C 
BRANCH  24  25
HETATM   25  C10 UNL     1       0.882   2.701  -1.570  1.00  0.00     0.025 C 
BRANCH  25  26
HETATM   26  C11 UNL     1       1.025   2.960  -0.120  1.00  0.00     0.128 C 
BRANCH  26  27
HETATM   27  N2  UNL     1       1.714   4.179   0.188  1.00  0.00    -0.332 N 
HETATM   28  C12 UNL     1       3.138   4.254   0.361  1.00  0.00     0.161 C 
HETATM   29  C13 UNL     1       3.781   5.457  -0.243  1.00  0.00     0.154 C 
HETATM   30  C14 UNL     1       2.821   6.434  -0.874  1.00  0.00     0.157 C 
HETATM   31  N3  UNL     1       1.695   6.603   0.017  1.00  0.00    -0.340 N 
HETATM   32  C15 UNL     1       0.976   5.396   0.337  1.00  0.00     0.318 C 
ATOM     33  H3  UNL     1       1.428   7.513   0.393  1.00  0.00     0.164 HD
HETATM   34  O3  UNL     1      -0.219   5.404   0.721  1.00  0.00    -0.247 OA
BRANCH  29  35
HETATM   35  O2  UNL     1       4.697   5.099  -1.237  1.00  0.00    -0.392 OA
ATOM     36  H2  UNL     1       5.106   5.865  -1.622  1.00  0.00     0.210 HD
ENDBRANCH  29  35
ENDBRANCH  26  27
ENDBRANCH  25  26
ENDBRANCH  24  25
ENDBRANCH   6  24
BRANCH   1  37
HETATM   37  S1  UNL     1       2.764  -3.643  -0.346  1.00  0.00    -0.094 SA
BRANCH  37  38
HETATM   38  C5  UNL     1       3.884  -3.393   1.041  1.00  0.00     0.082 C 
BRANCH  38  39
HETATM   39  C4  UNL     1       5.022  -2.516   0.554  1.00  0.00     0.010 C 
BRANCH  39  40
HETATM   40  C3  UNL     1       5.765  -3.169  -0.592  1.00  0.00     0.000 C 
BRANCH  40  41
HETATM   41  C2  UNL     1       6.875  -2.232  -1.011  1.00  0.00    -0.005 C 
HETATM   42  C1  UNL     1       7.779  -2.031   0.186  1.00  0.00     0.005 C 
ENDBRANCH  40  41
ENDBRANCH  39  40
ENDBRANCH  38  39
ENDBRANCH  37  38
ENDBRANCH   1  37
TORSDOF 12
