REMARK  7 active torsions:
REMARK  status: ('A' for Active; 'I' for Inactive)
REMARK    1  A    between atoms: C2_2  and  N1_3 
REMARK    2  A    between atoms: N2_6  and  C5_7 
REMARK    3  A    between atoms: C5_7  and  C6_8 
REMARK    4  A    between atoms: C12_14  and  O1_15 
REMARK    5  A    between atoms: C16_20  and  C17_21 
REMARK    6  A    between atoms: C17_21  and  O2_22 
REMARK    7  A    between atoms: C18_24  and  O3_25 
ROOT
HETATM    1  C6  UNL     1       0.944  -0.270  -0.390  1.00  0.00    -0.062 C 
HETATM    2  C7  UNL     1       1.052   0.884   0.258  1.00  0.00    -0.021 C 
HETATM    3  C8  UNL     1      -0.319   1.508   0.458  1.00  0.00     0.033 C 
HETATM    4  C9  UNL     1      -1.103   0.222   0.547  1.00  0.00     0.002 C 
HETATM    5  C10 UNL     1      -0.507  -0.444  -0.679  1.00  0.00     0.023 C 
HETATM    6  C11 UNL     1      -1.018  -1.832  -0.687  1.00  0.00     0.042 C 
HETATM    7  C12 UNL     1      -2.500  -1.706  -0.987  1.00  0.00     0.127 C 
HETATM    8  C13 UNL     1      -3.256  -0.881  -0.032  1.00  0.00    -0.013 C 
HETATM    9  C14 UNL     1      -3.753  -1.797   1.088  1.00  0.00     0.018 C 
HETATM   10  C15 UNL     1      -4.525  -0.381  -0.730  1.00  0.00     0.021 C 
HETATM   11  C16 UNL     1      -5.305   0.529   0.198  1.00  0.00     0.039 C 
HETATM   12  C18 UNL     1      -4.518   1.772   0.464  1.00  0.00     0.124 C 
HETATM   13  C19 UNL     1      -3.112   1.603  -0.091  1.00  0.00     0.038 C 
HETATM   14  C20 UNL     1      -2.562   0.323   0.535  1.00  0.00     0.003 C 
ENDROOT
BRANCH   1  15
HETATM   15  C5  UNL     1       2.016  -1.217  -0.802  1.00  0.00     0.151 C 
BRANCH  15  16
HETATM   16  N2  UNL     1       3.313  -0.739  -0.517  1.00  0.00    -0.406 N 
HETATM   17  C4  UNL     1       3.832   0.316  -1.297  1.00  0.00     0.137 C 
HETATM   18  C3  UNL     1       5.364   0.187  -1.338  1.00  0.00     0.141 C 
HETATM   19  N1  UNL     1       5.858   0.131  -0.021  1.00  0.00    -0.391 N 
HETATM   20  C22 UNL     1       5.222  -0.722   0.906  1.00  0.00     0.141 C 
HETATM   21  C21 UNL     1       4.218  -1.600   0.148  1.00  0.00     0.137 C 
BRANCH  19  22
HETATM   22  C2  UNL     1       7.226   0.394   0.177  1.00  0.00     0.054 C 
HETATM   23  C1  UNL     1       7.544   1.843  -0.069  1.00  0.00     0.054 C 
ENDBRANCH  19  22
ENDBRANCH  15  16
ENDBRANCH   1  15
BRANCH   7  24
HETATM   24  O1  UNL     1      -3.046  -2.998  -0.994  1.00  0.00    -0.395 OA
ATOM     25  H1  UNL     1      -3.974  -2.919  -1.182  1.00  0.00     0.210 HD
ENDBRANCH   7  24
BRANCH  12  26
HETATM   26  O3  UNL     1      -5.058   2.911  -0.106  1.00  0.00    -0.395 OA
ATOM     27  H3  UNL     1      -4.558   3.701   0.063  1.00  0.00     0.210 HD
ENDBRANCH  12  26
BRANCH  11  28
HETATM   28  C17 UNL     1      -6.686   0.774  -0.314  1.00  0.00     0.171 C 
BRANCH  28  29
HETATM   29  O2  UNL     1      -6.785   1.363  -1.543  1.00  0.00    -0.400 OA
ATOM     30  H2  UNL     1      -7.664   1.519  -1.869  1.00  0.00     0.209 HD
ENDBRANCH  28  29
ENDBRANCH  11  28
TORSDOF 7
