REMARK  5 active torsions:
REMARK  status: ('A' for Active; 'I' for Inactive)
REMARK    1  A    between atoms: C4_6  and  C5_7 
REMARK    2  A    between atoms: C7_9  and  O1_10 
REMARK    3  A    between atoms: C9_12  and  O2_13 
REMARK    4  A    between atoms: C10_15  and  O3_16 
REMARK    5  A    between atoms: C15_24  and  C16_25 
ROOT
HETATM    1  C1  UNL     1       0.619   2.178   1.442  1.00  0.00     0.045 C 
HETATM    2  C2  UNL     1       0.660   0.975   0.918  1.00  0.00     0.050 A 
HETATM    3  N1  UNL     1      -0.597   0.353   0.552  1.00  0.00    -0.351 N 
ATOM      4  H1  UNL     1      -1.458   0.876   0.709  1.00  0.00     0.166 HD
HETATM    5  C3  UNL     1      -0.693  -0.928  -0.006  1.00  0.00     0.102 A 
HETATM    6  C4  UNL     1      -1.812  -1.475  -0.353  1.00  0.00     0.046 C 
HETATM    7  C13 UNL     1       0.565  -1.646  -0.213  1.00  0.00     0.272 A 
HETATM    8  O4  UNL     1       0.548  -2.807  -0.712  1.00  0.00    -0.266 OA
HETATM    9  N2  UNL     1       1.822  -1.060   0.138  1.00  0.00    -0.320 N 
ATOM     10  H2  UNL     1       2.679  -1.590  -0.021  1.00  0.00     0.169 HD
HETATM   11  C14 UNL     1       1.906   0.246   0.704  1.00  0.00     0.062 A 
HETATM   12  C15 UNL     1       3.052   0.819   1.001  1.00  0.00     0.045 C 
ENDROOT
BRANCH   6  13
HETATM   13  C5  UNL     1      -3.155  -0.947  -0.266  1.00  0.00    -0.028 A 
HETATM   14  C6  UNL     1      -4.185  -1.726   0.282  1.00  0.00     0.051 A 
HETATM   15  C7  UNL     1      -5.481  -1.307   0.372  1.00  0.00     0.104 A 
HETATM   16  C9  UNL     1      -5.781  -0.041  -0.108  1.00  0.00     0.133 A 
HETATM   17  C10 UNL     1      -4.780   0.758  -0.660  1.00  0.00     0.104 A 
HETATM   18  C12 UNL     1      -3.481   0.303  -0.735  1.00  0.00     0.051 A 
BRANCH  15  19
HETATM   19  O1  UNL     1      -6.518  -2.042   0.904  1.00  0.00    -0.353 OA
HETATM   20  C8  UNL     1      -6.440  -3.328   1.439  1.00  0.00     0.210 C 
ENDBRANCH  15  19
BRANCH  16  21
HETATM   21  O2  UNL     1      -7.074   0.464  -0.055  1.00  0.00    -0.356 OA
ATOM     22  H2  UNL     1      -7.280   1.331  -0.384  1.00  0.00     0.218 HD
ENDBRANCH  16  21
BRANCH  17  23
HETATM   23  O3  UNL     1      -5.095   2.021  -1.136  1.00  0.00    -0.353 OA
HETATM   24  C11 UNL     1      -4.245   2.950  -1.708  1.00  0.00     0.210 C 
ENDBRANCH  17  23
ENDBRANCH   6  13
BRANCH  12  25
HETATM   25  C16 UNL     1       4.367   0.207   0.844  1.00  0.00    -0.010 A 
HETATM   26  C17 UNL     1       4.822  -1.027   1.254  1.00  0.00     0.030 A 
HETATM   27  C18 UNL     1       6.137  -1.166   0.861  1.00  0.00     0.091 A 
HETATM   28  N3  UNL     1       6.515  -0.031   0.207  1.00  0.00    -0.364 N 
HETATM   29  C19 UNL     1       7.849   0.187  -0.361  1.00  0.00     0.155 C 
HETATM   30  C20 UNL     1       5.472   0.779   0.196  1.00  0.00     0.017 A 
HETATM   31  C21 UNL     1       5.441   2.132  -0.423  1.00  0.00     0.069 C 
ENDBRANCH  12  25
TORSDOF 5
