REMARK  10 active torsions:
REMARK  status: ('A' for Active; 'I' for Inactive)
REMARK    1  A    between atoms: C2_2  and  C3_3 
REMARK    2  A    between atoms: C3_3  and  C4_4 
REMARK    3  A    between atoms: C4_4  and  C5_5 
REMARK    4  A    between atoms: C5_5  and  N1_8 
REMARK    5  A    between atoms: N1_8  and  C8_11 
REMARK    6  A    between atoms: C8_11  and  C9_12 
REMARK    7  A    between atoms: N3_16  and  C11_17 
REMARK    8  A    between atoms: C12_19  and  C13_20 
REMARK    9  A    between atoms: C13_20  and  O2_21 
REMARK   10  A    between atoms: C14_23  and  O3_24 
ROOT
HETATM    1  C9  UNL     1      -0.059  -0.154  -0.580  1.00  0.00     0.001 A 
HETATM    2  C10 UNL     1      -0.737   0.187  -1.728  1.00  0.00     0.117 A 
HETATM    3  N2  UNL     1      -1.998   0.409  -1.397  1.00  0.00    -0.306 N 
ATOM      4  H2  UNL     1      -2.736   0.681  -2.047  1.00  0.00     0.186 HD
HETATM    5  N3  UNL     1      -2.158   0.227  -0.104  1.00  0.00    -0.247 N 
HETATM    6  C17 UNL     1      -0.984  -0.120   0.431  1.00  0.00     0.125 A 
ENDROOT
BRANCH   5   7
HETATM    7  C11 UNL     1      -3.418   0.375   0.628  1.00  0.00     0.488 C 
HETATM    8  O1  UNL     1      -4.278   1.274   0.055  1.00  0.00    -0.330 OA
HETATM    9  C12 UNL     1      -5.059   0.804  -0.969  1.00  0.00     0.180 C 
HETATM   10  C14 UNL     1      -5.764  -0.491  -0.695  1.00  0.00     0.177 C 
HETATM   11  C15 UNL     1      -4.737  -1.470  -0.171  1.00  0.00     0.312 C 
HETATM   12  N4  UNL     1      -3.997  -0.915   0.922  1.00  0.00     0.137 N 
HETATM   13  C16 UNL     1      -4.843  -0.819   2.078  1.00  0.00     0.316 C 
BRANCH   9  14
HETATM   14  C13 UNL     1      -6.120   1.867  -1.259  1.00  0.00     0.198 C 
BRANCH  14  15
HETATM   15  O2  UNL     1      -6.917   2.113  -0.139  1.00  0.00    -0.398 OA
ATOM     16  H2  UNL     1      -7.576   2.773  -0.319  1.00  0.00     0.209 HD
ENDBRANCH  14  15
ENDBRANCH   9  14
BRANCH  10  17
HETATM   17  O3  UNL     1      -6.242  -0.988  -1.917  1.00  0.00    -0.391 OA
ATOM     18  H3  UNL     1      -6.689  -1.808  -1.743  1.00  0.00     0.210 HD
ENDBRANCH  10  17
ENDBRANCH   5   7
BRANCH   1  19
HETATM   19  C8  UNL     1       1.409  -0.501  -0.502  1.00  0.00     0.274 C 
BRANCH  19  20
HETATM   20  N1  UNL     1       2.117   0.733  -0.510  1.00  0.00    -0.063 N 
ATOM     21  H12 UNL     1       1.800   1.342   0.245  1.00  0.00     0.278 HD
ATOM     22  H11 UNL     1       1.845   1.306  -1.309  1.00  0.00     0.278 HD
BRANCH  20  23
HETATM   23  C5  UNL     1       3.600   0.547  -0.463  1.00  0.00     0.119 C 
HETATM   24  C6  UNL     1       4.121   1.962  -0.605  1.00  0.00     0.046 C 
HETATM   25  C7  UNL     1       3.976  -0.223  -1.696  1.00  0.00     0.046 C 
BRANCH  23  26
HETATM   26  C4  UNL     1       3.947  -0.103   0.805  1.00  0.00     0.038 C 
BRANCH  26  27
HETATM   27  C3  UNL     1       5.352  -0.260   1.210  1.00  0.00     0.002 C 
BRANCH  27  28
HETATM   28  C2  UNL     1       6.262  -1.045   0.333  1.00  0.00    -0.004 C 
HETATM   29  C1  UNL     1       7.665  -1.114   0.976  1.00  0.00     0.005 C 
ENDBRANCH  27  28
ENDBRANCH  26  27
ENDBRANCH  23  26
ENDBRANCH  20  23
ENDBRANCH  19  20
ENDBRANCH   1  19
TORSDOF 10
