REMARK  11 active torsions:
REMARK  status: ('A' for Active; 'I' for Inactive)
REMARK    1  A    between atoms: C2_2  and  C3_3 
REMARK    2  A    between atoms: C3_3  and  C4_4 
REMARK    3  A    between atoms: C4_4  and  C5_5 
REMARK    4  A    between atoms: C5_5  and  C6_6 
REMARK    5  A    between atoms: C6_6  and  C7_7 
REMARK    6  A    between atoms: C7_7  and  N1_8 
REMARK    7  A    between atoms: C9_10  and  O1_11 
REMARK    8  A    between atoms: C10_13  and  C11_14 
REMARK    9  A    between atoms: C11_14  and  O2_15 
REMARK   10  A    between atoms: C11_14  and  C12_17 
REMARK   11  A    between atoms: C12_17  and  O3_18 
ROOT
HETATM    1  N1  UNL     1      -0.456   0.183  -0.451  1.00  0.00     0.125 N 
HETATM    2  C8  UNL     1      -1.053  -1.115  -0.182  1.00  0.00     0.309 C 
HETATM    3  C9  UNL     1      -2.533  -1.098  -0.499  1.00  0.00     0.182 C 
HETATM    4  C10 UNL     1      -3.210   0.100   0.050  1.00  0.00     0.289 C 
HETATM    5  N2  UNL     1      -2.609   1.310  -0.552  1.00  0.00     0.160 N 
HETATM    6  C13 UNL     1      -3.431   1.799  -1.672  1.00  0.00     0.393 C 
HETATM    7  C14 UNL     1      -4.627   2.467  -1.245  1.00  0.00     0.106 C 
HETATM    8  N3  UNL     1      -5.597   2.993  -0.901  1.00  0.00    -0.194 NA
HETATM    9  S1  UNL     1      -2.273   3.124  -2.240  1.00  0.00    -0.115 SA
HETATM   10  C15 UNL     1      -0.790   2.423  -1.387  1.00  0.00     0.145 C 
HETATM   11  C16 UNL     1      -1.348   1.009  -1.174  1.00  0.00     0.469 C 
ENDROOT
BRANCH   4  12
HETATM   12  C11 UNL     1      -3.102   0.320   1.539  1.00  0.00     0.177 C 
BRANCH  12  13
HETATM   13  O2  UNL     1      -3.829   1.551   1.809  1.00  0.00    -0.391 OA
ATOM     14  H2  UNL     1      -3.761   1.689   2.746  1.00  0.00     0.210 HD
ENDBRANCH  12  13
BRANCH  12  15
HETATM   15  C12 UNL     1      -3.744  -0.680   2.423  1.00  0.00     0.198 C 
BRANCH  15  16
HETATM   16  O3  UNL     1      -3.231  -1.938   2.467  1.00  0.00    -0.398 OA
ATOM     17  H3  UNL     1      -3.643  -2.579   3.034  1.00  0.00     0.209 HD
ENDBRANCH  15  16
ENDBRANCH  12  15
ENDBRANCH   4  12
BRANCH   3  18
HETATM   18  O1  UNL     1      -3.099  -2.290  -0.191  1.00  0.00    -0.392 OA
ATOM     19  H1  UNL     1      -4.028  -2.279  -0.390  1.00  0.00     0.210 HD
ENDBRANCH   3  18
BRANCH   1  20
HETATM   20  C7  UNL     1       0.717  -0.081  -1.265  1.00  0.00     0.275 C 
BRANCH  20  21
HETATM   21  C6  UNL     1       1.764  -0.800  -0.408  1.00  0.00     0.030 C 
BRANCH  21  22
HETATM   22  C5  UNL     1       2.996  -1.103  -1.243  1.00  0.00     0.002 C 
BRANCH  22  23
HETATM   23  C4  UNL     1       4.012  -1.792  -0.390  1.00  0.00     0.000 C 
BRANCH  23  24
HETATM   24  C3  UNL     1       4.439  -0.925   0.779  1.00  0.00    -0.000 C 
BRANCH  24  25
HETATM   25  C2  UNL     1       5.055   0.374   0.299  1.00  0.00    -0.005 C 
HETATM   26  C1  UNL     1       5.459   1.188   1.494  1.00  0.00     0.005 C 
ENDBRANCH  24  25
ENDBRANCH  23  24
ENDBRANCH  22  23
ENDBRANCH  21  22
ENDBRANCH  20  21
ENDBRANCH   1  20
TORSDOF 11
