REMARK  10 active torsions:
REMARK  status: ('A' for Active; 'I' for Inactive)
REMARK    1  A    between atoms: N1_2  and  C2_4 
REMARK    2  A    between atoms: C3_5  and  C4_6 
REMARK    3  A    between atoms: C4_6  and  O1_7 
REMARK    4  A    between atoms: C5_10  and  O3_11 
REMARK    5  A    between atoms: C7_13  and  C8_14 
REMARK    6  A    between atoms: C8_14  and  C9_15 
REMARK    7  A    between atoms: C9_15  and  C10_16 
REMARK    8  A    between atoms: C10_16  and  C11_17 
REMARK    9  A    between atoms: C14_20  and  C15_21 
REMARK   10  A    between atoms: C17_25  and  O6_26 
ROOT
HETATM    1  C2  UNL     1      -3.291   0.276   1.321  1.00  0.00     0.136 C 
HETATM    2  C3  UNL     1      -3.783  -0.018  -0.051  1.00  0.00     0.172 C 
HETATM    3  O2  UNL     1      -3.344  -1.180  -0.614  1.00  0.00    -0.351 OA
HETATM    4  C5  UNL     1      -1.972  -1.369  -0.621  1.00  0.00     0.266 C 
HETATM    5  C7  UNL     1      -1.315  -1.123   0.690  1.00  0.00     0.072 C 
HETATM    6  C17 UNL     1      -2.373  -0.881   1.736  1.00  0.00     0.151 C 
ENDROOT
BRANCH   5   7
HETATM    7  C8  UNL     1      -0.347   0.028   0.703  1.00  0.00     0.012 C 
BRANCH   7   8
HETATM    8  C9  UNL     1       0.790  -0.135  -0.255  1.00  0.00     0.003 C 
BRANCH   8   9
HETATM    9  C10 UNL     1       1.682   1.087  -0.142  1.00  0.00     0.032 C 
BRANCH   9  10
HETATM   10  C11 UNL     1       2.865   0.982  -1.095  1.00  0.00     0.122 C 
HETATM   11  C12 UNL     1       3.706   2.195  -0.951  1.00  0.00     0.035 C 
HETATM   12  C13 UNL     1       5.041   1.673  -0.506  1.00  0.00     0.042 C 
HETATM   13  C14 UNL     1       4.698   0.278  -0.040  1.00  0.00     0.191 C 
HETATM   14  O5  UNL     1       3.630  -0.141  -0.823  1.00  0.00    -0.373 OA
BRANCH  13  15
HETATM   15  C15 UNL     1       5.908  -0.571  -0.215  1.00  0.00     0.151 C 
HETATM   16  C16 UNL     1       5.957  -1.742  -1.138  1.00  0.00     0.093 C 
HETATM   17  O4  UNL     1       6.891  -0.273   0.441  1.00  0.00    -0.296 OA
ENDBRANCH  13  15
ENDBRANCH   9  10
ENDBRANCH   8   9
ENDBRANCH   7   8
ENDBRANCH   5   7
BRANCH   4  18
HETATM   18  O3  UNL     1      -1.795  -2.736  -0.944  1.00  0.00    -0.366 OA
HETATM   19  C6  UNL     1      -1.196  -2.903  -2.178  1.00  0.00     0.204 C 
ENDBRANCH   4  18
BRANCH   6  20
HETATM   20  O6  UNL     1      -1.854  -0.686   2.996  1.00  0.00    -0.393 OA
ATOM     21  H6  UNL     1      -1.286  -1.402   3.253  1.00  0.00     0.210 HD
ENDBRANCH   6  20
BRANCH   1  22
HETATM   22  N1  UNL     1      -4.327   0.329   2.320  1.00  0.00    -0.417 N 
HETATM   23  C1  UNL     1      -5.299   1.343   2.143  1.00  0.00     0.140 C 
ATOM     24  H1  UNL     1      -4.358  -0.322   3.105  1.00  0.00     0.153 HD
ENDBRANCH   1  22
BRANCH   2  25
HETATM   25  C4  UNL     1      -3.591   1.166  -1.007  1.00  0.00     0.198 C 
BRANCH  25  26
HETATM   26  O1  UNL     1      -4.299   0.971  -2.183  1.00  0.00    -0.398 OA
ATOM     27  H1  UNL     1      -4.180   1.704  -2.775  1.00  0.00     0.209 HD
ENDBRANCH  25  26
ENDBRANCH   2  25
TORSDOF 10
