REMARK  6 active torsions:
REMARK  status: ('A' for Active; 'I' for Inactive)
REMARK    1  A    between atoms: N1_2  and  C2_5 
REMARK    2  A    between atoms: C6_9  and  O1_10 
REMARK    3  A    between atoms: C15_20  and  C16_21 
REMARK    4  A    between atoms: C16_21  and  C18_23 
REMARK    5  A    between atoms: C26_31  and  C27_32 
REMARK    6  A    between atoms: C27_32  and  O2_33 
ROOT
HETATM    1  C2  UNL     1      -1.405  -1.064   1.285  1.00  0.00     0.197 C 
HETATM    2  C3  UNL     1      -2.732  -1.601   0.803  1.00  0.00     0.039 C 
HETATM    3  C4  UNL     1      -3.462  -0.711  -0.128  1.00  0.00    -0.002 C 
HETATM    4  C5  UNL     1      -4.146   0.362   0.721  1.00  0.00     0.037 C 
HETATM    5  C6  UNL     1      -5.359   0.818  -0.069  1.00  0.00     0.118 C 
HETATM    6  C7  UNL     1      -4.864   1.038  -1.491  1.00  0.00     0.032 C 
HETATM    7  C8  UNL     1      -3.376   1.224  -1.540  1.00  0.00     0.012 C 
HETATM    8  C9  UNL     1      -2.631  -0.100  -1.232  1.00  0.00    -0.036 C 
HETATM    9  C10 UNL     1      -2.751  -0.866  -2.526  1.00  0.00     0.016 C 
HETATM   10  C11 UNL     1      -1.257   0.269  -0.829  1.00  0.00     0.007 C 
HETATM   11  C12 UNL     1      -0.400   0.540  -2.029  1.00  0.00     0.007 C 
HETATM   12  C13 UNL     1       0.943   1.111  -1.677  1.00  0.00     0.006 C 
HETATM   13  C14 UNL     1       1.630   0.363  -0.547  1.00  0.00    -0.005 C 
HETATM   14  C15 UNL     1       2.901   1.030  -0.164  1.00  0.00    -0.006 C 
HETATM   15  C21 UNL     1       2.784   1.887   1.076  1.00  0.00     0.006 C 
HETATM   16  C22 UNL     1       2.142   1.077   2.197  1.00  0.00     0.005 C 
HETATM   17  C23 UNL     1       0.676   0.956   1.710  1.00  0.00    -0.013 C 
HETATM   18  C24 UNL     1       0.167   2.308   1.583  1.00  0.00     0.010 C 
HETATM   19  C25 UNL     1       0.731   0.004   0.590  1.00  0.00     0.007 C 
HETATM   20  C26 UNL     1      -0.541  -0.637   0.122  1.00  0.00     0.018 C 
ENDROOT
BRANCH  14  21
HETATM   21  C16 UNL     1       4.118   0.180  -0.059  1.00  0.00    -0.010 C 
HETATM   22  C17 UNL     1       5.335   0.968   0.347  1.00  0.00     0.011 C 
BRANCH  21  23
HETATM   23  C18 UNL     1       4.440  -0.680  -1.214  1.00  0.00    -0.010 A 
HETATM   24  C19 UNL     1       5.716  -1.513  -1.035  1.00  0.00     0.005 A 
HETATM   25  C20 UNL     1       5.644  -0.478  -2.099  1.00  0.00     0.005 A 
ENDBRANCH  21  23
ENDBRANCH  14  21
BRANCH  20  26
HETATM   26  C27 UNL     1      -0.140  -1.924  -0.589  1.00  0.00     0.176 C 
BRANCH  26  27
HETATM   27  O2  UNL     1       0.591  -2.794   0.216  1.00  0.00    -0.400 OA
ATOM     28  H2  UNL     1       0.841  -3.596  -0.227  1.00  0.00     0.209 HD
ENDBRANCH  26  27
ENDBRANCH  20  26
BRANCH   1  29
HETATM   29  N1  UNL     1      -0.796  -2.063   2.088  1.00  0.00    -0.074 N 
HETATM   30  C1  UNL     1      -1.556  -2.402   3.278  1.00  0.00     0.267 C 
ATOM     31  H12 UNL     1       0.157  -1.795   2.334  1.00  0.00     0.277 HD
ATOM     32  H11 UNL     1      -0.601  -2.898   1.536  1.00  0.00     0.277 HD
ENDBRANCH   1  29
BRANCH   5  33
HETATM   33  O1  UNL     1      -5.837   1.978   0.513  1.00  0.00    -0.396 OA
ATOM     34  H1  UNL     1      -6.596   2.263   0.019  1.00  0.00     0.210 HD
ENDBRANCH   5  33
TORSDOF 6
