REMARK  9 active torsions:
REMARK  status: ('A' for Active; 'I' for Inactive)
REMARK    1  A    between atoms: C2_2  and  C3_3 
REMARK    2  A    between atoms: C3_3  and  C4_4 
REMARK    3  A    between atoms: C4_4  and  C5_5 
REMARK    4  A    between atoms: C5_5  and  C6_6 
REMARK    5  A    between atoms: C7_7  and  C8_8 
REMARK    6  A    between atoms: C8_8  and  O1_10 
REMARK    7  A    between atoms: C8_8  and  C10_12 
REMARK    8  A    between atoms: C22_24  and  O2_25 
REMARK    9  A    between atoms: C23_27  and  O3_28 
ROOT
HETATM    1  C10 UNL     1       1.122  -0.628  -0.037  1.00  0.00     0.037 C 
HETATM    2  C11 UNL     1       1.526  -0.281   1.399  1.00  0.00     0.010 C 
HETATM    3  C12 UNL     1       0.272   0.315   2.028  1.00  0.00     0.010 C 
HETATM    4  C13 UNL     1      -0.756  -0.607   1.518  1.00  0.00    -0.036 C 
HETATM    5  C14 UNL     1      -0.840  -1.767   2.528  1.00  0.00     0.016 C 
HETATM    6  C15 UNL     1      -0.218  -1.096   0.163  1.00  0.00     0.002 C 
HETATM    7  C16 UNL     1      -1.306  -0.897  -0.808  1.00  0.00     0.011 C 
HETATM    8  C17 UNL     1      -2.517  -1.046   0.128  1.00  0.00    -0.001 C 
HETATM    9  C18 UNL     1      -2.129  -0.126   1.294  1.00  0.00    -0.001 C 
HETATM   10  C19 UNL     1      -2.383   1.289   1.042  1.00  0.00     0.006 C 
HETATM   11  C20 UNL     1      -3.325   1.637  -0.071  1.00  0.00     0.008 C 
HETATM   12  C21 UNL     1      -4.306   0.612  -0.464  1.00  0.00     0.025 C 
HETATM   13  C22 UNL     1      -5.593   0.811   0.343  1.00  0.00     0.151 C 
HETATM   14  C23 UNL     1      -6.686  -0.086  -0.162  1.00  0.00     0.147 C 
HETATM   15  C24 UNL     1      -6.222  -1.509  -0.225  1.00  0.00     0.035 C 
HETATM   16  C25 UNL     1      -4.832  -1.671   0.295  1.00  0.00     0.012 C 
HETATM   17  C26 UNL     1      -3.824  -0.795  -0.468  1.00  0.00    -0.034 C 
HETATM   18  C27 UNL     1      -3.813  -1.386  -1.888  1.00  0.00     0.016 C 
ENDROOT
BRANCH   1  19
HETATM   19  C8  UNL     1       1.502   0.461  -0.940  1.00  0.00     0.121 C 
HETATM   20  C9  UNL     1       1.215   0.093  -2.387  1.00  0.00     0.061 C 
BRANCH  19  21
HETATM   21  C7  UNL     1       2.974   0.659  -0.873  1.00  0.00    -0.068 C 
HETATM   22  C6  UNL     1       4.170   0.800  -0.818  1.00  0.00    -0.103 C 
BRANCH  22  23
HETATM   23  C5  UNL     1       5.648   0.962  -0.774  1.00  0.00     0.094 C 
BRANCH  23  24
HETATM   24  C4  UNL     1       6.269  -0.071   0.112  1.00  0.00     0.012 C 
BRANCH  24  25
HETATM   25  C3  UNL     1       7.759   0.066   0.149  1.00  0.00     0.000 C 
BRANCH  25  26
HETATM   26  C2  UNL     1       8.138   1.422   0.682  1.00  0.00    -0.005 C 
HETATM   27  C1  UNL     1       9.680   1.453   0.704  1.00  0.00     0.005 C 
ENDBRANCH  25  26
ENDBRANCH  24  25
ENDBRANCH  23  24
ENDBRANCH  22  23
ENDBRANCH  19  21
BRANCH  19  28
HETATM   28  O1  UNL     1       0.951   1.690  -0.765  1.00  0.00    -0.378 OA
ATOM     29  H1  UNL     1       0.010   1.563  -0.808  1.00  0.00     0.211 HD
ENDBRANCH  19  28
ENDBRANCH   1  19
BRANCH  13  30
HETATM   30  O2  UNL     1      -5.399   0.769   1.698  1.00  0.00    -0.393 OA
ATOM     31  H2  UNL     1      -6.197   0.892   2.198  1.00  0.00     0.210 HD
ENDBRANCH  13  30
BRANCH  14  32
HETATM   32  O3  UNL     1      -7.171   0.375  -1.392  1.00  0.00    -0.393 OA
ATOM     33  H3  UNL     1      -7.863  -0.193  -1.712  1.00  0.00     0.210 HD
ENDBRANCH  14  32
TORSDOF 9
