REMARK  11 active torsions:
REMARK  status: ('A' for Active; 'I' for Inactive)
REMARK       I    between atoms: C2_2  and  N1_4 
REMARK    1  A    between atoms: N1_4  and  C3_6 
REMARK    2  A    between atoms: C4_7  and  O2_8 
REMARK    3  A    between atoms: C6_11  and  O3_12 
REMARK    4  A    between atoms: C6_11  and  C7_14 
REMARK    5  A    between atoms: C7_14  and  C9_17 
REMARK    6  A    between atoms: C9_17  and  N3_19 
REMARK    7  A    between atoms: C9_17  and  O4_23 
REMARK    8  A    between atoms: C11_26  and  C12_27 
REMARK    9  A    between atoms: C12_27  and  C13_29 
REMARK   10  A    between atoms: C13_29  and  N4_30 
REMARK   11  A    between atoms: C13_29  and  O7_34 
ROOT
HETATM    1  C7  UNL     1      -2.641  -0.512  -0.646  1.00  0.00     0.217 C 
HETATM    2  C8  UNL     1      -3.267  -0.265  -1.943  1.00  0.00     0.074 C 
HETATM    3  N2  UNL     1      -3.757  -0.066  -2.982  1.00  0.00    -0.197 NA
ENDROOT
BRANCH   1   4
HETATM    4  C6  UNL     1      -1.162  -0.407  -0.797  1.00  0.00     0.186 C 
HETATM    5  C5  UNL     1      -0.674   0.922  -1.274  1.00  0.00     0.104 C 
HETATM    6  C4  UNL     1       0.785   0.717  -1.718  1.00  0.00     0.149 C 
HETATM    7  C3  UNL     1       1.575   0.188  -0.525  1.00  0.00     0.149 C 
HETATM    8  C11 UNL     1       0.863  -1.066  -0.055  1.00  0.00     0.224 C 
HETATM    9  O5  UNL     1      -0.453  -0.757   0.332  1.00  0.00    -0.339 OA
BRANCH   6  10
HETATM   10  O2  UNL     1       1.255   1.930  -2.169  1.00  0.00    -0.393 OA
ATOM     11  H2  UNL     1       0.763   2.259  -2.912  1.00  0.00     0.210 HD
ENDBRANCH   6  10
BRANCH   7  12
HETATM   12  N1  UNL     1       1.684   1.186   0.495  1.00  0.00    -0.351 N 
HETATM   13  C2  UNL     1       2.939   1.773   0.793  1.00  0.00     0.214 C 
HETATM   14  C1  UNL     1       3.093   2.812   1.851  1.00  0.00     0.117 C 
HETATM   15  O1  UNL     1       3.957   1.408   0.146  1.00  0.00    -0.274 OA
ATOM     16  H1  UNL     1       0.853   1.477   1.011  1.00  0.00     0.163 HD
ENDBRANCH   7  12
BRANCH   8  17
HETATM   17  C12 UNL     1       1.515  -1.692   1.120  1.00  0.00     0.213 C 
HETATM   18  O6  UNL     1       0.960  -1.828   2.192  1.00  0.00    -0.290 OA
BRANCH  17  19
HETATM   19  C13 UNL     1       2.907  -2.178   0.984  1.00  0.00     0.389 C 
BRANCH  19  20
HETATM   20  N4  UNL     1       3.011  -3.243  -0.003  1.00  0.00    -0.046 N 
ATOM     21  H43 UNL     1       2.369  -4.007   0.206  1.00  0.00     0.277 HD
ATOM     22  H42 UNL     1       2.628  -2.955  -0.903  1.00  0.00     0.277 HD
ATOM     23  H41 UNL     1       3.970  -3.578  -0.097  1.00  0.00     0.277 HD
ENDBRANCH  19  20
BRANCH  19  24
HETATM   24  O7  UNL     1       3.315  -2.721   2.201  1.00  0.00    -0.364 OA
ATOM     25  H7  UNL     1       4.208  -3.033   2.114  1.00  0.00     0.212 HD
ENDBRANCH  19  24
ENDBRANCH  17  19
ENDBRANCH   8  17
BRANCH   4  26
HETATM   26  O3  UNL     1      -0.817  -1.342  -1.804  1.00  0.00    -0.364 OA
ATOM     27  H3  UNL     1      -1.127  -2.187  -1.501  1.00  0.00     0.213 HD
ENDBRANCH   4  26
ENDBRANCH   1   4
BRANCH   1  28
HETATM   28  C9  UNL     1      -3.256   0.289   0.440  1.00  0.00     0.239 C 
HETATM   29  C10 UNL     1      -4.766   0.013   0.390  1.00  0.00     0.080 C 
BRANCH  28  30
HETATM   30  N3  UNL     1      -3.053   1.696   0.361  1.00  0.00    -0.046 N 
ATOM     31  H33 UNL     1      -2.056   1.901   0.300  1.00  0.00     0.278 HD
ATOM     32  H32 UNL     1      -3.366   2.042  -0.546  1.00  0.00     0.278 HD
ATOM     33  H31 UNL     1      -3.476   2.247   1.108  1.00  0.00     0.278 HD
ENDBRANCH  28  30
BRANCH  28  34
HETATM   34  O4  UNL     1      -2.843  -0.138   1.701  1.00  0.00    -0.364 OA
ATOM     35  H4  UNL     1      -3.237   0.375   2.397  1.00  0.00     0.212 HD
ENDBRANCH  28  34
ENDBRANCH   1  28
TORSDOF 11
