REMARK  11 active torsions:
REMARK  status: ('A' for Active; 'I' for Inactive)
REMARK    1  A    between atoms: C2_2  and  O2_4 
REMARK    2  A    between atoms: O2_4  and  C3_5 
REMARK    3  A    between atoms: C3_5  and  C4_6 
REMARK    4  A    between atoms: C3_5  and  C6_12 
REMARK    5  A    between atoms: C4_6  and  O3_7 
REMARK    6  A    between atoms: C4_6  and  C5_9 
REMARK    7  A    between atoms: C5_9  and  O4_10 
REMARK    8  A    between atoms: C6_12  and  O5_13 
REMARK    9  A    between atoms: C8_18  and  N2_19 
REMARK   10  A    between atoms: N4_28  and  N5_29 
REMARK   11  A    between atoms: C11_32  and  O8_33 
ROOT
HETATM    1  C6  UNL     1      -0.088   0.828   0.219  1.00  0.00     0.175 C 
HETATM    2  C7  UNL     1      -1.163  -0.021   0.764  1.00  0.00     0.108 A 
HETATM    3  N1  UNL     1      -1.130  -0.456   2.041  1.00  0.00    -0.189 N 
ATOM      4  H1  UNL     1      -0.341  -0.191   2.631  1.00  0.00     0.184 HD
HETATM    5  C8  UNL     1      -2.105  -1.231   2.567  1.00  0.00     0.679 A 
HETATM    6  N3  UNL     1      -3.176  -1.613   1.827  1.00  0.00    -0.154 N 
ATOM      7  H3  UNL     1      -3.908  -2.198   2.230  1.00  0.00     0.187 HD
HETATM    8  C9  UNL     1      -3.249  -1.202   0.551  1.00  0.00     0.297 A 
HETATM    9  O6  UNL     1      -4.208  -1.511  -0.204  1.00  0.00    -0.264 OA
HETATM   10  C10 UNL     1      -2.227  -0.390   0.001  1.00  0.00     0.189 A 
HETATM   11  O7  UNL     1      -2.317   0.025  -1.309  1.00  0.00    -0.232 OA
HETATM   12  N4  UNL     1      -1.211   0.488  -1.940  1.00  0.00    -0.072 NA
HETATM   13  C11 UNL     1      -0.448   1.415  -1.109  1.00  0.00     0.284 C 
ENDROOT
BRANCH   1  14
HETATM   14  C3  UNL     1       1.260   0.093   0.196  1.00  0.00     0.207 C 
BRANCH  14  15
HETATM   15  O2  UNL     1       1.215  -0.873  -0.743  1.00  0.00    -0.310 OA
BRANCH  15  16
HETATM   16  C2  UNL     1       1.157  -2.228  -0.674  1.00  0.00     0.255 C 
HETATM   17  C1  UNL     1       1.108  -3.143  -1.846  1.00  0.00     0.126 C 
HETATM   18  O1  UNL     1       1.149  -2.624   0.493  1.00  0.00    -0.266 OA
ENDBRANCH  15  16
ENDBRANCH  14  15
BRANCH  14  19
HETATM   19  C4  UNL     1       2.419   0.949   0.445  1.00  0.00     0.174 C 
BRANCH  19  20
HETATM   20  O3  UNL     1       3.520   0.116   0.787  1.00  0.00    -0.391 OA
ATOM     21  H3  UNL     1       4.273   0.672   0.949  1.00  0.00     0.210 HD
ENDBRANCH  19  20
BRANCH  19  22
HETATM   22  C5  UNL     1       2.805   2.033  -0.474  1.00  0.00     0.198 C 
BRANCH  22  23
HETATM   23  O4  UNL     1       3.827   2.766   0.205  1.00  0.00    -0.398 OA
ATOM     24  H4  UNL     1       4.076   3.465  -0.388  1.00  0.00     0.209 HD
ENDBRANCH  22  23
ENDBRANCH  19  22
ENDBRANCH  14  19
ENDBRANCH   1  14
BRANCH   1  25
HETATM   25  O5  UNL     1      -0.007   1.908   1.135  1.00  0.00    -0.377 OA
ATOM     26  H5  UNL     1      -0.841   2.363   1.149  1.00  0.00     0.211 HD
ENDBRANCH   1  25
BRANCH  13  27
HETATM   27  O8  UNL     1      -1.224   2.568  -0.997  1.00  0.00    -0.373 OA
ATOM     28  H8  UNL     1      -1.453   2.941  -1.840  1.00  0.00     0.212 HD
ENDBRANCH  13  27
BRANCH  12  29
HETATM   29  N5  UNL     1      -1.606   1.148  -3.101  1.00  0.00    -0.338 NA
ATOM     30  H52 UNL     1      -2.139   0.500  -3.681  1.00  0.00     0.173 HD
ATOM     31  H51 UNL     1      -0.773   1.497  -3.576  1.00  0.00     0.173 HD
ENDBRANCH  12  29
BRANCH   5  32
HETATM   32  N2  UNL     1      -1.998  -1.606   3.797  1.00  0.00    -0.234 N 
ATOM     33  H22 UNL     1      -1.193  -1.319   4.353  1.00  0.00     0.174 HD
ATOM     34  H21 UNL     1      -2.734  -2.191   4.194  1.00  0.00     0.174 HD
ENDBRANCH   5  32
TORSDOF 11
