REMARK  7 active torsions:
REMARK  status: ('A' for Active; 'I' for Inactive)
REMARK    1  A    between atoms: N1_1  and  C1_5 
REMARK    2  A    between atoms: N6_11  and  C3_12 
REMARK    3  A    between atoms: C3_12  and  C4_13 
REMARK    4  A    between atoms: C4_13  and  O1_14 
REMARK    5  A    between atoms: C4_13  and  C5_16 
REMARK    6  A    between atoms: C6_17  and  C7_18 
REMARK    7  A    between atoms: C10_25  and  O5_26 
ROOT
HETATM    1  C5  UNL     1       1.148  -0.313  -0.646  1.00  0.00     0.095 C 
HETATM    2  C6  UNL     1       1.781  -1.112   0.195  1.00  0.00     0.145 C 
HETATM    3  N7  UNL     1       3.058  -0.521   0.557  1.00  0.00    -0.285 N 
HETATM    4  C8  UNL     1       4.384  -0.674   1.026  1.00  0.00     0.229 C 
HETATM    5  O4  UNL     1       4.690  -1.555   1.891  1.00  0.00    -0.273 OA
HETATM    6  C9  UNL     1       5.242   0.327   0.344  1.00  0.00     0.139 C 
HETATM    7  C10 UNL     1       4.261   1.436   0.033  1.00  0.00     0.169 C 
HETATM    8  C11 UNL     1       2.882   0.921   0.312  1.00  0.00     0.222 C 
HETATM    9  N8  UNL     1       2.004   0.861  -0.807  1.00  0.00    -0.362 N 
ATOM     10  H8  UNL     1       1.977   1.521  -1.584  1.00  0.00     0.162 HD
ENDROOT
BRANCH   1  11
HETATM   11  C4  UNL     1      -0.163  -0.448  -1.315  1.00  0.00     0.100 C 
BRANCH  11  12
HETATM   12  C3  UNL     1      -1.190   0.506  -0.779  1.00  0.00     0.345 C 
BRANCH  12  13
HETATM   13  N6  UNL     1      -1.887   0.105   0.394  1.00  0.00     0.157 N 
HETATM   14  C1  UNL     1      -2.753   1.255   0.749  1.00  0.00     0.530 C 
HETATM   15  N2  UNL     1      -3.902   1.294  -0.093  1.00  0.00    -0.065 NA
HETATM   16  N3  UNL     1      -4.959   0.503   0.365  1.00  0.00    -0.018 NA
HETATM   17  N4  UNL     1      -5.019  -0.602  -0.502  1.00  0.00    -0.020 NA
HETATM   18  N5  UNL     1      -3.704  -0.909  -0.862  1.00  0.00    -0.098 NA
HETATM   19  C2  UNL     1      -2.799  -0.993   0.224  1.00  0.00     0.408 C 
BRANCH  14  20
HETATM   20  N1  UNL     1      -3.114   1.232   2.139  1.00  0.00    -0.032 N 
ATOM     21  H13 UNL     1      -3.724   2.014   2.378  1.00  0.00     0.278 HD
ATOM     22  H12 UNL     1      -3.752   0.464   2.345  1.00  0.00     0.278 HD
ATOM     23  H11 UNL     1      -2.292   1.204   2.742  1.00  0.00     0.278 HD
ENDBRANCH  14  20
ENDBRANCH  12  13
ENDBRANCH  11  12
BRANCH  11  24
HETATM   24  O1  UNL     1      -0.587  -1.685  -1.655  1.00  0.00    -0.361 OA
ATOM     25  H1  UNL     1       0.063  -2.289  -1.994  1.00  0.00     0.217 HD
ENDBRANCH  11  24
ENDBRANCH   1  11
BRANCH   2  26
HETATM   26  C7  UNL     1       1.406  -2.388   0.751  1.00  0.00     0.229 C 
HETATM   27  O2  UNL     1       0.336  -2.942   0.489  1.00  0.00    -0.643 OA
HETATM   28  O3  UNL     1       2.241  -3.095   1.637  1.00  0.00    -0.643 OA
ENDBRANCH   2  26
BRANCH   7  29
HETATM   29  O5  UNL     1       4.396   1.920  -1.252  1.00  0.00    -0.391 OA
ATOM     30  H5  UNL     1       3.780   2.616  -1.447  1.00  0.00     0.210 HD
ENDBRANCH   7  29
TORSDOF 7
