REMARK  2 active torsions:
REMARK  status: ('A' for Active; 'I' for Inactive)
REMARK    1  A    between atoms: N1_1  and  C1_5 
REMARK    2  A    between atoms: C1_5  and  C2_6 
ROOT
HETATM    1  C1  UNL     1       1.146   0.231  -0.402  1.00  0.00     0.259 C 
ENDROOT
BRANCH   1   2
HETATM    2  N1  UNL     1       2.181  -0.003   0.593  1.00  0.00    -0.076 N 
ATOM      3  H13 UNL     1       1.782  -0.139   1.522  1.00  0.00     0.274 HD
ATOM      4  H12 UNL     1       2.615  -0.918   0.472  1.00  0.00     0.274 HD
ATOM      5  H11 UNL     1       2.877   0.743   0.592  1.00  0.00     0.274 HD
ENDBRANCH   1   2
BRANCH   1   6
HETATM    6  C2  UNL     1       0.137  -0.851  -0.400  1.00  0.00     0.034 C 
HETATM    7  C3  UNL     1      -1.130  -0.575  -0.150  1.00  0.00     0.068 A 
HETATM    8  C4  UNL     1      -2.324   0.248   0.171  1.00  0.00     0.239 A 
HETATM    9  O1  UNL     1      -2.465  -1.142  -0.016  1.00  0.00    -0.347 OA
ENDBRANCH   1   6
TORSDOF 2
