REMARK  1 active torsions:
REMARK  status: ('A' for Active; 'I' for Inactive)
REMARK    1  A    between atoms: C1_4  and  N2_5 
ROOT
HETATM    1  N2  UNL     1       0.269  -0.367   0.641  1.00  0.00    -0.252 N 
HETATM    2  C2  UNL     1      -0.604   0.759   0.363  1.00  0.00     0.185 C 
HETATM    3  C3  UNL     1      -1.670  -0.287   0.575  1.00  0.00     0.223 C 
HETATM    4  O1  UNL     1      -0.707  -0.888   1.418  1.00  0.00    -0.276 OA
ENDROOT
BRANCH   1   5
HETATM    5  C1  UNL     1       1.588  -0.695   0.221  1.00  0.00     0.200 C 
HETATM    6  N1  UNL     1       2.514   0.190   0.041  1.00  0.00    -0.394 N 
ATOM      7  H12 UNL     1       2.270   1.165   0.213  1.00  0.00     0.156 HD
ATOM      8  H11 UNL     1       3.460  -0.045  -0.260  1.00  0.00     0.156 HD
ENDBRANCH   1   5
TORSDOF 1
