REMARK  1 active torsions:
REMARK  status: ('A' for Active; 'I' for Inactive)
REMARK    1  A    between atoms: C4_6  and  C5_7 
ROOT
HETATM    1  C1  UNL     1      -2.715  -2.063  -1.102  1.00  0.00     0.071 C 
HETATM    2  C2  UNL     1      -2.601  -0.780  -0.375  1.00  0.00     0.040 A 
HETATM    3  C3  UNL     1      -1.345  -0.266  -0.107  1.00  0.00     0.066 A 
HETATM    4  N1  UNL     1      -0.082  -0.677  -0.365  1.00  0.00    -0.353 N 
ATOM      5  H1  UNL     1       0.181  -1.532  -0.856  1.00  0.00     0.166 HD
HETATM    6  C4  UNL     1       0.765   0.237   0.138  1.00  0.00     0.050 A 
HETATM    7  C13 UNL     1       0.013   1.241   0.723  1.00  0.00     0.044 A 
HETATM    8  C14 UNL     1      -1.303   0.933   0.574  1.00  0.00    -0.003 A 
HETATM    9  C15 UNL     1      -2.440   1.577   0.962  1.00  0.00     0.043 A 
HETATM   10  C16 UNL     1      -3.672   1.026   0.672  1.00  0.00     0.039 A 
HETATM   11  C17 UNL     1      -4.797   1.711   1.083  1.00  0.00     0.030 A 
HETATM   12  C18 UNL     1      -6.022   1.150   0.788  1.00  0.00     0.004 A 
HETATM   13  C19 UNL     1      -6.117  -0.065   0.100  1.00  0.00     0.018 A 
HETATM   14  C20 UNL     1      -4.943  -0.683  -0.275  1.00  0.00     0.097 A 
HETATM   15  N2  UNL     1      -3.739  -0.152   0.004  1.00  0.00    -0.324 N 
ENDROOT
BRANCH   6  16
HETATM   16  C5  UNL     1       2.232   0.228   0.105  1.00  0.00     0.033 A 
HETATM   17  C6  UNL     1       3.070  -0.701  -0.440  1.00  0.00     0.034 A 
HETATM   18  C7  UNL     1       4.397  -0.479  -0.340  1.00  0.00    -0.018 A 
HETATM   19  C8  UNL     1       5.438  -1.302  -0.827  1.00  0.00     0.013 A 
HETATM   20  C12 UNL     1       4.792   0.662   0.301  1.00  0.00     0.016 A 
HETATM   21  C9  UNL     1       6.743  -0.936  -0.644  1.00  0.00     0.001 A 
HETATM   22  C10 UNL     1       7.154   0.209  -0.002  1.00  0.00     0.001 A 
HETATM   23  C11 UNL     1       6.143   1.017   0.477  1.00  0.00     0.019 A 
HETATM   24  S1  UNL     1       3.298   1.387   0.743  1.00  0.00    -0.087 SA
ENDBRANCH   6  16
TORSDOF 1
