REMARK  1 active torsions:
REMARK  status: ('A' for Active; 'I' for Inactive)
REMARK    1  A    between atoms: C4_4  and  C5_5 
ROOT
HETATM    1  C5  UNL     1       1.917  -1.231   0.196  1.00  0.00     0.026 A 
HETATM    2  C6  UNL     1       2.715  -2.351   0.218  1.00  0.00     0.018 A 
HETATM    3  C7  UNL     1       2.119  -3.575   0.053  1.00  0.00     0.018 A 
HETATM    4  C8  UNL     1       0.772  -3.721  -0.130  1.00  0.00     0.093 A 
HETATM    5  N1  UNL     1       0.002  -2.605  -0.149  1.00  0.00    -0.332 N 
HETATM    6  C9  UNL     1       0.535  -1.399   0.007  1.00  0.00     0.161 A 
HETATM    7  O1  UNL     1      -0.218  -0.257  -0.008  1.00  0.00    -0.291 OA
HETATM    8  C10 UNL     1      -1.637  -0.309  -0.194  1.00  0.00     0.104 A 
HETATM    9  C11 UNL     1      -2.139  -1.556  -0.348  1.00  0.00     0.036 A 
HETATM   10  S1  UNL     1      -3.836  -1.266  -0.546  1.00  0.00    -0.089 SA
HETATM   11  C12 UNL     1      -3.824   0.427  -0.423  1.00  0.00     0.018 A 
HETATM   12  C13 UNL     1      -4.832   1.411  -0.482  1.00  0.00     0.020 A 
HETATM   13  C14 UNL     1      -4.535   2.755  -0.348  1.00  0.00     0.001 A 
HETATM   14  C15 UNL     1      -3.218   3.054  -0.157  1.00  0.00     0.001 A 
HETATM   15  C16 UNL     1      -2.238   2.127  -0.097  1.00  0.00     0.015 A 
HETATM   16  C17 UNL     1      -2.517   0.740  -0.232  1.00  0.00     0.016 A 
HETATM   17  C18 UNL     1      -1.398  -2.840  -0.346  1.00  0.00     0.179 A 
ENDROOT
BRANCH   1  18
HETATM   18  C4  UNL     1       2.433   0.113   0.363  1.00  0.00    -0.022 A 
HETATM   19  C3  UNL     1       3.565   0.480  -0.371  1.00  0.00     0.012 A 
HETATM   20  C2  UNL     1       4.118   1.739  -0.264  1.00  0.00     0.001 A 
HETATM   21  C1  UNL     1       3.565   2.685   0.579  1.00  0.00     0.000 A 
HETATM   22  C20 UNL     1       2.456   2.325   1.298  1.00  0.00     0.001 A 
HETATM   23  C19 UNL     1       1.900   1.063   1.192  1.00  0.00     0.012 A 
ENDBRANCH   1  18
TORSDOF 1
