REMARK  3 active torsions:
REMARK  status: ('A' for Active; 'I' for Inactive)
REMARK    1  A    between atoms: C6_7  and  C7_8 
REMARK    2  A    between atoms: C8_9  and  C9_10 
REMARK    3  A    between atoms: C12_13  and  C13_14 
ROOT
HETATM    1  C7  UNL     1      -1.808  -0.287  -0.280  1.00  0.00    -0.061 C 
HETATM    2  C8  UNL     1      -0.601  -0.229  -0.252  1.00  0.00    -0.061 C 
ENDROOT
BRANCH   2   3
HETATM    3  C9  UNL     1       0.834  -0.168  -0.196  1.00  0.00     0.018 A 
HETATM    4  C10 UNL     1       1.534  -1.216   0.372  1.00  0.00     0.021 A 
HETATM    5  C11 UNL     1       2.909  -1.128   0.411  1.00  0.00     0.013 A 
HETATM    6  C12 UNL     1       3.619  -0.053  -0.086  1.00  0.00    -0.026 A 
HETATM    7  C19 UNL     1       2.893   0.973  -0.645  1.00  0.00     0.013 A 
HETATM    8  C20 UNL     1       1.529   0.922  -0.701  1.00  0.00     0.021 A 
BRANCH   6   9
HETATM    9  C13 UNL     1       5.068   0.024  -0.038  1.00  0.00    -0.026 A 
HETATM   10  C14 UNL     1       5.783  -0.551   0.991  1.00  0.00     0.012 A 
HETATM   11  C15 UNL     1       7.163  -0.452   0.995  1.00  0.00     0.001 A 
HETATM   12  C16 UNL     1       7.846   0.210  -0.007  1.00  0.00     0.000 A 
HETATM   13  C17 UNL     1       7.136   0.782  -1.029  1.00  0.00     0.001 A 
HETATM   14  C18 UNL     1       5.754   0.683  -1.034  1.00  0.00     0.012 A 
ENDBRANCH   6   9
ENDBRANCH   2   3
BRANCH   1  15
HETATM   15  C6  UNL     1      -3.241  -0.346  -0.311  1.00  0.00     0.019 A 
HETATM   16  C5  UNL     1      -4.062   0.452   0.473  1.00  0.00     0.034 A 
HETATM   17  C4  UNL     1      -5.431   0.375   0.424  1.00  0.00    -0.001 A 
HETATM   18  C3  UNL     1      -6.211   1.179   1.213  1.00  0.00     0.020 A 
HETATM   19  C23 UNL     1      -6.018  -0.518  -0.424  1.00  0.00     0.089 A 
HETATM   20  C2  UNL     1      -7.601   1.095   1.159  1.00  0.00     0.083 A 
HETATM   21  C1  UNL     1      -8.125   0.157   0.266  1.00  0.00     0.288 A 
HETATM   22  O1  UNL     1      -9.366   0.072   0.206  1.00  0.00    -0.260 OA
HETATM   23  O2  UNL     1      -7.348  -0.586  -0.465  1.00  0.00    -0.275 OA
HETATM   24  C22 UNL     1      -5.253  -1.335  -1.225  1.00  0.00     0.040 A 
HETATM   25  C21 UNL     1      -3.889  -1.237  -1.156  1.00  0.00     0.023 A 
ENDBRANCH   1  15
TORSDOF 3
