REMARK  8 active torsions:
REMARK  status: ('A' for Active; 'I' for Inactive)
REMARK    1  A    between atoms: N1_2  and  C2_5 
REMARK    2  A    between atoms: C2_5  and  C3_6 
REMARK    3  A    between atoms: C3_6  and  C4_7 
REMARK    4  A    between atoms: C4_7  and  N2_8 
REMARK    5  A    between atoms: N2_8  and  C5_11 
REMARK    6  A    between atoms: C5_11  and  C6_12 
REMARK    7  A    between atoms: C6_12  and  N3_13 
REMARK    8  A    between atoms: N3_13  and  C7_15 
ROOT
HETATM    1  N3  UNL     1      -2.139   0.331   0.052  1.00  0.00    -0.352 N 
ATOM      2  H3  UNL     1      -2.319   0.916   0.868  1.00  0.00     0.166 HD
ENDROOT
BRANCH   1   3
HETATM    3  C6  UNL     1      -0.805   0.421  -0.148  1.00  0.00     0.090 C 
BRANCH   3   4
HETATM    4  C5  UNL     1       0.025  -0.792  -0.481  1.00  0.00     0.276 C 
BRANCH   4   5
HETATM    5  N2  UNL     1       1.442  -0.402  -0.621  1.00  0.00    -0.071 N 
ATOM      6  H22 UNL     1       1.545   0.356  -1.296  1.00  0.00     0.277 HD
ATOM      7  H21 UNL     1       1.972  -1.129  -1.102  1.00  0.00     0.277 HD
BRANCH   5   8
HETATM    8  C4  UNL     1       2.061  -0.060   0.628  1.00  0.00     0.234 C 
BRANCH   8   9
HETATM    9  C3  UNL     1       3.388   0.597   0.331  1.00  0.00     0.055 C 
BRANCH   9  10
HETATM   10  C2  UNL     1       4.270  -0.356  -0.429  1.00  0.00     0.233 C 
BRANCH  10  11
HETATM   11  N1  UNL     1       5.557   0.284  -0.742  1.00  0.00    -0.079 N 
HETATM   12  C1  UNL     1       6.300   0.492   0.486  1.00  0.00     0.266 C 
ATOM     13  H12 UNL     1       5.441   1.146  -1.274  1.00  0.00     0.276 HD
ATOM     14  H11 UNL     1       6.092  -0.242  -1.433  1.00  0.00     0.276 HD
ENDBRANCH  10  11
ENDBRANCH   9  10
ENDBRANCH   8   9
ENDBRANCH   5   8
ENDBRANCH   4   5
ENDBRANCH   3   4
ENDBRANCH   1   3
BRANCH   1  15
HETATM   15  C7  UNL     1      -3.240  -0.108  -0.265  1.00  0.00     0.137 A 
HETATM   16  N4  UNL     1      -3.401  -0.934  -1.314  1.00  0.00    -0.337 N 
HETATM   17  C8  UNL     1      -4.671  -1.348  -1.592  1.00  0.00     0.183 A 
ATOM     18  H4  UNL     1      -2.607  -1.238  -1.878  1.00  0.00     0.168 HD
HETATM   19  N5  UNL     1      -5.712  -0.946  -0.848  1.00  0.00    -0.337 N 
HETATM   20  C9  UNL     1      -5.593  -0.114   0.216  1.00  0.00     0.138 A 
ATOM     21  H5  UNL     1      -6.642  -1.284  -1.096  1.00  0.00     0.168 HD
HETATM   22  N6  UNL     1      -6.456   0.424   1.103  1.00  0.00    -0.337 N 
HETATM   23  C11 UNL     1      -4.333   0.316   0.518  1.00  0.00     0.122 A 
HETATM   24  C10 UNL     1      -5.739   1.199   1.969  1.00  0.00     0.182 A 
ATOM     25  H6  UNL     1      -7.465   0.278   1.123  1.00  0.00     0.168 HD
HETATM   26  N7  UNL     1      -4.449   1.112   1.587  1.00  0.00    -0.346 N 
ATOM     27  H7  UNL     1      -3.672   1.586   2.048  1.00  0.00     0.167 HD
ENDBRANCH   1  15
TORSDOF 8
