REMARK  9 active torsions:
REMARK  status: ('A' for Active; 'I' for Inactive)
REMARK    1  A    between atoms: C2_2  and  O1_3 
REMARK    2  A    between atoms: O1_3  and  C3_4 
REMARK    3  A    between atoms: C3_4  and  C4_5 
REMARK    4  A    between atoms: C4_5  and  N1_6 
REMARK    5  A    between atoms: N1_6  and  C5_8 
REMARK    6  A    between atoms: C5_8  and  C6_9 
REMARK    7  A    between atoms: C6_9  and  N2_10 
REMARK    8  A    between atoms: N2_10  and  C7_12 
REMARK    9  A    between atoms: C10_19  and  N5_20 
ROOT
HETATM    1  C7  UNL     1       2.640  -0.385   0.213  1.00  0.00     0.694 A 
HETATM    2  N3  UNL     1       3.304   0.649  -0.334  1.00  0.00    -0.180 N 
ATOM      3  H3  UNL     1       2.805   1.327  -0.910  1.00  0.00     0.185 HD
HETATM    4  C8  UNL     1       4.643   0.793  -0.121  1.00  0.00     0.109 A 
HETATM    5  C9  UNL     1       5.434   1.896  -0.682  1.00  0.00     0.090 C 
HETATM    6  N4  UNL     1       5.271  -0.116   0.639  1.00  0.00    -0.180 N 
ATOM      7  H4  UNL     1       6.273  -0.023   0.808  1.00  0.00     0.185 HD
HETATM    8  C10 UNL     1       4.600  -1.149   1.182  1.00  0.00     0.691 A 
HETATM    9  N6  UNL     1       3.282  -1.299   0.979  1.00  0.00    -0.023 N 
ATOM     10  H6  UNL     1       2.776  -2.083   1.392  1.00  0.00     0.203 HD
ENDROOT
BRANCH   1  11
HETATM   11  N2  UNL     1       1.384  -0.580   0.059  1.00  0.00    -0.224 N 
ATOM     12  H2  UNL     1       0.943  -1.386   0.502  1.00  0.00     0.177 HD
BRANCH  11  13
HETATM   13  C6  UNL     1       0.586   0.319  -0.728  1.00  0.00     0.157 C 
BRANCH  13  14
HETATM   14  C5  UNL     1      -0.902   0.176  -0.360  1.00  0.00     0.139 C 
BRANCH  14  15
HETATM   15  N1  UNL     1      -1.375  -1.132  -0.586  1.00  0.00    -0.399 N 
ATOM     16  H1  UNL     1      -0.773  -1.840  -1.006  1.00  0.00     0.158 HD
BRANCH  15  17
HETATM   17  C4  UNL     1      -2.699  -1.438  -0.218  1.00  0.00     0.081 C 
BRANCH  17  18
HETATM   18  C3  UNL     1      -3.815  -0.814  -0.957  1.00  0.00     0.211 C 
BRANCH  18  19
HETATM   19  O1  UNL     1      -3.946   0.537  -0.942  1.00  0.00    -0.387 OA
BRANCH  19  20
HETATM   20  C2  UNL     1      -4.236   1.130   0.256  1.00  0.00     0.163 C 
HETATM   21  C1  UNL     1      -5.549   0.658   0.845  1.00  0.00     0.033 C 
ENDBRANCH  19  20
ENDBRANCH  18  19
ENDBRANCH  17  18
ENDBRANCH  15  17
ENDBRANCH  14  15
ENDBRANCH  13  14
ENDBRANCH  11  13
ENDBRANCH   1  11
BRANCH   8  22
HETATM   22  N5  UNL     1       5.217  -2.028   1.921  1.00  0.00    -0.234 N 
ATOM     23  H52 UNL     1       6.219  -1.914   2.075  1.00  0.00     0.174 HD
ATOM     24  H51 UNL     1       4.709  -2.811   2.332  1.00  0.00     0.174 HD
ENDBRANCH   8  22
TORSDOF 9
