REMARK  7 active torsions:
REMARK  status: ('A' for Active; 'I' for Inactive)
REMARK    1  A    between atoms: C2_2  and  N1_3 
REMARK    2  A    between atoms: N1_3  and  C3_6 
REMARK    3  A    between atoms: C3_6  and  C4_7 
REMARK    4  A    between atoms: C4_7  and  N2_8 
REMARK    5  A    between atoms: N2_8  and  C5_10 
REMARK    6  A    between atoms: C7_15  and  C8_16 
REMARK    7  A    between atoms: C8_16  and  N4_17 
ROOT
HETATM    1  C5  UNL     1      -0.650  -0.046  -0.182  1.00  0.00     0.139 C 
HETATM    2  C6  UNL     1      -0.111  -1.057   0.768  1.00  0.00     0.260 C 
HETATM    3  N3  UNL     1      -1.360  -1.044   1.510  1.00  0.00    -0.064 N 
ATOM      4  H31 UNL     1      -1.336  -0.970   2.527  1.00  0.00     0.277 HD
ATOM      5  H32 UNL     1      -1.914  -1.898   1.571  1.00  0.00     0.277 HD
HETATM    6  C7  UNL     1      -1.858   0.069   0.730  1.00  0.00     0.248 C 
ENDROOT
BRANCH   6   7
HETATM    7  C8  UNL     1      -3.114  -0.418   0.002  1.00  0.00     0.184 C 
HETATM    8  C9  UNL     1      -3.455   0.535  -1.086  1.00  0.00     0.220 C 
HETATM    9  O1  UNL     1      -4.217   1.568  -0.469  1.00  0.00    -0.319 OA
HETATM   10  C10 UNL     1      -4.482   1.236   0.874  1.00  0.00     0.261 C 
HETATM   11  O2  UNL     1      -4.813   2.014   1.797  1.00  0.00    -0.265 OA
HETATM   12  C11 UNL     1      -4.284  -0.240   0.965  1.00  0.00     0.154 C 
BRANCH   7  13
HETATM   13  N4  UNL     1      -2.945  -1.758  -0.420  1.00  0.00    -0.066 N 
ATOM     14  H43 UNL     1      -2.106  -1.876  -0.987  1.00  0.00     0.275 HD
ATOM     15  H42 UNL     1      -2.691  -2.372   0.354  1.00  0.00     0.275 HD
ATOM     16  H41 UNL     1      -3.782  -2.082  -0.905  1.00  0.00     0.275 HD
ENDBRANCH   7  13
ENDBRANCH   6   7
BRANCH   1  17
HETATM   17  N2  UNL     1       0.137   1.109  -0.379  1.00  0.00    -0.392 N 
ATOM     18  H2  UNL     1      -0.179   2.025  -0.061  1.00  0.00     0.159 HD
BRANCH  17  19
HETATM   19  C4  UNL     1       1.369   0.949  -1.028  1.00  0.00     0.083 C 
BRANCH  19  20
HETATM   20  C3  UNL     1       2.452   0.188  -0.352  1.00  0.00     0.276 C 
BRANCH  20  21
HETATM   21  N1  UNL     1       3.687   0.206  -1.157  1.00  0.00    -0.071 N 
ATOM     22  H12 UNL     1       3.971   1.164  -1.361  1.00  0.00     0.277 HD
ATOM     23  H11 UNL     1       3.504  -0.122  -2.105  1.00  0.00     0.277 HD
BRANCH  21  24
HETATM   24  C2  UNL     1       4.761  -0.523  -0.570  1.00  0.00     0.228 C 
HETATM   25  C1  UNL     1       5.340   0.109   0.658  1.00  0.00     0.034 C 
ENDBRANCH  21  24
ENDBRANCH  20  21
ENDBRANCH  19  20
ENDBRANCH  17  19
ENDBRANCH   1  17
TORSDOF 7
