REMARK  16 active torsions:
REMARK  status: ('A' for Active; 'I' for Inactive)
REMARK    1  A    between atoms: C2_2  and  C3_3 
REMARK    2  A    between atoms: C3_3  and  N1_4 
REMARK       I    between atoms: N1_4  and  C4_6 
REMARK    3  A    between atoms: C4_6  and  C5_8 
REMARK    4  A    between atoms: C5_8  and  C6_9 
REMARK    5  A    between atoms: C7_10  and  C8_11 
REMARK    6  A    between atoms: C10_13  and  O2_14 
REMARK    7  A    between atoms: N2_19  and  C14_20 
REMARK    8  A    between atoms: C14_20  and  C15_21 
REMARK    9  A    between atoms: C24_31  and  O5_32 
REMARK   10  A    between atoms: C26_35  and  O6_36 
REMARK   11  A    between atoms: O6_36  and  C27_37 
REMARK   12  A    between atoms: C27_37  and  C28_38 
REMARK   13  A    between atoms: C28_38  and  C29_39 
REMARK   14  A    between atoms: C29_39  and  N3_40 
REMARK   15  A    between atoms: N3_40  and  C31_42 
REMARK   16  A    between atoms: C31_42  and  C33_44 
ROOT
HETATM    1  C8  UNL     1       3.060  -0.700  -0.907  1.00  0.00     0.046 C 
HETATM    2  C9  UNL     1       2.001  -1.285  -1.831  1.00  0.00     0.060 C 
HETATM    3  C10 UNL     1       0.585  -1.068  -1.560  1.00  0.00     0.149 C 
HETATM    4  C12 UNL     1      -0.058  -2.428  -1.413  1.00  0.00     0.198 C 
HETATM    5  O3  UNL     1      -1.059  -2.739  -1.995  1.00  0.00    -0.292 OA
HETATM    6  C13 UNL     1       0.666  -3.341  -0.475  1.00  0.00     0.311 C 
HETATM    7  N2  UNL     1      -0.331  -4.295  -0.037  1.00  0.00     0.102 N 
HETATM    8  C18 UNL     1      -0.815  -3.824   1.224  1.00  0.00     0.275 C 
HETATM    9  C19 UNL     1       0.403  -3.218   1.846  1.00  0.00     0.051 C 
HETATM   10  C20 UNL     1       1.250  -2.664   0.688  1.00  0.00     0.069 C 
HETATM   11  C21 UNL     1       2.636  -3.160   0.931  1.00  0.00     0.139 C 
HETATM   12  O4  UNL     1       3.170  -4.075   0.358  1.00  0.00    -0.297 OA
HETATM   13  C22 UNL     1       3.390  -2.434   1.982  1.00  0.00     0.082 C 
HETATM   14  C23 UNL     1       3.575  -1.029   1.530  1.00  0.00     0.046 C 
HETATM   15  C24 UNL     1       2.597  -0.547   0.486  1.00  0.00     0.072 C 
HETATM   16  C25 UNL     1       1.212  -1.199   0.747  1.00  0.00     0.071 C 
HETATM   17  C26 UNL     1       0.312  -0.465  -0.170  1.00  0.00     0.171 C 
ENDROOT
BRANCH  17  18
HETATM   18  O6  UNL     1      -1.026  -0.530   0.105  1.00  0.00    -0.382 OA
BRANCH  18  19
HETATM   19  C27 UNL     1      -1.666   0.703   0.198  1.00  0.00     0.170 C 
BRANCH  19  20
HETATM   20  C28 UNL     1      -3.142   0.410   0.505  1.00  0.00     0.046 C 
BRANCH  20  21
HETATM   21  C29 UNL     1      -3.880   1.734   0.605  1.00  0.00     0.119 C 
BRANCH  21  22
HETATM   22  N3  UNL     1      -5.264   1.589   0.886  1.00  0.00    -0.412 N 
HETATM   23  C30 UNL     1      -5.593   1.121   2.172  1.00  0.00     0.143 C 
BRANCH  22  24
HETATM   24  C31 UNL     1      -6.093   2.500   0.221  1.00  0.00     0.082 C 
HETATM   25  C32 UNL     1      -6.079   2.395  -1.292  1.00  0.00     0.033 C 
BRANCH  24  26
HETATM   26  C33 UNL     1      -7.548   2.534   0.672  1.00  0.00    -0.032 C 
HETATM   27  C34 UNL     1      -8.254   1.225   0.498  1.00  0.00     0.016 C 
HETATM   28  C35 UNL     1      -8.244   3.523  -0.283  1.00  0.00     0.016 C 
HETATM   29  C36 UNL     1      -7.714   3.125   2.047  1.00  0.00     0.016 C 
ENDBRANCH  24  26
ENDBRANCH  22  24
ENDBRANCH  21  22
ENDBRANCH  20  21
ENDBRANCH  19  20
ENDBRANCH  18  19
ENDBRANCH  17  18
BRANCH   3  30
HETATM   30  O2  UNL     1      -0.088  -0.281  -2.463  1.00  0.00    -0.374 OA
HETATM   31  C11 UNL     1      -0.101  -0.638  -3.768  1.00  0.00     0.203 C 
ENDBRANCH   3  30
BRANCH  15  32
HETATM   32  O5  UNL     1       2.323   0.789   0.749  1.00  0.00    -0.389 OA
ATOM     33  H5  UNL     1       2.025   0.887   1.646  1.00  0.00     0.210 HD
ENDBRANCH  15  32
BRANCH   1  34
HETATM   34  C7  UNL     1       3.745   0.416  -1.607  1.00  0.00    -0.022 C 
HETATM   35  C6  UNL     1       4.855   1.195  -1.136  1.00  0.00    -0.021 C 
BRANCH  35  36
HETATM   36  C5  UNL     1       4.914   2.054   0.040  1.00  0.00     0.129 C 
BRANCH  36  37
HETATM   37  C4  UNL     1       6.287   2.738   0.040  1.00  0.00     0.221 C 
HETATM   38  N1  UNL     1       6.642   3.640   1.051  1.00  0.00    -0.361 N 
ATOM     39  H1  UNL     1       5.965   3.829   1.790  1.00  0.00     0.162 HD
HETATM   40  O1  UNL     1       7.072   2.465  -0.884  1.00  0.00    -0.273 OA
BRANCH  38  41
HETATM   41  C3  UNL     1       7.899   4.306   1.099  1.00  0.00     0.122 C 
BRANCH  41  42
HETATM   42  C2  UNL     1       8.176   5.189  -0.104  1.00  0.00     0.015 C 
HETATM   43  C1  UNL     1       7.069   6.234  -0.148  1.00  0.00     0.006 C 
ENDBRANCH  41  42
ENDBRANCH  38  41
ENDBRANCH  36  37
ENDBRANCH  35  36
ENDBRANCH   1  34
BRANCH   7  44
HETATM   44  C14 UNL     1       0.161  -5.635   0.147  1.00  0.00     0.278 C 
BRANCH  44  45
HETATM   45  C15 UNL     1       0.568  -6.300  -1.123  1.00  0.00     0.014 A 
HETATM   46  C16 UNL     1      -0.463  -6.491  -2.214  1.00  0.00     0.007 A 
HETATM   47  C17 UNL     1      -0.055  -7.654  -1.386  1.00  0.00     0.007 A 
ENDBRANCH  44  45
ENDBRANCH   7  44
TORSDOF 16
