REMARK  17 active torsions:
REMARK  status: ('A' for Active; 'I' for Inactive)
REMARK    1  A    between atoms: C3_3  and  C4_4 
REMARK    2  A    between atoms: C5_5  and  N1_6 
REMARK    3  A    between atoms: C5_5  and  C17_19 
REMARK    4  A    between atoms: N1_6  and  C6_8 
REMARK    5  A    between atoms: C6_8  and  C7_9 
REMARK    6  A    between atoms: C17_19  and  N2_20 
REMARK    7  A    between atoms: C17_19  and  O4_41 
REMARK    8  A    between atoms: N2_20  and  C18_23 
REMARK    9  A    between atoms: C18_23  and  C20_26 
REMARK       I    between atoms: C20_26  and  N4_28 
REMARK       I    between atoms: N5_31  and  C23_32 
REMARK   10  A    between atoms: C23_32  and  O3_34 
REMARK   11  A    between atoms: O3_34  and  C24_35 
REMARK   12  A    between atoms: C24_35  and  C25_36 
REMARK   13  A    between atoms: C25_36  and  C26_37 
REMARK   14  A    between atoms: O4_41  and  C30_42 
REMARK   15  A    between atoms: C30_42  and  C31_43 
REMARK   16  A    between atoms: C31_43  and  O5_44 
REMARK   17  A    between atoms: O5_44  and  C32_45 
ROOT
HETATM    1  C1  UNL     1       0.393   0.420   4.212  1.00  0.00     0.112 C 
HETATM    2  C2  UNL     1       0.195   0.723   2.789  1.00  0.00    -0.106 C 
HETATM    3  C3  UNL     1       0.054   0.963   1.615  1.00  0.00    -0.077 C 
ENDROOT
BRANCH   3   4
HETATM    4  C4  UNL     1      -0.087   1.238   0.216  1.00  0.00     0.093 C 
HETATM    5  C5  UNL     1      -1.004   0.646  -0.527  1.00  0.00     0.070 C 
BRANCH   5   6
HETATM    6  N1  UNL     1      -1.868  -0.289   0.102  1.00  0.00    -0.388 N 
ATOM      7  H1  UNL     1      -1.508  -0.849   0.874  1.00  0.00     0.159 HD
BRANCH   6   8
HETATM    8  C6  UNL     1      -3.235  -0.474  -0.312  1.00  0.00     0.129 C 
BRANCH   8   9
HETATM    9  C7  UNL     1      -3.845  -1.579   0.496  1.00  0.00    -0.023 C 
HETATM   10  C8  UNL     1      -3.028  -2.826   0.228  1.00  0.00     0.015 C 
HETATM   11  C9  UNL     1      -3.483  -3.947   1.126  1.00  0.00    -0.013 C 
HETATM   12  C10 UNL     1      -3.398  -3.501   2.552  1.00  0.00     0.009 C 
HETATM   13  C14 UNL     1      -4.908  -4.283   0.700  1.00  0.00     0.009 C 
HETATM   14  C11 UNL     1      -4.357  -2.363   2.787  1.00  0.00    -0.013 C 
HETATM   15  C12 UNL     1      -5.755  -2.711   2.363  1.00  0.00     0.009 C 
HETATM   16  C16 UNL     1      -3.893  -1.190   1.934  1.00  0.00     0.015 C 
HETATM   17  C13 UNL     1      -5.738  -3.049   0.898  1.00  0.00    -0.013 C 
HETATM   18  C15 UNL     1      -5.262  -1.893   0.051  1.00  0.00     0.015 C 
ENDBRANCH   8   9
ENDBRANCH   6   8
ENDBRANCH   5   6
BRANCH   5  19
HETATM   19  C17 UNL     1      -1.146   0.960  -2.005  1.00  0.00     0.374 C 
BRANCH  19  20
HETATM   20  N2  UNL     1       0.201   1.057  -2.591  1.00  0.00    -0.018 N 
ATOM     21  H22 UNL     1       0.179   1.406  -3.549  1.00  0.00     0.282 HD
ATOM     22  H21 UNL     1       0.748   1.809  -2.173  1.00  0.00     0.282 HD
BRANCH  20  23
HETATM   23  C18 UNL     1       0.872  -0.227  -2.493  1.00  0.00     0.385 C 
HETATM   24  C19 UNL     1       0.126  -1.231  -3.285  1.00  0.00     0.102 C 
HETATM   25  N3  UNL     1      -0.455  -1.991  -3.906  1.00  0.00    -0.195 NA
BRANCH  23  26
HETATM   26  C20 UNL     1       2.254  -0.192  -2.995  1.00  0.00     0.265 C 
HETATM   27  O1  UNL     1       2.680   0.842  -3.589  1.00  0.00    -0.270 OA
HETATM   28  N4  UNL     1       3.139  -1.276  -2.842  1.00  0.00    -0.346 N 
HETATM   29  C21 UNL     1       4.488  -1.265  -3.394  1.00  0.00     0.146 C 
HETATM   30  C29 UNL     1       2.762  -2.444  -2.097  1.00  0.00     0.146 C 
HETATM   31  C22 UNL     1       5.348  -2.341  -2.732  1.00  0.00     0.148 C 
HETATM   32  N5  UNL     1       5.065  -2.407  -1.331  1.00  0.00    -0.325 N 
HETATM   33  C23 UNL     1       6.087  -2.292  -0.326  1.00  0.00     0.362 C 
HETATM   34  C28 UNL     1       3.709  -2.599  -0.904  1.00  0.00     0.148 C 
HETATM   35  O2  UNL     1       7.299  -2.140  -0.672  1.00  0.00    -0.238 OA
BRANCH  33  36
HETATM   36  O3  UNL     1       5.803  -2.337   1.021  1.00  0.00    -0.304 OA
BRANCH  36  37
HETATM   37  C24 UNL     1       6.712  -2.230   2.073  1.00  0.00     0.180 C 
BRANCH  37  38
HETATM   38  C25 UNL     1       7.436  -0.928   2.077  1.00  0.00     0.026 C 
BRANCH  38  39
HETATM   39  C26 UNL     1       8.416  -0.837   3.236  1.00  0.00    -0.002 C 
HETATM   40  C27 UNL     1       7.684  -0.963   4.550  1.00  0.00     0.005 C 
ENDBRANCH  38  39
ENDBRANCH  37  38
ENDBRANCH  36  37
ENDBRANCH  33  36
ENDBRANCH  23  26
ENDBRANCH  20  23
ENDBRANCH  19  20
BRANCH  19  41
HETATM   41  O4  UNL     1      -1.957   1.877  -2.213  1.00  0.00    -0.352 OA
BRANCH  41  42
HETATM   42  C30 UNL     1      -2.795   2.755  -2.444  1.00  0.00     0.197 C 
BRANCH  42  43
HETATM   43  C31 UNL     1      -2.364   4.141  -1.904  1.00  0.00     0.194 C 
BRANCH  43  44
HETATM   44  O5  UNL     1      -3.335   5.097  -2.189  1.00  0.00    -0.382 OA
BRANCH  44  45
HETATM   45  C32 UNL     1      -2.919   6.298  -1.686  1.00  0.00     0.147 C 
HETATM   46  C33 UNL     1      -2.760   7.391  -2.731  1.00  0.00     0.060 C 
HETATM   47  C34 UNL     1      -2.851   8.617  -1.811  1.00  0.00     0.170 C 
HETATM   48  O6  UNL     1      -3.860   8.301  -0.936  1.00  0.00    -0.389 OA
HETATM   49  C35 UNL     1      -3.906   6.944  -0.750  1.00  0.00     0.199 C 
ENDBRANCH  44  45
ENDBRANCH  43  44
ENDBRANCH  42  43
ENDBRANCH  41  42
ENDBRANCH  19  41
ENDBRANCH   5  19
ENDBRANCH   3   4
TORSDOF 17
