REMARK  15 active torsions:
REMARK  status: ('A' for Active; 'I' for Inactive)
REMARK    1  A    between atoms: O1_2  and  C2_3 
REMARK    2  A    between atoms: C2_3  and  C3_4 
REMARK    3  A    between atoms: C3_4  and  C4_5 
REMARK    4  A    between atoms: C4_5  and  N1_6 
REMARK       I    between atoms: N1_6  and  C5_8 
REMARK    5  A    between atoms: C5_8  and  C6_10 
REMARK    6  A    between atoms: N2_11  and  C7_12 
REMARK    7  A    between atoms: C7_12  and  O3_13 
REMARK    8  A    between atoms: C8_15  and  C9_16 
REMARK    9  A    between atoms: C8_15  and  C16_23 
REMARK   10  A    between atoms: C9_16  and  C10_17 
REMARK   11  A    between atoms: C16_23  and  C17_24 
REMARK   12  A    between atoms: C17_24  and  C18_25 
REMARK   13  A    between atoms: C18_25  and  C19_26 
REMARK       I    between atoms: N4_29  and  C20_31 
REMARK   14  A    between atoms: C20_31  and  C21_33 
REMARK   15  A    between atoms: C21_33  and  C22_34 
ROOT
HETATM    1  C7  UNL     1      -0.514  -0.153  -2.049  1.00  0.00     0.147 C 
HETATM    2  C8  UNL     1      -0.037  -1.222  -1.230  1.00  0.00     0.016 C 
ENDROOT
BRANCH   2   3
HETATM    3  C9  UNL     1      -1.076  -1.866  -0.386  1.00  0.00     0.049 C 
BRANCH   3   4
HETATM    4  C10 UNL     1      -2.209  -2.459  -1.210  1.00  0.00    -0.010 C 
HETATM    5  C11 UNL     1      -3.171  -3.061  -0.197  1.00  0.00     0.005 C 
HETATM    6  C12 UNL     1      -2.897  -4.519   0.071  1.00  0.00     0.000 C 
HETATM    7  C13 UNL     1      -3.225  -5.309  -1.200  1.00  0.00     0.000 C 
HETATM    8  C14 UNL     1      -3.021  -4.417  -2.414  1.00  0.00     0.000 C 
HETATM    9  C15 UNL     1      -1.760  -3.591  -2.101  1.00  0.00     0.005 C 
ENDBRANCH   3   4
ENDBRANCH   2   3
BRANCH   2  10
HETATM   10  C16 UNL     1       1.279  -0.980  -0.533  1.00  0.00     0.023 C 
HETATM   11  N4  UNL     1       1.863   0.073  -0.810  1.00  0.00    -0.330 N 
HETATM   12  C20 UNL     1       2.915   0.881  -0.634  1.00  0.00     0.222 C 
ATOM     13  H4  UNL     1       1.266   0.546  -1.488  1.00  0.00     0.168 HD
HETATM   14  O5  UNL     1       2.964   2.000  -1.269  1.00  0.00    -0.273 OA
BRANCH  10  15
HETATM   15  C17 UNL     1       1.843  -1.977   0.388  1.00  0.00     0.066 C 
BRANCH  15  16
HETATM   16  C18 UNL     1       2.183  -3.298  -0.276  1.00  0.00     0.105 C 
BRANCH  16  17
HETATM   17  C19 UNL     1       2.808  -4.212   0.761  1.00  0.00     0.231 C 
HETATM   18  N3  UNL     1       3.243  -5.477   0.345  1.00  0.00    -0.062 NA
HETATM   19  O4  UNL     1       2.917  -3.815   1.942  1.00  0.00    -0.277 OA
ENDBRANCH  16  17
ENDBRANCH  15  16
ENDBRANCH  10  15
BRANCH  12  20
HETATM   20  C21 UNL     1       4.071   0.623   0.232  1.00  0.00     0.108 C 
BRANCH  20  21
HETATM   21  C22 UNL     1       5.149   1.693   0.171  1.00  0.00    -0.001 C 
HETATM   22  C23 UNL     1       4.699   3.049   0.560  1.00  0.00     0.038 C 
HETATM   23  C24 UNL     1       5.664   3.790   1.447  1.00  0.00     0.132 C 
HETATM   24  O6  UNL     1       5.790   3.034   2.623  1.00  0.00    -0.379 OA
HETATM   25  C27 UNL     1       7.101   3.551   1.158  1.00  0.00     0.005 C 
HETATM   26  C25 UNL     1       6.799   2.323   1.945  1.00  0.00     0.132 C 
HETATM   27  C26 UNL     1       6.248   1.198   1.126  1.00  0.00     0.038 C 
HETATM   28  C28 UNL     1       8.015   4.483   1.913  1.00  0.00     0.020 C 
HETATM   29  C29 UNL     1       7.519   3.382  -0.268  1.00  0.00     0.020 C 
ENDBRANCH  20  21
ENDBRANCH  12  20
ENDBRANCH   2  10
BRANCH   1  30
HETATM   30  N2  UNL     1      -1.279   1.011  -1.815  1.00  0.00    -0.338 N 
HETATM   31  C6  UNL     1      -1.813   1.394  -0.537  1.00  0.00     0.197 C 
HETATM   32  C31 UNL     1      -1.553   2.908  -0.350  1.00  0.00     0.032 C 
HETATM   33  S1  UNL     1      -1.981   3.473  -2.029  1.00  0.00    -0.137 SA
HETATM   34  C32 UNL     1      -2.484   3.490   0.677  1.00  0.00     0.029 C 
HETATM   35  C33 UNL     1      -0.154   3.212   0.038  1.00  0.00     0.029 C 
HETATM   36  C30 UNL     1      -1.614   1.926  -2.887  1.00  0.00     0.200 C 
BRANCH  31  37
HETATM   37  C5  UNL     1      -3.300   1.225  -0.511  1.00  0.00     0.242 C 
HETATM   38  N1  UNL     1      -4.059   0.962   0.649  1.00  0.00    -0.359 N 
ATOM     39  H1  UNL     1      -3.580   0.866   1.544  1.00  0.00     0.162 HD
HETATM   40  O2  UNL     1      -3.910   1.323  -1.609  1.00  0.00    -0.271 OA
BRANCH  38  41
HETATM   41  C4  UNL     1      -5.480   0.827   0.604  1.00  0.00     0.125 C 
BRANCH  41  42
HETATM   42  C3  UNL     1      -6.119   0.506   1.917  1.00  0.00     0.046 C 
BRANCH  42  43
HETATM   43  C2  UNL     1      -7.631   0.428   1.660  1.00  0.00     0.168 C 
BRANCH  43  44
HETATM   44  O1  UNL     1      -7.863  -0.576   0.723  1.00  0.00    -0.396 OA
HETATM   45  C1  UNL     1      -9.219  -0.713   0.441  1.00  0.00     0.201 C 
ENDBRANCH  43  44
ENDBRANCH  42  43
ENDBRANCH  41  42
ENDBRANCH  38  41
ENDBRANCH  31  37
ENDBRANCH   1  30
BRANCH   1  46
HETATM   46  O3  UNL     1      -0.159  -0.271  -3.321  1.00  0.00    -0.346 OA
ATOM     47  H3  UNL     1       0.356  -1.054  -3.478  1.00  0.00     0.219 HD
ENDBRANCH   1  46
TORSDOF 15
