REMARK  18 active torsions:
REMARK  status: ('A' for Active; 'I' for Inactive)
REMARK    1  A    between atoms: O1_2  and  C2_3 
REMARK       I    between atoms: C2_3  and  N1_5 
REMARK    2  A    between atoms: N1_5  and  C3_6 
REMARK    3  A    between atoms: N1_5  and  C13_20 
REMARK    4  A    between atoms: C3_6  and  C4_7 
REMARK    5  A    between atoms: C4_7  and  N2_8 
REMARK       I    between atoms: N2_8  and  C5_10 
REMARK    6  A    between atoms: C5_10  and  C6_12 
REMARK    7  A    between atoms: C6_12  and  N3_14 
REMARK    8  A    between atoms: C13_20  and  C14_21 
REMARK    9  A    between atoms: C13_20  and  C17_26 
REMARK   10  A    between atoms: C14_21  and  C15_22 
REMARK   11  A    between atoms: C15_22  and  C16_23 
REMARK   12  A    between atoms: C17_26  and  O6_27 
REMARK   13  A    between atoms: C17_26  and  N4_29 
REMARK       I    between atoms: N5_32  and  C20_33 
REMARK   14  A    between atoms: C20_33  and  O8_35 
REMARK   15  A    between atoms: O8_35  and  C21_36 
REMARK   16  A    between atoms: C21_36  and  C22_37 
REMARK   17  A    between atoms: C22_37  and  C23_38 
REMARK   18  A    between atoms: C23_38  and  C24_39 
ROOT
HETATM    1  C13 UNL     1      -1.104  -0.703  -2.011  1.00  0.00     0.086 C 
ENDROOT
BRANCH   1   2
HETATM    2  N1  UNL     1      -1.774  -0.837  -0.779  1.00  0.00    -0.288 N 
HETATM    3  C2  UNL     1      -1.258  -1.888   0.123  1.00  0.00     0.367 C 
HETATM    4  O2  UNL     1      -1.784  -1.994   1.243  1.00  0.00    -0.238 OA
BRANCH   3   5
HETATM    5  O1  UNL     1      -0.240  -2.720  -0.250  1.00  0.00    -0.309 OA
HETATM    6  C1  UNL     1       0.194  -3.699   0.673  1.00  0.00     0.215 C 
ENDBRANCH   3   5
BRANCH   2   7
HETATM    7  C3  UNL     1      -2.840  -0.082  -0.185  1.00  0.00     0.154 C 
BRANCH   7   8
HETATM    8  C4  UNL     1      -4.210  -0.646  -0.241  1.00  0.00     0.143 C 
BRANCH   8   9
HETATM    9  N2  UNL     1      -5.178   0.252   0.433  1.00  0.00    -0.358 N 
HETATM   10  C5  UNL     1      -6.548  -0.075   0.502  1.00  0.00     0.251 C 
HETATM   11  O3  UNL     1      -6.923  -1.144  -0.020  1.00  0.00    -0.271 OA
ATOM     12  H2  UNL     1      -4.848   1.121   0.854  1.00  0.00     0.162 HD
BRANCH  10  13
HETATM   13  C6  UNL     1      -7.489   0.810   1.161  1.00  0.00     0.310 C 
HETATM   14  C7  UNL     1      -7.098   0.898   2.646  1.00  0.00     0.053 C 
BRANCH  13  15
HETATM   15  N3  UNL     1      -8.849   0.425   1.123  1.00  0.00     0.101 N 
HETATM   16  C8  UNL     1      -9.487   0.338  -0.141  1.00  0.00     0.273 C 
HETATM   17  C9  UNL     1     -10.723  -0.554   0.053  1.00  0.00     0.030 C 
HETATM   18  C10 UNL     1     -11.719   0.110   0.965  1.00  0.00     0.003 C 
HETATM   19  C11 UNL     1     -11.093   1.347   1.548  1.00  0.00     0.030 C 
HETATM   20  C12 UNL     1      -9.688   1.144   2.039  1.00  0.00     0.273 C 
ENDBRANCH  13  15
ENDBRANCH  10  13
ENDBRANCH   8   9
ENDBRANCH   7   8
ENDBRANCH   2   7
ENDBRANCH   1   2
BRANCH   1  21
HETATM   21  C14 UNL     1      -1.721  -1.131  -3.280  1.00  0.00     0.018 C 
BRANCH  21  22
HETATM   22  C15 UNL     1      -2.946  -0.569  -3.835  1.00  0.00     0.142 C 
BRANCH  22  23
HETATM   23  C16 UNL     1      -2.958   0.872  -4.145  1.00  0.00     0.176 C 
HETATM   24  O4  UNL     1      -3.219   1.787  -3.299  1.00  0.00    -0.648 OA
HETATM   25  O5  UNL     1      -2.669   1.317  -5.447  1.00  0.00    -0.648 OA
ENDBRANCH  22  23
ENDBRANCH  21  22
ENDBRANCH   1  21
BRANCH   1  26
HETATM   26  C17 UNL     1      -0.225   0.466  -2.208  1.00  0.00     0.165 C 
BRANCH  26  27
HETATM   27  O6  UNL     1      -0.004   0.712  -3.469  1.00  0.00    -0.344 OA
ATOM     28  H6  UNL     1       0.562   1.465  -3.596  1.00  0.00     0.219 HD
ENDBRANCH  26  27
BRANCH  26  29
HETATM   29  N4  UNL     1       0.412   1.350  -1.350  1.00  0.00    -0.357 N 
HETATM   30  C18 UNL     1       0.490   1.413   0.069  1.00  0.00     0.145 C 
HETATM   31  C19 UNL     1       1.920   0.967   0.426  1.00  0.00     0.148 C 
HETATM   32  N5  UNL     1       2.791   1.153  -0.710  1.00  0.00    -0.325 N 
HETATM   33  C20 UNL     1       3.891   0.226  -0.896  1.00  0.00     0.362 C 
HETATM   34  C31 UNL     1       2.630   2.200  -1.677  1.00  0.00     0.148 C 
HETATM   35  O7  UNL     1       4.667   0.383  -1.872  1.00  0.00    -0.238 OA
HETATM   36  C32 UNL     1       1.189   2.479  -2.000  1.00  0.00     0.145 C 
BRANCH  33  37
HETATM   37  O8  UNL     1       4.107  -0.807  -0.046  1.00  0.00    -0.304 OA
BRANCH  37  38
HETATM   38  C21 UNL     1       5.069  -1.767   0.009  1.00  0.00     0.180 C 
BRANCH  38  39
HETATM   39  C22 UNL     1       6.395  -1.350   0.507  1.00  0.00     0.027 C 
BRANCH  39  40
HETATM   40  C23 UNL     1       7.122  -0.292  -0.201  1.00  0.00     0.007 C 
BRANCH  40  41
HETATM   41  C24 UNL     1       8.496  -0.095   0.493  1.00  0.00    -0.014 C 
HETATM   42  C25 UNL     1       9.269  -1.375   0.438  1.00  0.00     0.004 C 
HETATM   43  C26 UNL     1      10.722  -1.041   0.180  1.00  0.00     0.000 C 
HETATM   44  C27 UNL     1      11.171   0.209   0.867  1.00  0.00     0.000 C 
HETATM   45  C28 UNL     1      10.706   0.303   2.283  1.00  0.00     0.000 C 
HETATM   46  C29 UNL     1       9.441   1.130   2.452  1.00  0.00     0.000 C 
HETATM   47  C30 UNL     1       8.242   0.385   1.881  1.00  0.00     0.004 C 
ENDBRANCH  40  41
ENDBRANCH  39  40
ENDBRANCH  38  39
ENDBRANCH  37  38
ENDBRANCH  33  37
ENDBRANCH  26  29
ENDBRANCH   1  26
TORSDOF 18
