REMARK  1 active torsions:
REMARK  status: ('A' for Active; 'I' for Inactive)
REMARK       I    between atoms: C2_2  and  N1_4 
REMARK    1  A    between atoms: N1_4  and  N2_6 
ROOT
HETATM    1  N2  UNL     1       3.076   0.755  -0.019  1.00  0.00    -0.286 N 
ATOM      2  H2  UNL     1       2.955   1.758  -0.158  1.00  0.00     0.188 HD
HETATM    3  C3  UNL     1       2.131   0.092   0.558  1.00  0.00     0.098 C 
HETATM    4  C4  UNL     1       0.944   0.848   0.972  1.00  0.00     0.078 C 
HETATM    5  C5  UNL     1       0.282   1.594  -0.167  1.00  0.00     0.007 C 
HETATM    6  C6  UNL     1      -0.959   2.292   0.349  1.00  0.00     0.000 C 
HETATM    7  C7  UNL     1      -2.037   2.310  -0.707  1.00  0.00     0.000 C 
HETATM    8  C8  UNL     1      -3.401   2.094  -0.146  1.00  0.00     0.000 C 
HETATM    9  C9  UNL     1      -3.610   0.799   0.543  1.00  0.00     0.000 C 
HETATM   10  C10 UNL     1      -4.118  -0.307  -0.354  1.00  0.00     0.000 C 
HETATM   11  C11 UNL     1      -3.551  -1.663   0.089  1.00  0.00     0.000 C 
HETATM   12  C12 UNL     1      -2.208  -1.863  -0.516  1.00  0.00     0.000 C 
HETATM   13  C13 UNL     1      -1.177  -2.390   0.491  1.00  0.00     0.009 C 
HETATM   14  C14 UNL     1       0.166  -2.299  -0.233  1.00  0.00     0.103 C 
HETATM   15  C15 UNL     1       1.287  -2.277   0.737  1.00  0.00     0.223 C 
HETATM   16  O2  UNL     1       1.325  -3.173   1.619  1.00  0.00    -0.273 OA
HETATM   17  N3  UNL     1       2.330  -1.305   0.739  1.00  0.00    -0.316 N 
ATOM     18  H3  UNL     1       3.285  -1.634   0.880  1.00  0.00     0.170 HD
ENDROOT
BRANCH   1  19
HETATM   19  N1  UNL     1       4.257   0.156  -0.461  1.00  0.00    -0.269 N 
HETATM   20  C2  UNL     1       5.500   0.818  -0.492  1.00  0.00     0.232 C 
HETATM   21  C1  UNL     1       6.727   0.142  -0.970  1.00  0.00     0.119 C 
HETATM   22  O1  UNL     1       5.630   2.022  -0.114  1.00  0.00    -0.272 OA
ATOM     23  H1  UNL     1       4.218  -0.813  -0.778  1.00  0.00     0.190 HD
ENDBRANCH   1  19
TORSDOF 1
