REMARK  2 active torsions:
REMARK  status: ('A' for Active; 'I' for Inactive)
REMARK    1  A    between atoms: C5_5  and  N1_6 
REMARK    2  A    between atoms: C7_10  and  C8_11 
ROOT
HETATM    1  C1  UNL     1       5.437  -1.176   0.733  1.00  0.00     0.068 C 
HETATM    2  C2  UNL     1       4.041  -0.764   0.350  1.00  0.00     0.008 A 
HETATM    3  C3  UNL     1       2.878  -1.131   0.987  1.00  0.00     0.042 A 
HETATM    4  C4  UNL     1       1.787  -0.555   0.349  1.00  0.00     0.037 A 
HETATM    5  C5  UNL     1       0.422  -0.620   0.601  1.00  0.00     0.053 A 
HETATM    6  C6  UNL     1      -0.492   0.071  -0.220  1.00  0.00     0.033 A 
HETATM    7  C7  UNL     1      -1.868   0.140  -0.142  1.00  0.00    -0.027 A 
HETATM    8  C11 UNL     1      -2.498   0.888  -1.065  1.00  0.00    -0.012 A 
HETATM    9  C12 UNL     1      -3.944   1.248  -1.306  1.00  0.00     0.057 C 
HETATM   10  S1  UNL     1      -1.213   1.499  -2.048  1.00  0.00    -0.076 SA
HETATM   11  C13 UNL     1       0.091   0.769  -1.231  1.00  0.00     0.091 A 
HETATM   12  N2  UNL     1       1.445   0.819  -1.460  1.00  0.00    -0.330 N 
HETATM   13  C14 UNL     1       1.891   1.602  -2.568  1.00  0.00     0.158 C 
HETATM   14  C15 UNL     1       2.318   0.166  -0.686  1.00  0.00     0.121 A 
HETATM   15  N3  UNL     1       3.663   0.026  -0.665  1.00  0.00    -0.345 N 
ATOM     16  H3  UNL     1       4.302   0.462  -1.330  1.00  0.00     0.167 HD
ENDROOT
BRANCH   5  17
HETATM   17  N1  UNL     1       0.073  -1.329   1.601  1.00  0.00    -0.398 N 
ATOM     18  H12 UNL     1       0.734  -1.829   2.195  1.00  0.00     0.156 HD
ATOM     19  H11 UNL     1      -0.929  -1.377   1.786  1.00  0.00     0.156 HD
ENDBRANCH   5  17
BRANCH   7  20
HETATM   20  C8  UNL     1      -2.623  -0.584   0.959  1.00  0.00     0.012 C 
HETATM   21  C9  UNL     1      -4.066  -0.844   0.638  1.00  0.00     0.015 C 
HETATM   22  C10 UNL     1      -2.549   0.258   2.235  1.00  0.00     0.015 C 
ENDBRANCH   7  20
TORSDOF 2
