REMARK  2 active torsions:
REMARK  status: ('A' for Active; 'I' for Inactive)
REMARK    1  A    between atoms: C5_5  and  C6_6 
REMARK    2  A    between atoms: C7_9  and  N2_10 
ROOT
HETATM    1  C6  UNL     1       0.328  -1.013  -0.425  1.00  0.00     0.080 A 
HETATM    2  N1  UNL     1       0.121  -2.193  -1.002  1.00  0.00    -0.190 N 
ATOM      3  H1  UNL     1       0.892  -2.755  -1.363  1.00  0.00     0.184 HD
HETATM    4  C7  UNL     1      -1.167  -2.612  -1.086  1.00  0.00     0.676 A 
HETATM    5  N3  UNL     1      -2.174  -1.888  -0.620  1.00  0.00    -0.190 N 
ATOM      6  H3  UNL     1      -3.117  -2.265  -0.718  1.00  0.00     0.184 HD
HETATM    7  C8  UNL     1      -2.034  -0.664  -0.014  1.00  0.00     0.075 A 
HETATM    8  C9  UNL     1      -2.982   0.151   0.494  1.00  0.00    -0.021 A 
HETATM    9  C10 UNL     1      -4.473  -0.182   0.476  1.00  0.00     0.052 C 
HETATM   10  C11 UNL     1      -2.562   1.332   1.050  1.00  0.00    -0.012 A 
HETATM   11  C12 UNL     1      -3.402   2.411   1.677  1.00  0.00     0.057 C 
HETATM   12  S1  UNL     1      -0.874   1.269   0.849  1.00  0.00    -0.090 SA
HETATM   13  C13 UNL     1      -0.739  -0.240   0.073  1.00  0.00     0.061 A 
ENDROOT
BRANCH   1  14
HETATM   14  C5  UNL     1       1.629  -0.380  -0.216  1.00  0.00     0.015 A 
HETATM   15  C4  UNL     1       1.934  -0.021   1.108  1.00  0.00     0.017 A 
HETATM   16  C3  UNL     1       3.137   0.599   1.341  1.00  0.00     0.025 A 
HETATM   17  C2  UNL     1       4.011   0.857   0.311  1.00  0.00     0.005 A 
HETATM   18  C1  UNL     1       5.290   1.540   0.640  1.00  0.00     0.068 C 
HETATM   19  N4  UNL     1       3.673   0.493  -0.935  1.00  0.00    -0.363 N 
HETATM   20  C14 UNL     1       2.490  -0.125  -1.218  1.00  0.00     0.018 A 
ATOM     21  H4  UNL     1       4.323   0.685  -1.697  1.00  0.00     0.165 HD
HETATM   22  C15 UNL     1       2.170  -0.501  -2.600  1.00  0.00     0.069 C 
ENDBRANCH   1  14
BRANCH   4  23
HETATM   23  N2  UNL     1      -1.407  -3.777  -1.656  1.00  0.00    -0.234 N 
ATOM     24  H22 UNL     1      -0.632  -4.334  -2.015  1.00  0.00     0.174 HD
ATOM     25  H21 UNL     1      -2.375  -4.092  -1.719  1.00  0.00     0.174 HD
ENDBRANCH   4  23
TORSDOF 2
