REMARK  9 active torsions:
REMARK  status: ('A' for Active; 'I' for Inactive)
REMARK    1  A    between atoms: N1_1  and  C1_4 
REMARK    2  A    between atoms: C4_11  and  S1_12 
REMARK    3  A    between atoms: S1_12  and  C5_13 
REMARK    4  A    between atoms: C5_13  and  C6_14 
REMARK    5  A    between atoms: C6_14  and  C7_15 
REMARK    6  A    between atoms: C7_15  and  C8_16 
REMARK    7  A    between atoms: C8_16  and  N4_17 
REMARK    8  A    between atoms: C9_23  and  N6_24 
REMARK    9  A    between atoms: N7_27  and  N8_28 
ROOT
HETATM    1  C1  UNL     1       5.069  -0.338   0.771  1.00  0.00     0.692 A 
HETATM    2  N2  UNL     1       3.803  -0.350   1.481  1.00  0.00    -0.183 N 
ATOM      3  H2  UNL     1       3.784  -0.575   2.476  1.00  0.00     0.184 HD
HETATM    4  C2  UNL     1       2.599  -0.053   0.808  1.00  0.00     0.140 A 
HETATM    5  C3  UNL     1       2.625   0.254  -0.551  1.00  0.00     0.178 A 
HETATM    6  N3  UNL     1       1.464   0.545  -1.215  1.00  0.00    -0.318 N 
ATOM      7  H3  UNL     1       1.499   0.769  -2.209  1.00  0.00     0.169 HD
HETATM    8  C4  UNL     1       0.280   0.541  -0.583  1.00  0.00     0.147 A 
HETATM    9  N5  UNL     1       0.236   0.249   0.719  1.00  0.00    -0.321 N 
ATOM     10  H5  UNL     1      -0.664   0.247   1.199  1.00  0.00     0.169 HD
HETATM   11  C9  UNL     1       1.379  -0.050   1.429  1.00  0.00     0.132 A 
HETATM   12  N7  UNL     1       3.854   0.267  -1.244  1.00  0.00    -0.169 N 
HETATM   13  N9  UNL     1       5.053  -0.023  -0.598  1.00  0.00    -0.110 N 
ATOM     14  H9  UNL     1       5.927  -0.007  -1.123  1.00  0.00     0.208 HD
ENDROOT
BRANCH   8  15
HETATM   15  S1  UNL     1      -1.196   0.938  -1.532  1.00  0.00    -0.094 SA
BRANCH  15  16
HETATM   16  C5  UNL     1      -2.681   0.837  -0.450  1.00  0.00     0.082 C 
BRANCH  16  17
HETATM   17  C6  UNL     1      -2.903  -0.575  -0.047  1.00  0.00     0.012 C 
BRANCH  17  18
HETATM   18  C7  UNL     1      -4.044  -0.869   0.858  1.00  0.00     0.028 C 
BRANCH  18  19
HETATM   19  C8  UNL     1      -5.409  -0.528   0.367  1.00  0.00     0.229 C 
BRANCH  19  20
HETATM   20  N4  UNL     1      -5.661   0.855   0.094  1.00  0.00    -0.079 N 
ATOM     21  H43 UNL     1      -5.443   1.413   0.919  1.00  0.00     0.274 HD
ATOM     22  H42 UNL     1      -4.962   1.209  -0.559  1.00  0.00     0.274 HD
ATOM     23  H41 UNL     1      -6.595   1.088  -0.242  1.00  0.00     0.274 HD
ENDBRANCH  19  20
ENDBRANCH  18  19
ENDBRANCH  17  18
ENDBRANCH  16  17
ENDBRANCH  15  16
ENDBRANCH   8  15
BRANCH  11  24
HETATM   24  N6  UNL     1       1.283  -0.323   2.672  1.00  0.00    -0.383 N 
ATOM     25  H62 UNL     1       2.129  -0.544   3.197  1.00  0.00     0.157 HD
ATOM     26  H61 UNL     1       0.374  -0.321   3.135  1.00  0.00     0.157 HD
ENDBRANCH  11  24
BRANCH  12  27
HETATM   27  N8  UNL     1       3.838   0.579  -2.608  1.00  0.00    -0.322 N 
ATOM     28  H82 UNL     1       2.960   0.791  -3.081  1.00  0.00     0.179 HD
ATOM     29  H81 UNL     1       4.726   0.588  -3.109  1.00  0.00     0.179 HD
ENDBRANCH  12  27
BRANCH   1  30
HETATM   30  N1  UNL     1       6.149  -0.609   1.389  1.00  0.00    -0.233 N 
ATOM     31  H12 UNL     1       6.161  -0.838   2.383  1.00  0.00     0.174 HD
ATOM     32  H11 UNL     1       7.039  -0.601   0.890  1.00  0.00     0.174 HD
ENDBRANCH   1  30
TORSDOF 9
