REMARK  14 active torsions:
REMARK  status: ('A' for Active; 'I' for Inactive)
REMARK    1  A    between atoms: O1_2  and  C2_3 
REMARK    2  A    between atoms: C2_3  and  C3_5 
REMARK    3  A    between atoms: C3_5  and  C4_7 
REMARK    4  A    between atoms: C6_10  and  O5_11 
REMARK    5  A    between atoms: C8_14  and  O6_15 
REMARK    6  A    between atoms: C10_18  and  O7_19 
REMARK    7  A    between atoms: O7_19  and  C11_20 
REMARK    8  A    between atoms: C15_25  and  C16_26 
REMARK    9  A    between atoms: C16_26  and  O9_27 
REMARK   10  A    between atoms: O9_27  and  C17_28 
REMARK   11  A    between atoms: C17_28  and  N1_29 
REMARK   12  A    between atoms: C17_28  and  C21_36 
REMARK   13  A    between atoms: C23_42  and  N6_43 
REMARK   14  A    between atoms: N6_43  and  O10_44 
ROOT
HETATM    1  N1  UNL     1       0.701  -2.036  -1.729  1.00  0.00    -0.321 N 
ATOM      2  H1  UNL     1       0.282  -2.243  -2.636  1.00  0.00     0.169 HD
HETATM    3  C18 UNL     1       0.355  -2.855  -0.846  1.00  0.00     0.197 C 
HETATM    4  C19 UNL     1       0.869  -2.710   0.505  1.00  0.00     0.129 C 
HETATM    5  N2  UNL     1       1.307  -2.587   1.570  1.00  0.00    -0.189 NA
HETATM    6  C20 UNL     1      -0.546  -3.928  -1.168  1.00  0.00     0.129 C 
HETATM    7  N3  UNL     1      -1.299  -4.795  -1.418  1.00  0.00    -0.189 NA
ENDROOT
BRANCH   1   8
HETATM    8  C17 UNL     1       1.523  -0.908  -1.768  1.00  0.00     0.150 C 
BRANCH   8   9
HETATM    9  O9  UNL     1       1.264   0.047  -0.786  1.00  0.00    -0.307 OA
BRANCH   9  10
HETATM   10  C16 UNL     1       0.191   0.885  -0.731  1.00  0.00     0.153 C 
BRANCH  10  11
HETATM   11  C15 UNL     1      -0.935   1.267  -0.483  1.00  0.00    -0.005 C 
HETATM   12  C4  UNL     1      -1.428   2.688  -0.874  1.00  0.00     0.174 C 
HETATM   13  C5  UNL     1      -2.799   2.620  -1.373  1.00  0.00     0.176 C 
HETATM   14  O4  UNL     1      -3.268   3.616  -1.942  1.00  0.00    -0.294 OA
HETATM   15  C6  UNL     1      -3.684   1.462  -1.267  1.00  0.00     0.225 C 
HETATM   16  C7  UNL     1      -3.293   0.646  -0.093  1.00  0.00     0.022 A 
HETATM   17  C8  UNL     1      -4.261   0.007   0.634  1.00  0.00     0.078 A 
HETATM   18  C14 UNL     1      -1.949   0.554   0.264  1.00  0.00    -0.012 A 
HETATM   19  C9  UNL     1      -3.912  -0.746   1.745  1.00  0.00     0.074 A 
HETATM   20  C10 UNL     1      -2.576  -0.847   2.117  1.00  0.00     0.082 A 
HETATM   21  C13 UNL     1      -1.640  -0.195   1.365  1.00  0.00     0.050 A 
BRANCH  12  22
HETATM   22  C3  UNL     1      -1.278   3.580   0.250  1.00  0.00     0.239 C 
HETATM   23  O3  UNL     1      -1.006   3.059   1.390  1.00  0.00    -0.285 OA
BRANCH  22  24
HETATM   24  C2  UNL     1      -1.406   5.003   0.219  1.00  0.00     0.330 C 
HETATM   25  O2  UNL     1      -1.640   5.604  -0.862  1.00  0.00    -0.256 OA
BRANCH  24  26
HETATM   26  O1  UNL     1      -1.282   5.806   1.351  1.00  0.00    -0.320 OA
HETATM   27  C1  UNL     1      -1.421   7.199   1.259  1.00  0.00     0.213 C 
ENDBRANCH  24  26
ENDBRANCH  22  24
ENDBRANCH  12  22
BRANCH  15  28
HETATM   28  O5  UNL     1      -5.014   1.924  -1.125  1.00  0.00    -0.383 OA
ATOM     29  H5  UNL     1      -5.589   1.171  -1.056  1.00  0.00     0.211 HD
ENDBRANCH  15  28
BRANCH  17  30
HETATM   30  O6  UNL     1      -5.602   0.093   0.291  1.00  0.00    -0.360 OA
ATOM     31  H6  UNL     1      -6.274  -0.350   0.796  1.00  0.00     0.217 HD
ENDBRANCH  17  30
BRANCH  20  32
HETATM   32  O7  UNL     1      -2.208  -1.602   3.240  1.00  0.00    -0.279 OA
BRANCH  32  33
HETATM   33  C11 UNL     1      -2.063  -2.969   3.197  1.00  0.00     0.260 C 
HETATM   34  C12 UNL     1      -1.665  -3.760   4.407  1.00  0.00     0.126 C 
HETATM   35  O8  UNL     1      -2.255  -3.615   2.141  1.00  0.00    -0.265 OA
ENDBRANCH  32  33
ENDBRANCH  20  32
ENDBRANCH  10  11
ENDBRANCH   9  10
ENDBRANCH   8   9
BRANCH   8  36
HETATM   36  C21 UNL     1       2.932  -1.147  -2.108  1.00  0.00     0.196 C 
HETATM   37  N4  UNL     1       3.024  -2.149  -3.202  1.00  0.00    -0.363 N 
HETATM   38  C22 UNL     1       4.424  -2.389  -2.787  1.00  0.00     0.110 C 
ATOM     39  H4  UNL     1       2.398  -2.511  -3.921  1.00  0.00     0.161 HD
HETATM   40  N5  UNL     1       5.624  -2.611  -2.537  1.00  0.00    -0.336 N 
HETATM   41  C24 UNL     1       3.784  -2.115  -1.389  1.00  0.00     0.286 C 
HETATM   42  C23 UNL     1       6.037  -2.488  -1.187  1.00  0.00     0.408 C 
ATOM     43  H5  UNL     1       6.281  -2.870  -3.273  1.00  0.00     0.164 HD
HETATM   44  N7  UNL     1       4.918  -1.663  -0.654  1.00  0.00    -0.024 N 
ATOM     45  H72 UNL     1       4.808  -1.707   0.359  1.00  0.00     0.282 HD
ATOM     46  H71 UNL     1       5.077  -0.657  -0.702  1.00  0.00     0.282 HD
BRANCH  42  47
HETATM   47  N6  UNL     1       7.269  -1.675  -1.156  1.00  0.00    -0.048 NA
BRANCH  47  48
HETATM   48  O10 UNL     1       6.922  -0.398  -1.556  1.00  0.00    -0.293 OA
ATOM     49  H10 UNL     1       7.715   0.125  -1.536  1.00  0.00     0.238 HD
ENDBRANCH  47  48
ENDBRANCH  42  47
ENDBRANCH   8  36
ENDBRANCH   1   8
TORSDOF 14
