REMARK  8 active torsions:
REMARK  status: ('A' for Active; 'I' for Inactive)
REMARK    1  A    between atoms: C3_5  and  N2_6 
REMARK    2  A    between atoms: C4_10  and  C5_11 
REMARK    3  A    between atoms: N3_14  and  C8_15 
REMARK    4  A    between atoms: C8_15  and  C9_16 
REMARK    5  A    between atoms: C12_19  and  C13_20 
REMARK    6  A    between atoms: C16_23  and  S2_24 
REMARK    7  A    between atoms: S2_24  and  N4_25 
REMARK    8  A    between atoms: C20_33  and  S3_34 
ROOT
HETATM    1  C9  UNL     1       0.270   0.248  -2.163  1.00  0.00    -0.014 A 
HETATM    2  C10 UNL     1       0.000  -0.886  -1.343  1.00  0.00     0.011 A 
HETATM    3  C11 UNL     1      -1.196  -1.098  -0.734  1.00  0.00     0.013 A 
HETATM    4  C12 UNL     1      -2.206  -0.168  -0.915  1.00  0.00    -0.024 A 
HETATM    5  C19 UNL     1      -1.947   0.920  -1.702  1.00  0.00     0.039 A 
HETATM    6  C20 UNL     1      -0.715   1.156  -2.342  1.00  0.00     0.089 A 
ENDROOT
BRANCH   1   7
HETATM    7  C8  UNL     1       1.616   0.376  -2.701  1.00  0.00     0.188 C 
BRANCH   7   8
HETATM    8  N3  UNL     1       2.642   0.861  -1.819  1.00  0.00    -0.299 N 
HETATM    9  C7  UNL     1       3.101   2.075  -1.603  1.00  0.00     0.113 A 
HETATM   10  C6  UNL     1       4.082   1.993  -0.644  1.00  0.00     0.051 A 
HETATM   11  C5  UNL     1       4.197   0.648  -0.284  1.00  0.00     0.068 A 
HETATM   12  N5  UNL     1       3.314   0.010  -1.015  1.00  0.00    -0.297 N 
ATOM     13  H5  UNL     1       3.156  -0.997  -0.980  1.00  0.00     0.187 HD
BRANCH  11  14
HETATM   14  C4  UNL     1       5.162   0.167   0.709  1.00  0.00     0.058 A 
HETATM   15  C2  UNL     1       5.492  -1.078   1.164  1.00  0.00     0.027 A 
HETATM   16  C1  UNL     1       4.790  -2.301   0.574  1.00  0.00     0.070 C 
HETATM   17  N1  UNL     1       6.409  -1.175   2.088  1.00  0.00    -0.340 N 
HETATM   18  C3  UNL     1       6.984  -0.070   2.547  1.00  0.00     0.143 A 
ATOM     19  H1  UNL     1       6.680  -2.088   2.453  1.00  0.00     0.168 HD
HETATM   20  S1  UNL     1       6.218   1.160   1.659  1.00  0.00    -0.050 SA
BRANCH  18  21
HETATM   21  N2  UNL     1       7.919   0.011   3.471  1.00  0.00    -0.380 N 
ATOM     22  H22 UNL     1       8.379  -0.727   4.004  1.00  0.00     0.158 HD
ATOM     23  H21 UNL     1       8.361   0.860   3.824  1.00  0.00     0.158 HD
ENDBRANCH  18  21
ENDBRANCH  11  14
ENDBRANCH   7   8
ENDBRANCH   1   7
BRANCH   6  24
HETATM   24  S3  UNL     1      -0.614   2.556  -3.302  1.00  0.00     0.138 S 
HETATM   25  O3  UNL     1      -0.174   2.259  -4.731  1.00  0.00    -0.591 OA
HETATM   26  O4  UNL     1      -2.012   3.131  -3.495  1.00  0.00    -0.591 OA
HETATM   27  O5  UNL     1       0.294   3.815  -2.693  1.00  0.00    -0.591 OA
ENDBRANCH   6  24
BRANCH   4  28
HETATM   28  C13 UNL     1      -3.498  -0.332  -0.273  1.00  0.00    -0.026 A 
HETATM   29  C14 UNL     1      -4.094  -1.539   0.009  1.00  0.00     0.014 A 
HETATM   30  C15 UNL     1      -5.320  -1.644   0.623  1.00  0.00     0.026 A 
HETATM   31  C16 UNL     1      -6.015  -0.505   0.990  1.00  0.00     0.079 A 
HETATM   32  C17 UNL     1      -5.437   0.731   0.717  1.00  0.00     0.026 A 
HETATM   33  C18 UNL     1      -4.206   0.803   0.100  1.00  0.00     0.014 A 
BRANCH  31  34
HETATM   34  S2  UNL     1      -7.562  -0.622   1.786  1.00  0.00     0.256 S 
HETATM   35  O1  UNL     1      -8.390   0.588   1.471  1.00  0.00    -0.201 OA
HETATM   36  O2  UNL     1      -8.276  -1.891   1.428  1.00  0.00    -0.201 OA
BRANCH  34  37
HETATM   37  N4  UNL     1      -7.298  -0.621   3.492  1.00  0.00    -0.324 N 
ATOM     38  H42 UNL     1      -6.385  -0.561   3.943  1.00  0.00     0.169 HD
ATOM     39  H41 UNL     1      -8.203  -0.689   3.958  1.00  0.00     0.169 HD
ENDBRANCH  34  37
ENDBRANCH  31  34
ENDBRANCH   4  28
TORSDOF 8
