REMARK  8 active torsions:
REMARK  status: ('A' for Active; 'I' for Inactive)
REMARK    1  A    between atoms: C2_2  and  C3_3 
REMARK    2  A    between atoms: C4_4  and  C5_5 
REMARK       I    between atoms: C5_5  and  N1_7 
REMARK    3  A    between atoms: C18_22  and  C19_23 
REMARK    4  A    between atoms: C19_23  and  C20_24 
REMARK    5  A    between atoms: C20_24  and  O3_25 
REMARK    6  A    between atoms: C22_28  and  N2_29 
REMARK    7  A    between atoms: N2_29  and  S2_31 
REMARK    8  A    between atoms: S2_31  and  N3_32 
ROOT
HETATM    1  C3  UNL     1      -1.210   0.289  -0.932  1.00  0.00    -0.032 C 
HETATM    2  C4  UNL     1      -1.376   0.521   0.409  1.00  0.00     0.046 C 
HETATM    3  C11 UNL     1      -0.334   0.585   1.312  1.00  0.00    -0.028 C 
HETATM    4  C12 UNL     1      -0.706   0.605   2.714  1.00  0.00     0.050 C 
HETATM    5  C13 UNL     1       1.049   0.639   1.066  1.00  0.00     0.027 A 
HETATM    6  S1  UNL     1       2.204   1.191   2.194  1.00  0.00    -0.093 SA
HETATM    7  C14 UNL     1       3.608   1.000   1.260  1.00  0.00    -0.007 A 
HETATM    8  C15 UNL     1       3.147   0.508   0.085  1.00  0.00    -0.027 A 
HETATM    9  C16 UNL     1       1.799   0.309  -0.037  1.00  0.00     0.040 A 
HETATM   10  C17 UNL     1       1.219  -0.209  -1.219  1.00  0.00     0.191 C 
HETATM   11  O2  UNL     1       2.031  -0.646  -2.084  1.00  0.00    -0.287 OA
HETATM   12  C18 UNL     1      -0.112  -0.313  -1.582  1.00  0.00     0.002 C 
HETATM   13  C21 UNL     1       4.364   0.309  -0.814  1.00  0.00     0.067 C 
HETATM   14  C22 UNL     1       5.520   0.926  -0.134  1.00  0.00     0.103 C 
HETATM   15  C23 UNL     1       5.089   1.186   1.286  1.00  0.00     0.073 C 
ENDROOT
BRANCH   2  16
HETATM   16  C5  UNL     1      -2.659   0.719   0.990  1.00  0.00     0.254 C 
HETATM   17  O1  UNL     1      -3.044   1.956   0.950  1.00  0.00    -0.267 OA
HETATM   18  N1  UNL     1      -3.559  -0.164   1.590  1.00  0.00    -0.348 N 
HETATM   19  C6  UNL     1      -4.834   0.373   2.099  1.00  0.00     0.126 C 
HETATM   20  C10 UNL     1      -3.396  -1.577   1.810  1.00  0.00     0.126 C 
HETATM   21  C7  UNL     1      -6.011  -0.197   1.343  1.00  0.00     0.020 C 
HETATM   22  C8  UNL     1      -5.790  -1.658   1.013  1.00  0.00     0.003 C 
HETATM   23  C9  UNL     1      -4.715  -2.260   1.894  1.00  0.00     0.020 C 
ENDBRANCH   2  16
BRANCH   1  24
HETATM   24  C2  UNL     1      -2.275   0.777  -1.798  1.00  0.00     0.036 C 
HETATM   25  C1  UNL     1      -3.480  -0.108  -1.767  1.00  0.00     0.010 C 
ENDBRANCH   1  24
BRANCH  12  26
HETATM   26  C19 UNL     1      -0.388  -1.139  -2.748  1.00  0.00     0.069 C 
BRANCH  26  27
HETATM   27  C20 UNL     1      -0.796  -2.554  -2.402  1.00  0.00     0.168 C 
BRANCH  27  28
HETATM   28  O3  UNL     1      -1.048  -3.258  -3.604  1.00  0.00    -0.401 OA
ATOM     29  H3  UNL     1      -1.304  -4.147  -3.387  1.00  0.00     0.209 HD
ENDBRANCH  27  28
ENDBRANCH  26  27
ENDBRANCH  12  26
BRANCH  14  30
HETATM   30  N2  UNL     1       6.056   2.096  -0.775  1.00  0.00    -0.298 N 
ATOM     31  H2  UNL     1       5.475   2.911  -0.972  1.00  0.00     0.174 HD
BRANCH  30  32
HETATM   32  S2  UNL     1       7.687   2.055  -1.184  1.00  0.00     0.313 S 
HETATM   33  O4  UNL     1       8.092   0.621  -1.451  1.00  0.00    -0.183 OA
HETATM   34  O5  UNL     1       8.041   2.831  -2.414  1.00  0.00    -0.183 OA
BRANCH  32  35
HETATM   35  N3  UNL     1       8.742   2.629   0.078  1.00  0.00    -0.312 N 
ATOM     36  H32 UNL     1       8.388   2.956   0.977  1.00  0.00     0.170 HD
ATOM     37  H31 UNL     1       9.731   2.604  -0.170  1.00  0.00     0.170 HD
ENDBRANCH  32  35
ENDBRANCH  30  32
ENDBRANCH  14  30
TORSDOF 8
