REMARK  7 active torsions:
REMARK  status: ('A' for Active; 'I' for Inactive)
REMARK    1  A    between atoms: C1_2  and  C2_3 
REMARK       I    between atoms: C1_2  and  N8_37 
REMARK    2  A    between atoms: C2_3  and  C3_4 
REMARK    3  A    between atoms: C3_4  and  C4_5 
REMARK    4  A    between atoms: C7_10  and  C8_11 
REMARK    5  A    between atoms: C8_11  and  N2_12 
REMARK    6  A    between atoms: N2_12  and  C9_14 
REMARK    7  A    between atoms: C12_23  and  C13_24 
REMARK       I    between atoms: C13_24  and  N6_26 
ROOT
HETATM    1  C9  UNL     1      -1.590   1.145   0.855  1.00  0.00     0.122 A 
HETATM    2  N3  UNL     1      -0.927   2.281   1.138  1.00  0.00    -0.338 N 
ATOM      3  H3  UNL     1       0.035   2.223   1.471  1.00  0.00     0.168 HD
HETATM    4  C10 UNL     1      -1.500   3.501   0.993  1.00  0.00     0.183 A 
HETATM    5  N4  UNL     1      -2.774   3.590   0.553  1.00  0.00    -0.338 N 
ATOM      6  H4  UNL     1      -3.198   4.512   0.447  1.00  0.00     0.168 HD
HETATM    7  C11 UNL     1      -3.501   2.499   0.250  1.00  0.00     0.127 A 
HETATM    8  N5  UNL     1      -4.769   2.575  -0.188  1.00  0.00    -0.323 N 
ATOM      9  H5  UNL     1      -5.189   3.499  -0.292  1.00  0.00     0.169 HD
HETATM   10  C12 UNL     1      -5.517   1.496  -0.497  1.00  0.00     0.179 A 
HETATM   11  N7  UNL     1      -4.929   0.298  -0.346  1.00  0.00    -0.304 N 
ATOM     12  H7  UNL     1      -5.465  -0.540  -0.570  1.00  0.00     0.171 HD
HETATM   13  C18 UNL     1      -3.657   0.154   0.090  1.00  0.00     0.264 A 
HETATM   14  O4  UNL     1      -3.117  -0.966   0.229  1.00  0.00    -0.267 OA
HETATM   15  C19 UNL     1      -2.902   1.265   0.403  1.00  0.00     0.120 A 
ENDROOT
BRANCH   1  16
HETATM   16  N2  UNL     1      -1.030  -0.024   0.996  1.00  0.00    -0.370 N 
ATOM     17  H2  UNL     1      -1.533  -0.885   0.782  1.00  0.00     0.161 HD
BRANCH  16  18
HETATM   18  C8  UNL     1       0.337  -0.046   1.469  1.00  0.00     0.178 C 
BRANCH  18  19
HETATM   19  C7  UNL     1       0.894  -1.433   1.447  1.00  0.00     0.033 A 
HETATM   20  C4  UNL     1       2.175  -1.764   1.847  1.00  0.00    -0.032 A 
HETATM   21  C5  UNL     1       2.291  -3.125   1.671  1.00  0.00     0.026 A 
HETATM   22  C6  UNL     1       1.087  -3.569   1.175  1.00  0.00     0.089 A 
HETATM   23  N1  UNL     1       0.232  -2.529   1.039  1.00  0.00    -0.367 N 
ATOM     24  H1  UNL     1      -0.727  -2.569   0.694  1.00  0.00     0.165 HD
BRANCH  20  25
HETATM   25  C3  UNL     1       3.217  -0.882   2.368  1.00  0.00     0.050 C 
BRANCH  25  26
HETATM   26  C2  UNL     1       3.910  -0.016   1.378  1.00  0.00     0.108 C 
BRANCH  26  27
HETATM   27  C1  UNL     1       4.627  -0.706   0.304  1.00  0.00     0.222 C 
HETATM   28  O1  UNL     1       4.729  -1.956   0.239  1.00  0.00    -0.273 OA
HETATM   29  N8  UNL     1       5.262   0.021  -0.746  1.00  0.00    -0.334 N 
HETATM   30  C20 UNL     1       6.508   0.261  -0.789  1.00  0.00    -0.011 C 
ATOM     31  H8  UNL     1       4.680   0.369  -1.508  1.00  0.00     0.168 HD
HETATM   32  C21 UNL     1       7.085   1.022  -1.914  1.00  0.00     0.052 C 
HETATM   33  C25 UNL     1       7.404  -0.212   0.280  1.00  0.00     0.052 C 
HETATM   34  C22 UNL     1       8.603   0.983  -1.713  1.00  0.00     0.006 C 
HETATM   35  C23 UNL     1       9.066  -0.420  -1.502  1.00  0.00     0.001 C 
HETATM   36  C24 UNL     1       8.428  -1.131  -0.345  1.00  0.00     0.006 C 
ENDBRANCH  26  27
ENDBRANCH  25  26
ENDBRANCH  20  25
ENDBRANCH  18  19
ENDBRANCH  16  18
ENDBRANCH   1  16
BRANCH  10  37
HETATM   37  C13 UNL     1      -6.896   1.633  -0.972  1.00  0.00     0.288 C 
HETATM   38  O2  UNL     1      -7.361   2.818  -1.084  1.00  0.00    -0.264 OA
HETATM   39  N6  UNL     1      -7.686   0.503  -1.296  1.00  0.00    -0.342 N 
HETATM   40  C14 UNL     1      -7.242  -0.868  -1.198  1.00  0.00     0.152 C 
HETATM   41  C17 UNL     1      -9.045   0.706  -1.764  1.00  0.00     0.152 C 
HETATM   42  C15 UNL     1      -8.428  -1.710  -1.698  1.00  0.00     0.187 C 
HETATM   43  O3  UNL     1      -9.555  -1.477  -0.931  1.00  0.00    -0.388 OA
HETATM   44  C16 UNL     1      -9.936  -0.152  -0.886  1.00  0.00     0.187 C 
ENDBRANCH  10  37
TORSDOF 7
