REMARK  8 active torsions:
REMARK  status: ('A' for Active; 'I' for Inactive)
REMARK    1  A    between atoms: N1_2  and  C2_4 
REMARK    2  A    between atoms: C4_8  and  N3_9 
REMARK    3  A    between atoms: N3_9  and  C5_11 
REMARK    4  A    between atoms: C5_11  and  C6_12 
REMARK    5  A    between atoms: C6_12  and  C7_13 
REMARK    6  A    between atoms: C7_13  and  N4_14 
REMARK    7  A    between atoms: N5_20  and  S1_21 
REMARK    8  A    between atoms: S1_21  and  C13_24 
ROOT
HETATM    1  C6  UNL     1       2.139   0.889  -0.884  1.00  0.00     0.050 C 
ENDROOT
BRANCH   1   2
HETATM    2  C5  UNL     1       2.743   1.176   0.434  1.00  0.00     0.123 C 
BRANCH   2   3
HETATM    3  N3  UNL     1       4.165   0.866   0.331  1.00  0.00    -0.373 N 
ATOM      4  H3  UNL     1       4.798   1.637   0.118  1.00  0.00     0.161 HD
BRANCH   3   5
HETATM    5  C4  UNL     1       4.682  -0.291   0.485  1.00  0.00     0.144 A 
HETATM    6  C3  UNL     1       6.064  -0.470   0.360  1.00  0.00     0.091 A 
HETATM    7  N2  UNL     1       6.823   0.587   0.075  1.00  0.00    -0.339 N 
HETATM    8  C21 UNL     1       6.664  -1.696   0.521  1.00  0.00     0.012 A 
HETATM    9  C2  UNL     1       8.150   0.459  -0.054  1.00  0.00     0.107 A 
ATOM     10  H2  UNL     1       6.390   1.502  -0.046  1.00  0.00     0.167 HD
HETATM   11  C23 UNL     1       8.799  -0.754   0.099  1.00  0.00    -0.017 A 
HETATM   12  C22 UNL     1       8.034  -1.854   0.393  1.00  0.00     0.026 A 
HETATM   13  C24 UNL     1      10.293  -0.849  -0.055  1.00  0.00     0.052 C 
HETATM   14  C20 UNL     1       5.841  -2.770   0.815  1.00  0.00     0.121 A 
HETATM   15  N8  UNL     1       4.519  -2.586   0.932  1.00  0.00    -0.309 N 
HETATM   16  N7  UNL     1       3.969  -1.372   0.768  1.00  0.00    -0.284 N 
ATOM     17  H8  UNL     1       3.920  -3.382   1.150  1.00  0.00     0.186 HD
ATOM     18  H7  UNL     1       2.958  -1.278   0.865  1.00  0.00     0.188 HD
BRANCH   9  19
HETATM   19  N1  UNL     1       8.901   1.470  -0.330  1.00  0.00    -0.380 N 
HETATM   20  C1  UNL     1       8.371   2.799  -0.519  1.00  0.00     0.147 C 
ATOM     21  H1  UNL     1       9.907   1.325  -0.418  1.00  0.00     0.160 HD
ENDBRANCH   9  19
ENDBRANCH   3   5
ENDBRANCH   2   3
ENDBRANCH   1   2
BRANCH   1  22
HETATM   22  C7  UNL     1       0.687   1.167  -1.091  1.00  0.00     0.275 C 
BRANCH  22  23
HETATM   23  N4  UNL     1      -0.159   0.499  -0.247  1.00  0.00     0.098 N 
HETATM   24  C8  UNL     1      -0.202   0.933   1.119  1.00  0.00     0.276 C 
HETATM   25  C9  UNL     1      -1.651   1.342   0.891  1.00  0.00     0.072 C 
HETATM   26  C10 UNL     1      -1.538   0.393  -0.295  1.00  0.00     0.163 C 
HETATM   27  C11 UNL     1      -1.994  -0.999   0.172  1.00  0.00     0.057 C 
HETATM   28  C19 UNL     1      -2.340   0.841  -1.440  1.00  0.00     0.057 C 
HETATM   29  C12 UNL     1      -3.499  -1.050   0.291  1.00  0.00     0.110 C 
HETATM   30  N5  UNL     1      -4.167  -0.675  -0.914  1.00  0.00    -0.210 NA
HETATM   31  C18 UNL     1      -3.266  -0.270  -1.944  1.00  0.00     0.110 C 
BRANCH  30  32
HETATM   32  S1  UNL     1      -5.505   0.356  -0.714  1.00  0.00     0.215 S 
HETATM   33  O1  UNL     1      -5.181   1.658  -0.041  1.00  0.00    -0.211 OA
HETATM   34  O2  UNL     1      -6.078   0.644  -2.073  1.00  0.00    -0.211 OA
BRANCH  32  35
HETATM   35  C13 UNL     1      -6.793  -0.398   0.269  1.00  0.00     0.127 C 
HETATM   36  C14 UNL     1      -7.842   0.680   0.465  1.00  0.00     0.049 C 
HETATM   37  C15 UNL     1      -9.159   0.159   0.937  1.00  0.00     0.233 C 
HETATM   38  N6  UNL     1      -9.541  -1.100   0.370  1.00  0.00    -0.075 N 
HETATM   39  C16 UNL     1      -8.774  -1.428  -0.804  1.00  0.00     0.233 C 
ATOM     40  H62 UNL     1      -9.490  -1.846   1.063  1.00  0.00     0.277 HD
ATOM     41  H61 UNL     1     -10.542  -1.127   0.175  1.00  0.00     0.277 HD
HETATM   42  C17 UNL     1      -7.341  -1.638  -0.390  1.00  0.00     0.049 C 
ENDBRANCH  32  35
ENDBRANCH  30  32
ENDBRANCH  22  23
ENDBRANCH   1  22
TORSDOF 8
