REMARK  17 active torsions:
REMARK  status: ('A' for Active; 'I' for Inactive)
REMARK    1  A    between atoms: C2_2  and  C3_3 
REMARK    2  A    between atoms: C5_5  and  C6_6 
REMARK    3  A    between atoms: C6_6  and  C7_7 
REMARK    4  A    between atoms: C9_9  and  O1_10 
REMARK    5  A    between atoms: C11_13  and  C12_14 
REMARK    6  A    between atoms: C12_14  and  C13_15 
REMARK    7  A    between atoms: C14_16  and  C15_17 
REMARK    8  A    between atoms: C15_17  and  C16_18 
REMARK    9  A    between atoms: C17_19  and  C18_20 
REMARK   10  A    between atoms: C18_20  and  S1_21 
REMARK   11  A    between atoms: S1_21  and  C19_22 
REMARK   12  A    between atoms: C19_22  and  O2_23 
REMARK   13  A    between atoms: C19_22  and  C23_28 
REMARK   14  A    between atoms: O2_23  and  O3_24 
REMARK   15  A    between atoms: O3_24  and  C20_25 
REMARK   16  A    between atoms: C23_28  and  O4_29 
REMARK   17  A    between atoms: C23_28  and  C24_31 
ROOT
HETATM    1  C13 UNL     1      -1.627  -1.801  -0.221  1.00  0.00    -0.026 C 
HETATM    2  C14 UNL     1      -0.384  -1.720   0.133  1.00  0.00    -0.027 C 
ENDROOT
BRANCH   2   3
HETATM    3  C15 UNL     1       0.409  -0.486   0.147  1.00  0.00     0.053 C 
BRANCH   3   4
HETATM    4  C16 UNL     1       1.583  -0.573  -0.759  1.00  0.00    -0.026 C 
HETATM    5  C17 UNL     1       2.797  -0.455  -0.350  1.00  0.00    -0.020 C 
BRANCH   5   6
HETATM    6  C18 UNL     1       3.237  -0.223   1.017  1.00  0.00     0.103 C 
BRANCH   6   7
HETATM    7  S1  UNL     1       4.154   1.349   1.107  1.00  0.00    -0.124 SA
BRANCH   7   8
HETATM    8  C19 UNL     1       5.703   1.101   0.129  1.00  0.00     0.278 C 
BRANCH   8   9
HETATM    9  O2  UNL     1       6.447   0.188   0.795  1.00  0.00    -0.218 OA
BRANCH   9  10
HETATM   10  O3  UNL     1       6.588  -0.948   0.203  1.00  0.00    -0.235 OA
BRANCH  10  11
HETATM   11  C20 UNL     1       7.251  -0.946  -0.998  1.00  0.00     0.152 C 
HETATM   12  C21 UNL     1       8.563  -1.687  -0.838  1.00  0.00     0.042 C 
HETATM   13  C22 UNL     1       6.383  -1.591  -2.061  1.00  0.00     0.042 C 
ENDBRANCH  10  11
ENDBRANCH   9  10
ENDBRANCH   8   9
BRANCH   8  14
HETATM   14  C23 UNL     1       6.278   2.403  -0.175  1.00  0.00     0.090 C 
BRANCH  14  15
HETATM   15  O4  UNL     1       5.549   3.261  -0.845  1.00  0.00    -0.361 OA
ATOM     16  H4  UNL     1       5.924   4.111  -1.043  1.00  0.00     0.217 HD
ENDBRANCH  14  15
BRANCH  14  17
HETATM   17  C24 UNL     1       7.585   2.861   0.187  1.00  0.00    -0.039 C 
HETATM   18  C25 UNL     1       8.521   2.241   0.847  1.00  0.00     0.021 C 
HETATM   19  C26 UNL     1       7.981   4.283  -0.243  1.00  0.00     0.050 C 
ENDBRANCH  14  17
ENDBRANCH   8  14
ENDBRANCH   7   8
ENDBRANCH   6   7
ENDBRANCH   5   6
ENDBRANCH   3   4
ENDBRANCH   2   3
BRANCH   1  20
HETATM   20  C12 UNL     1      -2.438  -0.661  -0.666  1.00  0.00     0.065 C 
BRANCH  20  21
HETATM   21  C11 UNL     1      -3.623  -0.445   0.228  1.00  0.00    -0.052 A 
HETATM   22  C10 UNL     1      -3.474   0.382   1.313  1.00  0.00     0.044 A 
HETATM   23  C9  UNL     1      -4.598   0.563   2.116  1.00  0.00     0.066 A 
HETATM   24  C8  UNL     1      -5.791  -0.085   1.791  1.00  0.00     0.044 A 
HETATM   25  C7  UNL     1      -5.903  -0.903   0.702  1.00  0.00    -0.052 A 
HETATM   26  C27 UNL     1      -4.786  -1.084  -0.098  1.00  0.00     0.015 A 
BRANCH  23  27
HETATM   27  O1  UNL     1      -4.495   1.382   3.213  1.00  0.00    -0.361 OA
ATOM     28  H1  UNL     1      -3.683   1.823   3.434  1.00  0.00     0.217 HD
ENDBRANCH  23  27
BRANCH  25  29
HETATM   29  C6  UNL     1      -7.156  -1.611   0.314  1.00  0.00     0.066 C 
BRANCH  29  30
HETATM   30  C5  UNL     1      -7.894  -0.745  -0.633  1.00  0.00    -0.015 C 
HETATM   31  C3  UNL     1      -9.101  -0.266  -0.450  1.00  0.00    -0.066 C 
HETATM   32  C4  UNL     1      -9.676   0.601  -1.541  1.00  0.00     0.048 C 
BRANCH  31  33
HETATM   33  C2  UNL     1      -9.914  -0.515   0.731  1.00  0.00    -0.004 C 
HETATM   34  C1  UNL     1     -11.134   0.007   0.848  1.00  0.00     0.012 C 
ENDBRANCH  31  33
ENDBRANCH  29  30
ENDBRANCH  25  29
ENDBRANCH  20  21
ENDBRANCH   1  20
TORSDOF 17
