REMARK  14 active torsions:
REMARK  status: ('A' for Active; 'I' for Inactive)
REMARK    1  A    between atoms: C2_2  and  S1_3 
REMARK    2  A    between atoms: S1_3  and  N1_6 
REMARK    3  A    between atoms: N1_6  and  C3_7 
REMARK    4  A    between atoms: N1_6  and  C7_15 
REMARK    5  A    between atoms: C3_7  and  C4_8 
REMARK    6  A    between atoms: C4_8  and  C5_9 
REMARK    7  A    between atoms: C5_9  and  O3_13 
REMARK    8  A    between atoms: C7_15  and  C8_16 
REMARK    9  A    between atoms: C8_16  and  C10_18 
REMARK   10  A    between atoms: C8_16  and  N4_27 
REMARK   11  A    between atoms: C10_18  and  S2_19 
REMARK   12  A    between atoms: S2_19  and  C11_20 
REMARK       I    between atoms: C11_20  and  N3_22 
REMARK       I    between atoms: N4_27  and  C16_29 
REMARK       I    between atoms: C16_29  and  N5_31 
REMARK   13  A    between atoms: C21_36  and  C22_37 
REMARK   14  A    between atoms: C22_37  and  N6_38 
ROOT
HETATM    1  C8  UNL     1      -0.802   0.678  -0.446  1.00  0.00     0.073 C 
HETATM    2  C9  UNL     1      -0.508   0.175  -1.869  1.00  0.00     0.045 C 
ENDROOT
BRANCH   1   3
HETATM    3  C7  UNL     1      -1.767  -0.196   0.253  1.00  0.00     0.112 C 
BRANCH   3   4
HETATM    4  N1  UNL     1      -1.513  -1.532   0.516  1.00  0.00    -0.267 N 
BRANCH   4   5
HETATM    5  S1  UNL     1      -1.342  -1.884   2.154  1.00  0.00     0.235 S 
HETATM    6  O1  UNL     1      -0.874  -0.674   2.899  1.00  0.00    -0.205 OA
HETATM    7  O2  UNL     1      -2.718  -2.195   2.762  1.00  0.00    -0.205 OA
BRANCH   5   8
HETATM    8  C2  UNL     1      -0.328  -3.267   2.528  1.00  0.00     0.159 C 
HETATM    9  C1  UNL     1      -0.253  -3.481   4.030  1.00  0.00     0.023 C 
ENDBRANCH   5   8
ENDBRANCH   4   5
BRANCH   4  10
HETATM   10  C3  UNL     1      -2.106  -2.500  -0.303  1.00  0.00     0.089 C 
BRANCH  10  11
HETATM   11  C4  UNL     1      -3.614  -2.442  -0.427  1.00  0.00     0.129 C 
BRANCH  11  12
HETATM   12  C5  UNL     1      -4.076  -3.547  -1.325  1.00  0.00     0.115 C 
HETATM   13  N2  UNL     1      -4.709  -3.278  -2.412  1.00  0.00    -0.383 N 
ATOM     14  H22 UNL     1      -4.875  -2.295  -2.625  1.00  0.00     0.157 HD
ATOM     15  H21 UNL     1      -5.024  -4.031  -3.024  1.00  0.00     0.157 HD
BRANCH  12  16
HETATM   16  O3  UNL     1      -3.852  -4.871  -1.038  1.00  0.00    -0.344 OA
HETATM   17  C6  UNL     1      -3.993  -5.906  -1.997  1.00  0.00     0.211 C 
ENDBRANCH  12  16
ENDBRANCH  11  12
ENDBRANCH  10  11
ENDBRANCH   4  10
ENDBRANCH   3   4
ENDBRANCH   1   3
BRANCH   1  18
HETATM   18  C10 UNL     1      -1.531   2.020  -0.696  1.00  0.00     0.120 C 
BRANCH  18  19
HETATM   19  S2  UNL     1      -2.978   1.802  -1.689  1.00  0.00    -0.066 SA
BRANCH  19  20
HETATM   20  C11 UNL     1      -3.890   3.209  -2.149  1.00  0.00     0.281 C 
HETATM   21  O4  UNL     1      -4.959   2.995  -2.838  1.00  0.00    -0.260 OA
HETATM   22  N3  UNL     1      -3.591   4.548  -1.853  1.00  0.00    -0.343 N 
HETATM   23  C12 UNL     1      -4.434   5.701  -2.299  1.00  0.00     0.126 C 
HETATM   24  C15 UNL     1      -2.529   5.203  -1.133  1.00  0.00     0.126 C 
HETATM   25  C13 UNL     1      -4.582   6.438  -0.989  1.00  0.00     0.021 C 
HETATM   26  C14 UNL     1      -3.113   6.505  -0.561  1.00  0.00     0.021 C 
ENDBRANCH  19  20
ENDBRANCH  18  19
ENDBRANCH   1  18
BRANCH   1  27
HETATM   27  N4  UNL     1       0.458   0.945   0.136  1.00  0.00    -0.329 N 
HETATM   28  C16 UNL     1       1.540   0.058   0.353  1.00  0.00     0.319 C 
HETATM   29  O5  UNL     1       1.423  -1.135  -0.008  1.00  0.00    -0.247 OA
HETATM   30  N5  UNL     1       2.758   0.462   0.965  1.00  0.00    -0.328 N 
HETATM   31  C17 UNL     1       2.876   1.828   1.375  1.00  0.00     0.128 C 
HETATM   32  C21 UNL     1       3.797  -0.529   1.133  1.00  0.00     0.117 C 
HETATM   33  C18 UNL     1       4.176   2.239   1.946  1.00  0.00     0.020 C 
HETATM   34  C19 UNL     1       5.282   1.249   1.864  1.00  0.00     0.004 C 
HETATM   35  C20 UNL     1       4.770  -0.116   2.193  1.00  0.00     0.027 C 
ATOM     36  H4  UNL     1       0.608   1.907   0.441  1.00  0.00     0.165 HD
BRANCH  32  37
HETATM   37  C22 UNL     1       4.542  -0.783  -0.169  1.00  0.00     0.296 C 
BRANCH  37  38
HETATM   38  N6  UNL     1       5.558  -1.797   0.132  1.00  0.00     0.082 N 
HETATM   39  C23 UNL     1       4.949  -3.070   0.425  1.00  0.00     0.309 C 
HETATM   40  C24 UNL     1       6.489  -1.978  -0.940  1.00  0.00     0.309 C 
ENDBRANCH  37  38
ENDBRANCH  32  37
ENDBRANCH   1  27
TORSDOF 14
