REMARK  13 active torsions:
REMARK  status: ('A' for Active; 'I' for Inactive)
REMARK    1  A    between atoms: C4_4  and  S1_5 
REMARK    2  A    between atoms: S1_5  and  N1_6 
REMARK    3  A    between atoms: C5_11  and  N2_12 
REMARK    4  A    between atoms: N2_12  and  S2_14 
REMARK    5  A    between atoms: C8_19  and  S3_20 
REMARK    6  A    between atoms: S3_20  and  C9_23 
REMARK    7  A    between atoms: C9_23  and  C12_26 
REMARK    8  A    between atoms: C12_26  and  C13_27 
REMARK    9  A    between atoms: C13_27  and  C14_28 
REMARK   10  A    between atoms: C14_28  and  C15_29 
REMARK   11  A    between atoms: C15_29  and  C16_30 
REMARK   12  A    between atoms: C16_30  and  O7_31 
REMARK   13  A    between atoms: O7_31  and  C17_32 
ROOT
HETATM    1  C1  UNL     1      -2.990  -2.156   2.672  1.00  0.00     0.050 C 
HETATM    2  C2  UNL     1      -3.916  -1.705   1.592  1.00  0.00    -0.039 A 
HETATM    3  C3  UNL     1      -5.288  -1.670   1.915  1.00  0.00     0.036 A 
HETATM    4  C4  UNL     1      -6.246  -1.354   0.999  1.00  0.00     0.107 A 
HETATM    5  C5  UNL     1      -5.821  -1.066  -0.274  1.00  0.00     0.067 A 
HETATM    6  C7  UNL     1      -4.489  -1.097  -0.594  1.00  0.00     0.055 A 
HETATM    7  C8  UNL     1      -3.471  -1.421   0.338  1.00  0.00     0.068 A 
ENDROOT
BRANCH   7   8
HETATM    8  S3  UNL     1      -1.829  -1.339  -0.111  1.00  0.00     0.184 S 
HETATM    9  O5  UNL     1      -0.936  -2.411   0.384  1.00  0.00    -0.222 OA
HETATM   10  O6  UNL     1      -1.787  -1.487  -1.649  1.00  0.00    -0.222 OA
BRANCH   8  11
HETATM   11  C9  UNL     1      -0.996   0.214   0.229  1.00  0.00     0.061 C 
HETATM   12  C10 UNL     1      -1.029   0.618   1.651  1.00  0.00     0.032 C 
HETATM   13  C11 UNL     1      -1.775   1.291  -0.546  1.00  0.00     0.032 C 
BRANCH  11  14
HETATM   14  C12 UNL     1       0.379   0.071  -0.305  1.00  0.00     0.025 C 
BRANCH  14  15
HETATM   15  C13 UNL     1       1.392   1.110  -0.226  1.00  0.00     0.002 C 
BRANCH  15  16
HETATM   16  C14 UNL     1       1.930   1.522   1.097  1.00  0.00     0.002 C 
BRANCH  16  17
HETATM   17  C15 UNL     1       2.996   2.622   0.939  1.00  0.00     0.026 C 
BRANCH  17  18
HETATM   18  C16 UNL     1       4.165   2.152   0.098  1.00  0.00     0.168 C 
BRANCH  18  19
HETATM   19  O7  UNL     1       4.718   1.063   0.723  1.00  0.00    -0.381 OA
BRANCH  19  20
HETATM   20  C17 UNL     1       5.794   0.488   0.094  1.00  0.00     0.057 C 
HETATM   21  C18 UNL     1       6.259  -0.702   0.945  1.00  0.00     0.046 C 
HETATM   22  C19 UNL     1       5.395  -0.124  -1.247  1.00  0.00     0.037 C 
HETATM   23  C20 UNL     1       6.590  -0.821  -1.831  1.00  0.00     0.003 C 
HETATM   24  C21 UNL     1       7.701   0.172  -2.090  1.00  0.00     0.000 C 
HETATM   25  C22 UNL     1       8.095   0.831  -0.795  1.00  0.00     0.003 C 
HETATM   26  C23 UNL     1       6.922   1.465  -0.078  1.00  0.00     0.037 C 
ENDBRANCH  19  20
ENDBRANCH  18  19
ENDBRANCH  17  18
ENDBRANCH  16  17
ENDBRANCH  15  16
ENDBRANCH  14  15
ENDBRANCH  11  14
ENDBRANCH   8  11
ENDBRANCH   7   8
BRANCH   5  27
HETATM   27  N2  UNL     1      -6.784  -0.731  -1.261  1.00  0.00    -0.283 N 
ATOM     28  H2  UNL     1      -7.770  -0.717  -0.999  1.00  0.00     0.178 HD
BRANCH  27  29
HETATM   29  S2  UNL     1      -6.353  -0.347  -2.885  1.00  0.00     0.227 S 
HETATM   30  C6  UNL     1      -5.325   1.072  -2.997  1.00  0.00     0.186 C 
HETATM   31  O3  UNL     1      -5.673  -1.526  -3.544  1.00  0.00    -0.206 OA
HETATM   32  O4  UNL     1      -7.609  -0.091  -3.665  1.00  0.00    -0.206 OA
ENDBRANCH  27  29
ENDBRANCH   5  27
BRANCH   4  33
HETATM   33  S1  UNL     1      -7.948  -1.330   1.469  1.00  0.00     0.259 S 
HETATM   34  O1  UNL     1      -8.516   0.027   1.225  1.00  0.00    -0.201 OA
HETATM   35  O2  UNL     1      -8.021  -1.676   2.938  1.00  0.00    -0.201 OA
BRANCH  33  36
HETATM   36  N1  UNL     1      -8.866  -2.467   0.548  1.00  0.00    -0.324 N 
ATOM     37  H12 UNL     1      -8.462  -3.068  -0.171  1.00  0.00     0.169 HD
ATOM     38  H11 UNL     1      -9.849  -2.453   0.819  1.00  0.00     0.169 HD
ENDBRANCH  33  36
ENDBRANCH   4  33
TORSDOF 13
