REMARK  14 active torsions:
REMARK  status: ('A' for Active; 'I' for Inactive)
REMARK    1  A    between atoms: C2_2  and  C3_3 
REMARK    2  A    between atoms: C3_3  and  C4_4 
REMARK    3  A    between atoms: C4_4  and  C5_5 
REMARK    4  A    between atoms: C5_5  and  C6_6 
REMARK    5  A    between atoms: C5_5  and  C8_8 
REMARK    6  A    between atoms: C8_8  and  O1_9 
REMARK    7  A    between atoms: C8_8  and  C24_36 
REMARK    8  A    between atoms: O1_9  and  C9_10 
REMARK    9  A    between atoms: C9_10  and  C10_12 
REMARK       I    between atoms: C10_12  and  N1_14 
REMARK       I    between atoms: N1_14  and  C11_16 
REMARK   10  A    between atoms: C11_16  and  C12_18 
REMARK   11  A    between atoms: C17_25  and  N3_26 
REMARK       I    between atoms: N3_26  and  C18_28 
REMARK   12  A    between atoms: C24_36  and  C25_38 
REMARK   13  A    between atoms: C25_38  and  C26_39 
REMARK   14  A    between atoms: C26_39  and  C27_40 
ROOT
HETATM    1  C10 UNL     1       0.062  -0.590  -0.583  1.00  0.00     0.323 C 
HETATM    2  O3  UNL     1       0.159  -1.092   0.550  1.00  0.00    -0.261 OA
HETATM    3  N1  UNL     1       1.193  -0.449  -1.415  1.00  0.00    -0.289 N 
ATOM      4  H1  UNL     1       1.020  -0.026  -2.327  1.00  0.00     0.172 HD
HETATM    5  C11 UNL     1       2.512  -0.809  -1.160  1.00  0.00     0.229 C 
HETATM    6  O4  UNL     1       3.382  -0.621  -2.073  1.00  0.00    -0.273 OA
ENDROOT
BRANCH   1   7
HETATM    7  C9  UNL     1      -1.258  -0.149  -1.030  1.00  0.00     0.352 C 
HETATM    8  O2  UNL     1      -1.468   0.368  -2.146  1.00  0.00    -0.254 OA
BRANCH   7   9
HETATM    9  O1  UNL     1      -2.384  -0.296  -0.188  1.00  0.00    -0.300 OA
BRANCH   9  10
HETATM   10  C8  UNL     1      -3.667   0.142  -0.646  1.00  0.00     0.205 C 
BRANCH  10  11
HETATM   11  C5  UNL     1      -4.380   1.027   0.316  1.00  0.00     0.022 C 
BRANCH  11  12
HETATM   12  C4  UNL     1      -5.733   1.466  -0.258  1.00  0.00     0.007 C 
BRANCH  12  13
HETATM   13  C3  UNL     1      -6.525   2.283   0.747  1.00  0.00     0.000 C 
BRANCH  13  14
HETATM   14  C2  UNL     1      -7.861   2.651   0.075  1.00  0.00    -0.005 C 
HETATM   15  C1  UNL     1      -8.696   3.465   1.020  1.00  0.00     0.005 C 
ENDBRANCH  13  14
ENDBRANCH  12  13
ENDBRANCH  11  12
BRANCH  11  16
HETATM   16  C6  UNL     1      -3.587   2.239   0.701  1.00  0.00     0.003 C 
HETATM   17  C7  UNL     1      -2.279   1.933   1.323  1.00  0.00     0.005 C 
ENDBRANCH  11  16
ENDBRANCH  10  11
BRANCH  10  18
HETATM   18  C24 UNL     1      -4.377  -1.153  -0.935  1.00  0.00     0.157 C 
HETATM   19  O6  UNL     1      -5.460  -1.205  -1.455  1.00  0.00    -0.295 OA
BRANCH  18  20
HETATM   20  C25 UNL     1      -3.752  -2.470  -0.579  1.00  0.00     0.088 C 
BRANCH  20  21
HETATM   21  C26 UNL     1      -4.633  -3.626  -0.955  1.00  0.00     0.085 C 
BRANCH  21  22
HETATM   22  C27 UNL     1      -3.919  -4.874  -0.560  1.00  0.00     0.123 C 
HETATM   23  C28 UNL     1      -4.515  -6.232  -0.790  1.00  0.00     0.091 C 
HETATM   24  O7  UNL     1      -2.811  -4.863  -0.027  1.00  0.00    -0.298 OA
ENDBRANCH  21  22
ENDBRANCH  20  21
ENDBRANCH  18  20
ENDBRANCH  10  18
ENDBRANCH   9  10
ENDBRANCH   7   9
ENDBRANCH   1   7
BRANCH   5  25
HETATM   25  C12 UNL     1       2.950  -1.393   0.116  1.00  0.00     0.087 C 
HETATM   26  C13 UNL     1       4.362  -1.899  -0.044  1.00  0.00     0.053 C 
HETATM   27  C14 UNL     1       5.236  -0.719   0.233  1.00  0.00    -0.049 A 
HETATM   28  C15 UNL     1       6.557  -0.540  -0.099  1.00  0.00     0.038 A 
HETATM   29  C22 UNL     1       4.471   0.199   0.912  1.00  0.00    -0.050 A 
HETATM   30  C16 UNL     1       7.216   0.657   0.263  1.00  0.00     0.051 A 
HETATM   31  N2  UNL     1       8.474   0.968   0.013  1.00  0.00    -0.335 N 
HETATM   32  C20 UNL     1       6.464   1.577   0.939  1.00  0.00     0.035 A 
HETATM   33  C17 UNL     1       8.936   2.141   0.426  1.00  0.00     0.152 A 
ATOM     34  H2  UNL     1       9.080   0.318  -0.488  1.00  0.00     0.168 HD
HETATM   35  S1  UNL     1       7.583   2.845   1.189  1.00  0.00    -0.052 SA
HETATM   36  C21 UNL     1       5.110   1.366   1.266  1.00  0.00     0.029 A 
HETATM   37  C23 UNL     1       3.091  -0.266   1.120  1.00  0.00     0.053 C 
BRANCH  33  38
HETATM   38  N3  UNL     1      10.128   2.653   0.293  1.00  0.00    -0.307 N 
HETATM   39  C18 UNL     1      11.098   1.874  -0.384  1.00  0.00     0.219 C 
HETATM   40  C19 UNL     1      11.941   0.921   0.372  1.00  0.00     0.117 C 
HETATM   41  O5  UNL     1      11.260   1.973  -1.614  1.00  0.00    -0.274 OA
ATOM     42  H3  UNL     1      10.353   3.577   0.662  1.00  0.00     0.171 HD
ENDBRANCH  33  38
ENDBRANCH   5  25
TORSDOF 14
