REMARK  13 active torsions:
REMARK  status: ('A' for Active; 'I' for Inactive)
REMARK    1  A    between atoms: C2_2  and  C3_3 
REMARK    2  A    between atoms: C3_3  and  C4_4 
REMARK    3  A    between atoms: C3_3  and  N1_6 
REMARK    4  A    between atoms: N1_6  and  C6_7 
REMARK    5  A    between atoms: N3_19  and  C16_20 
REMARK    6  A    between atoms: C16_20  and  C17_21 
REMARK       I    between atoms: C17_21  and  N4_23 
REMARK    7  A    between atoms: N4_23  and  C18_24 
REMARK    8  A    between atoms: N4_23  and  C21_30 
REMARK    9  A    between atoms: C18_24  and  C19_25 
REMARK   10  A    between atoms: C19_25  and  N5_26 
REMARK   11  A    between atoms: C21_30  and  C22_31 
REMARK       I    between atoms: C22_31  and  N6_33 
REMARK   12  A    between atoms: N6_33  and  C24_35 
REMARK   13  A    between atoms: C24_35  and  C25_36 
ROOT
HETATM    1  C17 UNL     1      -0.287  -1.122   1.744  1.00  0.00     0.240 C 
HETATM    2  O1  UNL     1       0.514  -0.146   1.658  1.00  0.00    -0.271 OA
HETATM    3  N4  UNL     1       0.226  -2.441   1.733  1.00  0.00    -0.340 N 
ENDROOT
BRANCH   3   4
HETATM    4  C18 UNL     1      -0.667  -3.574   1.828  1.00  0.00     0.154 C 
BRANCH   4   5
HETATM    5  C19 UNL     1      -0.842  -3.924   3.291  1.00  0.00     0.251 C 
BRANCH   5   6
HETATM    6  N5  UNL     1      -1.728  -5.060   3.462  1.00  0.00    -0.077 N 
HETATM    7  C20 UNL     1      -1.077  -6.269   2.945  1.00  0.00     0.267 C 
ATOM      8  H52 UNL     1      -2.033  -5.169   4.429  1.00  0.00     0.276 HD
ATOM      9  H51 UNL     1      -2.643  -4.903   3.038  1.00  0.00     0.276 HD
ENDBRANCH   5   6
ENDBRANCH   4   5
ENDBRANCH   3   4
BRANCH   3  10
HETATM   10  C21 UNL     1       1.658  -2.638   1.636  1.00  0.00     0.228 C 
BRANCH  10  11
HETATM   11  C22 UNL     1       2.096  -2.700   0.205  1.00  0.00     0.237 C 
HETATM   12  O2  UNL     1       1.214  -2.579  -0.677  1.00  0.00    -0.272 OA
HETATM   13  N6  UNL     1       3.452  -2.885  -0.095  1.00  0.00    -0.349 N 
HETATM   14  C23 UNL     1       4.432  -3.063   0.956  1.00  0.00     0.153 C 
BRANCH  13  15
HETATM   15  C24 UNL     1       3.943  -2.870  -1.472  1.00  0.00     0.182 C 
BRANCH  15  16
HETATM   16  C25 UNL     1       4.364  -1.478  -1.820  1.00  0.00     0.029 A 
HETATM   17  C26 UNL     1       3.505  -0.557  -2.376  1.00  0.00     0.059 A 
HETATM   18  C27 UNL     1       3.885   0.744  -2.686  1.00  0.00     0.071 A 
HETATM   19  N7  UNL     1       3.303   1.832  -3.212  1.00  0.00    -0.338 N 
HETATM   20  C30 UNL     1       5.187   1.114  -2.419  1.00  0.00     0.119 A 
HETATM   21  C28 UNL     1       4.219   2.842  -3.267  1.00  0.00     0.121 A 
ATOM     22  H7  UNL     1       2.333   1.894  -3.521  1.00  0.00     0.168 HD
HETATM   23  C29 UNL     1       4.049   4.223  -3.765  1.00  0.00     0.098 C 
HETATM   24  O3  UNL     1       5.346   2.364  -2.778  1.00  0.00    -0.294 OA
HETATM   25  C31 UNL     1       6.033   0.177  -1.863  1.00  0.00     0.127 A 
HETATM   26  N8  UNL     1       5.631  -1.071  -1.577  1.00  0.00    -0.365 N 
ATOM     27  H8  UNL     1       6.296  -1.727  -1.167  1.00  0.00     0.165 HD
ENDBRANCH  15  16
ENDBRANCH  13  15
ENDBRANCH  10  11
ENDBRANCH   3  10
BRANCH   1  28
HETATM   28  C16 UNL     1      -1.736  -0.818   1.854  1.00  0.00     0.254 C 
BRANCH  28  29
HETATM   29  N3  UNL     1      -1.894   0.622   1.783  1.00  0.00    -0.256 N 
HETATM   30  C6  UNL     1      -2.093   1.263   0.638  1.00  0.00     0.201 A 
HETATM   31  C7  UNL     1      -2.234   2.686   0.673  1.00  0.00     0.035 A 
HETATM   32  C8  UNL     1      -2.444   3.358  -0.499  1.00  0.00     0.018 A 
HETATM   33  C13 UNL     1      -2.167   3.368   1.851  1.00  0.00     0.003 A 
HETATM   34  C9  UNL     1      -2.583   4.737  -0.449  1.00  0.00     0.008 A 
HETATM   35  C10 UNL     1      -2.517   5.439   0.736  1.00  0.00    -0.061 A 
HETATM   36  C11 UNL     1      -2.675   6.937   0.741  1.00  0.00     0.048 C 
HETATM   37  C12 UNL     1      -2.306   4.761   1.915  1.00  0.00     0.021 A 
HETATM   38  C14 UNL     1      -1.957   2.637   3.009  1.00  0.00     0.033 A 
HETATM   39  C15 UNL     1      -1.883   3.398   4.282  1.00  0.00     0.070 C 
HETATM   40  N2  UNL     1      -1.832   1.309   2.913  1.00  0.00    -0.299 N 
ATOM     41  H2  UNL     1      -1.677   0.786   3.775  1.00  0.00     0.187 HD
BRANCH  30  42
HETATM   42  N1  UNL     1      -2.157   0.707  -0.440  1.00  0.00    -0.423 NA
BRANCH  42  43
HETATM   43  C3  UNL     1      -2.161  -0.265  -1.365  1.00  0.00     0.164 C 
BRANCH  43  44
HETATM   44  C2  UNL     1      -3.524  -0.874  -1.710  1.00  0.00     0.035 C 
HETATM   45  C1  UNL     1      -4.419   0.102  -2.425  1.00  0.00     0.008 C 
ENDBRANCH  43  44
BRANCH  43  46
HETATM   46  C4  UNL     1      -1.473   0.162  -2.674  1.00  0.00     0.035 C 
HETATM   47  C5  UNL     1      -1.262  -0.995  -3.596  1.00  0.00     0.008 C 
ENDBRANCH  43  46
ENDBRANCH  42  43
ENDBRANCH  30  42
ENDBRANCH  28  29
ENDBRANCH   1  28
TORSDOF 13
