REMARK  3 active torsions:
REMARK  status: ('A' for Active; 'I' for Inactive)
REMARK    1  A    between atoms: N1_2  and  C2_4 
REMARK    2  A    between atoms: C3_7  and  C4_8 
REMARK       I    between atoms: C4_8  and  N3_10 
REMARK       I    between atoms: N3_10  and  C5_12 
REMARK       I    between atoms: C5_12  and  N4_14 
REMARK    3  A    between atoms: N4_14  and  C6_16 
ROOT
HETATM    1  C4  UNL     1       0.209  -1.636  -0.249  1.00  0.00     0.277 C 
HETATM    2  O1  UNL     1       0.005  -2.769  -0.724  1.00  0.00    -0.266 OA
HETATM    3  N3  UNL     1      -0.910  -0.931   0.268  1.00  0.00    -0.274 N 
ATOM      4  H3  UNL     1      -0.788   0.000   0.666  1.00  0.00     0.173 HD
HETATM    5  C5  UNL     1      -2.183  -1.517   0.230  1.00  0.00     0.329 C 
HETATM    6  O2  UNL     1      -2.355  -2.665  -0.257  1.00  0.00    -0.247 OA
HETATM    7  N4  UNL     1      -3.317  -0.834   0.740  1.00  0.00    -0.287 N 
ATOM      8  H4  UNL     1      -3.865  -1.229   1.504  1.00  0.00     0.172 HD
ENDROOT
BRANCH   1   9
HETATM    9  C3  UNL     1       1.583  -1.050  -0.229  1.00  0.00     0.116 A 
HETATM   10  N2  UNL     1       1.838   0.133   0.259  1.00  0.00    -0.331 N 
HETATM   11  C2  UNL     1       3.089   0.581   0.239  1.00  0.00     0.145 A 
ATOM     12  H2  UNL     1       1.089   0.705   0.650  1.00  0.00     0.168 HD
HETATM   13  S2  UNL     1       3.947  -0.696  -0.491  1.00  0.00    -0.057 SA
HETATM   14  C8  UNL     1       2.640  -1.762  -0.739  1.00  0.00     0.015 A 
HETATM   15  C9  UNL     1       2.625  -3.136  -1.356  1.00  0.00     0.059 C 
BRANCH  11  16
HETATM   16  N1  UNL     1       3.559   1.728   0.673  1.00  0.00    -0.375 N 
HETATM   17  C1  UNL     1       2.747   2.731   1.270  1.00  0.00     0.148 C 
ATOM     18  H1  UNL     1       4.558   1.909   0.577  1.00  0.00     0.161 HD
ENDBRANCH  11  16
ENDBRANCH   1   9
BRANCH   7  19
HETATM   19  C6  UNL     1      -3.644   0.321   0.203  1.00  0.00     0.169 A 
HETATM   20  N5  UNL     1      -4.671   1.106   0.547  1.00  0.00    -0.278 N 
HETATM   21  N6  UNL     1      -4.840   2.195  -0.082  1.00  0.00    -0.286 N 
ATOM     22  H5  UNL     1      -5.305   0.835   1.299  1.00  0.00     0.189 HD
HETATM   23  C7  UNL     1      -4.012   2.539  -1.056  1.00  0.00     0.139 A 
ATOM     24  H6  UNL     1      -5.617   2.808   0.164  1.00  0.00     0.188 HD
HETATM   25 BR1  UNL     1      -4.055   4.126  -2.152  1.00  0.00    -0.021 Br
HETATM   26  S1  UNL     1      -2.930   1.217  -1.065  1.00  0.00    -0.026 SA
ENDBRANCH   7  19
TORSDOF 3
