REMARK  6 active torsions:
REMARK  status: ('A' for Active; 'I' for Inactive)
REMARK    1  A    between atoms: O1_2  and  C2_3 
REMARK    2  A    between atoms: C4_5  and  O2_6 
REMARK    3  A    between atoms: C9_13  and  O4_14 
REMARK    4  A    between atoms: O4_14  and  C10_15 
REMARK    5  A    between atoms: C15_21  and  O6_22 
REMARK    6  A    between atoms: O6_22  and  C16_23 
ROOT
HETATM    1  C2  UNL     1       2.910  -1.385   0.164  1.00  0.00     0.127 C 
HETATM    2  C3  UNL     1       2.095  -2.465  -0.501  1.00  0.00     0.064 C 
HETATM    3  C4  UNL     1       0.625  -2.365  -0.318  1.00  0.00     0.126 C 
HETATM    4  C5  UNL     1       0.099  -0.939  -0.543  1.00  0.00     0.031 C 
HETATM    5  C6  UNL     1      -1.367  -0.886  -0.371  1.00  0.00     0.011 C 
HETATM    6  C7  UNL     1      -2.185  -1.533  -1.433  1.00  0.00     0.087 C 
HETATM    7  C8  UNL     1      -3.504  -0.807  -1.313  1.00  0.00     0.157 C 
HETATM    8  O3  UNL     1      -4.544  -1.051  -1.897  1.00  0.00    -0.295 OA
HETATM    9  C9  UNL     1      -3.345   0.316  -0.324  1.00  0.00     0.209 C 
HETATM   10  C12 UNL     1      -1.834   0.553  -0.465  1.00  0.00    -0.004 C 
HETATM   11  C13 UNL     1      -1.611   1.184  -1.790  1.00  0.00     0.019 C 
HETATM   12  C14 UNL     1      -1.276   1.300   0.690  1.00  0.00     0.046 C 
HETATM   13  C15 UNL     1       0.219   1.293   0.629  1.00  0.00     0.141 C 
HETATM   14  C18 UNL     1       0.811  -0.069   0.432  1.00  0.00    -0.005 C 
HETATM   15  C19 UNL     1       0.696  -0.757   1.795  1.00  0.00     0.019 C 
HETATM   16  C20 UNL     1       2.244  -0.012  -0.009  1.00  0.00     0.022 C 
HETATM   17  C21 UNL     1       2.454   0.360  -1.428  1.00  0.00     0.013 C 
ENDROOT
BRANCH   9  18
HETATM   18  O4  UNL     1      -3.593  -0.205   0.947  1.00  0.00    -0.308 OA
BRANCH  18  19
HETATM   19  C10 UNL     1      -4.517   0.387   1.770  1.00  0.00     0.255 C 
HETATM   20  C11 UNL     1      -4.838  -0.113   3.146  1.00  0.00     0.126 C 
HETATM   21  O5  UNL     1      -5.124   1.402   1.348  1.00  0.00    -0.266 OA
ENDBRANCH  18  19
ENDBRANCH   9  18
BRANCH  13  22
HETATM   22  O6  UNL     1       0.639   2.270  -0.270  1.00  0.00    -0.316 OA
BRANCH  22  23
HETATM   23  C16 UNL     1       1.337   3.418   0.079  1.00  0.00     0.255 C 
HETATM   24  C17 UNL     1       1.756   4.423  -0.925  1.00  0.00     0.126 C 
HETATM   25  O7  UNL     1       1.595   3.558   1.310  1.00  0.00    -0.266 OA
ENDBRANCH  22  23
ENDBRANCH  13  22
BRANCH   3  26
HETATM   26  O2  UNL     1       0.033  -3.135  -1.349  1.00  0.00    -0.395 OA
ATOM     27  H2  UNL     1      -0.908  -3.071  -1.232  1.00  0.00     0.210 HD
ENDBRANCH   3  26
BRANCH   1  28
HETATM   28  O1  UNL     1       4.100  -1.295  -0.563  1.00  0.00    -0.390 OA
HETATM   29  C1  UNL     1       5.199  -1.495   0.266  1.00  0.00     0.202 C 
ENDBRANCH   1  28
TORSDOF 6
