REMARK  6 active torsions:
REMARK  status: ('A' for Active; 'I' for Inactive)
REMARK    1  A    between atoms: C5_7  and  O3_8 
REMARK    2  A    between atoms: O3_8  and  C6_9 
REMARK    3  A    between atoms: C6_9  and  C7_11 
REMARK    4  A    between atoms: C16_20  and  O5_21 
REMARK    5  A    between atoms: O5_21  and  C17_22 
REMARK    6  A    between atoms: C19_25  and  O7_26 
ROOT
HETATM    1  C1  UNL     1      -1.903  -2.912   0.125  1.00  0.00     0.025 C 
HETATM    2  C2  UNL     1      -0.922  -2.150  -0.277  1.00  0.00     0.013 C 
HETATM    3  C3  UNL     1      -0.296  -2.794  -1.459  1.00  0.00     0.289 C 
HETATM    4  O1  UNL     1      -0.833  -3.912  -1.771  1.00  0.00    -0.260 OA
HETATM    5  O2  UNL     1       0.743  -2.470  -2.315  1.00  0.00    -0.315 OA
HETATM    6  C4  UNL     1       1.980  -1.845  -2.131  1.00  0.00     0.211 C 
HETATM    7  C5  UNL     1       1.834  -0.777  -1.064  1.00  0.00     0.157 C 
HETATM    8  C11 UNL     1       0.614   0.017  -1.432  1.00  0.00     0.045 C 
HETATM    9  C12 UNL     1      -0.313   0.294  -0.286  1.00  0.00    -0.024 C 
HETATM   10  C13 UNL     1       0.470   1.194   0.688  1.00  0.00     0.017 C 
HETATM   11  C14 UNL     1      -0.689  -0.935   0.482  1.00  0.00     0.035 C 
HETATM   12  C15 UNL     1      -1.778  -0.607   1.481  1.00  0.00     0.045 C 
HETATM   13  C16 UNL     1      -2.960  -0.080   0.737  1.00  0.00     0.162 C 
HETATM   14  C19 UNL     1      -2.550   1.316   0.239  1.00  0.00     0.156 C 
HETATM   15  C20 UNL     1      -1.454   1.113  -0.771  1.00  0.00    -0.011 C 
HETATM   16  C21 UNL     1      -2.064   0.588  -2.053  1.00  0.00     0.018 C 
HETATM   17  C22 UNL     1      -0.949   2.519  -1.123  1.00  0.00     0.018 C 
ENDROOT
BRANCH   7  18
HETATM   18  O3  UNL     1       3.028  -0.004  -1.073  1.00  0.00    -0.310 OA
BRANCH  18  19
HETATM   19  C6  UNL     1       3.874  -0.042   0.016  1.00  0.00     0.289 C 
HETATM   20  O4  UNL     1       3.566  -0.763   0.988  1.00  0.00    -0.260 OA
BRANCH  19  21
HETATM   21  C7  UNL     1       5.101   0.722   0.066  1.00  0.00     0.009 C 
HETATM   22  C8  UNL     1       5.409   1.571  -1.145  1.00  0.00     0.054 C 
HETATM   23  C9  UNL     1       5.937   0.716   1.083  1.00  0.00    -0.018 C 
HETATM   24  C10 UNL     1       5.733  -0.072   2.306  1.00  0.00     0.036 C 
ENDBRANCH  19  21
ENDBRANCH  18  19
ENDBRANCH   7  18
BRANCH  14  25
HETATM   25  O7  UNL     1      -3.654   1.856  -0.419  1.00  0.00    -0.392 OA
ATOM     26  H7  UNL     1      -3.401   2.718  -0.727  1.00  0.00     0.210 HD
ENDBRANCH  14  25
BRANCH  13  27
HETATM   27  O5  UNL     1      -4.138  -0.025   1.486  1.00  0.00    -0.314 OA
BRANCH  27  28
HETATM   28  C17 UNL     1      -5.321  -0.577   1.035  1.00  0.00     0.255 C 
HETATM   29  C18 UNL     1      -6.552  -0.500   1.860  1.00  0.00     0.126 C 
HETATM   30  O6  UNL     1      -5.278  -1.133  -0.089  1.00  0.00    -0.266 OA
ENDBRANCH  27  28
ENDBRANCH  13  27
TORSDOF 6
