REMARK  3 active torsions:
REMARK  status: ('A' for Active; 'I' for Inactive)
REMARK    1  A    between atoms: C2_2  and  C3_3 
REMARK    2  A    between atoms: C3_3  and  C4_4 
REMARK    3  A    between atoms: C7_13  and  N2_14 
ROOT
HETATM    1  C3  UNL     1      -0.463   0.601   0.047  1.00  0.00     0.052 C 
HETATM    2  C5  UNL     1      -1.497   0.433   1.095  1.00  0.00     0.085 C 
HETATM    3  C6  UNL     1      -0.668   0.126   2.332  1.00  0.00     0.188 C 
HETATM    4 CL3  UNL     1      -1.215  -1.353   3.141  1.00  0.00    -0.078 Cl
HETATM    5 CL4  UNL     1      -0.689   1.464   3.489  1.00  0.00    -0.078 Cl
HETATM    6  N1  UNL     1       0.676  -0.079   1.884  1.00  0.00    -0.344 N 
ATOM      7  H1  UNL     1       1.431  -0.391   2.494  1.00  0.00     0.164 HD
HETATM    8  C7  UNL     1       0.831   0.170   0.639  1.00  0.00     0.086 C 
ENDROOT
BRANCH   1   9
HETATM    9  C2  UNL     1      -0.753  -0.080  -1.255  1.00  0.00     0.015 C 
HETATM   10  C1  UNL     1      -0.926  -1.540  -1.198  1.00  0.00     0.006 C 
ENDBRANCH   1   9
BRANCH   1  11
HETATM   11  C4  UNL     1      -0.325   2.088  -0.247  1.00  0.00     0.194 C 
HETATM   12 CL1  UNL     1      -1.893   2.602  -0.946  1.00  0.00    -0.107 Cl
HETATM   13 CL2  UNL     1       0.933   2.236  -1.498  1.00  0.00    -0.107 Cl
ENDBRANCH   1  11
BRANCH   8  14
HETATM   14  N2  UNL     1       2.076   0.039  -0.033  1.00  0.00    -0.384 N 
HETATM   15  C8  UNL     1       2.423  -1.239  -0.611  1.00  0.00     0.147 C 
ATOM     16  H2  UNL     1       2.713   0.832  -0.106  1.00  0.00     0.160 HD
ENDBRANCH   8  14
TORSDOF 3
