REMARK  3 active torsions:
REMARK  status: ('A' for Active; 'I' for Inactive)
REMARK    1  A    between atoms: C3_4  and  N1_5 
REMARK    2  A    between atoms: N1_5  and  C4_7 
REMARK    3  A    between atoms: C4_7  and  C5_8 
ROOT
HETATM    1  N1  UNL     1      -1.136  -1.377  -0.423  1.00  0.00    -0.387 N 
ATOM      2  H1  UNL     1      -1.132  -1.955  -1.263  1.00  0.00     0.159 HD
ENDROOT
BRANCH   1   3
HETATM    3  C3  UNL     1      -2.266  -0.603  -0.197  1.00  0.00     0.073 A 
HETATM    4  C2  UNL     1      -2.516   0.031   0.989  1.00  0.00     0.078 A 
HETATM    5  C1  UNL     1      -3.703   0.762   1.158  1.00  0.00     0.160 A 
HETATM    6  F1  UNL     1      -3.931   1.381   2.335  1.00  0.00    -0.203 F 
HETATM    7  C15 UNL     1      -4.633   0.856   0.146  1.00  0.00     0.196 A 
HETATM    8  C14 UNL     1      -4.371   0.216  -1.033  1.00  0.00     0.198 A 
HETATM    9  F4  UNL     1      -5.777   1.563   0.315  1.00  0.00    -0.199 F 
HETATM   10  C13 UNL     1      -3.223  -0.485  -1.185  1.00  0.00     0.184 A 
HETATM   11  F3  UNL     1      -5.285   0.305  -2.035  1.00  0.00    -0.199 F 
HETATM   12  F2  UNL     1      -3.013  -1.104  -2.387  1.00  0.00    -0.200 F 
ENDBRANCH   1   3
BRANCH   1  13
HETATM   13  C4  UNL     1       0.011  -1.438   0.404  1.00  0.00     0.130 C 
BRANCH  13  14
HETATM   14  C5  UNL     1       1.001  -0.358   0.124  1.00  0.00    -0.020 C 
HETATM   15  C6  UNL     1       1.530  -0.356  -1.315  1.00  0.00     0.016 C 
HETATM   16  C7  UNL     1       2.945   0.078  -1.136  1.00  0.00    -0.013 C 
HETATM   17  C8  UNL     1       2.941   1.417  -0.454  1.00  0.00     0.010 C 
HETATM   18  C12 UNL     1       3.349  -0.823   0.044  1.00  0.00     0.010 C 
HETATM   19  C9  UNL     1       2.305   1.087   0.875  1.00  0.00    -0.009 C 
HETATM   20  C10 UNL     1       0.781   1.004   0.698  1.00  0.00     0.016 C 
HETATM   21  C11 UNL     1       2.258  -0.417   0.980  1.00  0.00     0.000 C 
ENDBRANCH  13  14
ENDBRANCH   1  13
TORSDOF 3
