REMARK  15 active torsions:
REMARK  status: ('A' for Active; 'I' for Inactive)
REMARK    1  A    between atoms: C4_6  and  C5_7 
REMARK    2  A    between atoms: C6_8  and  C7_9 
REMARK    3  A    between atoms: C9_11  and  O1_12 
REMARK    4  A    between atoms: C11_15  and  N2_16 
REMARK    5  A    between atoms: C20_26  and  O2_27 
REMARK    6  A    between atoms: C23_31  and  O3_32 
REMARK    7  A    between atoms: O3_32  and  C24_33 
REMARK    8  A    between atoms: C24_33  and  C25_34 
REMARK    9  A    between atoms: C25_34  and  O4_35 
REMARK   10  A    between atoms: O4_35  and  C26_36 
REMARK   11  A    between atoms: C26_36  and  C27_37 
REMARK   12  A    between atoms: C27_37  and  O5_38 
REMARK   13  A    between atoms: O5_38  and  C28_39 
REMARK   14  A    between atoms: C28_39  and  C29_40 
REMARK   15  A    between atoms: C29_40  and  N4_41 
ROOT
HETATM    1  C1  UNL     1      -0.162   2.100   2.113  1.00  0.00     0.046 C 
HETATM    2  C2  UNL     1      -0.359   0.829   2.425  1.00  0.00     0.057 A 
HETATM    3  N1  UNL     1       0.683  -0.127   2.416  1.00  0.00    -0.353 N 
ATOM      4  H1  UNL     1       1.632   0.150   2.163  1.00  0.00     0.166 HD
HETATM    5  C3  UNL     1       0.398  -1.487   2.764  1.00  0.00     0.065 A 
HETATM    6  C4  UNL     1       1.489  -2.372   2.732  1.00  0.00     0.045 A 
HETATM    7  C18 UNL     1       1.205  -3.675   3.069  1.00  0.00     0.026 A 
HETATM    8  C19 UNL     1      -0.044  -4.096   3.412  1.00  0.00     0.039 A 
HETATM    9  C20 UNL     1      -1.116  -3.199   3.438  1.00  0.00     0.078 A 
HETATM   10  C21 UNL     1      -0.874  -1.882   3.108  1.00  0.00     0.028 A 
HETATM   11  C22 UNL     1      -1.934  -0.887   3.112  1.00  0.00     0.055 A 
HETATM   12  C23 UNL     1      -1.704   0.368   2.797  1.00  0.00     0.095 A 
ENDROOT
BRANCH   6  13
HETATM   13  C5  UNL     1       2.801  -1.911   2.377  1.00  0.00    -0.059 C 
HETATM   14  C6  UNL     1       3.913  -1.499   2.094  1.00  0.00    -0.061 C 
BRANCH  14  15
HETATM   15  C7  UNL     1       5.222  -0.988   1.780  1.00  0.00     0.022 A 
HETATM   16  C8  UNL     1       6.073  -0.519   2.761  1.00  0.00     0.057 A 
HETATM   17  C9  UNL     1       7.323  -0.022   2.470  1.00  0.00     0.069 A 
HETATM   18  C10 UNL     1       7.720  -0.000   1.128  1.00  0.00     0.065 A 
HETATM   19  C11 UNL     1       6.914  -0.454   0.112  1.00  0.00     0.034 A 
HETATM   20  C17 UNL     1       5.657  -0.947   0.477  1.00  0.00     0.050 A 
BRANCH  17  21
HETATM   21  O1  UNL     1       8.151   0.438   3.459  1.00  0.00    -0.361 OA
ATOM     22  H1  UNL     1       9.014   0.781   3.258  1.00  0.00     0.217 HD
ENDBRANCH  17  21
BRANCH  19  23
HETATM   23  N2  UNL     1       7.339  -0.436  -1.229  1.00  0.00    -0.371 N 
HETATM   24  C12 UNL     1       8.717  -0.433  -1.625  1.00  0.00     0.168 C 
HETATM   25  C13 UNL     1       8.984   0.439  -2.825  1.00  0.00     0.082 C 
HETATM   26  N3  UNL     1       7.936   1.280  -3.209  1.00  0.00    -0.375 N 
HETATM   27  C14 UNL     1       8.169   2.667  -3.338  1.00  0.00     0.154 C 
HETATM   28  C15 UNL     1       6.615   0.848  -3.092  1.00  0.00     0.082 C 
HETATM   29  C16 UNL     1       6.365  -0.408  -2.293  1.00  0.00     0.168 C 
ENDBRANCH  19  23
ENDBRANCH  14  15
ENDBRANCH   6  13
BRANCH   9  30
HETATM   30  O2  UNL     1      -2.378  -3.653   3.791  1.00  0.00    -0.360 OA
ATOM     31  H2  UNL     1      -3.106  -3.043   3.809  1.00  0.00     0.217 HD
ENDBRANCH   9  30
BRANCH  12  32
HETATM   32  O3  UNL     1      -2.731   1.329   2.803  1.00  0.00    -0.347 OA
BRANCH  32  33
HETATM   33  C24 UNL     1      -4.083   1.059   2.746  1.00  0.00     0.201 C 
BRANCH  33  34
HETATM   34  C25 UNL     1      -4.537   0.316   1.497  1.00  0.00     0.194 C 
BRANCH  34  35
HETATM   35  O4  UNL     1      -5.891   0.136   1.607  1.00  0.00    -0.387 OA
BRANCH  35  36
HETATM   36  C26 UNL     1      -6.397  -0.566   0.539  1.00  0.00     0.193 C 
BRANCH  36  37
HETATM   37  C27 UNL     1      -6.155   0.163  -0.744  1.00  0.00     0.193 C 
BRANCH  37  38
HETATM   38  O5  UNL     1      -6.732   1.429  -0.784  1.00  0.00    -0.387 OA
BRANCH  38  39
HETATM   39  C28 UNL     1      -8.095   1.435  -0.622  1.00  0.00     0.198 C 
BRANCH  39  40
HETATM   40  C29 UNL     1      -8.851   0.648  -1.651  1.00  0.00     0.297 C 
BRANCH  40  41
HETATM   41  N4  UNL     1      -8.667   1.090  -3.001  1.00  0.00     0.082 N 
HETATM   42  C30 UNL     1      -9.233   2.374  -3.288  1.00  0.00     0.309 C 
HETATM   43  C31 UNL     1      -9.226   0.043  -3.863  1.00  0.00     0.309 C 
ENDBRANCH  40  41
ENDBRANCH  39  40
ENDBRANCH  38  39
ENDBRANCH  37  38
ENDBRANCH  36  37
ENDBRANCH  35  36
ENDBRANCH  34  35
ENDBRANCH  33  34
ENDBRANCH  32  33
ENDBRANCH  12  32
TORSDOF 15
