REMARK  12 active torsions:
REMARK  status: ('A' for Active; 'I' for Inactive)
REMARK    1  A    between atoms: O1_2  and  C2_3 
REMARK    2  A    between atoms: C4_5  and  C5_6 
REMARK    3  A    between atoms: C6_9  and  N2_10 
REMARK    4  A    between atoms: N2_10  and  C7_12 
REMARK    5  A    between atoms: C7_12  and  C8_13 
REMARK    6  A    between atoms: C8_13  and  N3_14 
REMARK    7  A    between atoms: C14_23  and  C15_24 
REMARK    8  A    between atoms: C15_24  and  C16_25 
REMARK    9  A    between atoms: C23_38  and  O3_39 
REMARK   10  A    between atoms: O3_39  and  C24_40 
REMARK   11  A    between atoms: C24_40  and  C25_41 
REMARK   12  A    between atoms: C25_41  and  N8_42 
ROOT
HETATM    1  C5  UNL     1       0.649   0.917  -0.484  1.00  0.00     0.088 A 
HETATM    2  N1  UNL     1       1.667   0.208  -0.002  1.00  0.00    -0.189 N 
ATOM      3  H1  UNL     1       1.509  -0.773   0.229  1.00  0.00     0.184 HD
HETATM    4  C6  UNL     1       2.888   0.719   0.195  1.00  0.00     0.679 A 
HETATM    5  N4  UNL     1       3.041   2.033  -0.131  1.00  0.00    -0.189 N 
ATOM      6  H4  UNL     1       3.959   2.457   0.006  1.00  0.00     0.184 HD
HETATM    7  C13 UNL     1       2.063   2.799  -0.619  1.00  0.00     0.086 A 
HETATM    8  C14 UNL     1       1.970   4.120  -1.019  1.00  0.00    -0.007 A 
HETATM    9  C19 UNL     1       0.698   4.384  -1.457  1.00  0.00     0.098 A 
HETATM   10  N7  UNL     1       0.016   3.220  -1.319  1.00  0.00    -0.362 N 
ATOM     11  H7  UNL     1      -0.966   3.095  -1.563  1.00  0.00     0.165 HD
HETATM   12  C20 UNL     1       0.803   2.254  -0.819  1.00  0.00     0.088 A 
ENDROOT
BRANCH   1  13
HETATM   13  C4  UNL     1      -0.694   0.327  -0.644  1.00  0.00    -0.004 A 
HETATM   14  C3  UNL     1      -1.785   1.018  -0.183  1.00  0.00     0.053 A 
HETATM   15  C2  UNL     1      -3.038   0.480  -0.325  1.00  0.00     0.102 A 
HETATM   16  C23 UNL     1      -3.257  -0.750  -0.921  1.00  0.00     0.102 A 
HETATM   17  C22 UNL     1      -2.140  -1.411  -1.369  1.00  0.00     0.040 A 
HETATM   18  C21 UNL     1      -0.847  -0.895  -1.243  1.00  0.00     0.017 A 
BRANCH  15  19
HETATM   19  O1  UNL     1      -4.141   1.209   0.154  1.00  0.00    -0.353 OA
HETATM   20  C1  UNL     1      -3.943   2.467   0.765  1.00  0.00     0.210 C 
ENDBRANCH  15  19
BRANCH  16  21
HETATM   21  O3  UNL     1      -4.547  -1.200  -1.010  1.00  0.00    -0.343 OA
BRANCH  21  22
HETATM   22  C24 UNL     1      -4.853  -2.437  -1.563  1.00  0.00     0.220 C 
BRANCH  22  23
HETATM   23  C25 UNL     1      -6.294  -2.789  -1.613  1.00  0.00     0.084 C 
BRANCH  23  24
HETATM   24  N8  UNL     1      -7.027  -2.839  -0.426  1.00  0.00    -0.391 N 
HETATM   25  C26 UNL     1      -7.308  -1.646   0.280  1.00  0.00     0.122 C 
HETATM   26  C27 UNL     1      -7.685  -2.032   1.691  1.00  0.00     0.021 C 
HETATM   27  C28 UNL     1      -7.653  -3.527   1.690  1.00  0.00     0.021 C 
HETATM   28  C29 UNL     1      -6.703  -3.863   0.529  1.00  0.00     0.122 C 
ENDBRANCH  23  24
ENDBRANCH  22  23
ENDBRANCH  21  22
ENDBRANCH  16  21
ENDBRANCH   1  13
BRANCH   4  29
HETATM   29  N2  UNL     1       3.839   0.033   0.649  1.00  0.00    -0.221 N 
ATOM     30  H2  UNL     1       4.720   0.536   0.755  1.00  0.00     0.178 HD
BRANCH  29  31
HETATM   31  C7  UNL     1       3.878  -1.344   1.040  1.00  0.00     0.182 C 
BRANCH  31  32
HETATM   32  C8  UNL     1       5.341  -1.738   1.054  1.00  0.00     0.078 C 
BRANCH  32  33
HETATM   33  N3  UNL     1       5.646  -3.052   1.426  1.00  0.00    -0.388 N 
HETATM   34  C9  UNL     1       5.272  -4.125   0.583  1.00  0.00     0.148 C 
HETATM   35  C10 UNL     1       6.337  -4.268  -0.507  1.00  0.00     0.187 C 
HETATM   36  O2  UNL     1       7.595  -4.042  -0.005  1.00  0.00    -0.388 OA
HETATM   37  C11 UNL     1       7.734  -4.197   1.354  1.00  0.00     0.187 C 
HETATM   38  C12 UNL     1       6.852  -3.256   2.149  1.00  0.00     0.148 C 
ENDBRANCH  32  33
ENDBRANCH  31  32
ENDBRANCH  29  31
ENDBRANCH   4  29
BRANCH   8  39
HETATM   39  C15 UNL     1       3.114   5.074  -0.926  1.00  0.00     0.101 C 
BRANCH  39  40
HETATM   40  C16 UNL     1       2.612   6.476  -0.879  1.00  0.00     0.029 A 
HETATM   41  C17 UNL     1       2.551   7.409  -1.874  1.00  0.00     0.114 A 
HETATM   42  N5  UNL     1       2.003   8.517  -1.383  1.00  0.00    -0.360 N 
HETATM   43  C18 UNL     1       1.721   8.279  -0.082  1.00  0.00     0.180 A 
ATOM     44  H5  UNL     1       1.828   9.383  -1.892  1.00  0.00     0.166 HD
HETATM   45  N6  UNL     1       2.097   7.029   0.219  1.00  0.00    -0.354 N 
ATOM     46  H6  UNL     1       2.005   6.579   1.130  1.00  0.00     0.166 HD
ENDBRANCH  39  40
ENDBRANCH   8  39
TORSDOF 12
