REMARK  12 active torsions:
REMARK  status: ('A' for Active; 'I' for Inactive)
REMARK    1  A    between atoms: C3_4  and  C4_5 
REMARK    2  A    between atoms: C4_5  and  C5_6 
REMARK    3  A    between atoms: C5_6  and  C6_7 
REMARK    4  A    between atoms: C6_7  and  C7_8 
REMARK    5  A    between atoms: C7_8  and  C8_9 
REMARK       I    between atoms: N4_15  and  C10_17 
REMARK    6  A    between atoms: C10_17  and  C11_19 
REMARK    7  A    between atoms: C11_19  and  N5_20 
REMARK    8  A    between atoms: N5_20  and  C13_22 
REMARK    9  A    between atoms: C15_29  and  N8_30 
REMARK   10  A    between atoms: N8_30  and  C16_31 
REMARK   11  A    between atoms: C19_34  and  C20_35 
REMARK   12  A    between atoms: C20_35  and  C21_36 
ROOT
HETATM    1  C1  UNL     1      -1.134   1.284  -2.899  1.00  0.00     0.037 C 
HETATM    2  C2  UNL     1      -0.948   0.459  -2.021  1.00  0.00     0.011 C 
HETATM    3  N1  UNL     1      -0.734  -0.487  -1.023  1.00  0.00    -0.216 N 
HETATM    4  C3  UNL     1       0.464  -0.935  -0.624  1.00  0.00     0.114 A 
HETATM    5  N6  UNL     1       0.223  -1.818   0.330  1.00  0.00    -0.284 N 
ATOM      6  H6  UNL     1       0.941  -2.338   0.834  1.00  0.00     0.188 HD
HETATM    7  N7  UNL     1      -1.084  -1.934   0.541  1.00  0.00    -0.257 N 
ATOM      8  H7  UNL     1      -1.520  -2.549   1.228  1.00  0.00     0.191 HD
HETATM    9  C15 UNL     1      -1.751  -1.096  -0.312  1.00  0.00     0.290 A 
ENDROOT
BRANCH   4  10
HETATM   10  C4  UNL     1       1.760  -0.424  -1.207  1.00  0.00     0.079 C 
BRANCH  10  11
HETATM   11  C5  UNL     1       2.332   0.713  -0.384  1.00  0.00     0.008 C 
BRANCH  11  12
HETATM   12  C6  UNL     1       3.460   1.293  -1.174  1.00  0.00     0.007 C 
BRANCH  12  13
HETATM   13  C7  UNL     1       4.593   0.487  -1.561  1.00  0.00     0.066 C 
BRANCH  13  14
HETATM   14  C8  UNL     1       5.462   0.021  -0.458  1.00  0.00     0.069 A 
HETATM   15  N2  UNL     1       5.446   0.189   0.843  1.00  0.00    -0.296 N 
HETATM   16  N3  UNL     1       6.372  -0.281   1.586  1.00  0.00    -0.279 N 
ATOM     17  H2  UNL     1       4.677   0.706   1.270  1.00  0.00     0.187 HD
HETATM   18  C9  UNL     1       7.366  -0.953   1.012  1.00  0.00     0.168 A 
ATOM     19  H3  UNL     1       6.350  -0.144   2.597  1.00  0.00     0.189 HD
HETATM   20  N4  UNL     1       8.449  -1.501   1.559  1.00  0.00    -0.301 N 
HETATM   21  S1  UNL     1       6.941  -0.902  -0.633  1.00  0.00    -0.038 SA
HETATM   22  C10 UNL     1       9.359  -2.171   0.708  1.00  0.00     0.262 C 
ATOM     23  H4  UNL     1       8.618  -1.440   2.563  1.00  0.00     0.171 HD
HETATM   24  O1  UNL     1       8.957  -3.330   0.319  1.00  0.00    -0.267 OA
BRANCH  22  25
HETATM   25  C11 UNL     1      10.654  -1.751   0.215  1.00  0.00     0.160 C 
BRANCH  25  26
HETATM   26  N5  UNL     1      11.208  -0.511   0.575  1.00  0.00    -0.390 N 
HETATM   27  C12 UNL     1      11.594  -0.373   1.941  1.00  0.00     0.149 C 
BRANCH  26  28
HETATM   28  C13 UNL     1      10.689   0.653  -0.045  1.00  0.00     0.117 C 
HETATM   29  C14 UNL     1      11.491   1.926   0.203  1.00  0.00     0.026 C 
ENDBRANCH  26  28
ENDBRANCH  25  26
ENDBRANCH  22  25
ENDBRANCH  13  14
ENDBRANCH  12  13
ENDBRANCH  11  12
ENDBRANCH  10  11
ENDBRANCH   4  10
BRANCH   9  30
HETATM   30  N8  UNL     1      -2.902  -0.939  -0.471  1.00  0.00    -0.369 NA
BRANCH  30  31
HETATM   31  C16 UNL     1      -4.210  -0.774  -0.637  1.00  0.00     0.111 A 
HETATM   32  C17 UNL     1      -4.736   0.369  -1.287  1.00  0.00     0.045 A 
HETATM   33  C18 UNL     1      -6.068   0.534  -1.483  1.00  0.00     0.011 A 
HETATM   34  C19 UNL     1      -6.992  -0.428  -1.045  1.00  0.00    -0.052 A 
HETATM   35  C26 UNL     1      -6.528  -1.548  -0.413  1.00  0.00    -0.052 A 
HETATM   36  C27 UNL     1      -7.408  -2.649   0.038  1.00  0.00     0.049 C 
HETATM   37  C28 UNL     1      -5.184  -1.693  -0.227  1.00  0.00     0.052 A 
BRANCH  34  38
HETATM   38  C20 UNL     1      -8.398  -0.141  -1.264  1.00  0.00     0.043 C 
BRANCH  38  39
HETATM   39  C21 UNL     1      -9.176   0.541  -0.207  1.00  0.00    -0.007 C 
HETATM   40  C22 UNL     1      -9.328  -0.106   1.112  1.00  0.00     0.032 C 
HETATM   41  C23 UNL     1     -10.244   0.738   1.991  1.00  0.00     0.232 C 
HETATM   42  N9  UNL     1     -10.770   1.858   1.283  1.00  0.00    -0.075 N 
HETATM   43  C24 UNL     1      -9.730   2.726   0.758  1.00  0.00     0.232 C 
ATOM     44  H92 UNL     1     -11.405   1.558   0.543  1.00  0.00     0.277 HD
ATOM     45  H91 UNL     1     -11.427   2.382   1.862  1.00  0.00     0.277 HD
HETATM   46  C25 UNL     1      -8.664   1.967   0.031  1.00  0.00     0.032 C 
ENDBRANCH  38  39
ENDBRANCH  34  38
ENDBRANCH  30  31
ENDBRANCH   9  30
TORSDOF 12
