REMARK  12 active torsions:
REMARK  status: ('A' for Active; 'I' for Inactive)
REMARK    1  A    between atoms: C2_2  and  N1_3 
REMARK    2  A    between atoms: C3_4  and  C4_5 
REMARK    3  A    between atoms: C4_5  and  C5_6 
REMARK    4  A    between atoms: C5_6  and  C6_7 
REMARK    5  A    between atoms: C6_7  and  C7_8 
REMARK    6  A    between atoms: C7_8  and  C8_9 
REMARK       I    between atoms: N4_15  and  C10_17 
REMARK    7  A    between atoms: C10_17  and  C11_19 
REMARK    8  A    between atoms: C16_31  and  N8_32 
REMARK       I    between atoms: N8_32  and  C17_34 
REMARK    9  A    between atoms: C17_34  and  C18_36 
REMARK   10  A    between atoms: C18_36  and  C19_37 
REMARK   11  A    between atoms: C22_40  and  O3_41 
REMARK   12  A    between atoms: C24_43  and  O4_44 
ROOT
HETATM    1  N1  UNL     1      -1.009   1.629  -1.347  1.00  0.00    -0.170 N 
HETATM    2  C3  UNL     1      -0.003   1.868  -0.492  1.00  0.00     0.115 A 
HETATM    3  N6  UNL     1      -0.386   1.397   0.697  1.00  0.00    -0.274 N 
ATOM      4  H6  UNL     1       0.167   1.431   1.554  1.00  0.00     0.189 HD
HETATM    5  N7  UNL     1      -1.601   0.878   0.584  1.00  0.00    -0.130 N 
ATOM      6  H7  UNL     1      -2.137   0.448   1.338  1.00  0.00     0.205 HD
HETATM    7  C16 UNL     1      -2.003   1.012  -0.673  1.00  0.00     0.703 A 
ENDROOT
BRANCH   2   8
HETATM    8  C4  UNL     1       1.289   2.526  -0.797  1.00  0.00     0.079 C 
BRANCH   8   9
HETATM    9  C5  UNL     1       2.166   2.621   0.414  1.00  0.00     0.008 C 
BRANCH   9  10
HETATM   10  C6  UNL     1       3.456   3.295   0.028  1.00  0.00     0.007 C 
BRANCH  10  11
HETATM   11  C7  UNL     1       4.241   2.576  -1.015  1.00  0.00     0.066 C 
BRANCH  11  12
HETATM   12  C8  UNL     1       4.628   1.200  -0.546  1.00  0.00     0.069 A 
HETATM   13  N2  UNL     1       3.941   0.084  -0.706  1.00  0.00    -0.296 N 
HETATM   14  N3  UNL     1       4.387  -1.019  -0.257  1.00  0.00    -0.279 N 
ATOM     15  H2  UNL     1       3.045   0.107  -1.194  1.00  0.00     0.187 HD
HETATM   16  C9  UNL     1       5.567  -1.018   0.379  1.00  0.00     0.168 A 
ATOM     17  H3  UNL     1       3.860  -1.884  -0.378  1.00  0.00     0.189 HD
HETATM   18  N4  UNL     1       6.191  -2.044   0.910  1.00  0.00    -0.301 N 
HETATM   19  S1  UNL     1       5.999   0.633   0.300  1.00  0.00    -0.038 SA
HETATM   20  C10 UNL     1       7.441  -1.786   1.536  1.00  0.00     0.274 C 
ATOM     21  H4  UNL     1       5.797  -2.984   0.875  1.00  0.00     0.171 HD
HETATM   22  O1  UNL     1       7.476  -1.056   2.555  1.00  0.00    -0.266 OA
BRANCH  20  23
HETATM   23  C11 UNL     1       8.691  -2.339   1.036  1.00  0.00     0.106 A 
HETATM   24  N5  UNL     1       8.871  -3.143  -0.038  1.00  0.00    -0.361 N 
HETATM   25  C12 UNL     1      10.169  -3.441  -0.172  1.00  0.00     0.089 A 
ATOM     26  H5  UNL     1       8.128  -3.473  -0.654  1.00  0.00     0.165 HD
HETATM   27  C13 UNL     1      10.888  -2.812   0.853  1.00  0.00     0.026 A 
HETATM   28  C14 UNL     1       9.942  -2.131   1.593  1.00  0.00    -0.028 A 
HETATM   29  C15 UNL     1      10.272  -1.309   2.801  1.00  0.00     0.050 C 
ENDBRANCH  20  23
ENDBRANCH  11  12
ENDBRANCH  10  11
ENDBRANCH   9  10
ENDBRANCH   8   9
ENDBRANCH   2   8
BRANCH   1  30
HETATM   30  C2  UNL     1      -0.972   1.997  -2.749  1.00  0.00     0.144 C 
HETATM   31  C1  UNL     1      -1.531   3.385  -2.888  1.00  0.00     0.027 C 
ENDBRANCH   1  30
BRANCH   7  32
HETATM   32  N8  UNL     1      -3.099   0.653  -1.209  1.00  0.00    -0.158 N 
HETATM   33  C17 UNL     1      -4.196   0.018  -0.646  1.00  0.00     0.240 C 
HETATM   34  O2  UNL     1      -4.210  -0.416   0.527  1.00  0.00    -0.272 OA
ATOM     35  H8  UNL     1      -3.184   0.864  -2.203  1.00  0.00     0.187 HD
BRANCH  33  36
HETATM   36  C18 UNL     1      -5.421  -0.161  -1.474  1.00  0.00     0.142 C 
BRANCH  36  37
HETATM   37  C19 UNL     1      -6.487  -0.856  -0.708  1.00  0.00    -0.047 A 
HETATM   38  C20 UNL     1      -6.566  -2.233  -0.727  1.00  0.00     0.010 A 
HETATM   39  C21 UNL     1      -7.560  -2.865  -0.011  1.00  0.00     0.040 A 
HETATM   40  C22 UNL     1      -8.495  -2.179   0.734  1.00  0.00     0.101 A 
HETATM   41  C24 UNL     1      -8.420  -0.798   0.756  1.00  0.00     0.102 A 
HETATM   42  C26 UNL     1      -7.425  -0.170   0.040  1.00  0.00     0.047 A 
BRANCH  40  43
HETATM   43  O3  UNL     1      -9.492  -2.825   1.451  1.00  0.00    -0.353 OA
HETATM   44  C23 UNL     1      -9.531  -4.238   1.401  1.00  0.00     0.210 C 
ENDBRANCH  40  43
BRANCH  41  45
HETATM   45  O4  UNL     1      -9.366  -0.115   1.510  1.00  0.00    -0.353 OA
HETATM   46  C25 UNL     1      -9.394   1.290   1.610  1.00  0.00     0.210 C 
ENDBRANCH  41  45
ENDBRANCH  36  37
ENDBRANCH  33  36
ENDBRANCH   7  32
TORSDOF 12
