REMARK  20 active torsions:
REMARK  status: ('A' for Active; 'I' for Inactive)
REMARK    1  A    between atoms: O1_2  and  C2_3 
REMARK    2  A    between atoms: C4_10  and  N4_11 
REMARK    3  A    between atoms: N4_11  and  C5_13 
REMARK    4  A    between atoms: C5_13  and  C6_14 
REMARK    5  A    between atoms: C6_14  and  O2_15 
REMARK    6  A    between atoms: O2_15  and  C7_16 
REMARK    7  A    between atoms: C8_18  and  O4_19 
REMARK    8  A    between atoms: O4_19  and  C9_20 
REMARK    9  A    between atoms: C10_21  and  N5_22 
REMARK   10  A    between atoms: C12_27  and  N6_28 
REMARK   11  A    between atoms: C13_32  and  C14_33 
REMARK   12  A    between atoms: C13_32  and  O6_36 
REMARK   13  A    between atoms: C14_33  and  O5_34 
REMARK   14  A    between atoms: C16_38  and  O7_39 
REMARK   15  A    between atoms: C17_41  and  O8_42 
REMARK   16  A    between atoms: C19_46  and  O9_47 
REMARK   17  A    between atoms: O9_47  and  C20_48 
REMARK   18  A    between atoms: C21_49  and  N7_50 
REMARK   19  A    between atoms: C23_55  and  N8_56 
REMARK   20  A    between atoms: C25_61  and  N9_62 
ROOT
HETATM    1  C5  UNL     1       1.781  -0.988   1.702  1.00  0.00     0.083 C 
ENDROOT
BRANCH   1   2
HETATM    2  N4  UNL     1       1.739  -0.563   0.378  1.00  0.00    -0.377 N 
ATOM      3  H4  UNL     1       1.193   0.267   0.147  1.00  0.00     0.160 HD
BRANCH   2   4
HETATM    4  C4  UNL     1       2.424  -1.237  -0.662  1.00  0.00     0.216 C 
HETATM    5  N3  UNL     1       1.905  -2.517  -1.020  1.00  0.00    -0.341 N 
HETATM    6  C3  UNL     1       2.605  -3.512  -1.371  1.00  0.00     0.187 C 
ATOM      7  H3  UNL     1       0.893  -2.640  -0.991  1.00  0.00     0.164 HD
HETATM    8  N1  UNL     1       4.016  -3.363  -1.414  1.00  0.00    -0.336 N 
HETATM    9  N2  UNL     1       2.038  -4.777  -1.744  1.00  0.00    -0.064 NA
HETATM   10  C2  UNL     1       4.612  -2.502  -0.405  1.00  0.00     0.255 C 
ATOM     11  H1  UNL     1       4.583  -3.836  -2.117  1.00  0.00     0.164 HD
HETATM   12  C19 UNL     1       3.914  -1.182  -0.415  1.00  0.00     0.213 C 
BRANCH  10  13
HETATM   13  O1  UNL     1       4.435  -3.120   0.834  1.00  0.00    -0.369 OA
HETATM   14  C1  UNL     1       5.666  -3.350   1.433  1.00  0.00     0.204 C 
ENDBRANCH  10  13
BRANCH  12  15
HETATM   15  O9  UNL     1       4.458  -0.316  -1.399  1.00  0.00    -0.368 OA
BRANCH  15  16
HETATM   16  C20 UNL     1       4.959   0.794  -0.778  1.00  0.00     0.183 C 
HETATM   17  C21 UNL     1       4.124   2.040  -1.131  1.00  0.00     0.216 C 
HETATM   18  C22 UNL     1       4.478   3.107  -0.137  1.00  0.00     0.068 C 
HETATM   19  C23 UNL     1       5.945   3.399  -0.079  1.00  0.00     0.187 C 
HETATM   20  C24 UNL     1       6.798   2.162   0.001  1.00  0.00     0.068 C 
HETATM   21  C25 UNL     1       6.373   1.166  -1.090  1.00  0.00     0.216 C 
BRANCH  17  22
HETATM   22  N7  UNL     1       4.352   2.413  -2.497  1.00  0.00    -0.072 N 
ATOM     23  H73 UNL     1       5.343   2.548  -2.696  1.00  0.00     0.274 HD
ATOM     24  H72 UNL     1       4.175   1.640  -3.139  1.00  0.00     0.274 HD
ATOM     25  H71 UNL     1       3.799   3.238  -2.731  1.00  0.00     0.274 HD
ENDBRANCH  17  22
BRANCH  19  26
HETATM   26  N8  UNL     1       6.181   4.173   1.142  1.00  0.00    -0.075 N 
ATOM     27  H83 UNL     1       5.603   5.011   1.203  1.00  0.00     0.274 HD
ATOM     28  H82 UNL     1       5.831   3.712   1.982  1.00  0.00     0.274 HD
ATOM     29  H81 UNL     1       7.181   4.372   1.182  1.00  0.00     0.274 HD
ENDBRANCH  19  26
BRANCH  21  30
HETATM   30  N9  UNL     1       7.312   0.089  -1.119  1.00  0.00    -0.072 N 
ATOM     31  H93 UNL     1       7.276  -0.426  -0.239  1.00  0.00     0.274 HD
ATOM     32  H92 UNL     1       6.993  -0.631  -1.767  1.00  0.00     0.274 HD
ATOM     33  H91 UNL     1       8.277   0.343  -1.332  1.00  0.00     0.274 HD
ENDBRANCH  21  30
ENDBRANCH  15  16
ENDBRANCH  12  15
ENDBRANCH   2   4
ENDBRANCH   1   2
BRANCH   1  34
HETATM   34  C6  UNL     1       1.080  -2.275   2.041  1.00  0.00     0.215 C 
BRANCH  34  35
HETATM   35  O2  UNL     1      -0.254  -2.313   1.790  1.00  0.00    -0.353 OA
BRANCH  35  36
HETATM   36  C7  UNL     1      -1.042  -1.394   2.449  1.00  0.00     0.299 C 
HETATM   37  O3  UNL     1      -1.683  -0.631   1.528  1.00  0.00    -0.326 OA
HETATM   38  C8  UNL     1      -2.995  -0.376   1.917  1.00  0.00     0.295 C 
HETATM   39  C17 UNL     1      -3.336  -1.370   2.993  1.00  0.00     0.212 C 
HETATM   40  C18 UNL     1      -2.053  -2.027   3.359  1.00  0.00     0.258 C 
HETATM   41  F1  UNL     1      -2.162  -3.378   3.201  1.00  0.00    -0.241 F 
BRANCH  38  42
HETATM   42  O4  UNL     1      -3.778  -0.604   0.854  1.00  0.00    -0.348 OA
BRANCH  42  43
HETATM   43  C9  UNL     1      -4.535   0.303   0.253  1.00  0.00     0.187 C 
HETATM   44  C10 UNL     1      -4.033   0.478  -1.171  1.00  0.00     0.217 C 
HETATM   45  C11 UNL     1      -5.127   0.473  -2.197  1.00  0.00     0.071 C 
HETATM   46  C12 UNL     1      -6.297   1.338  -1.916  1.00  0.00     0.224 C 
HETATM   47  C13 UNL     1      -6.731   1.169  -0.497  1.00  0.00     0.137 C 
HETATM   48  C16 UNL     1      -6.019   0.032   0.205  1.00  0.00     0.188 C 
BRANCH  44  49
HETATM   49  N5  UNL     1      -3.142   1.628  -1.293  1.00  0.00    -0.072 N 
ATOM     50  H53 UNL     1      -3.585   2.480  -0.948  1.00  0.00     0.274 HD
ATOM     51  H52 UNL     1      -2.368   1.571  -0.631  1.00  0.00     0.274 HD
ATOM     52  H51 UNL     1      -2.805   1.745  -2.249  1.00  0.00     0.274 HD
ENDBRANCH  44  49
BRANCH  46  53
HETATM   53  N6  UNL     1      -6.006   2.750  -2.224  1.00  0.00    -0.072 N 
ATOM     54  H63 UNL     1      -5.173   3.076  -1.734  1.00  0.00     0.274 HD
ATOM     55  H62 UNL     1      -5.678   2.864  -3.183  1.00  0.00     0.274 HD
ATOM     56  H61 UNL     1      -6.811   3.345  -2.031  1.00  0.00     0.274 HD
ENDBRANCH  46  53
BRANCH  47  57
HETATM   57  C14 UNL     1      -6.514   2.490   0.269  1.00  0.00     0.207 C 
BRANCH  57  58
HETATM   58  O5  UNL     1      -6.909   2.403   1.583  1.00  0.00    -0.398 OA
ATOM     59  H5  UNL     1      -6.775   3.217   2.055  1.00  0.00     0.209 HD
ENDBRANCH  57  58
ENDBRANCH  47  57
BRANCH  47  60
HETATM   60  O6  UNL     1      -8.091   0.953  -0.402  1.00  0.00    -0.378 OA
HETATM   61  C15 UNL     1      -8.604  -0.136  -1.027  1.00  0.00     0.202 C 
ENDBRANCH  47  60
BRANCH  48  62
HETATM   62  O7  UNL     1      -6.574  -0.011   1.481  1.00  0.00    -0.390 OA
ATOM     63  H7  UNL     1      -7.508  -0.182   1.451  1.00  0.00     0.210 HD
ENDBRANCH  48  62
ENDBRANCH  42  43
ENDBRANCH  38  42
BRANCH  39  64
HETATM   64  O8  UNL     1      -4.238  -2.328   2.492  1.00  0.00    -0.388 OA
ATOM     65  H8  UNL     1      -4.453  -2.956   3.172  1.00  0.00     0.210 HD
ENDBRANCH  39  64
ENDBRANCH  35  36
ENDBRANCH  34  35
ENDBRANCH   1  34
TORSDOF 20
