REMARK  22 active torsions:
REMARK  status: ('A' for Active; 'I' for Inactive)
REMARK    1  A    between atoms: N1_1  and  C1_5 
REMARK    2  A    between atoms: C3_10  and  O1_11 
REMARK    3  A    between atoms: O1_11  and  C4_12 
REMARK    4  A    between atoms: C5_14  and  C6_15 
REMARK    5  A    between atoms: C6_15  and  O3_16 
REMARK    6  A    between atoms: C7_18  and  O4_19 
REMARK    7  A    between atoms: O4_19  and  C8_20 
REMARK    8  A    between atoms: C10_23  and  O6_24 
REMARK    9  A    between atoms: C11_26  and  O7_27 
REMARK   10  A    between atoms: C12_29  and  O8_30 
REMARK   11  A    between atoms: C13_32  and  O9_33 
REMARK   12  A    between atoms: O9_33  and  C14_34 
REMARK   13  A    between atoms: C14_34  and  C15_35 
REMARK   14  A    between atoms: C15_35  and  C16_36 
REMARK   15  A    between atoms: C16_36  and  C17_37 
REMARK   16  A    between atoms: C18_40  and  O11_41 
REMARK   17  A    between atoms: C19_43  and  O12_44 
REMARK   18  A    between atoms: O12_44  and  C20_45 
REMARK   19  A    between atoms: C21_46  and  N3_47 
REMARK   20  A    between atoms: C23_52  and  O13_53 
REMARK   21  A    between atoms: C24_55  and  O14_56 
REMARK   22  A    between atoms: C25_58  and  O15_59 
ROOT
HETATM    1  C1  UNL     1       4.247   0.300   2.689  1.00  0.00     0.240 C 
HETATM    2  C2  UNL     1       3.142   0.283   3.724  1.00  0.00     0.270 C 
HETATM    3  N2  UNL     1       1.904  -0.208   3.141  1.00  0.00    -0.044 N 
ATOM      4  H21 UNL     1       1.138  -0.153   3.812  1.00  0.00     0.280 HD
ATOM      5  H22 UNL     1       1.939  -1.219   3.010  1.00  0.00     0.280 HD
HETATM    6  C3  UNL     1       1.564   0.449   1.929  1.00  0.00     0.356 C 
HETATM    7  C18 UNL     1       2.636   0.346   0.905  1.00  0.00     0.205 C 
HETATM    8  C19 UNL     1       3.781  -0.492   1.437  1.00  0.00     0.187 C 
ENDROOT
BRANCH   6   9
HETATM    9  O1  UNL     1       0.291   0.120   1.466  1.00  0.00    -0.303 OA
BRANCH   9  10
HETATM   10  C4  UNL     1      -0.576   1.219   1.428  1.00  0.00     0.418 C 
HETATM   11  O2  UNL     1      -1.566   1.017   2.343  1.00  0.00    -0.329 OA
HETATM   12  C5  UNL     1      -2.641   0.261   1.997  1.00  0.00     0.184 C 
HETATM   13  C7  UNL     1      -3.118   0.391   0.583  1.00  0.00     0.211 C 
HETATM   14  C13 UNL     1      -2.302   1.458  -0.125  1.00  0.00     0.296 C 
HETATM   15  O10 UNL     1      -0.961   1.342   0.110  1.00  0.00    -0.305 OA
BRANCH  12  16
HETATM   16  C6  UNL     1      -3.810   0.472   2.969  1.00  0.00     0.199 C 
BRANCH  16  17
HETATM   17  O3  UNL     1      -4.915  -0.296   2.624  1.00  0.00    -0.398 OA
ATOM     18  H3  UNL     1      -5.639  -0.165   3.226  1.00  0.00     0.209 HD
ENDBRANCH  16  17
ENDBRANCH  12  16
BRANCH  13  19
HETATM   19  O4  UNL     1      -3.079  -0.817  -0.109  1.00  0.00    -0.346 OA
BRANCH  19  20
HETATM   20  C8  UNL     1      -4.330  -1.165  -0.561  1.00  0.00     0.291 C 
HETATM   21  O5  UNL     1      -4.817  -2.363  -0.063  1.00  0.00    -0.356 OA
HETATM   22  C9  UNL     1      -6.212  -2.321  -0.221  1.00  0.00     0.205 C 
HETATM   23  C10 UNL     1      -6.526  -2.485  -1.687  1.00  0.00     0.173 C 
HETATM   24  C11 UNL     1      -5.835  -1.411  -2.473  1.00  0.00     0.182 C 
HETATM   25  C12 UNL     1      -4.388  -1.298  -2.084  1.00  0.00     0.204 C 
BRANCH  23  26
HETATM   26  O6  UNL     1      -7.909  -2.369  -1.833  1.00  0.00    -0.391 OA
ATOM     27  H6  UNL     1      -8.107  -2.472  -2.756  1.00  0.00     0.210 HD
ENDBRANCH  23  26
BRANCH  24  28
HETATM   28  O7  UNL     1      -5.890  -1.656  -3.849  1.00  0.00    -0.390 OA
ATOM     29  H7  UNL     1      -5.452  -0.976  -4.347  1.00  0.00     0.210 HD
ENDBRANCH  24  28
BRANCH  25  30
HETATM   30  O8  UNL     1      -3.679  -2.426  -2.438  1.00  0.00    -0.388 OA
ATOM     31  H8  UNL     1      -3.715  -2.509  -3.384  1.00  0.00     0.210 HD
ENDBRANCH  25  30
ENDBRANCH  19  20
ENDBRANCH  13  19
BRANCH  14  32
HETATM   32  O9  UNL     1      -2.824   2.694   0.215  1.00  0.00    -0.358 OA
BRANCH  32  33
HETATM   33  C14 UNL     1      -3.396   3.256  -0.975  1.00  0.00     0.171 C 
BRANCH  33  34
HETATM   34  C15 UNL     1      -3.970   4.587  -0.681  1.00  0.00     0.029 C 
BRANCH  34  35
HETATM   35  C16 UNL     1      -4.536   5.280  -1.863  1.00  0.00     0.033 C 
BRANCH  35  36
HETATM   36  C17 UNL     1      -5.651   4.578  -2.545  1.00  0.00     0.222 C 
HETATM   37  F1  UNL     1      -5.247   3.380  -3.058  1.00  0.00    -0.255 F 
ENDBRANCH  35  36
ENDBRANCH  34  35
ENDBRANCH  33  34
ENDBRANCH  32  33
ENDBRANCH  14  32
ENDBRANCH   9  10
ENDBRANCH   6   9
BRANCH   7  38
HETATM   38  O11 UNL     1       3.063   1.578   0.430  1.00  0.00    -0.389 OA
ATOM     39  H11 UNL     1       3.748   1.512  -0.225  1.00  0.00     0.210 HD
ENDBRANCH   7  38
BRANCH   8  40
HETATM   40  O12 UNL     1       4.799  -0.463   0.577  1.00  0.00    -0.371 OA
BRANCH  40  41
HETATM   41  C20 UNL     1       5.489  -1.525   0.127  1.00  0.00     0.183 C 
HETATM   42  C21 UNL     1       5.370  -1.798  -1.357  1.00  0.00     0.217 C 
HETATM   43  C22 UNL     1       6.519  -1.147  -2.134  1.00  0.00     0.069 C 
HETATM   44  C23 UNL     1       7.756  -1.892  -1.766  1.00  0.00     0.151 C 
HETATM   45  C24 UNL     1       7.558  -2.645  -0.451  1.00  0.00     0.178 C 
HETATM   46  C25 UNL     1       6.927  -1.644   0.504  1.00  0.00     0.180 C 
BRANCH  42  47
HETATM   47  N3  UNL     1       4.097  -1.430  -1.924  1.00  0.00    -0.072 N 
ATOM     48  H33 UNL     1       3.336  -1.880  -1.416  1.00  0.00     0.274 HD
ATOM     49  H32 UNL     1       3.885  -0.453  -1.722  1.00  0.00     0.274 HD
ATOM     50  H31 UNL     1       4.017  -1.614  -2.924  1.00  0.00     0.274 HD
ENDBRANCH  42  47
BRANCH  44  51
HETATM   51  O13 UNL     1       7.978  -2.870  -2.743  1.00  0.00    -0.393 OA
ATOM     52  H13 UNL     1       8.767  -3.345  -2.508  1.00  0.00     0.210 HD
ENDBRANCH  44  51
BRANCH  45  53
HETATM   53  O14 UNL     1       8.884  -2.922  -0.013  1.00  0.00    -0.390 OA
ATOM     54  H14 UNL     1       8.761  -3.390   0.804  1.00  0.00     0.210 HD
ENDBRANCH  45  53
BRANCH  46  55
HETATM   55  O15 UNL     1       7.675  -0.491   0.340  1.00  0.00    -0.390 OA
ATOM     56  H15 UNL     1       8.591  -0.567   0.580  1.00  0.00     0.210 HD
ENDBRANCH  46  55
ENDBRANCH  40  41
ENDBRANCH   8  40
BRANCH   1  57
HETATM   57  N1  UNL     1       5.394  -0.333   3.305  1.00  0.00    -0.071 N 
ATOM     58  H13 UNL     1       5.664   0.093   4.191  1.00  0.00     0.274 HD
ATOM     59  H12 UNL     1       5.195  -1.265   3.669  1.00  0.00     0.274 HD
ATOM     60  H11 UNL     1       6.138  -0.322   2.608  1.00  0.00     0.274 HD
ENDBRANCH   1  57
TORSDOF 22
