REMARK  19 active torsions:
REMARK  status: ('A' for Active; 'I' for Inactive)
REMARK    1  A    between atoms: C2_7  and  N3_8 
REMARK    2  A    between atoms: C4_10  and  N4_11 
REMARK    3  A    between atoms: C6_16  and  N5_17 
REMARK    4  A    between atoms: N8_28  and  C10_29 
REMARK    5  A    between atoms: C11_30  and  O1_31 
REMARK    6  A    between atoms: C12_33  and  O2_34 
REMARK    7  A    between atoms: C13_36  and  N9_37 
REMARK    8  A    between atoms: N9_37  and  C14_39 
REMARK    9  A    between atoms: C14_39  and  C15_40 
REMARK   10  A    between atoms: C15_40  and  O3_41 
REMARK   11  A    between atoms: O3_41  and  C16_42 
REMARK   12  A    between atoms: C16_42  and  C17_43 
REMARK   13  A    between atoms: C17_43  and  O4_44 
REMARK   14  A    between atoms: O4_44  and  C18_45 
REMARK   15  A    between atoms: C20_48  and  O6_49 
REMARK   16  A    between atoms: C21_51  and  O7_52 
REMARK   17  A    between atoms: C22_54  and  N10_55 
REMARK   18  A    between atoms: N11_60  and  C24_61 
REMARK   19  A    between atoms: C24_61  and  C25_62 
ROOT
HETATM    1  C10 UNL     1      -1.866  -1.232  -1.212  1.00  0.00     0.362 C 
HETATM    2  C11 UNL     1      -0.560  -1.748  -1.721  1.00  0.00     0.202 C 
HETATM    3  C12 UNL     1       0.621  -1.160  -0.971  1.00  0.00     0.174 C 
HETATM    4  C13 UNL     1       0.337  -1.028   0.493  1.00  0.00     0.136 C 
HETATM    5  C23 UNL     1      -1.012  -0.399   0.768  1.00  0.00     0.302 C 
HETATM    6  N11 UNL     1      -2.006  -1.262   0.202  1.00  0.00     0.118 N 
ENDROOT
BRANCH   1   7
HETATM    7  N8  UNL     1      -3.015  -1.717  -1.953  1.00  0.00    -0.293 N 
HETATM    8  C7  UNL     1      -4.247  -1.194  -1.853  1.00  0.00     0.157 A 
HETATM    9  N6  UNL     1      -4.761  -0.160  -1.117  1.00  0.00    -0.174 N 
HETATM   10  C8  UNL     1      -5.074  -1.892  -2.685  1.00  0.00     0.123 A 
HETATM   11  C2  UNL     1      -6.065   0.140  -1.232  1.00  0.00     0.685 A 
ATOM     12  H6  UNL     1      -4.161   0.376  -0.489  1.00  0.00     0.186 HD
HETATM   13  N2  UNL     1      -6.874  -0.554  -2.054  1.00  0.00    -0.175 N 
HETATM   14  C1  UNL     1      -6.432  -1.582  -2.806  1.00  0.00     0.145 A 
ATOM     15  H2  UNL     1      -7.858  -0.292  -2.110  1.00  0.00     0.186 HD
HETATM   16  N1  UNL     1      -7.173  -2.255  -3.591  1.00  0.00    -0.383 N 
ATOM     17  H12 UNL     1      -8.164  -2.029  -3.679  1.00  0.00     0.157 HD
ATOM     18  H11 UNL     1      -6.839  -3.033  -4.160  1.00  0.00     0.157 HD
HETATM   19  N7  UNL     1      -4.313  -2.825  -3.270  1.00  0.00    -0.346 N 
HETATM   20  C9  UNL     1      -3.052  -2.714  -2.819  1.00  0.00     0.187 A 
ATOM     21  H7  UNL     1      -4.639  -3.512  -3.950  1.00  0.00     0.167 HD
BRANCH  11  22
HETATM   22  N3  UNL     1      -6.631   1.220  -0.473  1.00  0.00    -0.186 N 
HETATM   23  C3  UNL     1      -8.015   1.646  -0.461  1.00  0.00     0.176 C 
HETATM   24  C4  UNL     1      -8.226   2.007   1.000  1.00  0.00     0.205 C 
HETATM   25  C5  UNL     1      -6.922   2.755   1.288  1.00  0.00     0.089 C 
HETATM   26  C6  UNL     1      -5.885   2.078   0.416  1.00  0.00     0.301 C 
BRANCH  24  27
HETATM   27  N4  UNL     1      -9.380   2.830   1.205  1.00  0.00    -0.073 N 
ATOM     28  H43 UNL     1      -9.340   3.667   0.623  1.00  0.00     0.274 HD
ATOM     29  H42 UNL     1     -10.214   2.395   0.811  1.00  0.00     0.274 HD
ATOM     30  H41 UNL     1      -9.522   3.072   2.186  1.00  0.00     0.274 HD
ENDBRANCH  24  27
BRANCH  26  31
HETATM   31  N5  UNL     1      -4.945   1.315   1.228  1.00  0.00    -0.058 N 
ATOM     32  H53 UNL     1      -5.414   0.566   1.738  1.00  0.00     0.276 HD
ATOM     33  H52 UNL     1      -4.326   0.748   0.649  1.00  0.00     0.276 HD
ATOM     34  H51 UNL     1      -4.418   1.921   1.856  1.00  0.00     0.276 HD
ENDBRANCH  26  31
ENDBRANCH  11  22
ENDBRANCH   1   7
BRANCH   2  35
HETATM   35  O1  UNL     1      -0.492  -3.123  -1.534  1.00  0.00    -0.389 OA
ATOM     36  H1  UNL     1       0.339  -3.451  -1.858  1.00  0.00     0.210 HD
ENDBRANCH   2  35
BRANCH   6  37
HETATM   37  C24 UNL     1      -2.219  -2.503   0.827  1.00  0.00     0.306 C 
BRANCH  37  38
HETATM   38  C25 UNL     1      -2.348  -2.334   2.330  1.00  0.00     0.252 C 
HETATM   39  F1  UNL     1      -3.376  -1.528   2.705  1.00  0.00    -0.254 F 
ENDBRANCH  37  38
ENDBRANCH   6  37
BRANCH   3  40
HETATM   40  O2  UNL     1       0.885   0.093  -1.506  1.00  0.00    -0.391 OA
ATOM     41  H2  UNL     1       1.624   0.461  -1.036  1.00  0.00     0.210 HD
ENDBRANCH   3  40
BRANCH   4  42
HETATM   42  N9  UNL     1       1.373  -0.480   1.287  1.00  0.00    -0.411 N 
ATOM     43  H9  UNL     1       1.802  -1.040   2.024  1.00  0.00     0.153 HD
BRANCH  42  44
HETATM   44  C14 UNL     1       1.811   0.839   1.059  1.00  0.00     0.140 C 
BRANCH  44  45
HETATM   45  C15 UNL     1       2.880   1.122   2.140  1.00  0.00     0.186 C 
BRANCH  45  46
HETATM   46  O3  UNL     1       3.926   0.222   2.021  1.00  0.00    -0.387 OA
BRANCH  46  47
HETATM   47  C16 UNL     1       4.908   0.438   2.967  1.00  0.00     0.194 C 
BRANCH  47  48
HETATM   48  C17 UNL     1       6.048  -0.522   2.871  1.00  0.00     0.197 C 
BRANCH  48  49
HETATM   49  O4  UNL     1       6.744  -0.530   1.695  1.00  0.00    -0.357 OA
BRANCH  49  50
HETATM   50  C18 UNL     1       7.360   0.681   1.402  1.00  0.00     0.292 C 
HETATM   51  O5  UNL     1       8.749   0.560   1.465  1.00  0.00    -0.356 OA
HETATM   52  C19 UNL     1       9.401   0.673   0.271  1.00  0.00     0.205 C 
HETATM   53  C20 UNL     1       8.710  -0.211  -0.753  1.00  0.00     0.173 C 
HETATM   54  C21 UNL     1       7.413   0.500  -1.091  1.00  0.00     0.184 C 
HETATM   55  C22 UNL     1       6.881   1.253   0.113  1.00  0.00     0.269 C 
BRANCH  53  56
HETATM   56  O6  UNL     1       9.479  -0.442  -1.875  1.00  0.00    -0.391 OA
ATOM     57  H6  UNL     1       9.047  -0.995  -2.515  1.00  0.00     0.210 HD
ENDBRANCH  53  56
BRANCH  54  58
HETATM   58  O7  UNL     1       7.670   1.426  -2.099  1.00  0.00    -0.391 OA
ATOM     59  H7  UNL     1       6.858   1.871  -2.311  1.00  0.00     0.210 HD
ENDBRANCH  54  58
BRANCH  55  60
HETATM   60  N10 UNL     1       7.176   2.671   0.058  1.00  0.00    -0.068 N 
ATOM     61 3H10 UNL     1       6.797   3.171   0.862  1.00  0.00     0.275 HD
ATOM     62 2H10 UNL     1       8.165   2.862   0.216  1.00  0.00     0.275 HD
ATOM     63 1H10 UNL     1       6.848   3.063  -0.825  1.00  0.00     0.275 HD
ENDBRANCH  55  60
ENDBRANCH  49  50
ENDBRANCH  48  49
ENDBRANCH  47  48
ENDBRANCH  46  47
ENDBRANCH  45  46
ENDBRANCH  44  45
ENDBRANCH  42  44
ENDBRANCH   4  42
TORSDOF 19
