REMARK  19 active torsions:
REMARK  status: ('A' for Active; 'I' for Inactive)
REMARK    1  A    between atoms: C2_2  and  N1_3 
REMARK    2  A    between atoms: C4_8  and  N2_9 
REMARK       I    between atoms: N2_9  and  C5_11 
REMARK    3  A    between atoms: C6_15  and  O3_16 
REMARK    4  A    between atoms: O3_16  and  C7_17 
REMARK    5  A    between atoms: C8_18  and  C9_19 
REMARK    6  A    between atoms: C9_19  and  O4_20 
REMARK    7  A    between atoms: O4_20  and  C10_21 
REMARK    8  A    between atoms: C11_23  and  C12_24 
REMARK    9  A    between atoms: C12_24  and  N4_25 
REMARK   10  A    between atoms: C13_29  and  O6_30 
REMARK   11  A    between atoms: C15_33  and  N5_34 
REMARK   12  A    between atoms: C18_40  and  N6_41 
REMARK   13  A    between atoms: C19_45  and  O7_46 
REMARK   14  A    between atoms: O7_46  and  C20_47 
REMARK   15  A    between atoms: C21_49  and  C22_50 
REMARK   16  A    between atoms: C22_50  and  O9_51 
REMARK   17  A    between atoms: C23_54  and  O11_55 
REMARK   18  A    between atoms: C24_57  and  C25_58 
REMARK   19  A    between atoms: C25_58  and  O12_59 
ROOT
HETATM    1  C7  UNL     1      -0.503   0.116   0.483  1.00  0.00     0.162 C 
HETATM    2  C8  UNL     1       0.959   0.135   0.085  1.00  0.00     0.041 C 
HETATM    3  C16 UNL     1       1.747   0.202   1.363  1.00  0.00     0.011 C 
HETATM    4  C17 UNL     1       1.506  -1.064   2.139  1.00  0.00     0.036 C 
HETATM    5  C18 UNL     1       0.054  -0.992   2.605  1.00  0.00     0.215 C 
HETATM    6  C19 UNL     1      -0.873  -0.971   1.436  1.00  0.00     0.184 C 
ENDROOT
BRANCH   2   7
HETATM    7  C9  UNL     1       1.344  -0.954  -0.836  1.00  0.00     0.178 C 
BRANCH   7   8
HETATM    8  O4  UNL     1       2.654  -0.947  -1.204  1.00  0.00    -0.359 OA
BRANCH   8   9
HETATM    9  C10 UNL     1       3.125   0.140  -1.879  1.00  0.00     0.290 C 
HETATM   10  O5  UNL     1       4.162   0.827  -1.240  1.00  0.00    -0.350 OA
HETATM   11  C11 UNL     1       5.291   0.041  -1.075  1.00  0.00     0.178 C 
HETATM   12  C13 UNL     1       5.933  -0.082  -2.454  1.00  0.00     0.151 C 
HETATM   13  C14 UNL     1       4.934  -0.885  -3.294  1.00  0.00     0.072 C 
HETATM   14  C15 UNL     1       3.619  -0.181  -3.274  1.00  0.00     0.240 C 
BRANCH  11  15
HETATM   15  C12 UNL     1       6.226   0.621  -0.066  1.00  0.00     0.264 C 
BRANCH  15  16
HETATM   16  N4  UNL     1       6.706   1.928  -0.396  1.00  0.00    -0.077 N 
ATOM     17  H43 UNL     1       7.135   1.928  -1.322  1.00  0.00     0.274 HD
ATOM     18  H42 UNL     1       5.926   2.563  -0.566  1.00  0.00     0.274 HD
ATOM     19  H41 UNL     1       7.345   2.324   0.293  1.00  0.00     0.274 HD
ENDBRANCH  15  16
ENDBRANCH  11  15
BRANCH  12  20
HETATM   20  O6  UNL     1       7.176  -0.657  -2.419  1.00  0.00    -0.393 OA
ATOM     21  H6  UNL     1       7.576  -0.734  -3.277  1.00  0.00     0.210 HD
ENDBRANCH  12  20
BRANCH  14  22
HETATM   22  N5  UNL     1       3.808   1.118  -3.940  1.00  0.00    -0.070 N 
ATOM     23  H53 UNL     1       2.976   1.708  -3.927  1.00  0.00     0.274 HD
ATOM     24  H52 UNL     1       4.418   1.755  -3.427  1.00  0.00     0.274 HD
ATOM     25  H51 UNL     1       4.141   0.902  -4.880  1.00  0.00     0.274 HD
ENDBRANCH  14  22
ENDBRANCH   8   9
ENDBRANCH   7   8
ENDBRANCH   2   7
BRANCH   1  26
HETATM   26  O3  UNL     1      -0.717   1.328   1.142  1.00  0.00    -0.350 OA
BRANCH  26  27
HETATM   27  C6  UNL     1      -1.637   2.130   0.526  1.00  0.00     0.298 C 
HETATM   28  C2  UNL     1      -2.723   2.456   1.528  1.00  0.00     0.173 C 
HETATM   29  C1  UNL     1      -2.273   2.231   2.958  1.00  0.00     0.051 C 
HETATM   30  C3  UNL     1      -2.954   3.946   1.268  1.00  0.00     0.097 C 
HETATM   31  C4  UNL     1      -2.281   4.091  -0.080  1.00  0.00     0.230 C 
HETATM   32  O2  UNL     1      -1.112   3.358   0.115  1.00  0.00    -0.334 OA
BRANCH  28  33
HETATM   33  N1  UNL     1      -3.962   1.770   1.236  1.00  0.00    -0.066 N 
ATOM     34  H13 UNL     1      -3.894   0.775   1.450  1.00  0.00     0.275 HD
ATOM     35  H12 UNL     1      -4.693   2.028   1.899  1.00  0.00     0.275 HD
ATOM     36  H11 UNL     1      -4.265   1.921   0.274  1.00  0.00     0.275 HD
ENDBRANCH  28  33
BRANCH  31  37
HETATM   37  N2  UNL     1      -2.065   5.440  -0.473  1.00  0.00    -0.319 N 
HETATM   38  C5  UNL     1      -2.607   5.903  -1.698  1.00  0.00     0.330 C 
HETATM   39  N3  UNL     1      -2.424   7.258  -2.152  1.00  0.00    -0.040 NA
HETATM   40  O1  UNL     1      -3.266   5.151  -2.434  1.00  0.00    -0.251 OA
ATOM     41  H2  UNL     1      -1.525   6.069   0.121  1.00  0.00     0.166 HD
ENDBRANCH  31  37
ENDBRANCH  26  27
ENDBRANCH   1  26
BRANCH   6  42
HETATM   42  O7  UNL     1      -1.047  -2.205   0.825  1.00  0.00    -0.351 OA
BRANCH  42  43
HETATM   43  C20 UNL     1      -2.346  -2.663   0.903  1.00  0.00     0.274 C 
HETATM   44  O8  UNL     1      -2.838  -2.721  -0.401  1.00  0.00    -0.329 OA
HETATM   45  C21 UNL     1      -4.164  -3.149  -0.430  1.00  0.00     0.289 C 
HETATM   46  O10 UNL     1      -4.616  -3.359   0.855  1.00  0.00    -0.329 OA
HETATM   47  C23 UNL     1      -3.907  -4.462   1.381  1.00  0.00     0.270 C 
HETATM   48  C24 UNL     1      -2.480  -4.031   1.517  1.00  0.00     0.120 C 
BRANCH  45  49
HETATM   49  C22 UNL     1      -5.067  -2.112  -1.066  1.00  0.00     0.225 C 
BRANCH  49  50
HETATM   50  O9  UNL     1      -4.694  -1.839  -2.374  1.00  0.00    -0.396 OA
ATOM     51  H9  UNL     1      -5.260  -1.189  -2.773  1.00  0.00     0.209 HD
ENDBRANCH  49  50
ENDBRANCH  45  49
BRANCH  47  52
HETATM   52  O11 UNL     1      -4.101  -5.608   0.652  1.00  0.00    -0.371 OA
ATOM     53  H11 UNL     1      -3.624  -6.350   1.006  1.00  0.00     0.212 HD
ENDBRANCH  47  52
BRANCH  48  54
HETATM   54  C25 UNL     1      -1.503  -5.001   0.880  1.00  0.00     0.178 C 
BRANCH  54  55
HETATM   55  O12 UNL     1      -0.212  -4.511   1.097  1.00  0.00    -0.400 OA
ATOM     56  H12 UNL     1       0.400  -5.118   0.698  1.00  0.00     0.209 HD
ENDBRANCH  54  55
ENDBRANCH  48  54
ENDBRANCH  42  43
ENDBRANCH   6  42
BRANCH   5  57
HETATM   57  N6  UNL     1      -0.245  -1.957   3.606  1.00  0.00    -0.072 N 
ATOM     58  H63 UNL     1      -0.007  -2.898   3.292  1.00  0.00     0.274 HD
ATOM     59  H62 UNL     1       0.398  -1.880   4.394  1.00  0.00     0.274 HD
ATOM     60  H61 UNL     1      -1.215  -1.909   3.917  1.00  0.00     0.274 HD
ENDBRANCH   5  57
TORSDOF 19
