REMARK  20 active torsions:
REMARK  status: ('A' for Active; 'I' for Inactive)
REMARK    1  A    between atoms: O1_2  and  C2_3 
REMARK    2  A    between atoms: C3_5  and  C4_6 
REMARK    3  A    between atoms: C4_6  and  O3_7 
REMARK    4  A    between atoms: C5_9  and  O4_10 
REMARK    5  A    between atoms: O4_10  and  C6_11 
REMARK    6  A    between atoms: C6_11  and  O5_12 
REMARK    7  A    between atoms: O5_12  and  N1_13 
REMARK    8  A    between atoms: C7_16  and  O6_17 
REMARK    9  A    between atoms: C8_19  and  O7_20 
REMARK   10  A    between atoms: O7_20  and  C9_21 
REMARK   11  A    between atoms: C10_23  and  C11_24 
REMARK   12  A    between atoms: C11_24  and  N2_25 
REMARK   13  A    between atoms: N2_25  and  C12_27 
REMARK   14  A    between atoms: C15_31  and  N3_32 
REMARK   15  A    between atoms: C16_36  and  O9_37 
REMARK   16  A    between atoms: C17_39  and  O10_40 
REMARK   17  A    between atoms: C18_43  and  O12_44 
REMARK   18  A    between atoms: O12_44  and  C19_45 
REMARK   19  A    between atoms: C25_51  and  N4_52 
REMARK   20  A    between atoms: C26_56  and  O13_57 
ROOT
HETATM    1  C9  UNL     1      -0.667  -0.210  -0.240  1.00  0.00     0.297 C 
HETATM    2  O8  UNL     1       0.459  -0.824   0.251  1.00  0.00    -0.324 OA
HETATM    3  C10 UNL     1       1.655  -0.301  -0.173  1.00  0.00     0.306 C 
HETATM    4  O11 UNL     1       1.573   0.918  -0.836  1.00  0.00    -0.324 OA
HETATM    5  C18 UNL     1       0.816   1.791  -0.070  1.00  0.00     0.297 C 
HETATM    6  C26 UNL     1      -0.613   1.290  -0.185  1.00  0.00     0.228 C 
ENDROOT
BRANCH   1   7
HETATM    7  O7  UNL     1      -1.762  -0.618   0.518  1.00  0.00    -0.345 OA
BRANCH   7   8
HETATM    8  C8  UNL     1      -2.666  -1.358  -0.230  1.00  0.00     0.211 C 
HETATM    9  C2  UNL     1      -2.868  -2.680   0.492  1.00  0.00     0.291 C 
HETATM   10  O2  UNL     1      -3.704  -3.468  -0.266  1.00  0.00    -0.349 OA
HETATM   11  C3  UNL     1      -4.966  -2.998  -0.361  1.00  0.00     0.180 C 
HETATM   12  C5  UNL     1      -5.093  -1.533  -0.819  1.00  0.00     0.186 C 
HETATM   13  C7  UNL     1      -4.034  -0.685  -0.218  1.00  0.00     0.183 C 
BRANCH   9  14
HETATM   14  O1  UNL     1      -1.641  -3.296   0.692  1.00  0.00    -0.363 OA
HETATM   15  C1  UNL     1      -1.404  -3.378   2.049  1.00  0.00     0.204 C 
ENDBRANCH   9  14
BRANCH  11  16
HETATM   16  C4  UNL     1      -5.703  -3.192   0.943  1.00  0.00     0.198 C 
BRANCH  16  17
HETATM   17  O3  UNL     1      -7.023  -2.693   0.789  1.00  0.00    -0.398 OA
ATOM     18  H3  UNL     1      -7.487  -2.815   1.609  1.00  0.00     0.209 HD
ENDBRANCH  16  17
ENDBRANCH  11  16
BRANCH  12  19
HETATM   19  O4  UNL     1      -5.285  -1.464  -2.166  1.00  0.00    -0.354 OA
BRANCH  19  20
HETATM   20  C6  UNL     1      -6.504  -1.247  -2.682  1.00  0.00     0.369 C 
BRANCH  20  21
HETATM   21  O5  UNL     1      -7.215  -0.129  -2.410  1.00  0.00    -0.262 OA
BRANCH  21  22
HETATM   22  N1  UNL     1      -6.717   1.044  -2.771  1.00  0.00    -0.309 N 
ATOM     23  H12 UNL     1      -5.814   1.086  -3.244  1.00  0.00     0.184 HD
ATOM     24  H11 UNL     1      -7.253   1.887  -2.566  1.00  0.00     0.184 HD
ENDBRANCH  21  22
ENDBRANCH  20  21
ENDBRANCH  19  20
ENDBRANCH  12  19
BRANCH  13  25
HETATM   25  O6  UNL     1      -3.980   0.575  -0.776  1.00  0.00    -0.390 OA
ATOM     26  H6  UNL     1      -3.302   1.118  -0.391  1.00  0.00     0.210 HD
ENDBRANCH  13  25
ENDBRANCH   7   8
ENDBRANCH   1   7
BRANCH   6  27
HETATM   27  O13 UNL     1      -1.308   1.832   0.893  1.00  0.00    -0.386 OA
ATOM     28  H13 UNL     1      -1.274   2.781   0.928  1.00  0.00     0.210 HD
ENDBRANCH   6  27
BRANCH   3  29
HETATM   29  C11 UNL     1       2.627  -0.270   0.968  1.00  0.00     0.121 C 
BRANCH  29  30
HETATM   30  N2  UNL     1       2.986  -1.471   1.546  1.00  0.00    -0.369 N 
ATOM     31  H2  UNL     1       2.620  -1.654   2.481  1.00  0.00     0.164 HD
BRANCH  30  32
HETATM   32  C12 UNL     1       3.786  -2.451   0.996  1.00  0.00     0.020 C 
HETATM   33  C13 UNL     1       5.193  -2.006   0.625  1.00  0.00     0.094 C 
HETATM   34  C14 UNL     1       5.871  -3.193  -0.011  1.00  0.00     0.208 C 
HETATM   35  F1  UNL     1       7.240  -3.190   0.233  1.00  0.00    -0.247 F 
HETATM   36  C15 UNL     1       5.316  -4.496   0.456  1.00  0.00     0.248 C 
HETATM   37  C16 UNL     1       3.938  -4.695  -0.092  1.00  0.00     0.185 C 
HETATM   38  C17 UNL     1       3.161  -3.374   0.020  1.00  0.00     0.194 C 
BRANCH  36  39
HETATM   39  N3  UNL     1       6.157  -5.541  -0.154  1.00  0.00    -0.070 N 
ATOM     40  H33 UNL     1       6.223  -5.468  -1.169  1.00  0.00     0.274 HD
ATOM     41  H32 UNL     1       7.151  -5.429   0.044  1.00  0.00     0.274 HD
ATOM     42  H31 UNL     1       5.777  -6.432   0.165  1.00  0.00     0.274 HD
ENDBRANCH  36  39
BRANCH  37  43
HETATM   43  O9  UNL     1       3.286  -5.737   0.556  1.00  0.00    -0.390 OA
ATOM     44  H9  UNL     1       2.411  -5.863   0.208  1.00  0.00     0.210 HD
ENDBRANCH  37  43
BRANCH  38  45
HETATM   45  O10 UNL     1       1.896  -3.770   0.483  1.00  0.00    -0.387 OA
ATOM     46  H10 UNL     1       1.495  -4.362  -0.143  1.00  0.00     0.210 HD
ENDBRANCH  38  45
ENDBRANCH  30  32
ENDBRANCH  29  30
ENDBRANCH   3  29
BRANCH   5  47
HETATM   47  O12 UNL     1       0.905   3.034  -0.744  1.00  0.00    -0.351 OA
BRANCH  47  48
HETATM   48  C19 UNL     1       1.374   4.050   0.047  1.00  0.00     0.155 C 
HETATM   49  C20 UNL     1       0.349   5.180   0.020  1.00  0.00     0.038 C 
HETATM   50  C21 UNL     1       0.798   6.337   0.857  1.00  0.00    -0.016 C 
HETATM   51  C22 UNL     1      -0.300   7.365   0.860  1.00  0.00     0.010 C 
HETATM   52  C23 UNL     1       2.046   6.923   0.278  1.00  0.00     0.006 C 
HETATM   53  C24 UNL     1       2.529   6.086  -0.873  1.00  0.00     0.036 C 
HETATM   54  C25 UNL     1       2.649   4.627  -0.540  1.00  0.00     0.212 C 
BRANCH  54  55
HETATM   55  N4  UNL     1       3.034   3.928  -1.756  1.00  0.00    -0.073 N 
ATOM     56  H43 UNL     1       3.115   2.923  -1.601  1.00  0.00     0.274 HD
ATOM     57  H42 UNL     1       2.277   3.921  -2.439  1.00  0.00     0.274 HD
ATOM     58  H41 UNL     1       3.891   4.316  -2.151  1.00  0.00     0.274 HD
ENDBRANCH  54  55
ENDBRANCH  47  48
ENDBRANCH   5  47
TORSDOF 20
