REMARK  18 active torsions:
REMARK  status: ('A' for Active; 'I' for Inactive)
REMARK    1  A    between atoms: C2_2  and  N1_3 
REMARK    2  A    between atoms: C2_2  and  C17_43 
REMARK    3  A    between atoms: N1_3  and  N2_5 
REMARK    4  A    between atoms: N2_5  and  N3_7 
REMARK       I    between atoms: N3_7  and  C3_9 
REMARK       I    between atoms: C3_9  and  N4_11 
REMARK    5  A    between atoms: N4_11  and  C4_13 
REMARK    6  A    between atoms: C6_18  and  O3_19 
REMARK    7  A    between atoms: O3_19  and  C7_20 
REMARK    8  A    between atoms: C8_21  and  N6_22 
REMARK    9  A    between atoms: C9_24  and  O4_25 
REMARK   10  A    between atoms: C9_24  and  C10_27 
REMARK   11  A    between atoms: C10_27  and  N7_28 
REMARK   12  A    between atoms: C15_37  and  O5_38 
REMARK   13  A    between atoms: C16_40  and  O6_41 
REMARK   14  A    between atoms: C18_47  and  S1_48 
REMARK   15  A    between atoms: S1_48  and  C19_49 
REMARK   16  A    between atoms: C19_49  and  C20_50 
REMARK   17  A    between atoms: C20_50  and  N9_51 
REMARK   18  A    between atoms: N9_51  and  C21_53 
ROOT
HETATM    1  N3  UNL     1       1.372   0.314  -1.498  1.00  0.00    -0.237 N 
ATOM      2  H3  UNL     1       1.633   0.325  -0.512  1.00  0.00     0.193 HD
HETATM    3  C3  UNL     1       0.054  -0.142  -1.883  1.00  0.00     0.337 C 
HETATM    4  O1  UNL     1      -0.222  -0.127  -3.105  1.00  0.00    -0.245 OA
HETATM    5  N4  UNL     1      -0.850  -0.578  -0.886  1.00  0.00    -0.318 N 
ATOM      6  H4  UNL     1      -0.575  -0.576   0.096  1.00  0.00     0.166 HD
ENDROOT
BRANCH   5   7
HETATM    7  C4  UNL     1      -2.190  -1.033  -1.281  1.00  0.00     0.220 C 
HETATM    8  N5  UNL     1      -2.288  -2.478  -0.994  1.00  0.00    -0.335 N 
HETATM    9  C5  UNL     1      -3.575  -2.756  -0.459  1.00  0.00     0.251 C 
ATOM     10  H5  UNL     1      -1.551  -3.165  -1.154  1.00  0.00     0.164 HD
HETATM   11  O2  UNL     1      -3.913  -3.926  -0.133  1.00  0.00    -0.271 OA
HETATM   12  C6  UNL     1      -4.303  -1.485  -0.395  1.00  0.00     0.246 C 
HETATM   13  C16 UNL     1      -3.188  -0.464  -0.300  1.00  0.00     0.198 C 
BRANCH  12  14
HETATM   14  O3  UNL     1      -5.240  -1.391   0.572  1.00  0.00    -0.360 OA
BRANCH  14  15
HETATM   15  C7  UNL     1      -6.540  -1.122   0.173  1.00  0.00     0.197 C 
HETATM   16  C8  UNL     1      -7.071   0.112   0.875  1.00  0.00     0.023 C 
HETATM   17  C11 UNL     1      -8.179   0.054   1.813  1.00  0.00     0.098 C 
HETATM   18  C12 UNL     1      -9.289  -0.875   1.397  1.00  0.00     0.107 C 
HETATM   19  C13 UNL     1      -9.795  -1.691   2.562  1.00  0.00     0.052 C 
HETATM   20  F1  UNL     1     -10.345  -0.136   0.907  1.00  0.00    -0.243 F 
HETATM   21  C14 UNL     1      -8.852  -1.834   0.317  1.00  0.00     0.078 C 
HETATM   22  C15 UNL     1      -7.441  -2.252   0.595  1.00  0.00     0.155 C 
BRANCH  16  23
HETATM   23  N6  UNL     1      -6.493   1.177   0.583  1.00  0.00    -0.344 N 
HETATM   24  C9  UNL     1      -6.503   2.511   0.857  1.00  0.00     0.141 C 
ATOM     25  H6  UNL     1      -5.758   0.982  -0.097  1.00  0.00     0.167 HD
BRANCH  24  26
HETATM   26  O4  UNL     1      -5.357   2.993   1.260  1.00  0.00    -0.348 OA
ATOM     27  H4  UNL     1      -5.364   3.924   1.451  1.00  0.00     0.219 HD
ENDBRANCH  24  26
BRANCH  24  28
HETATM   28  C10 UNL     1      -7.573   3.510   0.776  1.00  0.00     0.313 C 
BRANCH  28  29
HETATM   29  N7  UNL     1      -7.103   4.856   1.136  1.00  0.00    -0.072 N 
ATOM     30  H73 UNL     1      -6.663   4.860   2.056  1.00  0.00     0.274 HD
ATOM     31  H72 UNL     1      -6.299   5.130   0.571  1.00  0.00     0.274 HD
ATOM     32  H71 UNL     1      -7.847   5.551   1.080  1.00  0.00     0.274 HD
ENDBRANCH  28  29
ENDBRANCH  24  28
ENDBRANCH  16  23
BRANCH  22  33
HETATM   33  O5  UNL     1      -7.254  -2.453   1.967  1.00  0.00    -0.393 OA
ATOM     34  H5  UNL     1      -7.823  -3.166   2.233  1.00  0.00     0.210 HD
ENDBRANCH  22  33
ENDBRANCH  14  15
ENDBRANCH  12  14
BRANCH  13  35
HETATM   35  O6  UNL     1      -2.559  -0.503   0.957  1.00  0.00    -0.389 OA
ATOM     36  H6  UNL     1      -3.187  -0.145   1.574  1.00  0.00     0.210 HD
ENDBRANCH  13  35
ENDBRANCH   5   7
BRANCH   1  37
HETATM   37  N2  UNL     1       2.276   0.732  -2.442  1.00  0.00    -0.239 N 
ATOM     38  H2  UNL     1       1.997   1.442  -3.119  1.00  0.00     0.208 HD
BRANCH  37  39
HETATM   39  N1  UNL     1       3.560   0.211  -2.496  1.00  0.00    -0.287 N 
ATOM     40  H1  UNL     1       3.823  -0.255  -3.364  1.00  0.00     0.188 HD
BRANCH  39  41
HETATM   41  C2  UNL     1       4.447   0.249  -1.584  1.00  0.00     0.069 C 
HETATM   42  C1  UNL     1       4.205   0.894  -0.273  1.00  0.00     0.074 C 
BRANCH  41  43
HETATM   43  C17 UNL     1       5.751  -0.375  -1.873  1.00  0.00     0.152 A 
HETATM   44  N8  UNL     1       6.178  -0.988  -2.978  1.00  0.00    -0.240 N 
HETATM   45  O7  UNL     1       7.413  -1.398  -2.787  1.00  0.00    -0.210 OA
ATOM     46  H8  UNL     1       5.635  -1.118  -3.832  1.00  0.00     0.196 HD
HETATM   47  C18 UNL     1       7.823  -1.079  -1.594  1.00  0.00     0.210 A 
HETATM   48  N14 UNL     1       6.798  -0.435  -0.999  1.00  0.00    -0.313 N 
ATOM     49  H14 UNL     1       6.804  -0.055  -0.052  1.00  0.00     0.170 HD
BRANCH  47  50
HETATM   50  S1  UNL     1       9.436  -1.444  -0.925  1.00  0.00    -0.083 SA
BRANCH  50  51
HETATM   51  C19 UNL     1       9.565  -0.832   0.763  1.00  0.00     0.102 C 
BRANCH  51  52
HETATM   52  C20 UNL     1       9.515   0.687   0.838  1.00  0.00     0.133 C 
BRANCH  52  53
HETATM   53  N9  UNL     1      10.591   1.293   0.104  1.00  0.00    -0.360 N 
ATOM     54  H9  UNL     1      10.408   1.828  -0.745  1.00  0.00     0.162 HD
BRANCH  53  55
HETATM   55  C21 UNL     1      11.923   1.128   0.593  1.00  0.00     0.205 C 
HETATM   56  N10 UNL     1      12.339   1.198   1.812  1.00  0.00    -0.256 N 
HETATM   57  N11 UNL     1      13.711   0.977   1.882  1.00  0.00    -0.006 NA
ATOM     58  H10 UNL     1      11.742   1.390   2.617  1.00  0.00     0.187 HD
HETATM   59  N12 UNL     1      14.205   1.025   0.578  1.00  0.00    -0.006 NA
HETATM   60  N13 UNL     1      13.061   0.848  -0.206  1.00  0.00    -0.256 N 
ATOM     61  H13 UNL     1      13.047   0.566  -1.186  1.00  0.00     0.187 HD
ENDBRANCH  53  55
ENDBRANCH  52  53
ENDBRANCH  51  52
ENDBRANCH  50  51
ENDBRANCH  47  50
ENDBRANCH  41  43
ENDBRANCH  39  41
ENDBRANCH  37  39
ENDBRANCH   1  37
TORSDOF 18
