REMARK  22 active torsions:
REMARK  status: ('A' for Active; 'I' for Inactive)
REMARK    1  A    between atoms: C2_2  and  N1_3 
REMARK    2  A    between atoms: C3_7  and  O1_8 
REMARK    3  A    between atoms: C4_10  and  N2_11 
REMARK    4  A    between atoms: C6_16  and  N3_17 
REMARK    5  A    between atoms: C7_21  and  O2_22 
REMARK    6  A    between atoms: O2_22  and  C8_23 
REMARK    7  A    between atoms: C9_25  and  C10_26 
REMARK    8  A    between atoms: C10_26  and  N4_27 
REMARK    9  A    between atoms: C11_31  and  O4_32 
REMARK   10  A    between atoms: O4_32  and  C12_33 
REMARK   11  A    between atoms: C13_34  and  O5_35 
REMARK   12  A    between atoms: C14_37  and  C15_38 
REMARK   13  A    between atoms: C15_38  and  S1_39 
REMARK   14  A    between atoms: S1_39  and  C16_40 
REMARK   15  A    between atoms: C16_40  and  C17_41 
REMARK   16  A    between atoms: C18_44  and  C19_45 
REMARK   17  A    between atoms: C19_45  and  O7_46 
REMARK   18  A    between atoms: C20_48  and  O8_49 
REMARK   19  A    between atoms: O8_49  and  C21_50 
REMARK   20  A    between atoms: C22_51  and  N5_52 
REMARK   21  A    between atoms: C24_57  and  O9_58 
REMARK   22  A    between atoms: C25_60  and  N6_61 
ROOT
HETATM    1  O4  UNL     1      -1.252  -0.221   0.175  1.00  0.00    -0.348 OA
ENDROOT
BRANCH   1   2
HETATM    2  C11 UNL     1      -0.024  -0.633   0.564  1.00  0.00     0.296 C 
HETATM    3  C9  UNL     1      -0.085  -1.335   1.891  1.00  0.00     0.207 C 
HETATM    4  O3  UNL     1       1.296  -1.331   2.206  1.00  0.00    -0.327 OA
HETATM    5  C8  UNL     1       1.886  -0.353   1.458  1.00  0.00     0.416 C 
HETATM    6  O10 UNL     1       0.827   0.435   0.931  1.00  0.00    -0.305 OA
BRANCH   3   7
HETATM    7  C10 UNL     1      -0.730  -0.403   2.892  1.00  0.00     0.266 C 
BRANCH   7   8
HETATM    8  N4  UNL     1      -2.149  -0.273   2.739  1.00  0.00    -0.077 N 
ATOM      9  H43 UNL     1      -2.382   0.008   1.787  1.00  0.00     0.274 HD
ATOM     10  H42 UNL     1      -2.597  -1.189   2.763  1.00  0.00     0.274 HD
ATOM     11  H41 UNL     1      -2.584   0.356   3.414  1.00  0.00     0.274 HD
ENDBRANCH   7   8
ENDBRANCH   3   7
BRANCH   5  12
HETATM   12  O2  UNL     1       2.863   0.392   2.020  1.00  0.00    -0.329 OA
BRANCH  12  13
HETATM   13  C7  UNL     1       4.077   0.389   1.323  1.00  0.00     0.195 C 
HETATM   14  C2  UNL     1       4.286   1.783   0.815  1.00  0.00     0.175 C 
HETATM   15  C1  UNL     1       3.580   2.077  -0.487  1.00  0.00     0.052 C 
HETATM   16  C3  UNL     1       5.753   2.111   0.628  1.00  0.00     0.186 C 
HETATM   17  C4  UNL     1       6.322   2.084   2.042  1.00  0.00     0.216 C 
HETATM   18  C5  UNL     1       6.299   0.679   2.517  1.00  0.00     0.071 C 
HETATM   19  C6  UNL     1       5.164  -0.177   2.141  1.00  0.00     0.217 C 
BRANCH  14  20
HETATM   20  N1  UNL     1       3.777   2.761   1.774  1.00  0.00    -0.066 N 
ATOM     21  H13 UNL     1       3.879   3.727   1.464  1.00  0.00     0.275 HD
ATOM     22  H12 UNL     1       2.760   2.764   1.853  1.00  0.00     0.275 HD
ATOM     23  H11 UNL     1       4.254   2.562   2.654  1.00  0.00     0.275 HD
ENDBRANCH  14  20
BRANCH  16  24
HETATM   24  O1  UNL     1       5.839   3.400   0.118  1.00  0.00    -0.391 OA
ATOM     25  H1  UNL     1       6.759   3.606   0.001  1.00  0.00     0.210 HD
ENDBRANCH  16  24
BRANCH  17  26
HETATM   26  N2  UNL     1       7.684   2.559   1.944  1.00  0.00    -0.072 N 
ATOM     27  H23 UNL     1       8.247   2.037   1.272  1.00  0.00     0.274 HD
ATOM     28  H22 UNL     1       7.763   3.471   1.494  1.00  0.00     0.274 HD
ATOM     29  H21 UNL     1       8.065   2.541   2.890  1.00  0.00     0.274 HD
ENDBRANCH  17  26
BRANCH  19  30
HETATM   30  N3  UNL     1       5.706  -1.405   1.523  1.00  0.00    -0.072 N 
ATOM     31  H33 UNL     1       6.331  -1.211   0.740  1.00  0.00     0.274 HD
ATOM     32  H32 UNL     1       6.381  -1.883   2.120  1.00  0.00     0.274 HD
ATOM     33  H31 UNL     1       4.919  -1.999   1.262  1.00  0.00     0.274 HD
ENDBRANCH  19  30
ENDBRANCH  12  13
ENDBRANCH   5  12
ENDBRANCH   1   2
BRANCH   1  34
HETATM   34  C12 UNL     1      -1.651  -0.570  -1.105  1.00  0.00     0.187 C 
HETATM   35  C13 UNL     1      -1.546   0.769  -1.871  1.00  0.00     0.179 C 
HETATM   36  C14 UNL     1      -2.796   1.534  -1.479  1.00  0.00     0.162 C 
HETATM   37  O6  UNL     1      -3.813   0.916  -2.180  1.00  0.00    -0.372 OA
HETATM   38  C18 UNL     1      -4.089  -0.305  -1.648  1.00  0.00     0.177 C 
HETATM   39  C20 UNL     1      -2.973  -1.198  -1.252  1.00  0.00     0.184 C 
BRANCH  35  40
HETATM   40  O5  UNL     1      -1.565   0.566  -3.245  1.00  0.00    -0.390 OA
ATOM     41  H5  UNL     1      -1.500   1.389  -3.716  1.00  0.00     0.210 HD
ENDBRANCH  35  40
BRANCH  36  42
HETATM   42  C15 UNL     1      -2.605   2.972  -1.823  1.00  0.00     0.108 C 
BRANCH  42  43
HETATM   43  S1  UNL     1      -2.321   3.132  -3.596  1.00  0.00    -0.164 SA
BRANCH  43  44
HETATM   44  C16 UNL     1      -2.089   4.870  -4.081  1.00  0.00     0.105 C 
BRANCH  44  45
HETATM   45  C17 UNL     1      -0.810   5.352  -3.453  1.00  0.00     0.232 C 
HETATM   46  F1  UNL     1      -0.599   6.675  -3.802  1.00  0.00    -0.255 F 
ENDBRANCH  44  45
ENDBRANCH  43  44
ENDBRANCH  42  43
ENDBRANCH  36  42
BRANCH  38  47
HETATM   47  C19 UNL     1      -5.029  -0.989  -2.662  1.00  0.00     0.198 C 
BRANCH  47  48
HETATM   48  O7  UNL     1      -6.197  -0.245  -2.812  1.00  0.00    -0.398 OA
ATOM     49  H7  UNL     1      -6.776  -0.666  -3.436  1.00  0.00     0.209 HD
ENDBRANCH  47  48
ENDBRANCH  38  47
BRANCH  39  50
HETATM   50  O8  UNL     1      -3.395  -1.921  -0.138  1.00  0.00    -0.370 OA
BRANCH  50  51
HETATM   51  C21 UNL     1      -3.621  -3.260  -0.362  1.00  0.00     0.193 C 
HETATM   52  C22 UNL     1      -4.944  -3.765   0.076  1.00  0.00     0.239 C 
HETATM   53  C23 UNL     1      -4.674  -5.190   0.378  1.00  0.00     0.042 C 
HETATM   54  C24 UNL     1      -3.381  -5.357   0.595  1.00  0.00     0.074 C 
HETATM   55  C25 UNL     1      -2.656  -4.081   0.464  1.00  0.00     0.270 C 
BRANCH  52  56
HETATM   56  N5  UNL     1      -5.439  -3.171   1.316  1.00  0.00    -0.069 N 
ATOM     57  H53 UNL     1      -4.752  -3.282   2.062  1.00  0.00     0.275 HD
ATOM     58  H52 UNL     1      -5.454  -2.154   1.241  1.00  0.00     0.275 HD
ATOM     59  H51 UNL     1      -6.349  -3.519   1.617  1.00  0.00     0.275 HD
ENDBRANCH  52  56
BRANCH  54  60
HETATM   60  O9  UNL     1      -2.772  -6.561   0.906  1.00  0.00    -0.363 OA
ATOM     61  H9  UNL     1      -1.843  -6.681   1.062  1.00  0.00     0.217 HD
ENDBRANCH  54  60
BRANCH  55  62
HETATM   62  N6  UNL     1      -1.403  -4.291  -0.244  1.00  0.00    -0.067 N 
ATOM     63  H63 UNL     1      -1.557  -4.706  -1.163  1.00  0.00     0.275 HD
ATOM     64  H62 UNL     1      -0.987  -3.408  -0.539  1.00  0.00     0.275 HD
ATOM     65  H61 UNL     1      -0.752  -4.845   0.313  1.00  0.00     0.275 HD
ENDBRANCH  55  62
ENDBRANCH  50  51
ENDBRANCH  39  50
ENDBRANCH   1  34
TORSDOF 22
