REMARK  21 active torsions:
REMARK  status: ('A' for Active; 'I' for Inactive)
REMARK    1  A    between atoms: O1_1  and  C1_3 
REMARK    2  A    between atoms: C1_3  and  C2_4 
REMARK    3  A    between atoms: C3_6  and  O3_7 
REMARK    4  A    between atoms: O3_7  and  C4_8 
REMARK    5  A    between atoms: C6_10  and  C7_11 
REMARK    6  A    between atoms: C7_11  and  C8_12 
REMARK    7  A    between atoms: C9_14  and  O4_15 
REMARK    8  A    between atoms: O4_15  and  C10_16 
REMARK    9  A    between atoms: C11_18  and  C12_19 
REMARK   10  A    between atoms: C12_19  and  O6_20 
REMARK   11  A    between atoms: C13_22  and  O7_23 
REMARK   12  A    between atoms: O7_23  and  C14_24 
REMARK   13  A    between atoms: C15_26  and  C16_27 
REMARK   14  A    between atoms: C16_27  and  O9_28 
REMARK   15  A    between atoms: C17_30  and  O10_31 
REMARK   16  A    between atoms: C18_33  and  O11_34 
REMARK   17  A    between atoms: C19_36  and  O12_37 
REMARK   18  A    between atoms: C20_39  and  O13_40 
REMARK   19  A    between atoms: C21_42  and  O14_43 
REMARK   20  A    between atoms: C23_47  and  O16_48 
REMARK   21  A    between atoms: C24_50  and  O17_51 
ROOT
HETATM    1  C10 UNL     1      -0.541   0.296  -0.927  1.00  0.00     0.292 C 
HETATM    2  O5  UNL     1      -1.113   1.523  -0.733  1.00  0.00    -0.348 OA
HETATM    3  C11 UNL     1      -2.188   1.574   0.143  1.00  0.00     0.180 C 
HETATM    4  C13 UNL     1      -3.247   0.584  -0.170  1.00  0.00     0.187 C 
HETATM    5  C20 UNL     1      -2.572  -0.814  -0.134  1.00  0.00     0.183 C 
HETATM    6  C21 UNL     1      -1.567  -0.719  -1.291  1.00  0.00     0.204 C 
ENDROOT
BRANCH   1   7
HETATM    7  O4  UNL     1       0.334  -0.087   0.076  1.00  0.00    -0.351 OA
BRANCH   7   8
HETATM    8  C9  UNL     1       1.655  -0.188  -0.305  1.00  0.00     0.153 C 
HETATM    9  C6  UNL     1       2.262  -1.532  -0.203  1.00  0.00     0.022 C 
HETATM   10  C5  UNL     1       3.627  -1.436  -0.866  1.00  0.00     0.068 C 
HETATM   11  C4  UNL     1       4.409  -0.305  -0.234  1.00  0.00     0.263 C 
HETATM   12  O15 UNL     1       3.726   0.905  -0.309  1.00  0.00    -0.359 OA
HETATM   13  C22 UNL     1       2.518   0.892   0.339  1.00  0.00     0.203 C 
BRANCH   9  14
HETATM   14  C7  UNL     1       2.435  -2.129   1.130  1.00  0.00     0.022 C 
BRANCH  14  15
HETATM   15  C8  UNL     1       1.222  -2.321   1.969  1.00  0.00     0.115 C 
HETATM   16 CL1  UNL     1       1.661  -3.058   3.533  1.00  0.00    -0.130 Cl
ENDBRANCH  14  15
ENDBRANCH   9  14
BRANCH  11  17
HETATM   17  O3  UNL     1       5.588  -0.162  -0.930  1.00  0.00    -0.329 OA
BRANCH  17  18
HETATM   18  C3  UNL     1       6.715  -0.306  -0.123  1.00  0.00     0.294 C 
HETATM   19  O2  UNL     1       7.434   0.886  -0.226  1.00  0.00    -0.348 OA
HETATM   20  C2  UNL     1       7.784   0.861  -1.587  1.00  0.00     0.179 C 
HETATM   21  C24 UNL     1       8.370  -0.528  -1.780  1.00  0.00     0.182 C 
HETATM   22  C23 UNL     1       7.709  -1.300  -0.685  1.00  0.00     0.204 C 
BRANCH  20  23
HETATM   23  C1  UNL     1       8.853   1.886  -1.894  1.00  0.00     0.198 C 
BRANCH  23  24
HETATM   24  O1  UNL     1       8.430   3.178  -1.595  1.00  0.00    -0.398 OA
ATOM     25  H1  UNL     1       9.101   3.822  -1.788  1.00  0.00     0.209 HD
ENDBRANCH  23  24
ENDBRANCH  20  23
BRANCH  21  26
HETATM   26  O17 UNL     1       9.752  -0.446  -1.630  1.00  0.00    -0.390 OA
ATOM     27  H17 UNL     1      10.118  -1.314  -1.751  1.00  0.00     0.210 HD
ENDBRANCH  21  26
BRANCH  22  28
HETATM   28  O16 UNL     1       8.605  -1.637   0.315  1.00  0.00    -0.388 OA
ATOM     29  H16 UNL     1       9.229  -2.261  -0.038  1.00  0.00     0.210 HD
ENDBRANCH  22  28
ENDBRANCH  17  18
ENDBRANCH  11  17
ENDBRANCH   7   8
ENDBRANCH   1   7
BRANCH   6  30
HETATM   30  O14 UNL     1      -1.095  -1.953  -1.646  1.00  0.00    -0.388 OA
ATOM     31  H14 UNL     1      -1.750  -2.601  -1.878  1.00  0.00     0.210 HD
ENDBRANCH   6  30
BRANCH   3  32
HETATM   32  C12 UNL     1      -1.747   1.534   1.588  1.00  0.00     0.198 C 
BRANCH  32  33
HETATM   33  O6  UNL     1      -2.878   1.594   2.399  1.00  0.00    -0.398 OA
ATOM     34  H6  UNL     1      -2.601   1.569   3.307  1.00  0.00     0.209 HD
ENDBRANCH  32  33
ENDBRANCH   3  32
BRANCH   5  35
HETATM   35  O13 UNL     1      -3.492  -1.816  -0.323  1.00  0.00    -0.390 OA
ATOM     36  H13 UNL     1      -3.079  -2.671  -0.301  1.00  0.00     0.210 HD
ENDBRANCH   5  35
BRANCH   4  37
HETATM   37  O7  UNL     1      -4.308   0.604   0.681  1.00  0.00    -0.348 OA
BRANCH  37  38
HETATM   38  C14 UNL     1      -5.537   0.670   0.020  1.00  0.00     0.292 C 
HETATM   39  O8  UNL     1      -6.207  -0.518   0.161  1.00  0.00    -0.348 OA
HETATM   40  C15 UNL     1      -7.522  -0.529   0.424  1.00  0.00     0.179 C 
HETATM   41  C17 UNL     1      -8.075   0.575   1.258  1.00  0.00     0.180 C 
HETATM   42  C18 UNL     1      -7.028   1.584   1.680  1.00  0.00     0.183 C 
HETATM   43  C19 UNL     1      -6.260   1.900   0.387  1.00  0.00     0.204 C 
BRANCH  40  44
HETATM   44  C16 UNL     1      -8.295  -0.590  -0.878  1.00  0.00     0.198 C 
BRANCH  44  45
HETATM   45  O9  UNL     1      -7.971  -1.749  -1.600  1.00  0.00    -0.398 OA
ATOM     46  H9  UNL     1      -8.456  -1.787  -2.416  1.00  0.00     0.209 HD
ENDBRANCH  44  45
ENDBRANCH  40  44
BRANCH  41  47
HETATM   47  O10 UNL     1      -9.064   1.292   0.582  1.00  0.00    -0.390 OA
ATOM     48  H10 UNL     1      -9.417   1.996   1.114  1.00  0.00     0.210 HD
ENDBRANCH  41  47
BRANCH  42  49
HETATM   49  O11 UNL     1      -6.212   1.058   2.647  1.00  0.00    -0.390 OA
ATOM     50  H11 UNL     1      -5.555   1.691   2.912  1.00  0.00     0.210 HD
ENDBRANCH  42  49
BRANCH  43  51
HETATM   51  O12 UNL     1      -5.380   2.948   0.582  1.00  0.00    -0.388 OA
ATOM     52  H12 UNL     1      -5.846   3.741   0.819  1.00  0.00     0.210 HD
ENDBRANCH  43  51
ENDBRANCH  37  38
ENDBRANCH   4  37
TORSDOF 21
