REMARK  2 active torsions:
REMARK  status: ('A' for Active; 'I' for Inactive)
REMARK    1  A    between atoms: C10_11  and  O1_12 
REMARK    2  A    between atoms: C15_19  and  O2_20 
ROOT
HETATM    1  C1  UNL     1      -2.040  -1.643  -2.068  1.00  0.00     0.017 C 
HETATM    2  C2  UNL     1      -1.059  -1.731  -1.203  1.00  0.00    -0.054 C 
HETATM    3  C3  UNL     1       0.137  -2.552  -1.539  1.00  0.00     0.042 C 
HETATM    4  C4  UNL     1       1.360  -1.754  -1.756  1.00  0.00     0.020 C 
HETATM    5  C5  UNL     1       2.373  -1.657  -0.691  1.00  0.00     0.278 C 
HETATM    6  N1  UNL     1       2.303  -0.323  -0.106  1.00  0.00     0.103 N 
HETATM    7  C6  UNL     1       2.710  -0.239   1.230  1.00  0.00     0.273 C 
HETATM    8  C7  UNL     1       1.708   0.065   2.255  1.00  0.00     0.031 C 
HETATM    9  C8  UNL     1       0.296  -0.406   2.010  1.00  0.00     0.012 C 
HETATM   10  C9  UNL     1       0.120  -0.723   0.598  1.00  0.00     0.068 C 
HETATM   11  C10 UNL     1      -1.287  -0.977   0.096  1.00  0.00     0.091 C 
HETATM   12  C12 UNL     1      -2.028   0.274   0.014  1.00  0.00     0.067 C 
HETATM   13  C13 UNL     1      -1.732   1.352  -0.891  1.00  0.00     0.078 C 
HETATM   14  C14 UNL     1      -2.365   2.636  -0.295  1.00  0.00     0.032 C 
HETATM   15  N2  UNL     1      -0.440   1.698  -1.277  1.00  0.00    -0.391 N 
ATOM     16  H2  UNL     1      -0.247   2.070  -2.207  1.00  0.00     0.156 HD
HETATM   17  C15 UNL     1       0.634   1.507  -0.295  1.00  0.00     0.255 C 
HETATM   18  C17 UNL     1       0.935   0.061  -0.361  1.00  0.00     0.209 C 
HETATM   19  C18 UNL     1       0.904  -0.313  -1.804  1.00  0.00     0.053 C 
ENDROOT
BRANCH  11  20
HETATM   20  O1  UNL     1      -1.912  -1.910   0.854  1.00  0.00    -0.380 OA
HETATM   21  C11 UNL     1      -2.482  -1.719   2.026  1.00  0.00     0.203 C 
ENDBRANCH  11  20
BRANCH  17  22
HETATM   22  O2  UNL     1       1.689   2.357  -0.585  1.00  0.00    -0.369 OA
HETATM   23  C16 UNL     1       1.947   3.382   0.243  1.00  0.00     0.204 C 
ENDBRANCH  17  22
TORSDOF 2
