REMARK  6 active torsions:
REMARK  status: ('A' for Active; 'I' for Inactive)
REMARK    1  A    between atoms: S1_2  and  C1_4 
REMARK    2  A    between atoms: S1_2  and  N1_9 
REMARK    3  A    between atoms: N1_9  and  C6_10 
REMARK    4  A    between atoms: N1_9  and  C11_23 
REMARK    5  A    between atoms: C6_10  and  C7_11 
REMARK    6  A    between atoms: C8_12  and  O3_13 
ROOT
HETATM    1  C6  UNL     1       1.474  -0.358  -0.616  1.00  0.00     0.159 C 
ENDROOT
BRANCH   1   2
HETATM    2  N1  UNL     1       0.400   0.565  -0.720  1.00  0.00    -0.147 NA
BRANCH   2   3
HETATM    3  S1  UNL     1      -0.896  -0.024   0.271  1.00  0.00     0.220 S 
HETATM    4  O1  UNL     1      -1.211   1.014   1.314  1.00  0.00    -0.211 OA
HETATM    5  O2  UNL     1      -0.451  -1.241   1.023  1.00  0.00    -0.211 OA
BRANCH   3   6
HETATM    6  C1  UNL     1      -2.345  -0.464  -0.633  1.00  0.00     0.124 C 
HETATM    7  C2  UNL     1      -3.236   0.639  -1.023  1.00  0.00     0.021 C 
HETATM    8  C3  UNL     1      -4.310   0.813   0.030  1.00  0.00     0.001 C 
HETATM    9  C4  UNL     1      -3.995  -0.193   1.113  1.00  0.00     0.001 C 
HETATM   10  C5  UNL     1      -3.234  -1.238   0.363  1.00  0.00     0.021 C 
ENDBRANCH   3   6
ENDBRANCH   2   3
BRANCH   2  11
HETATM   11  C11 UNL     1       0.011   0.706  -2.104  1.00  0.00     0.446 C 
HETATM   12  F1  UNL     1       0.093   2.042  -2.539  1.00  0.00    -0.196 F 
HETATM   13  F2  UNL     1       0.790   0.004  -2.988  1.00  0.00    -0.196 F 
ENDBRANCH   2  11
ENDBRANCH   1   2
BRANCH   1  14
HETATM   14  C7  UNL     1       2.657   0.002   0.176  1.00  0.00     0.045 A 
HETATM   15  C8  UNL     1       3.640  -0.996   0.308  1.00  0.00     0.152 A 
HETATM   16  N2  UNL     1       4.759  -0.728   0.984  1.00  0.00    -0.313 N 
HETATM   17  C9  UNL     1       4.974   0.471   1.544  1.00  0.00     0.178 A 
ATOM     18  H2  UNL     1       5.469  -1.454   1.077  1.00  0.00     0.170 HD
HETATM   19  S2  UNL     1       6.376   0.714   2.359  1.00  0.00    -0.040 SA
HETATM   20  N3  UNL     1       4.043   1.406   1.415  1.00  0.00    -0.323 N 
HETATM   21  C10 UNL     1       2.875   1.203   0.736  1.00  0.00     0.114 A 
ATOM     22  H3  UNL     1       4.206   2.318   1.842  1.00  0.00     0.169 HD
HETATM   23  S3  UNL     1       1.877   2.488   0.640  1.00  0.00    -0.060 SA
BRANCH  15  24
HETATM   24  O3  UNL     1       3.437  -2.262  -0.272  1.00  0.00    -0.346 OA
ATOM     25  H3  UNL     1       4.101  -2.936  -0.183  1.00  0.00     0.219 HD
ENDBRANCH  15  24
ENDBRANCH   1  14
TORSDOF 6
