REMARK  6 active torsions:
REMARK  status: ('A' for Active; 'I' for Inactive)
REMARK    1  A    between atoms: O1_1  and  C1_3 
REMARK    2  A    between atoms: C1_3  and  C2_4 
REMARK    3  A    between atoms: C2_4  and  C3_7 
REMARK    4  A    between atoms: C3_7  and  C4_8 
REMARK    5  A    between atoms: C4_8  and  S1_9 
REMARK    6  A    between atoms: S1_9  and  C5_10 
ROOT
HETATM    1  C2  UNL     1       0.250   0.429  -0.439  1.00  0.00     0.144 C 
HETATM    2 CL1  UNL     1       0.412   0.411   1.330  1.00  0.00    -0.098 Cl
HETATM    3 CL2  UNL     1       0.381   2.104  -0.993  1.00  0.00    -0.098 Cl
ENDROOT
BRANCH   1   4
HETATM    4  C1  UNL     1      -1.177  -0.034  -0.804  1.00  0.00     0.094 C 
HETATM    5  C7  UNL     1      -1.312  -1.435  -0.375  1.00  0.00     0.041 C 
HETATM    6  C8  UNL     1      -2.662  -1.991  -0.201  1.00  0.00     0.003 C 
HETATM    7  C9  UNL     1      -3.787  -1.127  -0.682  1.00  0.00     0.001 C 
HETATM    8  C10 UNL     1      -4.188  -0.246   0.477  1.00  0.00     0.016 C 
HETATM    9  C11 UNL     1      -2.962   0.549   0.876  1.00  0.00     0.061 C 
HETATM   10  S2  UNL     1      -3.613   2.104   1.596  1.00  0.00    -0.092 SA
HETATM   11  C12 UNL     1      -2.131   0.959  -0.306  1.00  0.00     0.057 C 
BRANCH   4  12
HETATM   12  O1  UNL     1      -1.199   0.017  -2.217  1.00  0.00    -0.387 OA
ATOM     13  H1  UNL     1      -2.077  -0.268  -2.442  1.00  0.00     0.210 HD
ENDBRANCH   4  12
ENDBRANCH   1   4
BRANCH   1  14
HETATM   14  C3  UNL     1       1.275  -0.465  -1.036  1.00  0.00     0.056 C 
BRANCH  14  15
HETATM   15  C4  UNL     1       2.689  -0.064  -0.730  1.00  0.00     0.085 C 
BRANCH  15  16
HETATM   16  S1  UNL     1       3.067  -0.064   1.035  1.00  0.00    -0.092 SA
BRANCH  16  17
HETATM   17  C5  UNL     1       4.765   0.429   1.247  1.00  0.00     0.160 A 
HETATM   18  N1  UNL     1       5.815  -0.393   1.266  1.00  0.00    -0.331 N 
HETATM   19  C6  UNL     1       6.944   0.348   1.448  1.00  0.00     0.199 A 
ATOM     20  H1  UNL     1       5.779  -1.407   1.162  1.00  0.00     0.168 HD
HETATM   21  N2  UNL     1       6.567   1.618   1.537  1.00  0.00    -0.294 N 
HETATM   22  N3  UNL     1       5.234   1.670   1.414  1.00  0.00    -0.279 N 
ATOM     23  H2  UNL     1       7.186   2.417   1.675  1.00  0.00     0.187 HD
ATOM     24  H3  UNL     1       4.669   2.518   1.443  1.00  0.00     0.189 HD
ENDBRANCH  16  17
ENDBRANCH  15  16
ENDBRANCH  14  15
ENDBRANCH   1  14
TORSDOF 6
