REMARK  8 active torsions:
REMARK  status: ('A' for Active; 'I' for Inactive)
REMARK    1  A    between atoms: C2_2  and  O1_5 
REMARK    2  A    between atoms: O1_5  and  C5_6 
REMARK       I    between atoms: C5_6  and  N1_8 
REMARK    3  A    between atoms: N1_8  and  N2_9 
REMARK       I    between atoms: N2_9  and  C6_11 
REMARK    4  A    between atoms: C6_11  and  C7_13 
REMARK    5  A    between atoms: C9_15  and  O4_16 
REMARK    6  A    between atoms: N3_18  and  C10_19 
REMARK    7  A    between atoms: C10_19  and  C13_22 
REMARK    8  A    between atoms: C13_22  and  C14_23 
ROOT
HETATM    1  C7  UNL     1      -1.172  -0.376   0.086  1.00  0.00     0.054 A 
HETATM    2  C8  UNL     1      -1.693  -1.576   0.678  1.00  0.00     0.074 A 
HETATM    3  C9  UNL     1      -3.047  -1.513   0.558  1.00  0.00     0.143 A 
HETATM    4  N3  UNL     1      -3.389  -0.375  -0.056  1.00  0.00    -0.328 N 
HETATM    5  C15 UNL     1      -2.286   0.291  -0.339  1.00  0.00     0.111 A 
ENDROOT
BRANCH   1   6
HETATM    6  C6  UNL     1       0.235  -0.028   0.140  1.00  0.00     0.281 C 
HETATM    7  N2  UNL     1       1.188  -1.045  -0.211  1.00  0.00    -0.193 N 
ATOM      8  H2  UNL     1       0.866  -1.935  -0.591  1.00  0.00     0.205 HD
HETATM    9  O3  UNL     1       0.671   1.077   0.486  1.00  0.00    -0.265 OA
BRANCH   7  10
HETATM   10  N1  UNL     1       2.496  -0.827  -0.040  1.00  0.00    -0.256 NA
HETATM   11  C5  UNL     1       3.827  -0.605   0.136  1.00  0.00     0.459 C 
HETATM   12  O2  UNL     1       4.464  -1.110   1.123  1.00  0.00    -0.219 OA
BRANCH  11  13
HETATM   13  O1  UNL     1       4.653   0.171  -0.701  1.00  0.00    -0.281 OA
BRANCH  13  14
HETATM   14  C2  UNL     1       6.028   0.362  -0.311  1.00  0.00     0.062 C 
HETATM   15  C1  UNL     1       6.655   1.075  -1.491  1.00  0.00     0.046 C 
HETATM   16  C3  UNL     1       6.776  -0.869   0.017  1.00  0.00     0.046 C 
HETATM   17  C4  UNL     1       6.069   1.357   0.873  1.00  0.00     0.046 C 
ENDBRANCH  13  14
ENDBRANCH  11  13
ENDBRANCH   7  10
ENDBRANCH   1   6
BRANCH   3  18
HETATM   18  O4  UNL     1      -3.843  -2.561   1.052  1.00  0.00    -0.346 OA
ATOM     19  H4  UNL     1      -4.788  -2.517   0.968  1.00  0.00     0.219 HD
ENDBRANCH   3  18
BRANCH   4  20
HETATM   20  C10 UNL     1      -4.765  -0.015  -0.288  1.00  0.00     0.036 C 
HETATM   21  C11 UNL     1      -5.340  -0.957  -1.299  1.00  0.00     0.039 C 
HETATM   22  C12 UNL     1      -5.536  -0.337   1.023  1.00  0.00     0.039 C 
BRANCH  20  23
HETATM   23  C13 UNL     1      -5.054   1.369  -0.721  1.00  0.00     0.101 C 
BRANCH  23  24
HETATM   24  C14 UNL     1      -4.666   2.509   0.118  1.00  0.00     0.355 C 
HETATM   25  F1  UNL     1      -5.097   3.658  -0.578  1.00  0.00    -0.214 F 
HETATM   26  F2  UNL     1      -5.284   2.564   1.345  1.00  0.00    -0.214 F 
ENDBRANCH  23  24
ENDBRANCH  20  23
ENDBRANCH   4  20
TORSDOF 8
