REMARK  7 active torsions:
REMARK  status: ('A' for Active; 'I' for Inactive)
REMARK    1  A    between atoms: C2_2  and  C3_3 
REMARK    2  A    between atoms: C3_3  and  C4_4 
REMARK       I    between atoms: C4_4  and  N1_6 
REMARK    3  A    between atoms: N1_6  and  N2_8 
REMARK    4  A    between atoms: C5_10  and  C6_11 
REMARK    5  A    between atoms: C7_12  and  O2_13 
REMARK    6  A    between atoms: N4_19  and  C9_20 
REMARK    7  A    between atoms: C14_25  and  C15_26 
ROOT
HETATM    1  C6  UNL     1      -0.103  -0.266  -0.657  1.00  0.00     0.105 A 
HETATM    2  C7  UNL     1       0.490  -0.991  -1.631  1.00  0.00     0.171 A 
HETATM    3  N3  UNL     1      -0.397  -1.880  -2.105  1.00  0.00    -0.312 N 
ATOM      4  H3  UNL     1      -0.238  -2.564  -2.845  1.00  0.00     0.170 HD
HETATM    5  C8  UNL     1      -1.526  -1.696  -1.421  1.00  0.00     0.181 A 
HETATM    6  S1  UNL     1      -2.870  -2.576  -1.677  1.00  0.00    -0.040 SA
HETATM    7  N4  UNL     1      -1.389  -0.712  -0.520  1.00  0.00    -0.314 N 
ENDROOT
BRANCH   1   8
HETATM    8  C5  UNL     1       0.485   0.805   0.131  1.00  0.00     0.141 C 
HETATM    9  N2  UNL     1       1.594   1.325   0.145  1.00  0.00    -0.307 N 
ATOM     10  H2  UNL     1       1.617   2.058   0.854  1.00  0.00     0.186 HD
BRANCH   9  11
HETATM   11  N1  UNL     1       2.771   1.253  -0.452  1.00  0.00    -0.270 N 
HETATM   12  C4  UNL     1       3.984   0.746   0.144  1.00  0.00     0.235 C 
HETATM   13  O1  UNL     1       3.936   0.336   1.321  1.00  0.00    -0.272 OA
ATOM     14  H1  UNL     1       2.827   1.584  -1.415  1.00  0.00     0.190 HD
BRANCH  12  15
HETATM   15  C3  UNL     1       5.257   0.704  -0.602  1.00  0.00     0.104 C 
BRANCH  15  16
HETATM   16  C2  UNL     1       6.383   0.134   0.227  1.00  0.00     0.005 C 
HETATM   17  C1  UNL     1       6.613   0.965   1.463  1.00  0.00     0.005 C 
ENDBRANCH  15  16
ENDBRANCH  12  15
ENDBRANCH   9  11
ENDBRANCH   1   8
BRANCH   2  18
HETATM   18  O2  UNL     1       1.800  -0.931  -2.157  1.00  0.00    -0.344 OA
ATOM     19  H2  UNL     1       2.217  -1.441  -2.842  1.00  0.00     0.219 HD
ENDBRANCH   2  18
BRANCH   7  20
HETATM   20  C9  UNL     1      -2.414  -0.257   0.381  1.00  0.00     0.102 C 
HETATM   21  C10 UNL     1      -2.738  -1.284   1.446  1.00  0.00     0.026 C 
HETATM   22  C11 UNL     1      -4.208  -1.450   1.675  1.00  0.00     0.002 C 
HETATM   23  C12 UNL     1      -5.018  -0.209   1.658  1.00  0.00     0.001 C 
HETATM   24  C13 UNL     1      -4.467   0.915   0.822  1.00  0.00     0.012 C 
HETATM   25  C14 UNL     1      -3.668   0.239  -0.308  1.00  0.00     0.074 C 
BRANCH  25  26
HETATM   26  C15 UNL     1      -3.317   1.250  -1.351  1.00  0.00     0.359 C 
HETATM   27  F1  UNL     1      -4.463   1.700  -1.980  1.00  0.00    -0.214 F 
HETATM   28  F2  UNL     1      -2.739   2.354  -0.711  1.00  0.00    -0.214 F 
ENDBRANCH  25  26
ENDBRANCH   7  20
TORSDOF 7
