REMARK  13 active torsions:
REMARK  status: ('A' for Active; 'I' for Inactive)
REMARK    1  A    between atoms: C2_2  and  O1_3 
REMARK    2  A    between atoms: C2_2  and  C3_5 
REMARK    3  A    between atoms: C2_2  and  C4_8 
REMARK    4  A    between atoms: C3_5  and  O2_6 
REMARK    5  A    between atoms: C4_8  and  O3_9 
REMARK    6  A    between atoms: C4_8  and  C5_11 
REMARK    7  A    between atoms: C5_11  and  O4_12 
REMARK    8  A    between atoms: C5_11  and  C6_14 
REMARK    9  A    between atoms: C6_14  and  N1_15 
REMARK   10  A    between atoms: C8_17  and  C9_18 
REMARK   11  A    between atoms: C10_21  and  C11_22 
REMARK   12  A    between atoms: C12_25  and  C13_26 
REMARK   13  A    between atoms: C20_44  and  N10_45 
ROOT
HETATM    1  C9  UNL     1      -0.730  -0.859   1.875  1.00  0.00     0.089 A 
HETATM    2  N2  UNL     1      -1.661  -0.153   1.179  1.00  0.00    -0.349 N 
ATOM      3  H2  UNL     1      -1.579  -0.140   0.162  1.00  0.00     0.166 HD
HETATM    4  C10 UNL     1      -2.670   0.522   1.723  1.00  0.00     0.078 A 
HETATM    5  C18 UNL     1      -2.774   0.499   3.107  1.00  0.00     0.036 A 
HETATM    6  C19 UNL     1      -1.889  -0.184   3.889  1.00  0.00     0.034 A 
HETATM    7  C20 UNL     1      -0.843  -0.881   3.230  1.00  0.00     0.063 A 
ENDROOT
BRANCH   1   8
HETATM    8  C8  UNL     1       0.396  -1.460   1.132  1.00  0.00     0.095 A 
HETATM    9  C7  UNL     1       0.536  -1.348  -0.260  1.00  0.00     0.145 A 
HETATM   10  N1  UNL     1       1.654  -2.004  -0.602  1.00  0.00    -0.284 N 
HETATM   11  N14 UNL     1       2.194  -2.503   0.497  1.00  0.00    -0.240 N 
HETATM   12  N13 UNL     1       1.439  -2.175   1.528  1.00  0.00    -0.283 N 
ATOM     13  H14 UNL     1       3.053  -3.051   0.541  1.00  0.00     0.208 HD
ATOM     14  H13 UNL     1       1.631  -2.436   2.495  1.00  0.00     0.188 HD
BRANCH  10  15
HETATM   15  C6  UNL     1       2.210  -2.165  -1.925  1.00  0.00     0.184 C 
BRANCH  15  16
HETATM   16  C5  UNL     1       3.170  -1.065  -2.308  1.00  0.00     0.169 C 
BRANCH  16  17
HETATM   17  C4  UNL     1       4.326  -1.020  -1.349  1.00  0.00     0.184 C 
BRANCH  17  18
HETATM   18  C2  UNL     1       5.279   0.110  -1.692  1.00  0.00     0.103 C 
HETATM   19  C1  UNL     1       6.360   0.122  -0.608  1.00  0.00     0.051 C 
BRANCH  18  20
HETATM   20  O1  UNL     1       5.823  -0.014  -2.949  1.00  0.00    -0.385 OA
ATOM     21  H1  UNL     1       5.152  -0.021  -3.622  1.00  0.00     0.210 HD
ENDBRANCH  18  20
BRANCH  18  22
HETATM   22  C3  UNL     1       4.561   1.444  -1.570  1.00  0.00     0.204 C 
BRANCH  22  23
HETATM   23  O2  UNL     1       5.469   2.473  -1.782  1.00  0.00    -0.398 OA
ATOM     24  H2  UNL     1       5.020   3.307  -1.706  1.00  0.00     0.209 HD
ENDBRANCH  22  23
ENDBRANCH  18  22
ENDBRANCH  17  18
BRANCH  17  25
HETATM   25  O3  UNL     1       5.042  -2.209  -1.410  1.00  0.00    -0.390 OA
ATOM     26  H3  UNL     1       4.445  -2.916  -1.195  1.00  0.00     0.210 HD
ENDBRANCH  17  25
ENDBRANCH  16  17
BRANCH  16  27
HETATM   27  O4  UNL     1       3.557  -1.239  -3.615  1.00  0.00    -0.391 OA
ATOM     28  H4  UNL     1       2.826  -1.267  -4.221  1.00  0.00     0.210 HD
ENDBRANCH  16  27
ENDBRANCH  15  16
ENDBRANCH  10  15
ENDBRANCH   1   8
BRANCH   7  29
HETATM   29  N10 UNL     1      -0.063  -1.721   4.054  1.00  0.00    -0.331 N 
HETATM   30  C21 UNL     1      -0.106  -2.992   4.102  1.00  0.00     0.201 C 
HETATM   31  N11 UNL     1      -0.979  -3.778   3.316  1.00  0.00    -0.066 NA
HETATM   32  N12 UNL     1       0.811  -3.622   5.032  1.00  0.00    -0.066 NA
ATOM     33  H10 UNL     1       0.604  -1.262   4.675  1.00  0.00     0.168 HD
ENDBRANCH   7  29
BRANCH   4  34
HETATM   34  C11 UNL     1      -3.660   1.274   0.960  1.00  0.00     0.141 A 
HETATM   35  N3  UNL     1      -4.697   1.970   1.513  1.00  0.00    -0.334 N 
HETATM   36  C12 UNL     1      -5.423   2.549   0.558  1.00  0.00     0.126 A 
ATOM     37  H3  UNL     1      -4.888   2.037   2.513  1.00  0.00     0.168 HD
HETATM   38  C14 UNL     1      -4.846   2.226  -0.668  1.00  0.00     0.144 A 
HETATM   39  N8  UNL     1      -5.160   2.536  -1.937  1.00  0.00    -0.350 N 
HETATM   40  N9  UNL     1      -3.784   1.454  -0.371  1.00  0.00    -0.290 N 
HETATM   41  C15 UNL     1      -4.452   2.108  -2.989  1.00  0.00     0.091 A 
ATOM     42  H8  UNL     1      -5.976   3.125  -2.106  1.00  0.00     0.166 HD
HETATM   43  C16 UNL     1      -3.359   1.318  -2.741  1.00  0.00     0.035 A 
HETATM   44  C17 UNL     1      -3.063   1.016  -1.416  1.00  0.00     0.102 A 
BRANCH  36  45
HETATM   45  C13 UNL     1      -6.609   3.376   0.737  1.00  0.00     0.168 A 
HETATM   46  N4  UNL     1      -7.356   3.970  -0.213  1.00  0.00    -0.267 N 
HETATM   47  N5  UNL     1      -8.342   4.631   0.332  1.00  0.00    -0.227 N 
ATOM     48  H4  UNL     1      -7.177   3.912  -1.216  1.00  0.00     0.190 HD
HETATM   49  N6  UNL     1      -8.244   4.473   1.636  1.00  0.00    -0.227 N 
ATOM     50  H5  UNL     1      -9.055   5.169  -0.160  1.00  0.00     0.210 HD
HETATM   51  N7  UNL     1      -7.193   3.710   1.903  1.00  0.00    -0.267 N 
ATOM     52  H6  UNL     1      -8.876   4.874   2.330  1.00  0.00     0.210 HD
ATOM     53  H7  UNL     1      -6.881   3.425   2.831  1.00  0.00     0.190 HD
ENDBRANCH  36  45
ENDBRANCH   4  34
TORSDOF 13
