REMARK  13 active torsions:
REMARK  status: ('A' for Active; 'I' for Inactive)
REMARK    1  A    between atoms: N1_1  and  C1_4 
REMARK    2  A    between atoms: C2_9  and  C3_10 
REMARK    3  A    between atoms: N4_12  and  C5_13 
REMARK    4  A    between atoms: C5_13  and  C6_14 
REMARK    5  A    between atoms: C6_14  and  N5_15 
REMARK    6  A    between atoms: C8_17  and  C9_18 
REMARK    7  A    between atoms: C12_21  and  C13_22 
REMARK    8  A    between atoms: C13_22  and  N6_23 
REMARK    9  A    between atoms: C17_30  and  C18_31 
REMARK   10  A    between atoms: C18_31  and  O1_32 
REMARK   11  A    between atoms: C18_31  and  C19_34 
REMARK       I    between atoms: C19_34  and  N7_36 
REMARK   12  A    between atoms: N7_36  and  N8_38 
REMARK   13  A    between atoms: C20_43  and  N10_44 
ROOT
HETATM    1  N5  UNL     1       0.692  -0.950  -0.105  1.00  0.00    -0.340 N 
HETATM    2  C7  UNL     1      -0.018   0.172  -0.089  1.00  0.00     0.106 A 
HETATM    3  C8  UNL     1      -1.412  -0.116   0.021  1.00  0.00     0.006 A 
HETATM    4  C16 UNL     1      -1.474  -1.485   0.074  1.00  0.00     0.051 A 
HETATM    5  C17 UNL     1      -2.552  -2.340   0.162  1.00  0.00     0.102 A 
HETATM    6  N9  UNL     1      -2.190  -3.670   0.147  1.00  0.00    -0.188 N 
ATOM      7  H9  UNL     1      -2.934  -4.365   0.206  1.00  0.00     0.184 HD
HETATM    8  C20 UNL     1      -0.933  -4.112   0.061  1.00  0.00     0.678 A 
HETATM    9  N11 UNL     1       0.073  -3.263  -0.015  1.00  0.00    -0.176 N 
ATOM     10  H11 UNL     1       1.032  -3.605  -0.077  1.00  0.00     0.186 HD
HETATM   11  C21 UNL     1      -0.176  -1.944  -0.010  1.00  0.00     0.136 A 
ENDROOT
BRANCH   1  12
HETATM   12  C6  UNL     1       2.138  -1.003  -0.209  1.00  0.00     0.152 C 
BRANCH  12  13
HETATM   13  C5  UNL     1       2.727  -0.976   1.183  1.00  0.00     0.170 C 
BRANCH  13  14
HETATM   14  N4  UNL     1       4.188  -1.032   1.025  1.00  0.00    -0.285 N 
HETATM   15  C4  UNL     1       4.990   0.033   0.905  1.00  0.00     0.145 A 
HETATM   16  C3  UNL     1       6.269  -0.440   0.780  1.00  0.00     0.096 A 
HETATM   17  N13 UNL     1       6.175  -1.773   0.831  1.00  0.00    -0.283 N 
HETATM   18  N12 UNL     1       4.930  -2.112   0.978  1.00  0.00    -0.240 N 
ATOM     19  H13 UNL     1       6.959  -2.422   0.765  1.00  0.00     0.188 HD
ATOM     20  H12 UNL     1       4.584  -3.069   1.046  1.00  0.00     0.208 HD
BRANCH  16  21
HETATM   21  C2  UNL     1       7.489   0.352   0.622  1.00  0.00     0.094 A 
HETATM   22  N3  UNL     1       8.699  -0.224   0.508  1.00  0.00    -0.283 N 
HETATM   23  N2  UNL     1       9.794   0.503   0.365  1.00  0.00    -0.132 N 
ATOM     24  H3  UNL     1       8.773  -1.241   0.532  1.00  0.00     0.187 HD
HETATM   25  C1  UNL     1       9.777   1.848   0.326  1.00  0.00     0.690 A 
ATOM     26  H2  UNL     1      10.690   0.024   0.281  1.00  0.00     0.205 HD
HETATM   27  N14 UNL     1       8.572   2.444   0.439  1.00  0.00    -0.199 N 
HETATM   28  C22 UNL     1       7.441   1.729   0.585  1.00  0.00     0.139 A 
ATOM     29  H14 UNL     1       8.517   3.462   0.413  1.00  0.00     0.183 HD
BRANCH  25  30
HETATM   30  N1  UNL     1      10.868   2.555   0.185  1.00  0.00    -0.233 N 
ATOM     31  H12 UNL     1      11.779   2.104   0.100  1.00  0.00     0.174 HD
ATOM     32  H11 UNL     1      10.855   3.574   0.155  1.00  0.00     0.174 HD
ENDBRANCH  25  30
ENDBRANCH  16  21
ENDBRANCH  13  14
ENDBRANCH  12  13
ENDBRANCH   1  12
BRANCH   3  33
HETATM   33  C9  UNL     1      -2.404   0.909  -0.045  1.00  0.00    -0.024 A 
HETATM   34  C10 UNL     1      -2.465   1.867   0.903  1.00  0.00     0.013 A 
HETATM   35  C11 UNL     1      -3.342   2.948   0.839  1.00  0.00     0.010 A 
HETATM   36  C12 UNL     1      -4.177   3.023  -0.251  1.00  0.00    -0.033 A 
HETATM   37  C14 UNL     1      -4.148   2.075  -1.231  1.00  0.00     0.010 A 
HETATM   38  C15 UNL     1      -3.240   1.016  -1.101  1.00  0.00     0.013 A 
BRANCH  36  39
HETATM   39  C13 UNL     1      -5.156   4.173  -0.382  1.00  0.00     0.268 C 
BRANCH  39  40
HETATM   40  N6  UNL     1      -4.461   5.225  -1.104  1.00  0.00    -0.075 N 
ATOM     41  H63 UNL     1      -3.577   5.494  -0.673  1.00  0.00     0.274 HD
ATOM     42  H62 UNL     1      -4.078   4.917  -1.998  1.00  0.00     0.274 HD
ATOM     43  H61 UNL     1      -5.120   5.999  -1.192  1.00  0.00     0.274 HD
ENDBRANCH  39  40
ENDBRANCH  36  39
ENDBRANCH   3  33
BRANCH   5  44
HETATM   44  C18 UNL     1      -3.950  -1.978   0.384  1.00  0.00     0.164 C 
BRANCH  44  45
HETATM   45  O1  UNL     1      -4.321  -1.043   1.285  1.00  0.00    -0.354 OA
ATOM     46  H1  UNL     1      -5.230  -0.808   1.429  1.00  0.00     0.218 HD
ENDBRANCH  44  45
BRANCH  44  47
HETATM   47  C19 UNL     1      -4.918  -2.463  -0.612  1.00  0.00     0.294 C 
HETATM   48  O2  UNL     1      -4.518  -3.315  -1.442  1.00  0.00    -0.264 OA
HETATM   49  N7  UNL     1      -6.246  -2.026  -0.675  1.00  0.00    -0.271 N 
ATOM     50  H7  UNL     1      -6.571  -1.334   0.001  1.00  0.00     0.189 HD
BRANCH  49  51
HETATM   51  N8  UNL     1      -7.141  -2.506  -1.633  1.00  0.00    -0.342 N 
ATOM     52  H82 UNL     1      -6.800  -3.197  -2.301  1.00  0.00     0.176 HD
ATOM     53  H81 UNL     1      -8.109  -2.187  -1.679  1.00  0.00     0.176 HD
ENDBRANCH  49  51
ENDBRANCH  44  47
ENDBRANCH   5  44
BRANCH   8  54
HETATM   54  N10 UNL     1      -0.684  -5.401   0.053  1.00  0.00    -0.234 N 
ATOM     55 2H10 UNL     1      -1.462  -6.058   0.112  1.00  0.00     0.174 HD
ATOM     56 1H10 UNL     1       0.276  -5.739  -0.013  1.00  0.00     0.174 HD
ENDBRANCH   8  54
TORSDOF 13
