REMARK  14 active torsions:
REMARK  status: ('A' for Active; 'I' for Inactive)
REMARK    1  A    between atoms: C3_4  and  N2_5 
REMARK    2  A    between atoms: C5_9  and  C6_10 
REMARK    3  A    between atoms: C7_13  and  S1_14 
REMARK    4  A    between atoms: S1_14  and  C8_15 
REMARK    5  A    between atoms: C8_15  and  C9_16 
REMARK       I    between atoms: C9_16  and  N4_18 
REMARK    6  A    between atoms: N4_18  and  N5_20 
REMARK    7  A    between atoms: C11_26  and  C12_27 
REMARK    8  A    between atoms: C12_27  and  C13_28 
REMARK    9  A    between atoms: C13_28  and  N7_30 
REMARK   10  A    between atoms: C13_28  and  O4_34 
REMARK   11  A    between atoms: N9_39  and  N10_41 
REMARK   12  A    between atoms: N10_41  and  C16_43 
REMARK   13  A    between atoms: C16_43  and  N11_45 
REMARK   14  A    between atoms: N11_45  and  N12_47 
ROOT
HETATM    1  C6  UNL     1       1.281   1.221  -0.446  1.00  0.00     0.159 A 
HETATM    2  N3  UNL     1       2.398   0.570  -0.931  1.00  0.00    -0.331 N 
ATOM      3  H3  UNL     1       3.320   0.996  -1.021  1.00  0.00     0.168 HD
HETATM    4  C7  UNL     1       2.115  -0.676  -1.263  1.00  0.00     0.117 A 
HETATM    5  C10 UNL     1       0.773  -0.843  -0.990  1.00  0.00     0.166 A 
HETATM    6  N6  UNL     1       0.012  -1.924  -1.185  1.00  0.00    -0.328 N 
ATOM      7  H6  UNL     1       0.436  -2.775  -1.555  1.00  0.00     0.168 HD
HETATM    8  C11 UNL     1      -1.300  -1.911  -0.903  1.00  0.00     0.103 A 
HETATM    9  N8  UNL     1      -1.781  -0.760  -0.422  1.00  0.00    -0.178 N 
ATOM     10  H8  UNL     1      -2.774  -0.707  -0.196  1.00  0.00     0.185 HD
HETATM   11  C15 UNL     1      -1.010   0.346  -0.219  1.00  0.00     0.708 A 
HETATM   12  N9  UNL     1      -1.574   1.418   0.173  1.00  0.00    -0.129 N 
ATOM     13  H9  UNL     1      -1.007   2.252   0.328  1.00  0.00     0.205 HD
HETATM   14  N13 UNL     1       0.302   0.308  -0.505  1.00  0.00    -0.111 N 
ENDROOT
BRANCH  12  15
HETATM   15  N10 UNL     1      -2.933   1.477   0.393  1.00  0.00    -0.261 N 
ATOM     16  H10 UNL     1      -3.300   1.394   1.341  1.00  0.00     0.190 HD
BRANCH  15  17
HETATM   17  C16 UNL     1      -3.823   1.653  -0.698  1.00  0.00     0.205 C 
HETATM   18  S2  UNL     1      -3.226   1.783  -2.203  1.00  0.00    -0.038 SA
BRANCH  17  19
HETATM   19  N11 UNL     1      -5.215   1.711  -0.459  1.00  0.00    -0.282 N 
ATOM     20  H11 UNL     1      -5.863   1.837  -1.236  1.00  0.00     0.189 HD
BRANCH  19  21
HETATM   21  N12 UNL     1      -5.697   1.595   0.841  1.00  0.00    -0.343 N 
ATOM     22 2H12 UNL     1      -5.035   1.469   1.607  1.00  0.00     0.176 HD
ATOM     23 1H12 UNL     1      -6.701   1.637   1.013  1.00  0.00     0.176 HD
ENDBRANCH  19  21
ENDBRANCH  17  19
ENDBRANCH  15  17
ENDBRANCH  12  15
BRANCH   8  24
HETATM   24  C12 UNL     1      -2.127  -3.103  -1.127  1.00  0.00     0.144 C 
BRANCH  24  25
HETATM   25  C13 UNL     1      -2.190  -4.025   0.065  1.00  0.00     0.225 C 
HETATM   26  C14 UNL     1      -2.757  -3.381   1.287  1.00  0.00     0.078 C 
BRANCH  25  27
HETATM   27  N7  UNL     1      -3.030  -5.179  -0.280  1.00  0.00    -0.047 N 
ATOM     28  H73 UNL     1      -3.955  -4.904  -0.611  1.00  0.00     0.278 HD
ATOM     29  H72 UNL     1      -2.714  -5.654  -1.125  1.00  0.00     0.278 HD
ATOM     30  H71 UNL     1      -3.073  -5.803   0.526  1.00  0.00     0.278 HD
ENDBRANCH  25  27
BRANCH  25  31
HETATM   31  O4  UNL     1      -0.939  -4.551   0.387  1.00  0.00    -0.365 OA
ATOM     32  H4  UNL     1      -0.979  -5.132   1.138  1.00  0.00     0.212 HD
ENDBRANCH  25  31
ENDBRANCH  24  25
ENDBRANCH   8  24
BRANCH   1  33
HETATM   33  C5  UNL     1       1.298   2.627  -0.069  1.00  0.00     0.082 A 
HETATM   34  N1  UNL     1       1.059   3.230   1.082  1.00  0.00    -0.356 N 
HETATM   35  C1  UNL     1       0.652   2.684   2.397  1.00  0.00     0.156 C 
HETATM   36  C2  UNL     1       1.346   4.565   0.946  1.00  0.00     0.127 A 
HETATM   37  C3  UNL     1       1.784   4.820  -0.325  1.00  0.00     0.120 A 
HETATM   38  C4  UNL     1       1.758   3.614  -0.968  1.00  0.00     0.071 A 
BRANCH  37  39
HETATM   39  N2  UNL     1       2.183   6.094  -0.856  1.00  0.00    -0.114 N 
HETATM   40  O1  UNL     1       2.161   7.127  -0.165  1.00  0.00    -0.532 OA
HETATM   41  O2  UNL     1       2.605   6.203  -2.157  1.00  0.00    -0.532 OA
ENDBRANCH  37  39
ENDBRANCH   1  33
BRANCH   4  42
HETATM   42  S1  UNL     1       3.232  -1.896  -1.926  1.00  0.00    -0.099 SA
BRANCH  42  43
HETATM   43  C8  UNL     1       3.963  -2.808  -0.561  1.00  0.00     0.185 C 
BRANCH  43  44
HETATM   44  C9  UNL     1       4.921  -2.040   0.220  1.00  0.00     0.245 C 
HETATM   45  O3  UNL     1       5.299  -2.560   1.326  1.00  0.00    -0.271 OA
HETATM   46  N4  UNL     1       5.434  -0.805  -0.170  1.00  0.00    -0.276 N 
ATOM     47  H4  UNL     1       5.148  -0.382  -1.053  1.00  0.00     0.189 HD
BRANCH  46  48
HETATM   48  N5  UNL     1       6.360  -0.143   0.677  1.00  0.00    -0.343 N 
ATOM     49  H52 UNL     1       6.636  -0.579   1.557  1.00  0.00     0.176 HD
ATOM     50  H51 UNL     1       6.736   0.761   0.391  1.00  0.00     0.176 HD
ENDBRANCH  46  48
ENDBRANCH  43  44
ENDBRANCH  42  43
ENDBRANCH   4  42
TORSDOF 14
