REMARK  11 active torsions:
REMARK  status: ('A' for Active; 'I' for Inactive)
REMARK    1  A    between atoms: O1_2  and  C2_3 
REMARK    2  A    between atoms: C2_3  and  C3_4 
REMARK    3  A    between atoms: C5_6  and  N1_7 
REMARK       I    between atoms: N1_7  and  C6_9 
REMARK    4  A    between atoms: C8_12  and  O3_13 
REMARK    5  A    between atoms: C9_15  and  O4_16 
REMARK    6  A    between atoms: O4_16  and  C10_17 
REMARK    7  A    between atoms: C13_21  and  O6_22 
REMARK    8  A    between atoms: C14_24  and  O7_25 
REMARK    9  A    between atoms: C15_27  and  N2_28 
REMARK   10  A    between atoms: N2_28  and  C16_30 
REMARK   11  A    between atoms: C21_35  and  O8_36 
ROOT
HETATM    1  C10 UNL     1       0.719   0.522  -1.337  1.00  0.00     0.288 C 
HETATM    2  O5  UNL     1       0.367   0.171  -2.690  1.00  0.00    -0.351 OA
HETATM    3  C11 UNL     1       1.331   0.447  -3.598  1.00  0.00     0.152 C 
HETATM    4  C12 UNL     1       0.740   0.386  -4.971  1.00  0.00     0.042 C 
HETATM    5  C13 UNL     1       1.907   1.806  -3.272  1.00  0.00     0.177 C 
HETATM    6  C14 UNL     1       2.842   1.586  -2.112  1.00  0.00     0.176 C 
HETATM    7  C15 UNL     1       2.152   0.600  -1.157  1.00  0.00     0.164 C 
ENDROOT
BRANCH   1   8
HETATM    8  O4  UNL     1       0.042  -0.444  -0.618  1.00  0.00    -0.327 OA
BRANCH   8   9
HETATM    9  C9  UNL     1      -1.185   0.033  -0.150  1.00  0.00     0.294 C 
HETATM   10  C8  UNL     1      -1.577  -0.338   1.223  1.00  0.00     0.196 C 
HETATM   11  C5  UNL     1      -3.103  -0.517   1.347  1.00  0.00     0.120 C 
HETATM   12  C4  UNL     1      -3.766   0.482   0.438  1.00  0.00     0.062 C 
HETATM   13  C3  UNL     1      -3.263   0.276  -0.961  1.00  0.00     0.150 C 
HETATM   14  O9  UNL     1      -2.180  -0.588  -0.986  1.00  0.00    -0.351 OA
BRANCH  10  15
HETATM   15  O3  UNL     1      -1.049  -1.554   1.652  1.00  0.00    -0.389 OA
ATOM     16  H3  UNL     1      -0.109  -1.444   1.576  1.00  0.00     0.210 HD
ENDBRANCH  10  15
BRANCH  11  17
HETATM   17  N1  UNL     1      -3.415  -0.281   2.746  1.00  0.00    -0.354 N 
HETATM   18  C6  UNL     1      -3.937  -1.267   3.615  1.00  0.00     0.214 C 
HETATM   19  C7  UNL     1      -4.213  -0.895   5.023  1.00  0.00     0.117 C 
HETATM   20  O2  UNL     1      -4.179  -2.442   3.253  1.00  0.00    -0.274 OA
ATOM     21  H1  UNL     1      -3.248   0.651   3.124  1.00  0.00     0.162 HD
ENDBRANCH  11  17
BRANCH  13  22
HETATM   22  C2  UNL     1      -4.357  -0.146  -1.912  1.00  0.00     0.199 C 
BRANCH  22  23
HETATM   23  O1  UNL     1      -4.869  -1.391  -1.641  1.00  0.00    -0.393 OA
HETATM   24  C1  UNL     1      -5.863  -1.662  -2.580  1.00  0.00     0.201 C 
ENDBRANCH  22  23
ENDBRANCH  13  22
ENDBRANCH   8   9
ENDBRANCH   1   8
BRANCH   7  25
HETATM   25  N2  UNL     1       2.606   0.958   0.131  1.00  0.00    -0.404 N 
ATOM     26  H2  UNL     1       3.084   1.851   0.254  1.00  0.00     0.154 HD
BRANCH  25  27
HETATM   27  C16 UNL     1       2.424   0.133   1.242  1.00  0.00     0.105 C 
HETATM   28  C17 UNL     1       3.117  -1.217   1.126  1.00  0.00     0.027 C 
HETATM   29  C18 UNL     1       4.612  -1.118   1.141  1.00  0.00     0.002 C 
HETATM   30  C19 UNL     1       5.040  -0.748   2.562  1.00  0.00     0.003 C 
HETATM   31  C20 UNL     1       3.852  -0.168   3.302  1.00  0.00     0.034 C 
HETATM   32  C21 UNL     1       3.089   0.818   2.446  1.00  0.00     0.140 C 
BRANCH  32  33
HETATM   33  O8  UNL     1       3.945   1.828   2.080  1.00  0.00    -0.394 OA
ATOM     34  H8  UNL     1       4.356   2.252   2.824  1.00  0.00     0.210 HD
ENDBRANCH  32  33
ENDBRANCH  25  27
ENDBRANCH   7  25
BRANCH   6  35
HETATM   35  O7  UNL     1       4.007   1.014  -2.588  1.00  0.00    -0.391 OA
ATOM     36  H7  UNL     1       4.597   0.875  -1.856  1.00  0.00     0.210 HD
ENDBRANCH   6  35
BRANCH   5  37
HETATM   37  O6  UNL     1       2.529   2.400  -4.359  1.00  0.00    -0.390 OA
ATOM     38  H6  UNL     1       2.891   3.254  -4.154  1.00  0.00     0.210 HD
ENDBRANCH   5  37
TORSDOF 11
