REMARK  11 active torsions:
REMARK  status: ('A' for Active; 'I' for Inactive)
REMARK       I    between atoms: C2_2  and  N1_4 
REMARK    1  A    between atoms: N1_4  and  C3_6 
REMARK    2  A    between atoms: C4_8  and  C5_9 
REMARK    3  A    between atoms: C5_9  and  O3_10 
REMARK    4  A    between atoms: O3_10  and  S1_11 
REMARK    5  A    between atoms: S1_11  and  N2_14 
REMARK    6  A    between atoms: N2_14  and  N3_16 
REMARK    7  A    between atoms: C6_19  and  C7_20 
REMARK    8  A    between atoms: C7_20  and  N4_21 
REMARK    9  A    between atoms: N4_21  and  C8_23 
REMARK   10  A    between atoms: C17_32  and  O6_33 
REMARK   11  A    between atoms: C18_35  and  O7_36 
ROOT
HETATM    1  C3  UNL     1      -3.565  -1.599   0.387  1.00  0.00     0.261 C 
HETATM    2  O2  UNL     1      -2.848  -1.834  -0.736  1.00  0.00    -0.325 OA
HETATM    3  C4  UNL     1      -1.588  -1.261  -0.803  1.00  0.00     0.084 C 
HETATM    4  C6  UNL     1      -0.815  -1.475   0.438  1.00  0.00     0.020 C 
HETATM    5  C17 UNL     1      -1.553  -1.094   1.691  1.00  0.00     0.188 C 
HETATM    6  C18 UNL     1      -2.839  -1.891   1.675  1.00  0.00     0.200 C 
ENDROOT
BRANCH   4   7
HETATM    7  C7  UNL     1       0.621  -1.095   0.435  1.00  0.00     0.095 C 
BRANCH   7   8
HETATM    8  N4  UNL     1       1.004   0.208   0.203  1.00  0.00    -0.394 N 
ATOM      9  H4  UNL     1       0.305   0.931   0.030  1.00  0.00     0.159 HD
BRANCH   8  10
HETATM   10  C8  UNL     1       2.398   0.531   0.209  1.00  0.00     0.081 C 
HETATM   11  C9  UNL     1       3.180  -0.166  -0.856  1.00  0.00     0.025 C 
HETATM   12  C10 UNL     1       4.142  -1.186  -0.404  1.00  0.00     0.002 C 
HETATM   13  C11 UNL     1       5.095  -0.796   0.673  1.00  0.00     0.000 C 
HETATM   14  C12 UNL     1       6.203   0.095   0.254  1.00  0.00     0.000 C 
HETATM   15  C13 UNL     1       5.926   1.499  -0.031  1.00  0.00     0.000 C 
HETATM   16  C14 UNL     1       4.849   2.171   0.762  1.00  0.00     0.000 C 
HETATM   17  C15 UNL     1       3.773   2.610  -0.195  1.00  0.00     0.002 C 
HETATM   18  C16 UNL     1       2.431   2.036   0.078  1.00  0.00     0.025 C 
ENDBRANCH   8  10
ENDBRANCH   7   8
ENDBRANCH   4   7
BRANCH   3  19
HETATM   19  C5  UNL     1      -1.579   0.077  -1.446  1.00  0.00     0.257 C 
BRANCH  19  20
HETATM   20  O3  UNL     1      -2.360   1.045  -0.819  1.00  0.00    -0.252 OA
BRANCH  20  21
HETATM   21  S1  UNL     1      -2.235   2.475  -1.666  1.00  0.00     0.375 S 
HETATM   22  O4  UNL     1      -2.209   2.231  -3.150  1.00  0.00    -0.174 OA
HETATM   23  O5  UNL     1      -0.948   3.169  -1.287  1.00  0.00    -0.174 OA
BRANCH  21  24
HETATM   24  N2  UNL     1      -3.566   3.525  -1.259  1.00  0.00    -0.211 N 
ATOM     25  H2  UNL     1      -3.567   4.207  -0.501  1.00  0.00     0.201 HD
BRANCH  24  26
HETATM   26  N3  UNL     1      -4.646   3.284  -2.144  1.00  0.00    -0.334 N 
ATOM     27  H32 UNL     1      -4.632   2.598  -2.899  1.00  0.00     0.177 HD
ATOM     28  H31 UNL     1      -5.425   3.898  -1.906  1.00  0.00     0.177 HD
ENDBRANCH  24  26
ENDBRANCH  21  24
ENDBRANCH  20  21
ENDBRANCH  19  20
ENDBRANCH   3  19
BRANCH   5  29
HETATM   29  O6  UNL     1      -1.888   0.223   1.827  1.00  0.00    -0.388 OA
ATOM     30  H6  UNL     1      -2.354   0.464   2.619  1.00  0.00     0.210 HD
ENDBRANCH   5  29
BRANCH   6  31
HETATM   31  O7  UNL     1      -2.612  -3.248   1.872  1.00  0.00    -0.388 OA
ATOM     32  H7  UNL     1      -2.154  -3.432   2.684  1.00  0.00     0.210 HD
ENDBRANCH   6  31
BRANCH   1  33
HETATM   33  N1  UNL     1      -4.713  -2.517   0.367  1.00  0.00    -0.332 N 
HETATM   34  C2  UNL     1      -6.051  -2.043   0.481  1.00  0.00     0.215 C 
HETATM   35  C1  UNL     1      -7.186  -2.992   0.457  1.00  0.00     0.117 C 
HETATM   36  O1  UNL     1      -6.291  -0.793   0.604  1.00  0.00    -0.274 OA
ATOM     37  H1  UNL     1      -4.547  -3.519   0.269  1.00  0.00     0.165 HD
ENDBRANCH   1  33
TORSDOF 11
