REMARK  4 active torsions:
REMARK  status: ('A' for Active; 'I' for Inactive)
REMARK    1  A    between atoms: N1_1  and  C1_5 
REMARK    2  A    between atoms: C1_5  and  C2_6 
REMARK    3  A    between atoms: C4_8  and  C5_9 
REMARK    4  A    between atoms: C5_9  and  N2_10 
ROOT
HETATM    1  C2  UNL     1      -1.404  -0.297   0.607  1.00  0.00     0.126 C 
HETATM    2  C3  UNL     1      -0.142  -0.891   0.074  1.00  0.00     0.055 C 
HETATM    3  C4  UNL     1       1.097  -0.142   0.423  1.00  0.00     0.111 C 
HETATM    4  N3  UNL     1       1.039   1.262   0.159  1.00  0.00    -0.357 N 
ATOM      5  H3  UNL     1       1.831   1.775   0.545  1.00  0.00     0.162 HD
HETATM    6  C6  UNL     1       0.113   2.097  -0.527  1.00  0.00     0.203 C 
HETATM    7  N4  UNL     1       0.633   3.327  -1.009  1.00  0.00    -0.062 NA
HETATM    8  N5  UNL     1      -1.137   1.823  -0.738  1.00  0.00    -0.278 N 
ATOM      9  H5  UNL     1      -1.660   2.535  -1.248  1.00  0.00     0.189 HD
HETATM   10  N6  UNL     1      -1.878   0.679  -0.362  1.00  0.00    -0.328 N 
ATOM     11  H6  UNL     1      -2.791   0.531  -0.792  1.00  0.00     0.180 HD
ENDROOT
BRANCH   1  12
HETATM   12  C1  UNL     1      -2.466  -1.319   0.907  1.00  0.00     0.256 C 
BRANCH  12  13
HETATM   13  N1  UNL     1      -2.866  -2.083  -0.238  1.00  0.00    -0.077 N 
ATOM     14  H13 UNL     1      -3.161  -1.468  -0.997  1.00  0.00     0.274 HD
ATOM     15  H12 UNL     1      -2.058  -2.522  -0.679  1.00  0.00     0.274 HD
ATOM     16  H11 UNL     1      -3.586  -2.776  -0.035  1.00  0.00     0.274 HD
ENDBRANCH  12  13
ENDBRANCH   1  12
BRANCH   3  17
HETATM   17  C5  UNL     1       2.267  -0.804  -0.265  1.00  0.00     0.254 C 
BRANCH  17  18
HETATM   18  N2  UNL     1       3.521  -0.163   0.001  1.00  0.00    -0.077 N 
ATOM     19  H23 UNL     1       3.477   0.829  -0.234  1.00  0.00     0.274 HD
ATOM     20  H22 UNL     1       3.685  -0.092   1.005  1.00  0.00     0.274 HD
ATOM     21  H21 UNL     1       4.311  -0.610  -0.464  1.00  0.00     0.274 HD
ENDBRANCH  17  18
ENDBRANCH   3  17
TORSDOF 4
