REMARK  5 active torsions:
REMARK  status: ('A' for Active; 'I' for Inactive)
REMARK    1  A    between atoms: C3_9  and  C4_10 
REMARK    2  A    between atoms: C4_10  and  N4_11 
REMARK    3  A    between atoms: C4_10  and  C5_15 
REMARK    4  A    between atoms: C5_15  and  N5_16 
REMARK    5  A    between atoms: C5_15  and  O1_20 
ROOT
HETATM    1  C4  UNL     1      -0.728  -0.666  -0.454  1.00  0.00     0.291 C 
ENDROOT
BRANCH   1   2
HETATM    2  C3  UNL     1       0.365   0.352  -0.407  1.00  0.00     0.085 A 
HETATM    3  C2  UNL     1       1.697   0.037  -0.127  1.00  0.00     0.049 A 
HETATM    4  C1  UNL     1       2.229  -1.228   0.288  1.00  0.00     0.072 C 
HETATM    5  N1  UNL     1       2.343   1.231  -0.251  1.00  0.00    -0.289 N 
HETATM    6  N2  UNL     1       1.493   2.121  -0.562  1.00  0.00    -0.242 N 
ATOM      7  H1  UNL     1       3.342   1.384  -0.116  1.00  0.00     0.188 HD
HETATM    8  N3  UNL     1       0.297   1.635  -0.668  1.00  0.00    -0.286 N 
ATOM      9  H2  UNL     1       1.725   3.103  -0.711  1.00  0.00     0.208 HD
ATOM     10  H3  UNL     1      -0.545   2.156  -0.911  1.00  0.00     0.188 HD
ENDBRANCH   1   2
BRANCH   1  11
HETATM   11  N4  UNL     1      -1.311  -0.668  -1.780  1.00  0.00    -0.065 N 
ATOM     12  H43 UNL     1      -1.629   0.258  -2.066  1.00  0.00     0.275 HD
ATOM     13  H42 UNL     1      -0.614  -0.811  -2.511  1.00  0.00     0.275 HD
ATOM     14  H41 UNL     1      -2.057  -1.363  -1.812  1.00  0.00     0.275 HD
ENDBRANCH   1  11
BRANCH   1  15
HETATM   15  C5  UNL     1      -1.872  -0.155   0.440  1.00  0.00     0.353 C 
BRANCH  15  16
HETATM   16  N5  UNL     1      -1.224   0.232   1.728  1.00  0.00    -0.051 N 
ATOM     17  H53 UNL     1      -0.673  -0.515   2.152  1.00  0.00     0.277 HD
ATOM     18  H52 UNL     1      -0.459   0.897   1.619  1.00  0.00     0.277 HD
ATOM     19  H51 UNL     1      -1.982   0.571   2.320  1.00  0.00     0.277 HD
ENDBRANCH  15  16
BRANCH  15  20
HETATM   20  O1  UNL     1      -2.480   0.947  -0.074  1.00  0.00    -0.368 OA
ATOM     21  H1  UNL     1      -3.186   1.262   0.478  1.00  0.00     0.212 HD
ENDBRANCH  15  20
ENDBRANCH   1  15
TORSDOF 5
