REMARK  7 active torsions:
REMARK  status: ('A' for Active; 'I' for Inactive)
REMARK    1  A    between atoms: N1_1  and  C1_4 
REMARK    2  A    between atoms: C2_7  and  C3_8 
REMARK    3  A    between atoms: C3_8  and  N3_9 
REMARK    4  A    between atoms: C3_8  and  C4_13 
REMARK    5  A    between atoms: C4_13  and  N4_14 
REMARK    6  A    between atoms: N4_14  and  N5_16 
REMARK    7  A    between atoms: N6_20  and  N7_21 
ROOT
HETATM    1  C1  UNL     1      -1.791   0.907  -0.758  1.00  0.00     0.696 A 
HETATM    2  N2  UNL     1      -0.585   0.358  -0.965  1.00  0.00    -0.190 N 
ATOM      3  H2  UNL     1       0.020   0.564  -1.760  1.00  0.00     0.184 HD
HETATM    4  C2  UNL     1      -0.287  -0.502   0.023  1.00  0.00     0.080 A 
HETATM    5  C5  UNL     1      -1.369  -0.478   0.877  1.00  0.00     0.162 A 
HETATM    6  N6  UNL     1      -2.285   0.393   0.383  1.00  0.00    -0.103 N 
ENDROOT
BRANCH   4   7
HETATM    7  C3  UNL     1       0.931  -1.326   0.203  1.00  0.00     0.274 C 
BRANCH   7   8
HETATM    8  N3  UNL     1       1.309  -1.968  -1.059  1.00  0.00    -0.065 N 
ATOM      9  H33 UNL     1       0.540  -2.510  -1.454  1.00  0.00     0.275 HD
ATOM     10  H32 UNL     1       1.419  -1.289  -1.812  1.00  0.00     0.275 HD
ATOM     11  H31 UNL     1       2.148  -2.535  -0.935  1.00  0.00     0.275 HD
ENDBRANCH   7   8
BRANCH   7  12
HETATM   12  C4  UNL     1       2.023  -0.447   0.688  1.00  0.00     0.118 C 
BRANCH  12  13
HETATM   13  N4  UNL     1       2.662   0.322  -0.119  1.00  0.00    -0.320 N 
ATOM     14  H4  UNL     1       2.425   0.338  -1.111  1.00  0.00     0.185 HD
BRANCH  13  15
HETATM   15  N5  UNL     1       3.679   1.131   0.372  1.00  0.00    -0.346 N 
ATOM     16  H52 UNL     1       3.904   1.103   1.366  1.00  0.00     0.176 HD
ATOM     17  H51 UNL     1       4.186   1.741  -0.269  1.00  0.00     0.176 HD
ENDBRANCH  13  15
ENDBRANCH  12  13
ENDBRANCH   7  12
ENDBRANCH   4   7
BRANCH   1  18
HETATM   18  N1  UNL     1      -2.425   1.773  -1.478  1.00  0.00    -0.233 N 
ATOM     19  H12 UNL     1      -2.050   2.163  -2.343  1.00  0.00     0.174 HD
ATOM     20  H11 UNL     1      -3.342   2.191  -1.321  1.00  0.00     0.174 HD
ENDBRANCH   1  18
BRANCH   6  21
HETATM   21  N7  UNL     1      -3.499   0.654   1.007  1.00  0.00    -0.325 N 
ATOM     22  H72 UNL     1      -4.187   1.309   0.636  1.00  0.00     0.178 HD
ATOM     23  H71 UNL     1      -3.874   0.264   1.872  1.00  0.00     0.178 HD
ENDBRANCH   6  21
TORSDOF 7
