REMARK  5 active torsions:
REMARK  status: ('A' for Active; 'I' for Inactive)
REMARK    1  A    between atoms: N1_1  and  C1_4 
REMARK    2  A    between atoms: N3_8  and  C3_9 
REMARK    3  A    between atoms: C3_9  and  C4_10 
REMARK    4  A    between atoms: C4_10  and  O1_11 
REMARK    5  A    between atoms: O1_11  and  N4_12 
ROOT
HETATM    1  C1  UNL     1      -2.904  -0.286   0.122  1.00  0.00     0.691 A 
HETATM    2  N2  UNL     1      -2.569  -1.388  -0.547  1.00  0.00    -0.185 N 
ATOM      3  H2  UNL     1      -3.194  -1.966  -1.108  1.00  0.00     0.185 HD
HETATM    4  C2  UNL     1      -1.256  -1.599  -0.347  1.00  0.00     0.218 A 
HETATM    5  N3  UNL     1      -0.781  -0.633   0.442  1.00  0.00    -0.271 N 
HETATM    6  N5  UNL     1      -1.793   0.164   0.723  1.00  0.00    -0.129 N 
ATOM      7  H5  UNL     1      -1.739   0.997   1.309  1.00  0.00     0.206 HD
ENDROOT
BRANCH   5   8
HETATM    8  C3  UNL     1       0.600  -0.465   0.920  1.00  0.00     0.179 C 
BRANCH   8   9
HETATM    9  C4  UNL     1       1.382   0.391  -0.075  1.00  0.00     0.222 C 
BRANCH   9  10
HETATM   10  O1  UNL     1       2.672   0.512   0.432  1.00  0.00    -0.286 OA
BRANCH  10  11
HETATM   11  N4  UNL     1       3.459   1.258  -0.378  1.00  0.00    -0.311 N 
ATOM     12  H42 UNL     1       3.132   1.674  -1.250  1.00  0.00     0.184 HD
ATOM     13  H41 UNL     1       4.405   1.347  -0.006  1.00  0.00     0.184 HD
ENDBRANCH  10  11
ENDBRANCH   9  10
ENDBRANCH   8   9
ENDBRANCH   5   8
BRANCH   1  14
HETATM   14  N1  UNL     1      -4.103   0.231   0.162  1.00  0.00    -0.233 N 
ATOM     15  H12 UNL     1      -4.948  -0.111  -0.295  1.00  0.00     0.174 HD
ATOM     16  H11 UNL     1      -4.360   1.075   0.674  1.00  0.00     0.174 HD
ENDBRANCH   1  14
TORSDOF 5
