REMARK  2 active torsions:
REMARK  status: ('A' for Active; 'I' for Inactive)
REMARK    1  A    between atoms: C2_2  and  N1_3 
REMARK    2  A    between atoms: C14_20  and  N4_21 
ROOT
HETATM    1  N1  UNL     1       1.114  -0.532  -0.515  1.00  0.00    -0.252 N 
HETATM    2  C3  UNL     1      -0.209  -0.105  -0.093  1.00  0.00     0.151 A 
HETATM    3  N2  UNL     1      -1.322  -0.675  -0.611  1.00  0.00    -0.339 N 
ATOM      4  H2  UNL     1      -1.216  -1.414  -1.306  1.00  0.00     0.167 HD
HETATM    5  C4  UNL     1      -2.560  -0.305  -0.245  1.00  0.00     0.044 A 
HETATM    6  C5  UNL     1      -3.614  -0.980  -0.862  1.00  0.00     0.032 A 
HETATM    7  C6  UNL     1      -4.902  -0.633  -0.516  1.00  0.00     0.021 A 
HETATM    8  C7  UNL     1      -5.107   0.368   0.427  1.00  0.00     0.011 A 
HETATM    9 BR1  UNL     1      -6.892   0.852   0.909  1.00  0.00    -0.051 Br
HETATM   10  C8  UNL     1      -4.074   1.029   1.032  1.00  0.00     0.032 A 
HETATM   11  C9  UNL     1      -2.784   0.680   0.684  1.00  0.00    -0.006 A 
HETATM   12  C10 UNL     1      -1.676   1.283   1.233  1.00  0.00     0.047 A 
HETATM   13  C11 UNL     1      -0.413   0.878   0.834  1.00  0.00     0.081 A 
HETATM   14  N3  UNL     1       0.740   1.486   1.386  1.00  0.00    -0.337 N 
ATOM     15  H3  UNL     1       0.646   2.226   2.081  1.00  0.00     0.168 HD
HETATM   16  C12 UNL     1       2.020   1.063   0.970  1.00  0.00     0.149 A 
HETATM   17  C13 UNL     1       3.243   1.550   1.409  1.00  0.00     0.101 A 
HETATM   18  C14 UNL     1       4.170   0.824   0.714  1.00  0.00     0.118 A 
HETATM   19  N5  UNL     1       3.533  -0.062  -0.109  1.00  0.00    -0.263 N 
ATOM     20  H5  UNL     1       3.989  -0.724  -0.737  1.00  0.00     0.191 HD
HETATM   21  N6  UNL     1       2.228   0.082   0.045  1.00  0.00    -0.174 N 
ENDROOT
BRANCH  18  22
HETATM   22  N4  UNL     1       5.444   0.946   0.810  1.00  0.00    -0.384 N 
ATOM     23  H42 UNL     1       5.919   1.607   1.424  1.00  0.00     0.157 HD
ATOM     24  H41 UNL     1       6.136   0.404   0.292  1.00  0.00     0.157 HD
ENDBRANCH  18  22
BRANCH   1  25
HETATM   25  C2  UNL     1       1.111  -1.567  -1.485  1.00  0.00     0.148 C 
HETATM   26  C1  UNL     1       2.362  -2.103  -2.037  1.00  0.00     0.028 C 
ENDBRANCH   1  25
TORSDOF 2
