REMARK  1 active torsions:
REMARK  status: ('A' for Active; 'I' for Inactive)
REMARK    1  A    between atoms: C14_21  and  C15_22 
ROOT
HETATM    1  N1  UNL     1       2.997  -2.672  -2.516  1.00  0.00    -0.365 N 
ATOM      2  H11 UNL     1       3.071  -3.612  -2.905  1.00  0.00     0.159 HD
ATOM      3  H12 UNL     1       3.756  -1.994  -2.588  1.00  0.00     0.159 HD
HETATM    4  C1  UNL     1       1.880  -2.352  -1.908  1.00  0.00     0.222 A 
HETATM    5  N2  UNL     1       1.778  -1.056  -1.372  1.00  0.00    -0.296 N 
ATOM      6  H2  UNL     1       2.565  -0.417  -1.482  1.00  0.00     0.168 HD
HETATM    7  C2  UNL     1       0.623  -0.604  -0.685  1.00  0.00     0.295 A 
HETATM    8  O1  UNL     1       0.259   0.712  -1.098  1.00  0.00    -0.288 OA
HETATM    9  C3  UNL     1       1.320   1.489  -0.576  1.00  0.00     0.108 A 
HETATM   10  C4  UNL     1       1.886   2.709  -0.947  1.00  0.00     0.040 A 
HETATM   11  C5  UNL     1       2.954   3.223  -0.203  1.00  0.00     0.003 A 
HETATM   12  C6  UNL     1       3.434   2.522   0.881  1.00  0.00     0.003 A 
HETATM   13  C7  UNL     1       2.881   1.297   1.271  1.00  0.00     0.040 A 
HETATM   14  C8  UNL     1       1.839   0.838   0.512  1.00  0.00     0.108 A 
HETATM   15  O2  UNL     1       1.103  -0.348   0.672  1.00  0.00    -0.288 OA
HETATM   16  C9  UNL     1      -0.450  -1.566  -0.595  1.00  0.00     0.072 A 
HETATM   17  C10 UNL     1      -0.302  -2.819  -1.136  1.00  0.00     0.093 A 
HETATM   18  C11 UNL     1      -1.348  -3.741  -1.033  1.00  0.00     0.038 A 
HETATM   19  C12 UNL     1      -2.522  -3.418  -0.401  1.00  0.00     0.004 A 
HETATM   20  C13 UNL     1      -2.696  -2.191   0.142  1.00  0.00     0.013 A 
HETATM   21  C14 UNL     1      -1.652  -1.268   0.040  1.00  0.00    -0.009 A 
HETATM   22  O3  UNL     1       0.858  -3.265  -1.811  1.00  0.00    -0.279 OA
ENDROOT
BRANCH  21  23
HETATM   23  C15 UNL     1      -1.911   0.023   0.640  1.00  0.00    -0.025 A 
HETATM   24  C16 UNL     1      -1.623   0.260   1.949  1.00  0.00     0.015 A 
HETATM   25  C17 UNL     1      -1.890   1.452   2.588  1.00  0.00     0.043 A 
HETATM   26  C18 UNL     1      -2.476   2.462   1.874  1.00  0.00     0.116 A 
HETATM   27  F1  UNL     1      -2.768   3.662   2.434  1.00  0.00    -0.206 F 
HETATM   28  C19 UNL     1      -2.782   2.264   0.551  1.00  0.00     0.043 A 
HETATM   29  C20 UNL     1      -2.497   1.036  -0.071  1.00  0.00     0.015 A 
ENDBRANCH  21  23
TORSDOF 1
