REMARK  12 active torsions:
REMARK  status: ('A' for Active; 'I' for Inactive)
REMARK    1  A    between atoms: C2_2  and  O1_3 
REMARK    2  A    between atoms: O1_3  and  C3_4 
REMARK    3  A    between atoms: C3_4  and  C4_6 
REMARK    4  A    between atoms: C4_6  and  C5_7 
REMARK    5  A    between atoms: C6_9  and  N1_10 
REMARK       I    between atoms: N1_10  and  C7_12 
REMARK       I    between atoms: C7_12  and  N2_14 
REMARK    6  A    between atoms: N2_14  and  S2_16 
REMARK    7  A    between atoms: S2_16  and  C8_19 
REMARK    8  A    between atoms: N3_21  and  C10_22 
REMARK    9  A    between atoms: C10_22  and  C11_23 
REMARK   10  A    between atoms: C11_23  and  N4_24 
REMARK   11  A    between atoms: C14_31  and  N7_32 
REMARK   12  A    between atoms: C15_37  and  N9_38 
ROOT
HETATM    1  C8  UNL     1       1.199  -1.393  -0.431  1.00  0.00     0.182 A 
HETATM    2  C9  UNL     1       2.562  -1.431  -0.735  1.00  0.00     0.156 A 
HETATM    3  N3  UNL     1       2.716  -1.246  -2.057  1.00  0.00    -0.285 N 
HETATM    4  N10 UNL     1       1.472  -1.097  -2.543  1.00  0.00    -0.240 N 
ATOM      5  H10 UNL     1       1.247  -0.937  -3.525  1.00  0.00     0.208 HD
HETATM    6  N11 UNL     1       0.599  -1.184  -1.592  1.00  0.00    -0.273 N 
ATOM      7  H11 UNL     1      -0.410  -1.103  -1.719  1.00  0.00     0.189 HD
ENDROOT
BRANCH   1   8
HETATM    8  S2  UNL     1       0.461  -1.633   1.131  1.00  0.00     0.284 S 
HETATM    9  O4  UNL     1      -0.227  -3.004   1.097  1.00  0.00    -0.199 OA
HETATM   10  O5  UNL     1       1.609  -1.869   2.128  1.00  0.00    -0.199 OA
BRANCH   8  11
HETATM   11  N2  UNL     1      -0.569  -0.431   1.681  1.00  0.00    -0.230 N 
HETATM   12  C7  UNL     1      -0.775   0.809   1.074  1.00  0.00     0.335 C 
HETATM   13  N1  UNL     1      -1.691   1.787   1.597  1.00  0.00    -0.288 N 
HETATM   14  O3  UNL     1      -0.151   1.113   0.028  1.00  0.00    -0.246 OA
ATOM     15  H1  UNL     1      -1.368   2.727   1.825  1.00  0.00     0.172 HD
ATOM     16  H2  UNL     1      -1.092  -0.623   2.535  1.00  0.00     0.183 HD
BRANCH  13  17
HETATM   17  C6  UNL     1      -2.952   1.453   1.778  1.00  0.00     0.154 A 
HETATM   18  S1  UNL     1      -3.641  -0.108   1.435  1.00  0.00    -0.054 SA
HETATM   19  C5  UNL     1      -5.249   0.241   1.969  1.00  0.00     0.036 A 
HETATM   20  C17 UNL     1      -5.133   1.533   2.375  1.00  0.00     0.132 A 
HETATM   21  N12 UNL     1      -3.973   2.120   2.268  1.00  0.00    -0.324 N 
HETATM   22  N13 UNL     1      -6.308   2.209   2.939  1.00  0.00    -0.082 NA
ATOM     23  H12 UNL     1      -3.859   3.090   2.563  1.00  0.00     0.169 HD
BRANCH  19  24
HETATM   24  C4  UNL     1      -6.447  -0.670   1.968  1.00  0.00     0.161 C 
BRANCH  24  25
HETATM   25  C3  UNL     1      -7.358  -0.304   0.887  1.00  0.00     0.263 C 
HETATM   26  O2  UNL     1      -7.894   0.822   0.847  1.00  0.00    -0.265 OA
BRANCH  25  27
HETATM   27  O1  UNL     1      -7.650  -1.227  -0.141  1.00  0.00    -0.322 OA
BRANCH  27  28
HETATM   28  C2  UNL     1      -8.548  -0.806  -1.163  1.00  0.00     0.174 C 
HETATM   29  C1  UNL     1      -7.997   0.414  -1.825  1.00  0.00     0.034 C 
ENDBRANCH  27  28
ENDBRANCH  25  27
ENDBRANCH  24  25
ENDBRANCH  19  24
ENDBRANCH  13  17
ENDBRANCH   8  11
ENDBRANCH   1   8
BRANCH   3  30
HETATM   30  C10 UNL     1       3.949  -1.253  -2.796  1.00  0.00     0.170 C 
BRANCH  30  31
HETATM   31  C11 UNL     1       4.659   0.042  -2.923  1.00  0.00     0.152 C 
BRANCH  31  32
HETATM   32  N4  UNL     1       5.036   0.655  -1.699  1.00  0.00    -0.335 N 
HETATM   33  C12 UNL     1       4.326   1.582  -1.001  1.00  0.00     0.185 A 
HETATM   34  N5  UNL     1       4.974   1.949   0.088  1.00  0.00    -0.336 N 
HETATM   35  C13 UNL     1       6.124   1.278   0.140  1.00  0.00     0.152 A 
ATOM     36  H5  UNL     1       4.650   2.631   0.774  1.00  0.00     0.168 HD
HETATM   37  N6  UNL     1       7.109   1.310   1.062  1.00  0.00    -0.174 N 
HETATM   38  C16 UNL     1       6.157   0.468  -0.985  1.00  0.00     0.125 A 
HETATM   39  C14 UNL     1       8.185   0.511   0.879  1.00  0.00     0.679 A 
ATOM     40  H6  UNL     1       7.044   1.921   1.876  1.00  0.00     0.186 HD
HETATM   41  N8  UNL     1       8.242  -0.268  -0.181  1.00  0.00    -0.175 N 
HETATM   42  C15 UNL     1       7.271  -0.336  -1.141  1.00  0.00     0.145 A 
ATOM     43  H8  UNL     1       9.065  -0.860  -0.293  1.00  0.00     0.186 HD
BRANCH  39  44
HETATM   44  N7  UNL     1       9.113   0.556   1.779  1.00  0.00    -0.234 N 
ATOM     45  H72 UNL     1       9.069   1.159   2.600  1.00  0.00     0.174 HD
ATOM     46  H71 UNL     1       9.924  -0.047   1.641  1.00  0.00     0.174 HD
ENDBRANCH  39  44
BRANCH  42  47
HETATM   47  N9  UNL     1       7.437  -1.099  -2.077  1.00  0.00    -0.383 N 
ATOM     48  H92 UNL     1       8.259  -1.692  -2.192  1.00  0.00     0.157 HD
ATOM     49  H91 UNL     1       6.713  -1.150  -2.793  1.00  0.00     0.157 HD
ENDBRANCH  42  47
ENDBRANCH  31  32
ENDBRANCH  30  31
ENDBRANCH   3  30
TORSDOF 12
