REMARK  12 active torsions:
REMARK  status: ('A' for Active; 'I' for Inactive)
REMARK    1  A    between atoms: N1_1  and  C1_4 
REMARK    2  A    between atoms: N6_16  and  C5_17 
REMARK    3  A    between atoms: C7_20  and  C8_21 
REMARK    4  A    between atoms: C12_26  and  C13_27 
REMARK    5  A    between atoms: C13_27  and  O1_28 
REMARK    6  A    between atoms: C13_27  and  C19_44 
REMARK    7  A    between atoms: O1_28  and  C14_29 
REMARK       I    between atoms: C14_29  and  N7_31 
REMARK    8  A    between atoms: N7_31  and  C15_32 
REMARK    9  A    between atoms: N7_31  and  C17_36 
REMARK   10  A    between atoms: C15_32  and  C16_33 
REMARK   11  A    between atoms: C17_36  and  C18_37 
REMARK       I    between atoms: C18_37  and  N8_39 
REMARK   12  A    between atoms: N8_39  and  N9_41 
ROOT
HETATM    1  C5  UNL     1       0.025   0.274  -2.399  1.00  0.00     0.129 C 
HETATM    2  C6  UNL     1      -0.116  -0.466  -3.718  1.00  0.00     0.102 C 
HETATM    3  S1  UNL     1      -1.808  -1.121  -3.608  1.00  0.00    -0.156 SA
HETATM    4  C7  UNL     1      -2.086  -0.705  -1.871  1.00  0.00     0.096 C 
HETATM    5  C12 UNL     1      -0.691  -0.567  -1.373  1.00  0.00     0.068 C 
ENDROOT
BRANCH   5   6
HETATM    6  C13 UNL     1       0.024  -1.724  -0.833  1.00  0.00     0.230 C 
BRANCH   6   7
HETATM    7  O1  UNL     1       1.242  -1.297  -0.149  1.00  0.00    -0.288 OA
BRANCH   7   8
HETATM    8  C14 UNL     1       1.403  -1.517   1.194  1.00  0.00     0.372 C 
HETATM    9  O2  UNL     1       0.470  -2.086   1.805  1.00  0.00    -0.238 OA
HETATM   10  N7  UNL     1       2.561  -1.144   1.938  1.00  0.00    -0.268 N 
BRANCH  10  11
HETATM   11  C15 UNL     1       3.645  -0.491   1.256  1.00  0.00     0.186 C 
BRANCH  11  12
HETATM   12  C16 UNL     1       3.543   0.934   1.139  1.00  0.00     0.215 C 
HETATM   13  O3  UNL     1       4.618   1.574   0.825  1.00  0.00    -0.643 OA
HETATM   14  O4  UNL     1       2.445   1.685   1.316  1.00  0.00    -0.643 OA
ENDBRANCH  11  12
ENDBRANCH  10  11
BRANCH  10  15
HETATM   15  C17 UNL     1       2.730  -1.540   3.285  1.00  0.00     0.177 C 
BRANCH  15  16
HETATM   16  C18 UNL     1       2.151  -0.825   4.386  1.00  0.00     0.275 C 
HETATM   17  O5  UNL     1       2.431  -1.220   5.580  1.00  0.00    -0.265 OA
HETATM   18  N8  UNL     1       1.296   0.268   4.290  1.00  0.00    -0.272 N 
ATOM     19  H8  UNL     1       1.035   0.613   3.366  1.00  0.00     0.189 HD
BRANCH  18  20
HETATM   20  N9  UNL     1       0.779   0.914   5.435  1.00  0.00    -0.342 N 
ATOM     21  H92 UNL     1       1.050   0.556   6.351  1.00  0.00     0.176 HD
ATOM     22  H91 UNL     1       0.152   1.715   5.365  1.00  0.00     0.176 HD
ENDBRANCH  18  20
ENDBRANCH  15  16
ENDBRANCH  10  15
ENDBRANCH   7   8
ENDBRANCH   6   7
BRANCH   6  23
HETATM   23  C19 UNL     1       0.447  -2.804  -1.751  1.00  0.00     0.261 C 
HETATM   24  N10 UNL     1       1.815  -3.173  -1.920  1.00  0.00    -0.060 NA
HETATM   25  O6  UNL     1      -0.327  -3.489  -2.457  1.00  0.00    -0.274 OA
ENDBRANCH   6  23
ENDBRANCH   5   6
BRANCH   1  26
HETATM   26  N6  UNL     1      -0.638   1.548  -2.574  1.00  0.00    -0.254 N 
HETATM   27  C3  UNL     1      -0.820   2.553  -1.686  1.00  0.00     0.157 A 
HETATM   28  N3  UNL     1      -0.460   2.681  -0.424  1.00  0.00    -0.335 N 
HETATM   29  C4  UNL     1      -1.506   3.563  -2.310  1.00  0.00     0.139 A 
HETATM   30  C2  UNL     1      -0.757   3.788   0.262  1.00  0.00     0.183 A 
ATOM     31  H3  UNL     1       0.051   1.926   0.034  1.00  0.00     0.168 HD
HETATM   32  N2  UNL     1      -1.432   4.812  -0.306  1.00  0.00    -0.337 N 
HETATM   33  C1  UNL     1      -1.805   4.699  -1.589  1.00  0.00     0.132 A 
ATOM     34  H2  UNL     1      -1.653   5.652   0.229  1.00  0.00     0.168 HD
HETATM   35  N4  UNL     1      -1.736   3.161  -3.575  1.00  0.00    -0.279 N 
HETATM   36  N5  UNL     1      -1.213   1.981  -3.684  1.00  0.00    -0.238 N 
ATOM     37  H4  UNL     1      -2.225   3.682  -4.303  1.00  0.00     0.189 HD
ATOM     38  H5  UNL     1      -1.242   1.436  -4.546  1.00  0.00     0.208 HD
BRANCH  33  39
HETATM   39  N1  UNL     1      -2.452   5.663  -2.159  1.00  0.00    -0.383 N 
ATOM     40  H12 UNL     1      -2.673   6.504  -1.625  1.00  0.00     0.157 HD
ATOM     41  H11 UNL     1      -2.736   5.577  -3.135  1.00  0.00     0.157 HD
ENDBRANCH  33  39
ENDBRANCH   1  26
BRANCH   4  42
HETATM   42  C8  UNL     1      -2.930  -1.694  -1.182  1.00  0.00    -0.003 A 
HETATM   43  C9  UNL     1      -3.218  -1.935   0.131  1.00  0.00     0.016 A 
HETATM   44  C10 UNL     1      -4.076  -2.931   0.405  1.00  0.00     0.008 A 
HETATM   45  C11 UNL     1      -4.595  -3.627  -0.659  1.00  0.00     0.050 A 
HETATM   46  S2  UNL     1      -3.861  -2.859  -1.995  1.00  0.00    -0.105 SA
ENDBRANCH   4  42
TORSDOF 12
