REMARK  12 active torsions:
REMARK  status: ('A' for Active; 'I' for Inactive)
REMARK    1  A    between atoms: O1_2  and  N1_3 
REMARK    2  A    between atoms: N1_3  and  C2_4 
REMARK    3  A    between atoms: N2_6  and  C4_7 
REMARK    4  A    between atoms: C5_10  and  N4_11 
REMARK    5  A    between atoms: C8_14  and  C9_15 
REMARK    6  A    between atoms: C9_15  and  S1_16 
REMARK    7  A    between atoms: S1_16  and  C10_17 
REMARK    8  A    between atoms: C11_22  and  C12_23 
REMARK    9  A    between atoms: C12_23  and  N7_24 
REMARK   10  A    between atoms: C16_34  and  N9_35 
REMARK   11  A    between atoms: C17_40  and  N11_41 
REMARK       I    between atoms: N11_41  and  C18_43 
REMARK   12  A    between atoms: C21_52  and  O2_53 
ROOT
HETATM    1  C4  UNL     1      -2.511  -0.276   0.099  1.00  0.00     0.682 A 
HETATM    2  N3  UNL     1      -1.238   0.084   0.369  1.00  0.00    -0.174 N 
ATOM      3  H3  UNL     1      -1.032   0.422   1.309  1.00  0.00     0.186 HD
HETATM    4  C5  UNL     1      -0.223   0.031  -0.507  1.00  0.00     0.149 A 
HETATM    5  C15 UNL     1      -0.494  -0.424  -1.777  1.00  0.00     0.124 A 
HETATM    6  N8  UNL     1       0.404  -0.514  -2.743  1.00  0.00    -0.186 N 
ATOM      7  H8  UNL     1       1.366  -0.239  -2.543  1.00  0.00     0.184 HD
HETATM    8  C16 UNL     1       0.100  -0.958  -3.993  1.00  0.00     0.678 A 
HETATM    9  N10 UNL     1      -1.156  -1.331  -4.306  1.00  0.00    -0.174 N 
ATOM     10  H10 UNL     1      -1.374  -1.663  -5.245  1.00  0.00     0.186 HD
HETATM   11  C17 UNL     1      -2.115  -1.263  -3.375  1.00  0.00     0.153 A 
HETATM   12  C19 UNL     1      -1.808  -0.811  -2.103  1.00  0.00     0.124 A 
HETATM   13  N14 UNL     1      -2.743  -0.717  -1.151  1.00  0.00    -0.185 N 
ATOM     14  H14 UNL     1      -3.694  -0.998  -1.388  1.00  0.00     0.184 HD
ENDROOT
BRANCH   4  15
HETATM   15  N4  UNL     1       1.103   0.377  -0.153  1.00  0.00    -0.365 N 
HETATM   16  C6  UNL     1       2.039  -0.685   0.163  1.00  0.00     0.125 C 
HETATM   17  C7  UNL     1       3.211  -0.089   0.969  1.00  0.00     0.025 C 
HETATM   18  C8  UNL     1       2.705   0.947   1.904  1.00  0.00    -0.002 C 
HETATM   19  C13 UNL     1       2.289   2.164   1.099  1.00  0.00     0.025 C 
HETATM   20  C14 UNL     1       1.500   1.768  -0.113  1.00  0.00     0.125 C 
BRANCH  18  21
HETATM   21  C9  UNL     1       3.691   1.336   2.940  1.00  0.00     0.086 C 
BRANCH  21  22
HETATM   22  S1  UNL     1       5.240   2.022   2.476  1.00  0.00    -0.103 SA
BRANCH  22  23
HETATM   23  C10 UNL     1       6.432   0.936   1.730  1.00  0.00     0.128 A 
HETATM   24  N5  UNL     1       7.329   0.152   2.356  1.00  0.00    -0.287 N 
HETATM   25  N6  UNL     1       8.143  -0.531   1.692  1.00  0.00    -0.295 N 
ATOM     26  H5  UNL     1       7.346   0.114   3.375  1.00  0.00     0.188 HD
HETATM   27  C11 UNL     1       8.129  -0.488   0.363  1.00  0.00     0.094 A 
ATOM     28  H6  UNL     1       8.820  -1.123   2.173  1.00  0.00     0.187 HD
HETATM   29  S2  UNL     1       6.854   0.612   0.090  1.00  0.00    -0.048 SA
BRANCH  27  30
HETATM   30  C12 UNL     1       9.011  -1.222  -0.608  1.00  0.00     0.295 C 
BRANCH  30  31
HETATM   31  N7  UNL     1      10.192  -0.434  -0.915  1.00  0.00    -0.073 N 
ATOM     32  H73 UNL     1       9.950   0.498  -1.251  1.00  0.00     0.274 HD
ATOM     33  H72 UNL     1      10.698  -0.164  -0.072  1.00  0.00     0.274 HD
ATOM     34  H71 UNL     1      10.790  -0.932  -1.574  1.00  0.00     0.274 HD
ENDBRANCH  30  31
ENDBRANCH  27  30
ENDBRANCH  22  23
ENDBRANCH  21  22
ENDBRANCH  18  21
ENDBRANCH   4  15
BRANCH   1  35
HETATM   35  N2  UNL     1      -3.537  -0.194   1.070  1.00  0.00    -0.213 N 
HETATM   36  C3  UNL     1      -4.906  -0.569   0.884  1.00  0.00     0.167 C 
HETATM   37  C2  UNL     1      -5.652   0.454   1.712  1.00  0.00     0.155 C 
HETATM   38  C21 UNL     1      -4.631   1.133   2.589  1.00  0.00     0.159 C 
HETATM   39  C20 UNL     1      -3.385   0.284   2.412  1.00  0.00     0.174 C 
BRANCH  37  40
HETATM   40  N1  UNL     1      -6.625  -0.183   2.579  1.00  0.00    -0.092 NA
BRANCH  40  41
HETATM   41  O1  UNL     1      -7.241   0.794   3.279  1.00  0.00    -0.291 OA
HETATM   42  C1  UNL     1      -7.333   0.424   4.630  1.00  0.00     0.231 C 
ENDBRANCH  40  41
ENDBRANCH  37  40
BRANCH  38  43
HETATM   43  O2  UNL     1      -4.410   2.453   2.140  1.00  0.00    -0.392 OA
ATOM     44  H2  UNL     1      -3.767   2.881   2.693  1.00  0.00     0.210 HD
ENDBRANCH  38  43
ENDBRANCH   1  35
BRANCH   8  45
HETATM   45  N9  UNL     1       1.015  -1.027  -4.896  1.00  0.00    -0.234 N 
ATOM     46  H92 UNL     1       1.966  -0.745  -4.659  1.00  0.00     0.174 HD
ATOM     47  H91 UNL     1       0.787  -1.360  -5.833  1.00  0.00     0.174 HD
ENDBRANCH   8  45
BRANCH  11  48
HETATM   48  N11 UNL     1      -3.338  -1.601  -3.599  1.00  0.00    -0.315 N 
HETATM   49  C18 UNL     1      -3.820  -2.077  -4.823  1.00  0.00     0.187 C 
HETATM   50  N12 UNL     1      -4.172  -3.302  -4.945  1.00  0.00    -0.373 N 
HETATM   51  N13 UNL     1      -3.925  -1.219  -5.940  1.00  0.00    -0.064 NA
ATOM     52 2H12 UNL     1      -4.096  -3.922  -4.138  1.00  0.00     0.158 HD
ATOM     53 1H12 UNL     1      -4.523  -3.649  -5.837  1.00  0.00     0.158 HD
ATOM     54  H11 UNL     1      -4.002  -1.515  -2.829  1.00  0.00     0.170 HD
ENDBRANCH  11  48
TORSDOF 12
