REMARK  8 active torsions:
REMARK  status: ('A' for Active; 'I' for Inactive)
REMARK    1  A    between atoms: C2_2  and  S1_4 
REMARK    2  A    between atoms: S1_4  and  N1_7 
REMARK    3  A    between atoms: N1_7  and  N2_9 
REMARK    4  A    between atoms: N2_9  and  C4_11 
REMARK    5  A    between atoms: C4_11  and  N3_13 
REMARK    6  A    between atoms: N3_13  and  C5_15 
REMARK    7  A    between atoms: C5_15  and  C6_16 
REMARK    8  A    between atoms: C6_16  and  N4_17 
ROOT
HETATM    1  N2  UNL     1       0.624  -0.061   0.636  1.00  0.00    -0.267 N 
ATOM      2  H2  UNL     1       1.180   0.750   0.908  1.00  0.00     0.190 HD
ENDROOT
BRANCH   1   3
HETATM    3  N1  UNL     1      -0.492  -0.421   1.392  1.00  0.00    -0.225 N 
ATOM      4  H1  UNL     1      -0.547  -1.266   1.960  1.00  0.00     0.200 HD
BRANCH   3   5
HETATM    5  S1  UNL     1      -1.762   0.727   1.253  1.00  0.00     0.247 S 
HETATM    6  O1  UNL     1      -1.225   2.089   0.935  1.00  0.00    -0.204 OA
HETATM    7  O2  UNL     1      -2.469   0.807   2.577  1.00  0.00    -0.204 OA
BRANCH   5   8
HETATM    8  C2  UNL     1      -2.908   0.167   0.025  1.00  0.00     0.122 C 
HETATM    9  C1  UNL     1      -3.565  -1.111   0.462  1.00  0.00     0.027 C 
HETATM   10  C3  UNL     1      -4.008   1.187  -0.213  1.00  0.00     0.027 C 
ENDBRANCH   5   8
ENDBRANCH   3   5
ENDBRANCH   1   3
BRANCH   1  11
HETATM   11  C4  UNL     1       0.987  -0.805  -0.495  1.00  0.00     0.187 C 
HETATM   12  S2  UNL     1       0.064  -2.109  -0.901  1.00  0.00    -0.040 SA
BRANCH  11  13
HETATM   13  N3  UNL     1       2.100  -0.517  -1.314  1.00  0.00    -0.364 N 
ATOM     14  H3  UNL     1       2.250  -1.130  -2.115  1.00  0.00     0.162 HD
BRANCH  13  15
HETATM   15  C5  UNL     1       3.041   0.549  -1.134  1.00  0.00     0.149 C 
BRANCH  15  16
HETATM   16  C6  UNL     1       3.959   0.389   0.043  1.00  0.00     0.249 C 
BRANCH  16  17
HETATM   17  N4  UNL     1       4.765  -0.834  -0.082  1.00  0.00    -0.078 N 
ATOM     18  H43 UNL     1       4.180  -1.658  -0.218  1.00  0.00     0.274 HD
ATOM     19  H42 UNL     1       5.276  -0.860  -0.964  1.00  0.00     0.274 HD
ATOM     20  H41 UNL     1       5.389  -0.943   0.718  1.00  0.00     0.274 HD
ENDBRANCH  16  17
ENDBRANCH  15  16
ENDBRANCH  13  15
ENDBRANCH  11  13
ENDBRANCH   1  11
TORSDOF 8
