REMARK  5 active torsions:
REMARK  status: ('A' for Active; 'I' for Inactive)
REMARK    1  A    between atoms: C2_7  and  C3_8 
REMARK    2  A    between atoms: C3_8  and  C4_9 
REMARK    3  A    between atoms: C4_9  and  C5_10 
REMARK    4  A    between atoms: C5_10  and  N4_11 
REMARK    5  A    between atoms: C5_10  and  N5_15 
ROOT
HETATM    1  C3  UNL     1       0.058  -0.525   0.199  1.00  0.00     0.082 C 
ENDROOT
BRANCH   1   2
HETATM    2  C2  UNL     1      -1.308   0.012  -0.025  1.00  0.00     0.098 A 
HETATM    3  N3  UNL     1      -1.703   1.107  -0.676  1.00  0.00    -0.286 N 
HETATM    4  N2  UNL     1      -3.015   1.173  -0.611  1.00  0.00    -0.272 N 
ATOM      5  H3  UNL     1      -1.093   1.778  -1.144  1.00  0.00     0.188 HD
HETATM    6  C1  UNL     1      -3.499   0.114   0.088  1.00  0.00     0.208 A 
ATOM      7  H2  UNL     1      -3.585   1.911  -1.025  1.00  0.00     0.189 HD
HETATM    8  N1  UNL     1      -4.868  -0.136   0.354  1.00  0.00    -0.062 NA
HETATM    9  N6  UNL     1      -2.413  -0.591   0.439  1.00  0.00    -0.318 N 
ATOM     10  H6  UNL     1      -2.426  -1.457   0.978  1.00  0.00     0.170 HD
ENDBRANCH   1   2
BRANCH   1  11
HETATM   11  C4  UNL     1       1.120   0.328  -0.418  1.00  0.00     0.069 C 
BRANCH  11  12
HETATM   12  C5  UNL     1       2.461  -0.318  -0.124  1.00  0.00     0.378 C 
BRANCH  12  13
HETATM   13  N4  UNL     1       2.595  -0.373   1.324  1.00  0.00    -0.051 N 
ATOM     14  H43 UNL     1       2.480   0.536   1.773  1.00  0.00     0.276 HD
ATOM     15  H42 UNL     1       1.814  -0.843   1.782  1.00  0.00     0.276 HD
ATOM     16  H41 UNL     1       3.497  -0.807   1.522  1.00  0.00     0.276 HD
ENDBRANCH  12  13
BRANCH  12  17
HETATM   17  N5  UNL     1       3.563   0.441  -0.638  1.00  0.00    -0.051 N 
ATOM     18  H53 UNL     1       3.452   0.617  -1.637  1.00  0.00     0.276 HD
ATOM     19  H52 UNL     1       3.537   1.402  -0.297  1.00  0.00     0.276 HD
ATOM     20  H51 UNL     1       4.465   0.007  -0.440  1.00  0.00     0.276 HD
ENDBRANCH  12  17
ENDBRANCH  11  12
ENDBRANCH   1  11
TORSDOF 5
