REMARK  6 active torsions:
REMARK  status: ('A' for Active; 'I' for Inactive)
REMARK    1  A    between atoms: O1_2  and  C2_3 
REMARK    2  A    between atoms: C5_6  and  C6_7 
REMARK    3  A    between atoms: C9_11  and  O2_12 
REMARK    4  A    between atoms: C10_14  and  C11_15 
REMARK    5  A    between atoms: C11_15  and  C12_16 
REMARK       I    between atoms: C12_16  and  N1_18 
REMARK    6  A    between atoms: C13_19  and  C14_20 
ROOT
HETATM    1  C2  UNL     1      -2.257   0.932   0.791  1.00  0.00     0.130 C 
HETATM    2  C3  UNL     1      -2.658   1.368  -0.632  1.00  0.00     0.017 C 
HETATM    3  C4  UNL     1      -3.701   0.279  -0.857  1.00  0.00     0.018 C 
HETATM    4  C5  UNL     1      -3.001  -0.947  -0.246  1.00  0.00    -0.024 C 
HETATM    5  C7  UNL     1      -2.846  -1.952  -1.325  1.00  0.00     0.013 C 
HETATM    6  C8  UNL     1      -1.982  -1.407  -2.440  1.00  0.00     0.033 C 
HETATM    7  C9  UNL     1      -0.637  -1.157  -1.767  1.00  0.00     0.127 C 
HETATM    8  C10 UNL     1      -0.709  -0.092  -0.713  1.00  0.00     0.001 C 
HETATM    9  C19 UNL     1      -1.382   1.135  -1.366  1.00  0.00     0.020 C 
HETATM   10  C20 UNL     1      -1.720  -0.422   0.363  1.00  0.00     0.036 C 
ENDROOT
BRANCH   8  11
HETATM   11  C11 UNL     1       0.614   0.326  -0.232  1.00  0.00     0.115 C 
BRANCH  11  12
HETATM   12  C12 UNL     1       1.499  -0.626   0.457  1.00  0.00     0.222 C 
HETATM   13  O3  UNL     1       1.152  -1.764   0.840  1.00  0.00    -0.273 OA
HETATM   14  N1  UNL     1       2.854  -0.277   0.732  1.00  0.00    -0.327 N 
HETATM   15  C13 UNL     1       3.496   0.974   0.391  1.00  0.00     0.246 C 
HETATM   16  C18 UNL     1       3.807  -1.119   1.403  1.00  0.00     0.100 A 
HETATM   17  C15 UNL     1       4.664   1.070   1.308  1.00  0.00     0.164 C 
HETATM   18  O5  UNL     1       5.241   2.076   1.592  1.00  0.00    -0.295 OA
HETATM   19  C16 UNL     1       4.966  -0.284   1.789  1.00  0.00     0.083 A 
HETATM   20  C17 UNL     1       4.070  -0.843   2.856  1.00  0.00     0.040 A 
BRANCH  15  21
HETATM   21  C14 UNL     1       4.047   0.937  -0.985  1.00  0.00     0.261 C 
HETATM   22  N2  UNL     1       4.703   2.070  -1.517  1.00  0.00    -0.060 NA
HETATM   23  O4  UNL     1       3.949  -0.078  -1.705  1.00  0.00    -0.274 OA
ENDBRANCH  15  21
ENDBRANCH  11  12
ENDBRANCH   8  11
BRANCH   7  24
HETATM   24  O2  UNL     1      -0.306  -2.413  -1.277  1.00  0.00    -0.395 OA
ATOM     25  H2  UNL     1       0.532  -2.257  -0.858  1.00  0.00     0.210 HD
ENDBRANCH   7  24
BRANCH   1  26
HETATM   26  O1  UNL     1      -1.421   1.767   1.424  1.00  0.00    -0.390 OA
HETATM   27  C1  UNL     1      -2.054   2.254   2.590  1.00  0.00     0.202 C 
ENDBRANCH   1  26
BRANCH   4  28
HETATM   28  C6  UNL     1      -3.875  -1.590   0.820  1.00  0.00     0.095 C 
HETATM   29 BR1  UNL     1      -5.528  -2.145   0.018  1.00  0.00    -0.096 Br
ENDBRANCH   4  28
TORSDOF 6
