REMARK  8 active torsions:
REMARK  status: ('A' for Active; 'I' for Inactive)
REMARK    1  A    between atoms: C2_2  and  C3_3 
REMARK    2  A    between atoms: C3_3  and  C4_4 
REMARK    3  A    between atoms: C4_4  and  O1_5 
REMARK    4  A    between atoms: C4_4  and  N1_7 
REMARK    5  A    between atoms: C5_8  and  C6_9 
REMARK    6  A    between atoms: C9_15  and  C10_16 
REMARK       I    between atoms: C10_16  and  N2_18 
REMARK    7  A    between atoms: N2_18  and  C11_20 
REMARK    8  A    between atoms: C15_24  and  C16_25 
ROOT
HETATM    1  N1  UNL     1       1.855  -0.469   0.570  1.00  0.00    -0.312 N 
HETATM    2  C5  UNL     1       1.566  -1.931   0.223  1.00  0.00     0.253 C 
HETATM    3  C7  UNL     1       0.148  -1.778   0.294  1.00  0.00     0.208 C 
HETATM    4  O4  UNL     1      -0.966  -2.469   0.221  1.00  0.00    -0.345 OA
HETATM    5  C8  UNL     1      -1.588  -1.272  -0.222  1.00  0.00     0.152 C 
HETATM    6  C9  UNL     1      -1.631  -0.119   0.701  1.00  0.00     0.112 C 
HETATM    7  C14 UNL     1      -0.339   0.689   0.777  1.00  0.00     0.079 C 
HETATM    8  C15 UNL     1       0.800  -0.088   1.423  1.00  0.00     0.152 C 
HETATM    9  O6  UNL     1       0.127  -1.347   1.574  1.00  0.00    -0.320 OA
HETATM   10  C17 UNL     1      -0.281  -1.141  -0.907  1.00  0.00     0.046 A 
HETATM   11  C18 UNL     1       0.089  -0.701  -2.155  1.00  0.00     0.019 A 
HETATM   12  C19 UNL     1      -0.214  -2.137  -2.120  1.00  0.00     0.019 A 
ENDROOT
BRANCH   6  13
HETATM   13  C10 UNL     1      -2.730   0.763   0.306  1.00  0.00     0.224 C 
HETATM   14  O5  UNL     1      -2.467   1.959  -0.024  1.00  0.00    -0.273 OA
HETATM   15  N2  UNL     1      -4.057   0.295   0.292  1.00  0.00    -0.356 N 
ATOM     16  H2  UNL     1      -4.263  -0.668   0.559  1.00  0.00     0.162 HD
BRANCH  15  17
HETATM   17  C11 UNL     1      -5.128   1.185  -0.102  1.00  0.00     0.084 A 
HETATM   18  C12 UNL     1      -6.515   0.914   0.368  1.00  0.00     0.027 A 
HETATM   19  C13 UNL     1      -6.138   0.551  -1.031  1.00  0.00     0.027 A 
ENDBRANCH  15  17
ENDBRANCH   6  13
BRANCH   8  20
HETATM   20  C16 UNL     1       0.995   0.375   2.803  1.00  0.00     0.146 C 
HETATM   21 BR1  UNL     1       2.009   1.967   3.018  1.00  0.00    -0.091 Br
ENDBRANCH   8  20
BRANCH   1  22
HETATM   22  C4  UNL     1       2.996   0.097  -0.028  1.00  0.00     0.116 C 
BRANCH  22  23
HETATM   23  C3  UNL     1       3.584   1.416   0.022  1.00  0.00     0.083 C 
BRANCH  23  24
HETATM   24  C2  UNL     1       4.535   1.664  -1.174  1.00  0.00     0.003 C 
HETATM   25  C1  UNL     1       5.114   3.062  -1.057  1.00  0.00     0.005 C 
ENDBRANCH  23  24
ENDBRANCH  22  23
BRANCH  22  26
HETATM   26  O1  UNL     1       3.688  -0.713  -0.794  1.00  0.00    -0.349 OA
ATOM     27  H1  UNL     1       3.301  -1.580  -0.827  1.00  0.00     0.219 HD
ENDBRANCH  22  26
ENDBRANCH   1  22
BRANCH   2  28
HETATM   28  C6  UNL     1       2.133  -2.814   1.228  1.00  0.00     0.202 C 
HETATM   29  O2  UNL     1       2.813  -2.465   2.210  1.00  0.00    -0.646 OA
HETATM   30  O3  UNL     1       1.915  -4.202   1.115  1.00  0.00    -0.646 OA
ENDBRANCH   2  28
TORSDOF 8
