REMARK  7 active torsions:
REMARK  status: ('A' for Active; 'I' for Inactive)
REMARK    1  A    between atoms: N1_2  and  C2_4 
REMARK       I    between atoms: N2_6  and  C4_8 
REMARK       I    between atoms: C4_8  and  N6_24 
REMARK       I    between atoms: N3_9  and  C5_11 
REMARK    2  A    between atoms: C5_11  and  C6_13 
REMARK    3  A    between atoms: C9_18  and  S1_19 
REMARK    4  A    between atoms: N6_24  and  C11_26 
REMARK    5  A    between atoms: C11_26  and  C12_27 
REMARK    6  A    between atoms: C11_26  and  C14_31 
REMARK    7  A    between atoms: C12_27  and  C13_29 
ROOT
HETATM    1  C2  UNL     1      -1.110   2.784  -1.231  1.00  0.00     0.088 C 
HETATM    2  C3  UNL     1      -0.944   3.657  -0.053  1.00  0.00     0.089 C 
HETATM    3  N2  UNL     1      -0.825   1.559  -1.162  1.00  0.00    -0.181 N 
ATOM      4  H2  UNL     1      -0.970   1.029  -2.021  1.00  0.00     0.185 HD
HETATM    5  C4  UNL     1      -0.337   0.817  -0.076  1.00  0.00     0.683 C 
HETATM    6  N3  UNL     1       0.222   1.392   0.919  1.00  0.00    -0.154 N 
ATOM      7  H3  UNL     1       0.293   2.409   0.880  1.00  0.00     0.187 HD
HETATM    8  C5  UNL     1       0.751   0.764   2.065  1.00  0.00     0.287 C 
HETATM    9  O1  UNL     1       0.120   0.720   3.168  1.00  0.00    -0.265 OA
HETATM   10  N6  UNL     1      -0.445  -0.593  -0.092  1.00  0.00    -0.214 N 
ATOM     11  H6  UNL     1       0.243  -1.079  -0.668  1.00  0.00     0.178 HD
ENDROOT
BRANCH  10  12
HETATM   12  C11 UNL     1      -1.374  -1.426   0.579  1.00  0.00     0.173 C 
BRANCH  12  13
HETATM   13  C12 UNL     1      -0.990  -2.871   0.353  1.00  0.00     0.160 C 
HETATM   14  O3  UNL     1      -0.027  -3.127  -0.346  1.00  0.00    -0.295 OA
BRANCH  13  15
HETATM   15  C13 UNL     1      -1.743  -3.983   0.952  1.00  0.00     0.165 C 
HETATM   16 BR1  UNL     1      -3.122  -4.707  -0.165  1.00  0.00    -0.088 Br
ENDBRANCH  13  15
ENDBRANCH  12  13
BRANCH  12  17
HETATM   17  C14 UNL     1      -2.814  -1.211   0.183  1.00  0.00     0.008 C 
HETATM   18  C15 UNL     1      -3.057  -1.415  -1.294  1.00  0.00     0.012 C 
HETATM   19  C16 UNL     1      -3.298   0.138   0.588  1.00  0.00     0.012 C 
ENDBRANCH  12  17
ENDBRANCH  10  12
BRANCH   1  20
HETATM   20  N1  UNL     1      -1.595   3.317  -2.454  1.00  0.00    -0.384 N 
HETATM   21  C1  UNL     1      -1.183   4.610  -2.978  1.00  0.00     0.147 C 
ATOM     22  H1  UNL     1      -2.265   2.767  -2.991  1.00  0.00     0.160 HD
ENDBRANCH   1  20
BRANCH   8  23
HETATM   23  C6  UNL     1       2.060   0.129   2.037  1.00  0.00     0.118 A 
HETATM   24  C7  UNL     1       2.590  -0.483   3.153  1.00  0.00     0.122 A 
HETATM   25  N4  UNL     1       3.809  -1.073   3.136  1.00  0.00    -0.370 N 
HETATM   26  C8  UNL     1       4.554  -1.083   2.018  1.00  0.00     0.127 A 
ATOM     27  H4  UNL     1       4.166  -1.515   3.983  1.00  0.00     0.164 HD
HETATM   28  C9  UNL     1       4.036  -0.475   0.896  1.00  0.00     0.116 A 
HETATM   29  N5  UNL     1       2.819   0.110   0.927  1.00  0.00    -0.342 N 
ATOM     30  H5  UNL     1       2.463   0.553   0.080  1.00  0.00     0.167 HD
BRANCH  28  31
HETATM   31  S1  UNL     1       5.016  -0.494  -0.553  1.00  0.00     0.064 S 
HETATM   32  C10 UNL     1       4.724  -1.909  -1.557  1.00  0.00     0.134 C 
HETATM   33  O2  UNL     1       6.630  -0.482  -0.090  1.00  0.00    -0.252 OA
ENDBRANCH  28  31
ENDBRANCH   8  23
TORSDOF 7
