REMARK  7 active torsions:
REMARK  status: ('A' for Active; 'I' for Inactive)
REMARK    1  A    between atoms: C2_2  and  N1_3 
REMARK    2  A    between atoms: N1_3  and  N2_4 
REMARK    3  A    between atoms: N1_3  and  S1_26 
REMARK    4  A    between atoms: N4_17  and  C11_18 
REMARK    5  A    between atoms: C11_18  and  C12_19 
REMARK    6  A    between atoms: S1_26  and  C18_29 
REMARK    7  A    between atoms: N5_33  and  O4_34 
ROOT
HETATM    1  N2  UNL     1       0.357  -0.177  -0.172  1.00  0.00    -0.120 N 
ATOM      2  H2  UNL     1       0.359   0.812   0.076  1.00  0.00     0.206 HD
HETATM    3  C3  UNL     1      -0.746  -0.613   0.172  1.00  0.00     0.703 A 
HETATM    4  N3  UNL     1      -0.997  -1.939  -0.059  1.00  0.00    -0.189 N 
ATOM      5  H3  UNL     1      -0.297  -2.482  -0.564  1.00  0.00     0.184 HD
HETATM    6  C4  UNL     1      -2.107  -2.559   0.341  1.00  0.00     0.065 A 
HETATM    7  C5  UNL     1      -2.304  -3.912   0.076  1.00  0.00     0.031 A 
HETATM    8  C6  UNL     1      -3.445  -4.520   0.496  1.00  0.00     0.002 A 
HETATM    9  C7  UNL     1      -4.391  -3.772   1.183  1.00  0.00     0.001 A 
HETATM   10  C8  UNL     1      -4.199  -2.433   1.447  1.00  0.00     0.019 A 
HETATM   11  C9  UNL     1      -3.037  -1.820   1.017  1.00  0.00     0.060 A 
HETATM   12  C10 UNL     1      -2.784  -0.499   1.244  1.00  0.00     0.274 A 
HETATM   13  O1  UNL     1      -3.640   0.180   1.867  1.00  0.00    -0.266 OA
HETATM   14  N4  UNL     1      -1.665   0.148   0.845  1.00  0.00    -0.141 N 
ENDROOT
BRANCH   1  15
HETATM   15  N1  UNL     1       1.538  -0.421  -0.719  1.00  0.00    -0.200 N 
BRANCH  15  16
HETATM   16  C2  UNL     1       2.121  -1.682  -1.170  1.00  0.00     0.158 C 
HETATM   17  C1  UNL     1       1.845  -1.900  -2.631  1.00  0.00     0.029 C 
ENDBRANCH  15  16
BRANCH  15  18
HETATM   18  S1  UNL     1       2.635   0.946  -0.958  1.00  0.00     0.280 S 
HETATM   19  O2  UNL     1       2.978   1.025  -2.442  1.00  0.00    -0.199 OA
HETATM   20  O3  UNL     1       1.928   2.184  -0.623  1.00  0.00    -0.199 OA
BRANCH  18  21
HETATM   21  C18 UNL     1       4.099   0.727  -0.033  1.00  0.00     0.099 A 
HETATM   22  C19 UNL     1       4.161   1.166   1.269  1.00  0.00     0.028 A 
HETATM   23  C20 UNL     1       5.315   1.015   2.043  1.00  0.00     0.021 A 
HETATM   24  C21 UNL     1       6.416   0.403   1.461  1.00  0.00     0.122 A 
HETATM   25  N5  UNL     1       6.353  -0.024   0.190  1.00  0.00    -0.246 N 
HETATM   26  C22 UNL     1       5.224   0.127  -0.554  1.00  0.00     0.147 A 
BRANCH  25  27
HETATM   27  O4  UNL     1       7.457  -0.622  -0.349  1.00  0.00    -0.284 OA
ATOM     28  H4  UNL     1       7.412  -0.924  -1.249  1.00  0.00     0.245 HD
ENDBRANCH  25  27
ENDBRANCH  18  21
ENDBRANCH  15  18
ENDBRANCH   1  15
BRANCH  14  29
HETATM   29  C11 UNL     1      -1.477   1.539   1.024  1.00  0.00     0.193 C 
BRANCH  29  30
HETATM   30  C12 UNL     1      -2.261   2.473   0.208  1.00  0.00    -0.001 A 
HETATM   31  C13 UNL     1      -3.283   3.192   0.871  1.00  0.00     0.012 A 
HETATM   32  C14 UNL     1      -4.086   4.111   0.246  1.00  0.00     0.001 A 
HETATM   33  C15 UNL     1      -3.943   4.396  -1.089  1.00  0.00     0.003 A 
HETATM   34  C16 UNL     1      -2.962   3.717  -1.760  1.00  0.00     0.043 A 
HETATM   35  C17 UNL     1      -2.141   2.773  -1.112  1.00  0.00     0.124 A 
HETATM   36  F1  UNL     1      -1.211   2.167  -1.873  1.00  0.00    -0.205 F 
ENDBRANCH  29  30
ENDBRANCH  14  29
TORSDOF 7
