REMARK  6 active torsions:
REMARK  status: ('A' for Active; 'I' for Inactive)
REMARK    1  A    between atoms: N1_2  and  C3_4 
REMARK    2  A    between atoms: N3_16  and  C12_17 
REMARK    3  A    between atoms: C12_17  and  C13_18 
REMARK    4  A    between atoms: C13_18  and  N4_19 
REMARK    5  A    between atoms: C17_23  and  S1_24 
REMARK    6  A    between atoms: S1_24  and  N5_25 
ROOT
HETATM    1  C3  UNL     1      -3.329  -1.032   0.250  1.00  0.00     0.680 A 
HETATM    2  N2  UNL     1      -4.315  -0.508  -0.524  1.00  0.00    -0.201 N 
ATOM      3  H2  UNL     1      -5.220  -0.973  -0.595  1.00  0.00     0.183 HD
HETATM    4  C4  UNL     1      -4.079   0.635  -1.196  1.00  0.00     0.122 A 
HETATM    5  C5  UNL     1      -2.868   1.271  -1.110  1.00  0.00     0.037 A 
HETATM    6  C6  UNL     1      -2.362   2.423  -1.673  1.00  0.00     0.007 A 
HETATM    7  C7  UNL     1      -2.890   3.362  -2.532  1.00  0.00     0.033 A 
HETATM    8  C8  UNL     1      -2.132   4.432  -2.933  1.00  0.00     0.011 A 
HETATM    9 BR1  UNL     1      -2.780   5.765  -4.110  1.00  0.00    -0.051 Br
HETATM   10  C9  UNL     1      -0.834   4.534  -2.449  1.00  0.00     0.021 A 
HETATM   11  C10 UNL     1      -0.308   3.606  -1.598  1.00  0.00     0.032 A 
HETATM   12  C11 UNL     1      -1.063   2.514  -1.181  1.00  0.00     0.047 A 
HETATM   13  N3  UNL     1      -0.797   1.477  -0.367  1.00  0.00    -0.330 N 
HETATM   14  C19 UNL     1      -1.902   0.697  -0.311  1.00  0.00     0.136 A 
HETATM   15  N6  UNL     1      -2.118  -0.445   0.369  1.00  0.00    -0.175 N 
ATOM     16  H6  UNL     1      -1.390  -0.854   0.955  1.00  0.00     0.186 HD
ENDROOT
BRANCH  13  17
HETATM   17  C12 UNL     1       0.467   1.246   0.327  1.00  0.00     0.151 C 
BRANCH  17  18
HETATM   18  C13 UNL     1       1.339   0.412  -0.582  1.00  0.00     0.148 C 
BRANCH  18  19
HETATM   19  N4  UNL     1       2.619   0.115  -0.010  1.00  0.00    -0.363 N 
HETATM   20  C14 UNL     1       3.665   0.937  -0.206  1.00  0.00     0.090 A 
HETATM   21  C15 UNL     1       4.913   0.721   0.306  1.00  0.00     0.019 A 
HETATM   22  C16 UNL     1       5.122  -0.410   1.075  1.00  0.00     0.028 A 
HETATM   23  C17 UNL     1       4.065  -1.273   1.293  1.00  0.00     0.094 A 
HETATM   24  C18 UNL     1       2.839  -0.981   0.739  1.00  0.00     0.115 A 
BRANCH  23  25
HETATM   25  S1  UNL     1       4.361  -2.693   2.270  1.00  0.00     0.258 S 
HETATM   26  O1  UNL     1       3.079  -3.100   2.982  1.00  0.00    -0.201 OA
HETATM   27  O2  UNL     1       5.388  -2.453   3.330  1.00  0.00    -0.201 OA
BRANCH  25  28
HETATM   28  N5  UNL     1       4.879  -3.951   1.201  1.00  0.00    -0.324 N 
ATOM     29  H52 UNL     1       4.987  -3.865   0.190  1.00  0.00     0.169 HD
ATOM     30  H51 UNL     1       5.052  -4.779   1.771  1.00  0.00     0.169 HD
ENDBRANCH  25  28
ENDBRANCH  23  25
ENDBRANCH  18  19
ENDBRANCH  17  18
ENDBRANCH  13  17
BRANCH   1  31
HETATM   31  N1  UNL     1      -3.555  -2.230   0.962  1.00  0.00    -0.226 N 
HETATM   32  C1  UNL     1      -4.098  -2.220   2.296  1.00  0.00     0.168 C 
HETATM   33  C2  UNL     1      -3.233  -3.494   0.341  1.00  0.00     0.168 C 
ENDBRANCH   1  31
TORSDOF 6
