REMARK  3 active torsions:
REMARK  status: ('A' for Active; 'I' for Inactive)
REMARK    1  A    between atoms: O1_2  and  C2_3 
REMARK    2  A    between atoms: C4_5  and  N1_6 
REMARK    3  A    between atoms: N1_6  and  N2_8 
ROOT
HETATM    1  N1  UNL     1      -0.742   1.242  -0.989  1.00  0.00    -0.300 N 
ATOM      2  H1  UNL     1      -0.593   2.250  -0.941  1.00  0.00     0.187 HD
ENDROOT
BRANCH   1   3
HETATM    3  C4  UNL     1       0.319   0.355  -0.681  1.00  0.00     0.050 A 
HETATM    4  C3  UNL     1       1.576   0.795  -0.310  1.00  0.00     0.069 A 
HETATM    5  C2  UNL     1       2.614  -0.064  -0.009  1.00  0.00     0.094 A 
HETATM    6  C11 UNL     1       2.385  -1.429  -0.082  1.00  0.00     0.079 A 
HETATM    7  C10 UNL     1       1.133  -1.920  -0.452  1.00  0.00     0.032 A 
HETATM    8  N4  UNL     1       3.434  -2.327   0.222  1.00  0.00    -0.100 NA
HETATM    9  C9  UNL     1       0.142  -1.024  -0.739  1.00  0.00     0.033 A 
BRANCH   5  10
HETATM   10  O1  UNL     1       3.861   0.368   0.359  1.00  0.00    -0.354 OA
HETATM   11  C1  UNL     1       4.254   1.702   0.480  1.00  0.00     0.210 C 
ENDBRANCH   5  10
ENDBRANCH   1   3
BRANCH   1  12
HETATM   12  N2  UNL     1      -1.986   0.742  -1.356  1.00  0.00    -0.299 N 
HETATM   13  C5  UNL     1      -2.862   0.315  -0.521  1.00  0.00     0.102 C 
HETATM   14  C6  UNL     1      -2.818   0.233   0.963  1.00  0.00     0.167 C 
HETATM   15  C8  UNL     1      -4.167  -0.210  -0.904  1.00  0.00     0.272 C 
HETATM   16  C7  UNL     1      -4.241   0.504   1.315  1.00  0.00     0.230 C 
HETATM   17  O2  UNL     1      -4.690   1.120   2.334  1.00  0.00    -0.273 OA
HETATM   18  N3  UNL     1      -5.001  -0.079   0.257  1.00  0.00    -0.292 N 
ATOM     19  H3  UNL     1      -5.980  -0.358   0.316  1.00  0.00     0.172 HD
HETATM   20  O3  UNL     1      -4.489  -0.681  -2.029  1.00  0.00    -0.266 OA
ATOM     21  H2  UNL     1      -2.217   0.713  -2.349  1.00  0.00     0.186 HD
ENDBRANCH   1  12
TORSDOF 3
