REMARK  8 active torsions:
REMARK  status: ('A' for Active; 'I' for Inactive)
REMARK    1  A    between atoms: O1_2  and  C2_3 
REMARK    2  A    between atoms: C3_4  and  N1_5 
REMARK    3  A    between atoms: C4_9  and  O2_10 
REMARK    4  A    between atoms: C6_12  and  N2_13 
REMARK       I    between atoms: N2_13  and  C8_15 
REMARK    5  A    between atoms: C9_18  and  C10_19 
REMARK    6  A    between atoms: C10_19  and  O4_20 
REMARK    7  A    between atoms: C10_19  and  C11_22 
REMARK    8  A    between atoms: C11_22  and  O5_24 
ROOT
HETATM    1  C2  UNL     1      -0.858  -1.887   0.063  1.00  0.00     0.172 C 
HETATM    2  C3  UNL     1      -1.416  -0.988  -0.990  1.00  0.00     0.247 C 
HETATM    3  C4  UNL     1      -1.289   0.478  -0.833  1.00  0.00     0.200 C 
HETATM    4  C6  UNL     1      -0.505   1.008   0.309  1.00  0.00     0.032 C 
HETATM    5  C9  UNL     1       0.520   0.022   0.891  1.00  0.00     0.086 C 
HETATM    6  C13 UNL     1      -0.319  -1.144   1.252  1.00  0.00     0.136 C 
HETATM    7  C14 UNL     1       0.192  -1.992   2.283  1.00  0.00     0.067 C 
HETATM    8  N4  UNL     1       0.578  -2.683   3.158  1.00  0.00    -0.197 NA
ENDROOT
BRANCH   1   9
HETATM    9  O1  UNL     1      -1.851  -2.738   0.545  1.00  0.00    -0.387 OA
HETATM   10  C1  UNL     1      -1.554  -4.080   0.371  1.00  0.00     0.202 C 
ENDBRANCH   1   9
BRANCH   5  11
HETATM   11  C10 UNL     1       1.772  -0.108   0.187  1.00  0.00     0.157 C 
BRANCH  11  12
HETATM   12  O4  UNL     1       1.818  -0.499  -1.118  1.00  0.00    -0.392 OA
ATOM     13  H4  UNL     1       2.643  -0.585  -1.582  1.00  0.00     0.210 HD
ENDBRANCH  11  12
BRANCH  11  14
HETATM   14  C11 UNL     1       2.934  -0.818   0.882  1.00  0.00     0.143 C 
HETATM   15  C12 UNL     1       3.048  -2.277   0.519  1.00  0.00     0.042 C 
BRANCH  14  16
HETATM   16  O5  UNL     1       4.160  -0.281   0.352  1.00  0.00    -0.393 OA
ATOM     17  H5  UNL     1       4.882  -0.722   0.784  1.00  0.00     0.210 HD
ENDBRANCH  14  16
ENDBRANCH  11  14
ENDBRANCH   5  11
BRANCH   2  18
HETATM   18  N1  UNL     1      -2.798  -1.391  -1.256  1.00  0.00    -0.070 N 
ATOM     19  H13 UNL     1      -2.879  -2.378  -1.500  1.00  0.00     0.274 HD
ATOM     20  H12 UNL     1      -3.371  -1.409  -0.412  1.00  0.00     0.274 HD
ATOM     21  H11 UNL     1      -3.179  -0.777  -1.976  1.00  0.00     0.274 HD
ENDBRANCH   2  18
BRANCH   4  22
HETATM   22  N2  UNL     1      -0.179   2.366   0.305  1.00  0.00    -0.311 N 
HETATM   23  C7  UNL     1      -0.814   3.159   1.423  1.00  0.00     0.160 C 
HETATM   24  C8  UNL     1       0.619   3.137  -0.524  1.00  0.00     0.334 C 
HETATM   25  N3  UNL     1       0.792   4.548  -0.223  1.00  0.00    -0.040 NA
HETATM   26  O3  UNL     1       1.220   2.742  -1.525  1.00  0.00    -0.251 OA
ENDBRANCH   4  22
BRANCH   3  27
HETATM   27  O2  UNL     1      -1.003   1.100  -2.073  1.00  0.00    -0.383 OA
HETATM   28  C5  UNL     1      -2.039   1.834  -2.585  1.00  0.00     0.202 C 
ENDBRANCH   3  27
TORSDOF 8
