REMARK  8 active torsions:
REMARK  status: ('A' for Active; 'I' for Inactive)
REMARK    1  A    between atoms: C2_2  and  C5_5 
REMARK    2  A    between atoms: C5_5  and  N1_6 
REMARK    3  A    between atoms: C5_5  and  C6_10 
REMARK    4  A    between atoms: C6_10  and  N2_11 
REMARK    5  A    between atoms: C6_10  and  C7_15 
REMARK       I    between atoms: C7_15  and  N3_17 
REMARK    6  A    between atoms: N3_17  and  C8_19 
REMARK    7  A    between atoms: C9_24  and  S1_25 
REMARK    8  A    between atoms: S1_25  and  N6_26 
ROOT
HETATM    1  C7  UNL     1      -0.278   0.939  -0.788  1.00  0.00     0.256 C 
HETATM    2  O1  UNL     1      -0.178   2.164  -1.015  1.00  0.00    -0.271 OA
HETATM    3  N3  UNL     1       0.731   0.268  -0.114  1.00  0.00    -0.304 N 
ATOM      4  H3  UNL     1       0.458  -0.275   0.705  1.00  0.00     0.171 HD
ENDROOT
BRANCH   1   5
HETATM    5  C6  UNL     1      -1.485   0.225  -1.248  1.00  0.00     0.305 C 
BRANCH   5   6
HETATM    6  C5  UNL     1      -2.104  -0.681  -0.229  1.00  0.00     0.230 C 
BRANCH   6   7
HETATM    7  C2  UNL     1      -2.806  -0.028   0.899  1.00  0.00    -0.021 C 
HETATM    8  C1  UNL     1      -3.498  -1.152   1.689  1.00  0.00     0.016 C 
HETATM    9  C3  UNL     1      -3.947   0.876   0.439  1.00  0.00     0.016 C 
HETATM   10  C4  UNL     1      -1.957   0.713   1.875  1.00  0.00     0.016 C 
ENDBRANCH   6   7
BRANCH   6  11
HETATM   11  N1  UNL     1      -1.133  -1.626   0.217  1.00  0.00    -0.072 N 
ATOM     12  H13 UNL     1      -0.472  -1.198   0.865  1.00  0.00     0.274 HD
ATOM     13  H12 UNL     1      -1.549  -2.316   0.842  1.00  0.00     0.274 HD
ATOM     14  H11 UNL     1      -0.649  -2.076  -0.560  1.00  0.00     0.274 HD
ENDBRANCH   6  11
ENDBRANCH   5   6
BRANCH   5  15
HETATM   15  N2  UNL     1      -2.439   1.097  -1.908  1.00  0.00    -0.064 N 
ATOM     16  H23 UNL     1      -3.197   0.554  -2.322  1.00  0.00     0.275 HD
ATOM     17  H22 UNL     1      -2.969   1.635  -1.223  1.00  0.00     0.275 HD
ATOM     18  H21 UNL     1      -2.017   1.714  -2.602  1.00  0.00     0.275 HD
ENDBRANCH   5  15
ENDBRANCH   1   5
BRANCH   3  19
HETATM   19  C8  UNL     1       1.984   0.266  -0.426  1.00  0.00     0.168 A 
HETATM   20  N4  UNL     1       2.632   0.870  -1.424  1.00  0.00    -0.278 N 
HETATM   21  N5  UNL     1       3.887   0.715  -1.524  1.00  0.00    -0.281 N 
ATOM     22  H4  UNL     1       2.126   1.447  -2.096  1.00  0.00     0.189 HD
HETATM   23  C9  UNL     1       4.546  -0.034  -0.655  1.00  0.00     0.208 A 
ATOM     24  H5  UNL     1       4.393   1.172  -2.282  1.00  0.00     0.188 HD
HETATM   25  S2  UNL     1       3.263  -0.543   0.371  1.00  0.00    -0.020 SA
BRANCH  23  26
HETATM   26  S1  UNL     1       6.274  -0.400  -0.582  1.00  0.00     0.280 S 
HETATM   27  O2  UNL     1       6.377  -1.718   0.172  1.00  0.00    -0.199 OA
HETATM   28  O3  UNL     1       6.873  -0.523  -1.929  1.00  0.00    -0.199 OA
BRANCH  26  29
HETATM   29  N6  UNL     1       7.005   0.808   0.389  1.00  0.00    -0.323 N 
ATOM     30  H62 UNL     1       6.520   1.587   0.835  1.00  0.00     0.169 HD
ATOM     31  H61 UNL     1       8.002   0.597   0.431  1.00  0.00     0.169 HD
ENDBRANCH  26  29
ENDBRANCH  23  26
ENDBRANCH   3  19
TORSDOF 8
