REMARK  6 active torsions:
REMARK  status: ('A' for Active; 'I' for Inactive)
REMARK    1  A    between atoms: C2_3  and  N2_4 
REMARK    2  A    between atoms: C2_3  and  N3_8 
REMARK    3  A    between atoms: C2_3  and  C12_29 
REMARK       I    between atoms: N3_8  and  C3_10 
REMARK    4  A    between atoms: C3_10  and  C4_12 
REMARK    5  A    between atoms: C5_13  and  N4_14 
REMARK    6  A    between atoms: C11_25  and  N7_26 
ROOT
HETATM    1  N1  UNL     1       4.638  -0.186   2.722  1.00  0.00    -0.192 NA
HETATM    2  C1  UNL     1       3.845   0.147   1.946  1.00  0.00     0.131 C 
HETATM    3  C2  UNL     1       2.813   0.563   0.967  1.00  0.00     0.364 C 
ENDROOT
BRANCH   3   4
HETATM    4  N2  UNL     1       2.132   1.729   1.460  1.00  0.00    -0.030 N 
ATOM      5  H23 UNL     1       1.744   1.585   2.392  1.00  0.00     0.279 HD
ATOM      6  H22 UNL     1       2.777   2.486   1.687  1.00  0.00     0.279 HD
ATOM      7  H21 UNL     1       1.422   2.015   0.786  1.00  0.00     0.279 HD
ENDBRANCH   3   4
BRANCH   3   8
HETATM    8  N3  UNL     1       1.935  -0.559   0.684  1.00  0.00    -0.305 N 
HETATM    9  C3  UNL     1       0.834  -0.435  -0.180  1.00  0.00     0.262 C 
HETATM   10  O1  UNL     1       0.675   0.754  -0.667  1.00  0.00    -0.267 OA
ATOM     11  H3  UNL     1       2.123  -1.460   1.124  1.00  0.00     0.166 HD
BRANCH   9  12
HETATM   12  C4  UNL     1      -0.113  -1.436  -0.574  1.00  0.00     0.119 A 
HETATM   13  C5  UNL     1      -1.436  -1.065  -0.694  1.00  0.00     0.124 A 
HETATM   14  N5  UNL     1      -2.346  -1.982  -1.123  1.00  0.00    -0.338 N 
HETATM   15  C10 UNL     1      -1.980  -3.236  -1.429  1.00  0.00     0.183 A 
ATOM     16  H5  UNL     1      -3.325  -1.711  -1.214  1.00  0.00     0.168 HD
HETATM   17  N6  UNL     1      -0.697  -3.582  -1.308  1.00  0.00    -0.338 N 
HETATM   18  C11 UNL     1       0.282  -2.713  -0.883  1.00  0.00     0.119 A 
ATOM     19  H6  UNL     1      -0.429  -4.538  -1.542  1.00  0.00     0.168 HD
BRANCH  13  20
HETATM   20  N4  UNL     1      -1.849   0.222  -0.337  1.00  0.00    -0.362 N 
HETATM   21  C6  UNL     1      -1.798   0.569   1.094  1.00  0.00     0.150 C 
HETATM   22  C7  UNL     1      -3.286   0.784   1.445  1.00  0.00     0.187 C 
HETATM   23  O2  UNL     1      -3.716   1.831   0.653  1.00  0.00    -0.388 OA
HETATM   24  C8  UNL     1      -3.762   1.567  -0.694  1.00  0.00     0.187 C 
HETATM   25  C9  UNL     1      -2.341   1.255  -1.198  1.00  0.00     0.150 C 
ENDBRANCH  13  20
BRANCH  18  26
HETATM   26  N7  UNL     1       1.468  -3.118  -0.862  1.00  0.00    -0.385 N 
ATOM     27  H72 UNL     1       2.194  -2.474  -0.547  1.00  0.00     0.157 HD
ATOM     28  H71 UNL     1       1.762  -4.067  -1.092  1.00  0.00     0.157 HD
ENDBRANCH  18  26
ENDBRANCH   9  12
ENDBRANCH   3   8
BRANCH   3  29
HETATM   29  C12 UNL     1       3.582   0.975  -0.243  1.00  0.00     0.303 C 
HETATM   30  N8  UNL     1       4.476   2.047  -0.261  1.00  0.00    -0.057 NA
HETATM   31  O3  UNL     1       3.411   0.320  -1.294  1.00  0.00    -0.271 OA
ENDBRANCH   3  29
TORSDOF 6
