REMARK  9 active torsions:
REMARK  status: ('A' for Active; 'I' for Inactive)
REMARK    1  A    between atoms: O1_2  and  C2_3 
REMARK    2  A    between atoms: C5_6  and  C6_7 
REMARK    3  A    between atoms: C6_7  and  C7_8 
REMARK    4  A    between atoms: C10_11  and  O2_12 
REMARK    5  A    between atoms: C12_20  and  C13_21 
REMARK    6  A    between atoms: C13_21  and  N3_22 
REMARK    7  A    between atoms: N3_22  and  C14_24 
REMARK    8  A    between atoms: C16_29  and  O4_30 
REMARK    9  A    between atoms: C18_32  and  O5_33 
ROOT
HETATM    1  C2  UNL     1      -1.608   2.184  -0.362  1.00  0.00     0.105 A 
HETATM    2  C3  UNL     1      -0.285   1.739  -0.411  1.00  0.00     0.053 A 
HETATM    3  C4  UNL     1       0.018   0.451  -0.023  1.00  0.00    -0.002 A 
HETATM    4  C5  UNL     1       1.324  -0.031  -0.064  1.00  0.00     0.045 A 
HETATM    5  C11 UNL     1       1.622  -1.319   0.313  1.00  0.00     0.257 A 
HETATM    6  O3  UNL     1       2.807  -1.749   0.277  1.00  0.00    -0.267 OA
HETATM    7  N2  UNL     1       0.615  -2.099   0.718  1.00  0.00    -0.321 N 
ATOM      8  H2  UNL     1       0.835  -3.055   0.996  1.00  0.00     0.169 HD
HETATM    9  C12 UNL     1      -0.691  -1.698   0.784  1.00  0.00     0.064 A 
HETATM   10  C15 UNL     1      -1.006  -0.419   0.422  1.00  0.00     0.040 A 
HETATM   11  C16 UNL     1      -2.283   0.074   0.453  1.00  0.00     0.117 A 
HETATM   12  C18 UNL     1      -2.610   1.371   0.063  1.00  0.00     0.136 A 
ENDROOT
BRANCH   4  13
HETATM   13  C6  UNL     1       2.271   0.775  -0.469  1.00  0.00     0.047 C 
BRANCH  13  14
HETATM   14  C7  UNL     1       3.705   0.415  -0.569  1.00  0.00     0.035 A 
HETATM   15  C8  UNL     1       4.683   0.599   0.415  1.00  0.00     0.034 A 
HETATM   16  C9  UNL     1       5.892   0.169  -0.079  1.00  0.00     0.058 A 
HETATM   17  C10 UNL     1       5.666  -0.277  -1.359  1.00  0.00     0.140 A 
HETATM   18  N1  UNL     1       4.361  -0.116  -1.614  1.00  0.00    -0.337 N 
ATOM     19  H1  UNL     1       3.918  -0.367  -2.498  1.00  0.00     0.168 HD
BRANCH  17  20
HETATM   20  O2  UNL     1       6.630  -0.808  -2.243  1.00  0.00    -0.346 OA
ATOM     21  H2  UNL     1       6.474  -1.116  -3.128  1.00  0.00     0.219 HD
ENDBRANCH  17  20
ENDBRANCH  13  14
ENDBRANCH   4  13
BRANCH   1  22
HETATM   22  O1  UNL     1      -1.884   3.455  -0.751  1.00  0.00    -0.353 OA
HETATM   23  C1  UNL     1      -0.969   4.410  -1.212  1.00  0.00     0.210 C 
ENDBRANCH   1  22
BRANCH   9  24
HETATM   24  C13 UNL     1      -1.569  -2.602   1.114  1.00  0.00     0.119 C 
BRANCH  24  25
HETATM   25  N3  UNL     1      -1.044  -3.941   1.382  1.00  0.00    -0.360 N 
ATOM     26  H3  UNL     1      -0.698  -4.204   2.305  1.00  0.00     0.166 HD
BRANCH  25  27
HETATM   27  C14 UNL     1      -1.039  -4.848   0.310  1.00  0.00     0.173 C 
HETATM   28  N4  UNL     1      -2.113  -5.246  -0.273  1.00  0.00    -0.395 N 
ATOM     29  H42 UNL     1      -3.000  -4.877   0.070  1.00  0.00     0.156 HD
ATOM     30  H41 UNL     1      -2.109  -5.905  -1.052  1.00  0.00     0.156 HD
ENDBRANCH  25  27
ENDBRANCH  24  25
ENDBRANCH   9  24
BRANCH  11  31
HETATM   31  O4  UNL     1      -3.375  -0.675   0.903  1.00  0.00    -0.352 OA
HETATM   32  C17 UNL     1      -3.778  -0.397   2.283  1.00  0.00     0.210 C 
ENDBRANCH  11  31
BRANCH  12  33
HETATM   33  O5  UNL     1      -3.889   1.806   0.108  1.00  0.00    -0.351 OA
HETATM   34  C19 UNL     1      -4.855   1.732  -0.897  1.00  0.00     0.210 C 
ENDBRANCH  12  33
TORSDOF 9
