REMARK  3 active torsions:
REMARK  status: ('A' for Active; 'I' for Inactive)
REMARK    1  A    between atoms: C3_5  and  N2_6 
REMARK       I    between atoms: N2_6  and  C4_8 
REMARK    2  A    between atoms: N4_10  and  N5_12 
REMARK    3  A    between atoms: N5_12  and  N6_14 
ROOT
HETATM    1  N2  UNL     1      -0.108  -0.216   1.452  1.00  0.00    -0.161 N 
ATOM      2  H2  UNL     1       0.013  -0.097   2.458  1.00  0.00     0.187 HD
HETATM    3  C4  UNL     1      -1.382  -0.579   0.933  1.00  0.00     0.222 C 
HETATM    4  N3  UNL     1      -1.725  -1.915   0.602  1.00  0.00    -0.061 NA
HETATM    5  N4  UNL     1      -2.267   0.343   0.753  1.00  0.00    -0.259 N 
ATOM      6  H4  UNL     1      -2.022   1.304   0.990  1.00  0.00     0.191 HD
ENDROOT
BRANCH   1   7
HETATM    7  C3  UNL     1       0.910  -0.034   0.649  1.00  0.00     0.700 A 
HETATM    8  N1  UNL     1       2.162   0.308   1.001  1.00  0.00    -0.178 N 
HETATM    9  C2  UNL     1       2.933   0.402  -0.097  1.00  0.00     0.108 A 
ATOM     10  H1  UNL     1       2.479   0.471   1.957  1.00  0.00     0.185 HD
HETATM   11  C1  UNL     1       4.389   0.756  -0.186  1.00  0.00     0.091 C 
HETATM   12  N8  UNL     1       2.117   0.107  -1.128  1.00  0.00    -0.275 N 
HETATM   13  N7  UNL     1       0.893  -0.159  -0.693  1.00  0.00    -0.131 N 
ATOM     14  H8  UNL     1       2.402   0.091  -2.107  1.00  0.00     0.189 HD
ATOM     15  H7  UNL     1       0.088  -0.411  -1.267  1.00  0.00     0.205 HD
ENDBRANCH   1   7
BRANCH   5  16
HETATM   16  N5  UNL     1      -3.535   0.090   0.253  1.00  0.00    -0.247 N 
ATOM     17  H5  UNL     1      -3.941  -0.840   0.356  1.00  0.00     0.207 HD
BRANCH  16  18
HETATM   18  N6  UNL     1      -4.264   1.094  -0.390  1.00  0.00    -0.331 N 
ATOM     19  H62 UNL     1      -3.844   2.019  -0.484  1.00  0.00     0.178 HD
ATOM     20  H61 UNL     1      -5.197   0.908  -0.758  1.00  0.00     0.178 HD
ENDBRANCH  16  18
ENDBRANCH   5  16
TORSDOF 3
