REMARK  3 active torsions:
REMARK  status: ('A' for Active; 'I' for Inactive)
REMARK    1  A    between atoms: N1_1  and  N2_4 
REMARK    2  A    between atoms: C1_6  and  N3_7 
REMARK       I    between atoms: N3_7  and  C2_9 
REMARK       I    between atoms: C2_9  and  N4_11 
REMARK    3  A    between atoms: N4_11  and  C3_13 
ROOT
HETATM    1  N3  UNL     1       1.299   0.459  -0.540  1.00  0.00    -0.303 N 
ATOM      2  H3  UNL     1       1.149   0.290   0.455  1.00  0.00     0.171 HD
HETATM    3  C2  UNL     1       0.235   0.973  -1.321  1.00  0.00     0.339 C 
HETATM    4  O1  UNL     1       0.449   1.171  -2.544  1.00  0.00    -0.246 OA
HETATM    5  N4  UNL     1      -1.034   1.262  -0.769  1.00  0.00    -0.138 N 
ATOM      6  H4  UNL     1      -1.323   2.231  -0.634  1.00  0.00     0.189 HD
ENDROOT
BRANCH   5   7
HETATM    7  C3  UNL     1      -1.832   0.291  -0.434  1.00  0.00     0.717 A 
HETATM    8  N5  UNL     1      -1.577  -1.024  -0.559  1.00  0.00    -0.115 N 
HETATM    9  N6  UNL     1      -2.640  -1.699  -0.106  1.00  0.00    -0.213 N 
ATOM     10  H5  UNL     1      -0.722  -1.435  -0.934  1.00  0.00     0.207 HD
HETATM   11  N7  UNL     1      -3.551  -0.837   0.298  1.00  0.00    -0.213 N 
ATOM     12  H6  UNL     1      -2.730  -2.715  -0.078  1.00  0.00     0.210 HD
HETATM   13  N8  UNL     1      -3.054   0.373   0.096  1.00  0.00    -0.115 N 
ATOM     14  H7  UNL     1      -4.465  -1.060   0.692  1.00  0.00     0.210 HD
ATOM     15  H8  UNL     1      -3.537   1.245   0.314  1.00  0.00     0.207 HD
ENDBRANCH   5   7
BRANCH   1  16
HETATM   16  C1  UNL     1       2.569   0.173  -1.106  1.00  0.00     0.200 C 
HETATM   17  N2  UNL     1       3.515  -0.294  -0.366  1.00  0.00    -0.303 N 
ATOM     18  H2  UNL     1       4.427  -0.499  -0.774  1.00  0.00     0.187 HD
BRANCH  17  19
HETATM   19  N1  UNL     1       3.293  -0.519   0.994  1.00  0.00    -0.344 N 
ATOM     20  H12 UNL     1       2.375  -0.308   1.386  1.00  0.00     0.176 HD
ATOM     21  H11 UNL     1       4.042  -0.889   1.580  1.00  0.00     0.176 HD
ENDBRANCH  17  19
ENDBRANCH   1  16
TORSDOF 3
