REMARK  2 active torsions:
REMARK  status: ('A' for Active; 'I' for Inactive)
REMARK       I    between atoms: N1_2  and  C2_4 
REMARK    1  A    between atoms: C2_4  and  C3_6 
REMARK       I    between atoms: C3_6  and  N2_8 
REMARK    2  A    between atoms: N2_8  and  N3_10 
ROOT
HETATM    1  C3  UNL     1       0.469  -0.351   0.448  1.00  0.00     0.327 C 
HETATM    2  O2  UNL     1       0.530   0.004   1.664  1.00  0.00    -0.261 OA
HETATM    3  N2  UNL     1      -0.737  -0.807  -0.135  1.00  0.00    -0.260 N 
ATOM      4  H2  UNL     1      -0.760  -1.087  -1.116  1.00  0.00     0.190 HD
ENDROOT
BRANCH   1   5
HETATM    5  C2  UNL     1       1.671  -0.287  -0.366  1.00  0.00     0.310 C 
HETATM    6  N1  UNL     1       2.873   0.169   0.221  1.00  0.00    -0.357 N 
HETATM    7  C1  UNL     1       4.075   0.234  -0.591  1.00  0.00     0.149 C 
ATOM      8  H1  UNL     1       2.896   0.449   1.202  1.00  0.00     0.162 HD
HETATM    9  O1  UNL     1       1.626  -0.635  -1.571  1.00  0.00    -0.262 OA
ENDBRANCH   1   5
BRANCH   3  10
HETATM   10  N3  UNL     1      -1.884  -0.871   0.633  1.00  0.00    -0.273 N 
HETATM   11  C4  UNL     1      -2.849  -0.059   0.413  1.00  0.00     0.215 C 
HETATM   12  N4  UNL     1      -2.732   0.902  -0.618  1.00  0.00    -0.065 NA
HETATM   13  N5  UNL     1      -4.011  -0.153   1.220  1.00  0.00    -0.065 NA
ATOM     14  H3  UNL     1      -1.962  -1.566   1.376  1.00  0.00     0.189 HD
ENDBRANCH   3  10
TORSDOF 2
