REMARK  4 active torsions:
REMARK  status: ('A' for Active; 'I' for Inactive)
REMARK    1  A    between atoms: N1_1  and  N2_4 
REMARK       I    between atoms: N2_4  and  C1_6 
REMARK       I    between atoms: C1_6  and  N3_8 
REMARK    2  A    between atoms: N3_8  and  N4_9 
REMARK    3  A    between atoms: N4_9  and  C2_10 
REMARK    4  A    between atoms: N8_17  and  O2_18 
ROOT
HETATM    1  C2  UNL     1       1.473  -0.069   0.732  1.00  0.00     0.355 A 
HETATM    2  N5  UNL     1       2.436   0.828   1.147  1.00  0.00    -0.238 N 
ATOM      3  H5  UNL     1       2.415   1.835   0.987  1.00  0.00     0.193 HD
HETATM    4  N6  UNL     1       3.365   0.190   1.769  1.00  0.00    -0.222 N 
ATOM      5  H6  UNL     1       4.201   0.603   2.182  1.00  0.00     0.210 HD
HETATM    6  N7  UNL     1       3.054  -1.066   1.780  1.00  0.00    -0.197 N 
ATOM      7  H7  UNL     1       3.629  -1.788   2.214  1.00  0.00     0.212 HD
HETATM    8  N8  UNL     1       1.931  -1.304   1.179  1.00  0.00    -0.095 N 
ENDROOT
BRANCH   1   9
HETATM    9  N4  UNL     1       0.473   0.106   0.107  1.00  0.00    -0.200 NA
BRANCH   9  10
HETATM   10  N3  UNL     1      -0.558   0.328  -0.545  1.00  0.00    -0.180 NA
HETATM   11  C1  UNL     1      -1.686   0.571  -1.259  1.00  0.00     0.442 C 
HETATM   12  N2  UNL     1      -2.264  -0.546  -1.934  1.00  0.00    -0.244 N 
HETATM   13  O1  UNL     1      -2.282   1.660  -1.402  1.00  0.00    -0.226 OA
ATOM     14  H2  UNL     1      -1.843  -1.473  -1.874  1.00  0.00     0.192 HD
BRANCH  12  15
HETATM   15  N1  UNL     1      -3.417  -0.330  -2.674  1.00  0.00    -0.340 N 
ATOM     16  H12 UNL     1      -3.826   0.603  -2.724  1.00  0.00     0.177 HD
ATOM     17  H11 UNL     1      -3.830  -1.128  -3.156  1.00  0.00     0.177 HD
ENDBRANCH  12  15
ENDBRANCH   9  10
ENDBRANCH   1   9
BRANCH   8  18
HETATM   18  O2  UNL     1       1.239  -2.466   0.954  1.00  0.00    -0.263 OA
ATOM     19  H2  UNL     1       1.552  -3.309   1.259  1.00  0.00     0.247 HD
ENDBRANCH   8  18
TORSDOF 4
