REMARK  2 active torsions:
REMARK  status: ('A' for Active; 'I' for Inactive)
REMARK    1  A    between atoms: N1_1  and  N2_4 
REMARK       I    between atoms: N2_4  and  C1_6 
REMARK    2  A    between atoms: N4_8  and  C2_10 
ROOT
HETATM    1  C2  UNL     1       0.934  -0.400  -0.253  1.00  0.00     0.181 A 
HETATM    2  N5  UNL     1       1.483   0.690   0.177  1.00  0.00    -0.290 N 
ATOM      3  H5  UNL     1       0.960   1.491   0.530  1.00  0.00     0.172 HD
HETATM    4  C3  UNL     1       2.882   0.639   0.101  1.00  0.00     0.328 A 
HETATM    5  O1  UNL     1       3.751   1.495   0.422  1.00  0.00    -0.247 OA
HETATM    6  N6  UNL     1       3.222  -0.631  -0.439  1.00  0.00    -0.272 N 
ATOM      7  H6  UNL     1       4.163  -0.980  -0.621  1.00  0.00     0.174 HD
HETATM    8  C4  UNL     1       2.002  -1.325  -0.679  1.00  0.00     0.293 A 
HETATM    9  O2  UNL     1       1.827  -2.478  -1.150  1.00  0.00    -0.264 OA
ENDROOT
BRANCH   1  10
HETATM   10  N4  UNL     1      -0.441  -0.731  -0.337  1.00  0.00    -0.311 N 
HETATM   11  C1  UNL     1      -1.311   0.198  -0.447  1.00  0.00     0.208 C 
HETATM   12  N2  UNL     1      -2.675  -0.150  -0.529  1.00  0.00    -0.280 N 
HETATM   13  N3  UNL     1      -0.872   1.544  -0.483  1.00  0.00    -0.062 NA
ATOM     14  H2  UNL     1      -3.105  -0.353  -1.432  1.00  0.00     0.189 HD
ATOM     15  H4  UNL     1      -0.735  -1.707  -0.310  1.00  0.00     0.170 HD
BRANCH  12  16
HETATM   16  N1  UNL     1      -3.424  -0.212   0.639  1.00  0.00    -0.343 N 
ATOM     17  H12 UNL     1      -2.979  -0.006   1.534  1.00  0.00     0.176 HD
ATOM     18  H11 UNL     1      -4.411  -0.464   0.580  1.00  0.00     0.176 HD
ENDBRANCH  12  16
ENDBRANCH   1  10
TORSDOF 2
