REMARK  3 active torsions:
REMARK  status: ('A' for Active; 'I' for Inactive)
REMARK    1  A    between atoms: C2_2  and  N1_3 
REMARK    2  A    between atoms: C2_2  and  C3_7 
REMARK       I    between atoms: C3_7  and  N2_9 
REMARK    3  A    between atoms: N2_9  and  N3_11 
ROOT
HETATM    1  C3  UNL     1      -0.824   0.446   0.067  1.00  0.00     0.267 C 
HETATM    2  O1  UNL     1      -0.448   1.236   0.966  1.00  0.00    -0.269 OA
HETATM    3  N2  UNL     1       0.146  -0.339  -0.586  1.00  0.00    -0.244 N 
ATOM      4  H2  UNL     1      -0.137  -0.989  -1.319  1.00  0.00     0.192 HD
ENDROOT
BRANCH   3   5
HETATM    5  N3  UNL     1       1.493  -0.232  -0.236  1.00  0.00    -0.124 N 
HETATM    6  N4  UNL     1       2.078   0.527   0.805  1.00  0.00     0.019 NA
HETATM    7  N5  UNL     1       3.269   0.965   0.255  1.00  0.00    -0.003 NA
HETATM    8  N6  UNL     1       3.750  -0.057  -0.567  1.00  0.00    -0.234 N 
HETATM    9  C4  UNL     1       2.608  -0.872  -0.855  1.00  0.00     0.371 C 
ATOM     10  H6  UNL     1       4.707  -0.193  -0.892  1.00  0.00     0.189 HD
HETATM   11  O2  UNL     1       2.589  -1.928  -1.514  1.00  0.00    -0.242 OA
ENDBRANCH   3   5
BRANCH   1  12
HETATM   12  C2  UNL     1      -2.270   0.390  -0.249  1.00  0.00     0.272 C 
HETATM   13  C1  UNL     1      -2.866  -0.985  -0.032  1.00  0.00     0.050 C 
BRANCH  12  14
HETATM   14  N1  UNL     1      -3.005   1.319   0.582  1.00  0.00    -0.067 N 
ATOM     15  H13 UNL     1      -4.011   1.291   0.416  1.00  0.00     0.275 HD
ATOM     16  H12 UNL     1      -3.024   1.044   1.564  1.00  0.00     0.275 HD
ATOM     17  H11 UNL     1      -2.604   2.245   0.436  1.00  0.00     0.275 HD
ENDBRANCH  12  14
ENDBRANCH   1  12
TORSDOF 3
