REMARK  3 active torsions:
REMARK  status: ('A' for Active; 'I' for Inactive)
REMARK       I    between atoms: N1_1  and  C1_4 
REMARK       I    between atoms: C1_4  and  N3_6 
REMARK    1  A    between atoms: N3_6  and  N4_8 
REMARK    2  A    between atoms: N4_8  and  C2_10 
REMARK    3  A    between atoms: N5_13  and  N6_14 
ROOT
HETATM    1  C2  UNL     1      -0.242  -0.667  -0.462  1.00  0.00     0.137 A 
HETATM    2  C3  UNL     1      -0.669  -0.087   0.714  1.00  0.00     0.072 A 
HETATM    3  C4  UNL     1      -1.915   0.516   0.727  1.00  0.00     0.141 A 
HETATM    4  N5  UNL     1      -2.723   0.562  -0.350  1.00  0.00    -0.200 N 
HETATM    5  N7  UNL     1      -2.262  -0.011  -1.451  1.00  0.00    -0.221 N 
ATOM      6  H7  UNL     1      -2.846   0.003  -2.287  1.00  0.00     0.210 HD
HETATM    7  N8  UNL     1      -1.072  -0.604  -1.518  1.00  0.00    -0.268 N 
ATOM      8  H8  UNL     1      -0.780  -1.025  -2.400  1.00  0.00     0.190 HD
ENDROOT
BRANCH   1   9
HETATM    9  N4  UNL     1       0.895  -1.259  -0.606  1.00  0.00    -0.282 N 
ATOM     10  H4  UNL     1       1.115  -1.656  -1.519  1.00  0.00     0.188 HD
BRANCH   9  11
HETATM   11  N3  UNL     1       1.833  -1.389   0.400  1.00  0.00    -0.272 N 
HETATM   12  C1  UNL     1       2.935  -0.513   0.430  1.00  0.00     0.200 C 
HETATM   13  N1  UNL     1       3.896  -0.667  -0.388  1.00  0.00    -0.372 N 
HETATM   14  N2  UNL     1       2.960   0.529   1.375  1.00  0.00    -0.062 NA
ATOM     15  H12 UNL     1       4.694  -0.032  -0.366  1.00  0.00     0.158 HD
ATOM     16  H11 UNL     1       3.878  -1.422  -1.073  1.00  0.00     0.158 HD
ATOM     17  H3  UNL     1       1.728  -2.111   1.113  1.00  0.00     0.189 HD
ENDBRANCH   9  11
ENDBRANCH   1   9
BRANCH   4  18
HETATM   18  N6  UNL     1      -3.988   1.182  -0.311  1.00  0.00    -0.323 N 
ATOM     19  H62 UNL     1      -4.343   1.623   0.537  1.00  0.00     0.179 HD
ATOM     20  H61 UNL     1      -4.600   1.217  -1.126  1.00  0.00     0.179 HD
ENDBRANCH   4  18
TORSDOF 3
