REMARK  3 active torsions:
REMARK  status: ('A' for Active; 'I' for Inactive)
REMARK    1  A    between atoms: C2_3  and  N2_4 
REMARK    2  A    between atoms: C3_9  and  C4_10 
REMARK    3  A    between atoms: C6_14  and  N5_15 
ROOT
HETATM    1  C1  UNL     1       2.999  -0.273   0.382  1.00  0.00     0.177 C 
HETATM    2  N1  UNL     1       1.608   0.043   0.205  1.00  0.00    -0.171 N 
HETATM    3  C2  UNL     1       1.254   1.339   0.167  1.00  0.00     0.680 A 
HETATM    4  N3  UNL     1      -0.025   1.726   0.006  1.00  0.00    -0.186 N 
ATOM      5  H3  UNL     1      -0.234   2.724  -0.015  1.00  0.00     0.184 HD
HETATM    6  C3  UNL     1      -1.058   0.838  -0.131  1.00  0.00     0.131 A 
HETATM    7  C5  UNL     1      -0.724  -0.476  -0.096  1.00  0.00     0.087 A 
HETATM    8  C6  UNL     1      -1.463  -1.631  -0.197  1.00  0.00     0.130 A 
HETATM    9  N6  UNL     1      -0.567  -2.655  -0.087  1.00  0.00    -0.283 N 
ATOM     10  H6  UNL     1      -0.800  -3.647  -0.121  1.00  0.00     0.188 HD
HETATM   11  N7  UNL     1       0.645  -2.164   0.070  1.00  0.00    -0.282 N 
ATOM     12  H7  UNL     1       1.491  -2.724   0.174  1.00  0.00     0.188 HD
HETATM   13  C7  UNL     1       0.609  -0.839   0.073  1.00  0.00     0.154 A 
ENDROOT
BRANCH   3  14
HETATM   14  N2  UNL     1       2.158   2.255   0.288  1.00  0.00    -0.234 N 
ATOM     15  H22 UNL     1       3.127   1.962   0.410  1.00  0.00     0.174 HD
ATOM     16  H21 UNL     1       1.889   3.239   0.259  1.00  0.00     0.174 HD
ENDBRANCH   3  14
BRANCH   6  17
HETATM   17  C4  UNL     1      -2.370   1.385  -0.296  1.00  0.00     0.283 C 
HETATM   18  N4  UNL     1      -2.501   2.833  -0.305  1.00  0.00    -0.056 NA
HETATM   19  O1  UNL     1      -3.457   0.805  -0.438  1.00  0.00    -0.269 OA
ENDBRANCH   6  17
BRANCH   8  20
HETATM   20  N5  UNL     1      -2.729  -1.745  -0.359  1.00  0.00    -0.384 N 
ATOM     21  H52 UNL     1      -3.398  -0.980  -0.441  1.00  0.00     0.157 HD
ATOM     22  H51 UNL     1      -3.277  -2.602  -0.434  1.00  0.00     0.157 HD
ENDBRANCH   8  20
TORSDOF 3
