REMARK  4 active torsions:
REMARK  status: ('A' for Active; 'I' for Inactive)
REMARK    1  A    between atoms: N1_1  and  C1_4 
REMARK    2  A    between atoms: C3_6  and  C4_7 
REMARK       I    between atoms: C4_7  and  N2_9 
REMARK    3  A    between atoms: N2_9  and  N3_11 
REMARK       I    between atoms: N5_16  and  C5_17 
REMARK       I    between atoms: C5_17  and  N6_19 
REMARK    4  A    between atoms: N6_19  and  N7_21 
ROOT
HETATM    1  C1  UNL     1      -0.797  -1.567  -0.134  1.00  0.00     0.128 A 
HETATM    2  C2  UNL     1       0.612  -1.583  -0.067  1.00  0.00     0.086 A 
HETATM    3  C3  UNL     1       0.985  -0.270  -0.031  1.00  0.00     0.121 A 
HETATM    4  N4  UNL     1      -0.084   0.499  -0.071  1.00  0.00    -0.283 N 
ATOM      5  H4  UNL     1      -0.079   1.519  -0.057  1.00  0.00     0.188 HD
HETATM    6  N5  UNL     1      -1.173  -0.267  -0.133  1.00  0.00    -0.188 N 
HETATM    7  C5  UNL     1      -2.494   0.258  -0.189  1.00  0.00     0.361 C 
HETATM    8  O2  UNL     1      -3.458  -0.539  -0.246  1.00  0.00    -0.243 OA
HETATM    9  N6  UNL     1      -2.740   1.649  -0.181  1.00  0.00    -0.256 N 
ATOM     10  H6  UNL     1      -1.955   2.299  -0.134  1.00  0.00     0.191 HD
ENDROOT
BRANCH   3  11
HETATM   11  C4  UNL     1       2.359   0.233   0.041  1.00  0.00     0.287 C 
HETATM   12  O1  UNL     1       2.604   1.469   0.070  1.00  0.00    -0.264 OA
HETATM   13  N2  UNL     1       3.448  -0.670   0.080  1.00  0.00    -0.271 N 
ATOM     14  H2  UNL     1       3.284  -1.676   0.057  1.00  0.00     0.189 HD
BRANCH  13  15
HETATM   15  N3  UNL     1       4.737  -0.173   0.149  1.00  0.00    -0.342 N 
ATOM     16  H32 UNL     1       4.884   0.836   0.171  1.00  0.00     0.176 HD
ATOM     17  H31 UNL     1       5.522  -0.824   0.177  1.00  0.00     0.176 HD
ENDBRANCH  13  15
ENDBRANCH   3  11
BRANCH   1  18
HETATM   18  N1  UNL     1      -1.497  -2.616  -0.182  1.00  0.00    -0.384 N 
ATOM     19  H12 UNL     1      -1.214  -3.596  -0.183  1.00  0.00     0.157 HD
ATOM     20  H11 UNL     1      -2.516  -2.604  -0.230  1.00  0.00     0.157 HD
ENDBRANCH   1  18
BRANCH   9  21
HETATM   21  N7  UNL     1      -4.045   2.146  -0.236  1.00  0.00    -0.341 N 
ATOM     22  H72 UNL     1      -4.818   1.483  -0.282  1.00  0.00     0.177 HD
ATOM     23  H71 UNL     1      -4.223   3.150  -0.230  1.00  0.00     0.177 HD
ENDBRANCH   9  21
TORSDOF 4
