REMARK  3 active torsions:
REMARK  status: ('A' for Active; 'I' for Inactive)
REMARK       I    between atoms: C1_4  and  N2_5 
REMARK       I    between atoms: C1_4  and  N4_13 
REMARK    1  A    between atoms: N2_5  and  N3_7 
REMARK    2  A    between atoms: N4_13  and  N5_15 
REMARK       I    between atoms: N5_15  and  C5_17 
REMARK    3  A    between atoms: N7_19  and  N8_21 
ROOT
HETATM    1  N1  UNL     1       0.466  -3.192  -0.332  1.00  0.00    -0.232 N 
ATOM      2  H11 UNL     1      -0.072  -3.702   0.368  1.00  0.00     0.174 HD
ATOM      3  H12 UNL     1       1.294  -3.560  -0.800  1.00  0.00     0.174 HD
HETATM    4  C1  UNL     1       0.053  -2.002  -0.632  1.00  0.00     0.705 C 
HETATM    5  N2  UNL     1       0.795  -1.299  -1.597  1.00  0.00    -0.131 N 
ATOM      6  H2  UNL     1       0.868  -1.660  -2.548  1.00  0.00     0.205 HD
HETATM    7  N4  UNL     1      -1.102  -1.489   0.020  1.00  0.00    -0.129 N 
ATOM      8  H4  UNL     1      -1.996  -1.970  -0.082  1.00  0.00     0.205 HD
ENDROOT
BRANCH   5   9
HETATM    9  N3  UNL     1       1.424  -0.120  -1.255  1.00  0.00    -0.287 N 
HETATM   10  C2  UNL     1       2.206  -0.025  -0.239  1.00  0.00     0.079 A 
HETATM   11  C3  UNL     1       3.100   0.707   0.653  1.00  0.00     0.147 A 
HETATM   12  C4  UNL     1       2.834  -0.738   0.918  1.00  0.00     0.179 A 
HETATM   13  O1  UNL     1       3.043  -1.731   1.628  1.00  0.00    -0.291 OA
ATOM     14  H3  UNL     1       1.263   0.707  -1.830  1.00  0.00     0.187 HD
ENDBRANCH   5   9
BRANCH   7  15
HETATM   15  N5  UNL     1      -1.023  -0.332   0.799  1.00  0.00    -0.258 N 
HETATM   16  C5  UNL     1      -1.568   0.900   0.326  1.00  0.00     0.222 C 
HETATM   17  N6  UNL     1      -2.653   0.801  -0.585  1.00  0.00    -0.061 NA
HETATM   18  N7  UNL     1      -1.097   2.045   0.709  1.00  0.00    -0.279 N 
ATOM     19  H7  UNL     1      -0.318   2.102   1.365  1.00  0.00     0.189 HD
ATOM     20  H5  UNL     1      -0.572  -0.368   1.713  1.00  0.00     0.190 HD
BRANCH  18  21
HETATM   21  N8  UNL     1      -1.693   3.200   0.193  1.00  0.00    -0.343 N 
ATOM     22  H82 UNL     1      -2.471   3.127  -0.462  1.00  0.00     0.176 HD
ATOM     23  H81 UNL     1      -1.322   4.101   0.494  1.00  0.00     0.176 HD
ENDBRANCH  18  21
ENDBRANCH   7  15
TORSDOF 3
