REMARK  3 active torsions:
REMARK  status: ('A' for Active; 'I' for Inactive)
REMARK    1  A    between atoms: N1_1  and  C1_4 
REMARK    2  A    between atoms: C2_7  and  N3_8 
REMARK    3  A    between atoms: C5_19  and  N8_20 
ROOT
HETATM    1  C1  UNL     1      -2.300  -0.088  -1.303  1.00  0.00     0.705 A 
HETATM    2  N2  UNL     1      -0.953  -0.055  -1.200  1.00  0.00    -0.020 N 
ATOM      3  H2  UNL     1      -0.396  -0.048  -2.055  1.00  0.00     0.203 HD
HETATM    4  C2  UNL     1      -0.320  -0.031  -0.020  1.00  0.00     0.735 A 
HETATM    5  N7  UNL     1      -1.086  -0.040   1.098  1.00  0.00    -0.020 N 
ATOM      6  H7  UNL     1      -0.625  -0.022   2.008  1.00  0.00     0.203 HD
HETATM    7  C5  UNL     1      -2.440  -0.072   1.055  1.00  0.00     0.705 A 
HETATM    8  N9  UNL     1      -3.031  -0.096  -0.168  1.00  0.00    -0.022 N 
ATOM      9  H9  UNL     1      -4.049  -0.121  -0.230  1.00  0.00     0.203 HD
ENDROOT
BRANCH   4  10
HETATM   10  N3  UNL     1       1.108  -0.002   0.114  1.00  0.00    -0.015 N 
HETATM   11  N4  UNL     1       1.879  -1.091  -0.287  1.00  0.00     0.005 NA
HETATM   12  N5  UNL     1       3.173  -0.704  -0.551  1.00  0.00    -0.279 N 
HETATM   13  C3  UNL     1       3.800   0.444  -0.014  1.00  0.00     0.200 C 
ATOM     14  H5  UNL     1       3.721  -1.289  -1.181  1.00  0.00     0.185 HD
HETATM   15  N6  UNL     1       3.132   1.353   0.571  1.00  0.00    -0.302 N 
HETATM   16  C4  UNL     1       1.704   1.167   0.666  1.00  0.00     0.360 C 
ATOM     17  H6  UNL     1       3.586   2.180   0.958  1.00  0.00     0.171 HD
HETATM   18  O1  UNL     1       0.971   2.023   1.232  1.00  0.00    -0.244 OA
ENDBRANCH   4  10
BRANCH   1  19
HETATM   19  N1  UNL     1      -2.881  -0.107  -2.481  1.00  0.00    -0.234 N 
ATOM     20  H12 UNL     1      -2.329  -0.101  -3.339  1.00  0.00     0.174 HD
ATOM     21  H11 UNL     1      -3.898  -0.132  -2.559  1.00  0.00     0.174 HD
ENDBRANCH   1  19
BRANCH   7  22
HETATM   22  N8  UNL     1      -3.181  -0.078   2.112  1.00  0.00    -0.234 N 
ATOM     23  H82 UNL     1      -2.737  -0.060   3.030  1.00  0.00     0.174 HD
ATOM     24  H81 UNL     1      -4.200  -0.102   2.080  1.00  0.00     0.174 HD
ENDBRANCH   7  22
TORSDOF 3
