REMARK  4 active torsions:
REMARK  status: ('A' for Active; 'I' for Inactive)
REMARK    1  A    between atoms: N1_1  and  C1_4 
REMARK    2  A    between atoms: C3_10  and  C4_11 
REMARK    3  A    between atoms: C4_11  and  N4_12 
REMARK    4  A    between atoms: C4_11  and  N5_16 
ROOT
HETATM    1  C1  UNL     1       3.331  -0.171  -0.021  1.00  0.00     0.678 A 
HETATM    2  N2  UNL     1       2.457  -0.253   0.995  1.00  0.00    -0.174 N 
ATOM      3  H2  UNL     1       2.696  -0.402   1.975  1.00  0.00     0.186 HD
HETATM    4  C2  UNL     1       1.231  -0.108   0.511  1.00  0.00     0.155 A 
HETATM    5  N3  UNL     1      -0.012  -0.102   1.058  1.00  0.00    -0.326 N 
ATOM      6  H3  UNL     1      -0.113  -0.233   2.064  1.00  0.00     0.169 HD
HETATM    7  C3  UNL     1      -1.107   0.072   0.310  1.00  0.00     0.144 A 
HETATM    8  N6  UNL     1      -0.999   0.246  -1.013  1.00  0.00    -0.308 N 
ATOM      9  H6  UNL     1      -1.840   0.377  -1.576  1.00  0.00     0.170 HD
HETATM   10  C5  UNL     1       0.195   0.249  -1.601  1.00  0.00     0.278 A 
HETATM   11  O1  UNL     1       0.318   0.412  -2.845  1.00  0.00    -0.265 OA
HETATM   12  C6  UNL     1       1.329   0.072  -0.848  1.00  0.00     0.161 A 
HETATM   13  N7  UNL     1       2.647   0.030  -1.157  1.00  0.00    -0.183 N 
ATOM     14  H7  UNL     1       3.048   0.133  -2.089  1.00  0.00     0.184 HD
ENDROOT
BRANCH   7  15
HETATM   15  C4  UNL     1      -2.460   0.073   0.938  1.00  0.00     0.444 C 
BRANCH  15  16
HETATM   16  N4  UNL     1      -3.212   1.184   0.385  1.00  0.00    -0.043 N 
ATOM     17  H43 UNL     1      -2.729   2.077   0.488  1.00  0.00     0.277 HD
ATOM     18  H42 UNL     1      -3.251   1.165  -0.634  1.00  0.00     0.277 HD
ATOM     19  H41 UNL     1      -4.137   1.185   0.814  1.00  0.00     0.277 HD
ENDBRANCH  15  16
BRANCH  15  20
HETATM   20  N5  UNL     1      -3.123  -1.143   0.465  1.00  0.00    -0.043 N 
ATOM     21  H53 UNL     1      -3.146  -1.226  -0.551  1.00  0.00     0.277 HD
ATOM     22  H52 UNL     1      -2.591  -1.994   0.646  1.00  0.00     0.277 HD
ATOM     23  H51 UNL     1      -4.048  -1.142   0.894  1.00  0.00     0.277 HD
ENDBRANCH  15  20
ENDBRANCH   7  15
BRANCH   1  24
HETATM   24  N1  UNL     1       4.635  -0.270   0.091  1.00  0.00    -0.234 N 
ATOM     25  H12 UNL     1       5.155  -0.423   0.955  1.00  0.00     0.174 HD
ATOM     26  H11 UNL     1       5.299  -0.208  -0.681  1.00  0.00     0.174 HD
ENDBRANCH   1  24
TORSDOF 4
