REMARK  3 active torsions:
REMARK  status: ('A' for Active; 'I' for Inactive)
REMARK    1  A    between atoms: C2_5  and  N3_6 
REMARK    2  A    between atoms: N3_6  and  C3_8 
REMARK    3  A    between atoms: N4_14  and  N5_15 
ROOT
HETATM    1  N1  UNL     1      -1.958   1.183  -1.739  1.00  0.00    -0.079 NA
HETATM    2  C1  UNL     1      -0.934   0.658  -0.904  1.00  0.00     0.161 C 
HETATM    3  N2  UNL     1       0.331   1.021  -1.188  1.00  0.00    -0.325 N 
ATOM      4  H2  UNL     1       0.446   1.711  -1.931  1.00  0.00     0.169 HD
HETATM    5  C2  UNL     1       1.479   0.573  -0.597  1.00  0.00     0.165 C 
HETATM    6  C4  UNL     1       1.662   0.050   0.666  1.00  0.00     0.285 C 
HETATM    7  O2  UNL     1       2.789   0.184   1.205  1.00  0.00    -0.278 OA
HETATM    8  C5  UNL     1       0.667  -0.621   1.386  1.00  0.00     0.321 C 
HETATM    9  O3  UNL     1       1.121  -1.213   2.397  1.00  0.00    -0.262 OA
HETATM   10  N4  UNL     1      -0.648  -0.711   1.150  1.00  0.00    -0.206 N 
HETATM   11  C6  UNL     1      -1.346  -0.187   0.134  1.00  0.00     0.182 C 
HETATM   12  N6  UNL     1      -2.739  -0.499   0.035  1.00  0.00    -0.077 NA
ENDROOT
BRANCH   5  13
HETATM   13  N3  UNL     1       2.541   0.648  -1.314  1.00  0.00    -0.317 N 
ATOM     14  H3  UNL     1       2.462   1.028  -2.257  1.00  0.00     0.169 HD
BRANCH  13  15
HETATM   15  C3  UNL     1       3.812   0.232  -0.866  1.00  0.00     0.354 C 
HETATM   16  O1  UNL     1       4.709   1.122  -0.724  1.00  0.00    -0.283 OA
ENDBRANCH  13  15
ENDBRANCH   5  13
BRANCH  10  17
HETATM   17  N5  UNL     1      -1.402  -1.437   2.064  1.00  0.00    -0.334 N 
ATOM     18  H52 UNL     1      -0.870  -1.836   2.838  1.00  0.00     0.177 HD
ATOM     19  H51 UNL     1      -2.404  -1.506   1.884  1.00  0.00     0.177 HD
ENDBRANCH  10  17
TORSDOF 3
