REMARK  2 active torsions:
REMARK  status: ('A' for Active; 'I' for Inactive)
REMARK    1  A    between atoms: O1_2  and  N1_3 
REMARK    2  A    between atoms: N2_8  and  N3_9 
ROOT
HETATM    1  N1  UNL     1       1.438  -0.177  -0.724  1.00  0.00    -0.128 N 
HETATM    2  C2  UNL     1       0.611  -1.237  -0.701  1.00  0.00     0.306 A 
HETATM    3  O2  UNL     1       1.088  -2.351  -1.034  1.00  0.00    -0.263 OA
HETATM    4  C3  UNL     1      -0.719  -1.152  -0.331  1.00  0.00     0.147 A 
HETATM    5  C4  UNL     1      -1.235   0.073   0.033  1.00  0.00     0.161 A 
HETATM    6  N2  UNL     1      -0.387   1.117   0.001  1.00  0.00    -0.191 N 
HETATM    7  C5  UNL     1       0.905   1.004  -0.364  1.00  0.00     0.376 A 
HETATM    8  O3  UNL     1       1.680   2.016  -0.382  1.00  0.00    -0.242 OA
HETATM    9  N4  UNL     1      -2.623  -0.075   0.375  1.00  0.00    -0.357 N 
ATOM     10  H4  UNL     1      -3.289   0.685   0.510  1.00  0.00     0.162 HD
HETATM   11  C6  UNL     1      -2.918  -1.508   0.497  1.00  0.00     0.245 C 
HETATM   12  N5  UNL     1      -1.793  -2.071  -0.216  1.00  0.00    -0.366 N 
ATOM     13  H5  UNL     1      -1.774  -3.019  -0.592  1.00  0.00     0.161 HD
ENDROOT
BRANCH   6  14
HETATM   14  N3  UNL     1      -0.899   2.362   0.368  1.00  0.00    -0.333 N 
ATOM     15  H32 UNL     1      -1.877   2.448   0.644  1.00  0.00     0.177 HD
ATOM     16  H31 UNL     1      -0.256   3.154   0.344  1.00  0.00     0.177 HD
ENDBRANCH   6  14
BRANCH   1  17
HETATM   17  O1  UNL     1       2.754  -0.312  -1.100  1.00  0.00    -0.271 OA
HETATM   18  C1  UNL     1       3.798   0.499  -0.654  1.00  0.00     0.239 C 
ENDBRANCH   1  17
TORSDOF 2
