REMARK  2 active torsions:
REMARK  status: ('A' for Active; 'I' for Inactive)
REMARK    1  A    between atoms: N2_3  and  C3_6 
REMARK    2  A    between atoms: C5_13  and  N6_14 
ROOT
HETATM    1  N1  UNL     1       3.972   0.689  -1.410  1.00  0.00    -0.170 NA
HETATM    2  C1  UNL     1       3.233   0.363  -0.559  1.00  0.00     0.214 C 
HETATM    3  N2  UNL     1       2.359  -0.047   0.459  1.00  0.00    -0.010 N 
HETATM    4  C2  UNL     1       2.937  -0.649   1.608  1.00  0.00     0.214 C 
HETATM    5  N3  UNL     1       3.403  -1.151   2.530  1.00  0.00    -0.170 NA
ENDROOT
BRANCH   3   6
HETATM    6  C3  UNL     1       0.953   0.134   0.343  1.00  0.00     0.713 C 
HETATM    7  N4  UNL     1       0.324  -0.904  -0.231  1.00  0.00    -0.171 N 
HETATM    8  C4  UNL     1      -1.015  -1.060  -0.440  1.00  0.00     0.159 C 
ATOM      9  H4  UNL     1       0.919  -1.669  -0.549  1.00  0.00     0.186 HD
HETATM   10  N5  UNL     1      -1.351  -2.160  -1.010  1.00  0.00    -0.382 N 
HETATM   11  C5  UNL     1      -2.062  -0.233  -0.139  1.00  0.00     0.147 C 
ATOM     12  H52 UNL     1      -0.570  -2.777  -1.234  1.00  0.00     0.157 HD
ATOM     13  H51 UNL     1      -2.352  -2.277  -1.166  1.00  0.00     0.157 HD
HETATM   14  N7  UNL     1      -1.983   0.967   0.467  1.00  0.00    -0.291 N 
HETATM   15  C6  UNL     1      -0.893   1.673   0.815  1.00  0.00     0.340 C 
ATOM     16  H7  UNL     1      -2.877   1.402   0.694  1.00  0.00     0.172 HD
HETATM   17  O1  UNL     1      -1.153   2.832   1.199  1.00  0.00    -0.246 OA
HETATM   18  N8  UNL     1       0.387   1.257   0.786  1.00  0.00    -0.139 N 
ATOM     19  H8  UNL     1       1.049   1.928   1.177  1.00  0.00     0.189 HD
BRANCH  11  20
HETATM   20  N6  UNL     1      -3.266  -0.614  -0.457  1.00  0.00    -0.382 N 
ATOM     21  H62 UNL     1      -3.326  -1.523  -0.916  1.00  0.00     0.157 HD
ATOM     22  H61 UNL     1      -4.047   0.003  -0.233  1.00  0.00     0.157 HD
ENDBRANCH  11  20
ENDBRANCH   3   6
TORSDOF 2
