REMARK  4 active torsions:
REMARK  status: ('A' for Active; 'I' for Inactive)
REMARK    1  A    between atoms: C3_5  and  N3_6 
REMARK    2  A    between atoms: N3_6  and  O1_10 
REMARK    3  A    between atoms: C4_12  and  N5_13 
REMARK    4  A    between atoms: N5_13  and  N6_14 
ROOT
HETATM    1  C1  UNL     1       2.779  -1.101   0.982  1.00  0.00     0.162 C 
HETATM    2  N1  UNL     1       1.532  -0.363   0.718  1.00  0.00    -0.290 N 
HETATM    3  C2  UNL     1       0.653  -0.833  -0.168  1.00  0.00     0.158 A 
HETATM    4  N2  UNL     1       0.933  -2.057  -0.837  1.00  0.00    -0.080 NA
HETATM    5  C3  UNL     1      -0.517  -0.122  -0.413  1.00  0.00     0.182 A 
HETATM    6  C4  UNL     1      -0.811   1.087   0.247  1.00  0.00     0.241 A 
HETATM    7  N7  UNL     1       0.170   1.493   1.155  1.00  0.00    -0.279 N 
ATOM      8  H7  UNL     1       0.035   2.359   1.677  1.00  0.00     0.173 HD
HETATM    9  C5  UNL     1       1.268   0.787   1.356  1.00  0.00     0.330 A 
HETATM   10  O2  UNL     1       2.137   1.200   2.199  1.00  0.00    -0.246 OA
ENDROOT
BRANCH   5  11
HETATM   11  N3  UNL     1      -1.405  -0.656  -1.360  1.00  0.00    -0.162 N 
HETATM   12  N4  UNL     1      -2.421  -0.074  -1.794  1.00  0.00    -0.318 N 
ATOM     13  H42 UNL     1      -2.601   0.851  -1.404  1.00  0.00     0.179 HD
ATOM     14  H41 UNL     1      -3.066  -0.462  -2.482  1.00  0.00     0.179 HD
BRANCH  11  15
HETATM   15  O1  UNL     1      -1.159  -1.917  -1.891  1.00  0.00    -0.268 OA
ATOM     16  H1  UNL     1      -1.760  -2.278  -2.532  1.00  0.00     0.247 HD
ENDBRANCH  11  15
ENDBRANCH   5  11
BRANCH   6  17
HETATM   17  N5  UNL     1      -1.805   1.686   0.070  1.00  0.00    -0.311 NA
BRANCH  17  18
HETATM   18  N6  UNL     1      -2.848   2.379  -0.074  1.00  0.00    -0.278 N 
ATOM     19  H62 UNL     1      -2.244   2.869   0.586  1.00  0.00     0.191 HD
ATOM     20  H61 UNL     1      -3.712   2.899  -0.228  1.00  0.00     0.191 HD
ENDBRANCH  17  18
ENDBRANCH   6  17
TORSDOF 4
