REMARK  6 active torsions:
REMARK  status: ('A' for Active; 'I' for Inactive)
REMARK    1  A    between atoms: N1_1  and  C1_4 
REMARK    2  A    between atoms: C2_9  and  C3_10 
REMARK    3  A    between atoms: C4_14  and  S1_15 
REMARK    4  A    between atoms: S1_15  and  N5_16 
REMARK    5  A    between atoms: C5_23  and  N7_24 
REMARK    6  A    between atoms: N7_24  and  N8_26 
ROOT
HETATM    1  C1  UNL     1      -2.997   1.273   0.102  1.00  0.00     0.144 A 
HETATM    2  N2  UNL     1      -2.278   2.378  -0.123  1.00  0.00    -0.283 N 
ATOM      3  H2  UNL     1      -2.653   3.323  -0.209  1.00  0.00     0.188 HD
HETATM    4  N3  UNL     1      -1.006   2.047  -0.216  1.00  0.00    -0.293 N 
ATOM      5  H3  UNL     1      -0.246   2.706  -0.385  1.00  0.00     0.187 HD
HETATM    6  C2  UNL     1      -0.848   0.723  -0.057  1.00  0.00     0.126 A 
HETATM    7  C5  UNL     1      -2.108   0.200   0.148  1.00  0.00     0.124 A 
ENDROOT
BRANCH   6   8
HETATM    8  C3  UNL     1       0.391  -0.046  -0.089  1.00  0.00     0.159 A 
HETATM    9  N4  UNL     1       0.522  -1.375   0.074  1.00  0.00    -0.240 N 
HETATM   10  O1  UNL     1       1.787  -1.685  -0.021  1.00  0.00    -0.204 OA
ATOM     11  H4  UNL     1      -0.240  -2.031   0.244  1.00  0.00     0.196 HD
HETATM   12  C4  UNL     1       2.505  -0.620  -0.241  1.00  0.00     0.287 A 
HETATM   13  N6  UNL     1       1.638   0.416  -0.285  1.00  0.00    -0.307 N 
ATOM     14  H6  UNL     1       1.890   1.392  -0.442  1.00  0.00     0.170 HD
BRANCH  12  15
HETATM   15  S1  UNL     1       4.259  -0.513  -0.444  1.00  0.00     0.297 S 
HETATM   16  O2  UNL     1       4.717  -1.857  -0.972  1.00  0.00    -0.197 OA
HETATM   17  O3  UNL     1       4.565   0.591  -1.390  1.00  0.00    -0.197 OA
BRANCH  15  18
HETATM   18  N5  UNL     1       4.933  -0.268   1.109  1.00  0.00    -0.321 N 
ATOM     19  H52 UNL     1       4.408  -0.199   1.981  1.00  0.00     0.169 HD
ATOM     20  H51 UNL     1       5.944  -0.206   0.992  1.00  0.00     0.169 HD
ENDBRANCH  15  18
ENDBRANCH  12  15
ENDBRANCH   6   8
BRANCH   7  21
HETATM   21  N7  UNL     1      -2.424  -1.173   0.365  1.00  0.00    -0.302 N 
ATOM     22  H7  UNL     1      -2.435  -1.522   1.323  1.00  0.00     0.186 HD
BRANCH  21  23
HETATM   23  N8  UNL     1      -2.719  -2.065  -0.669  1.00  0.00    -0.344 N 
ATOM     24  H82 UNL     1      -2.703  -1.699  -1.621  1.00  0.00     0.176 HD
ATOM     25  H81 UNL     1      -2.945  -3.047  -0.514  1.00  0.00     0.176 HD
ENDBRANCH  21  23
ENDBRANCH   7  21
BRANCH   1  26
HETATM   26  N1  UNL     1      -4.287   1.165   0.256  1.00  0.00    -0.382 N 
ATOM     27  H12 UNL     1      -4.937   1.950   0.222  1.00  0.00     0.157 HD
ATOM     28  H11 UNL     1      -4.835   0.322   0.428  1.00  0.00     0.157 HD
ENDBRANCH   1  26
TORSDOF 6
