REMARK  9 active torsions:
REMARK  status: ('A' for Active; 'I' for Inactive)
REMARK    1  A    between atoms: N1_1  and  N2_4 
REMARK    2  A    between atoms: N2_4  and  C1_6 
REMARK    3  A    between atoms: C1_6  and  O1_7 
REMARK    4  A    between atoms: C1_6  and  C2_9 
REMARK    5  A    between atoms: C3_11  and  N3_12 
REMARK    6  A    between atoms: C5_17  and  C6_18 
REMARK    7  A    between atoms: C6_18  and  O4_19 
REMARK    8  A    between atoms: C6_18  and  N5_21 
REMARK    9  A    between atoms: N5_21  and  N6_23 
ROOT
HETATM    1  C2  UNL     1       0.583   0.435   0.855  1.00  0.00     0.075 A 
HETATM    2  S1  UNL     1      -0.157   1.090   2.343  1.00  0.00    -0.059 SA
HETATM    3  C3  UNL     1      -1.761   0.714   2.033  1.00  0.00     0.169 A 
HETATM    4  C4  UNL     1      -1.728   0.119   0.841  1.00  0.00     0.102 A 
HETATM    5  N4  UNL     1      -3.000  -0.337   0.256  1.00  0.00    -0.098 NA
HETATM    6  C5  UNL     1      -0.490  -0.033   0.197  1.00  0.00     0.065 A 
ENDROOT
BRANCH   1   7
HETATM    7  C1  UNL     1       2.023   0.496   0.707  1.00  0.00     0.173 C 
BRANCH   7   8
HETATM    8  N2  UNL     1       2.930  -0.109  -0.124  1.00  0.00    -0.286 N 
ATOM      9  H2  UNL     1       2.612  -0.774  -0.829  1.00  0.00     0.188 HD
BRANCH   8  10
HETATM   10  N1  UNL     1       4.352   0.200   0.002  1.00  0.00    -0.343 N 
ATOM     11  H12 UNL     1       4.653   0.867   0.712  1.00  0.00     0.176 HD
ATOM     12  H11 UNL     1       5.027  -0.250  -0.616  1.00  0.00     0.176 HD
ENDBRANCH   8  10
ENDBRANCH   7   8
BRANCH   7  13
HETATM   13  O1  UNL     1       2.639   1.305   1.577  1.00  0.00    -0.344 OA
ATOM     14  H1  UNL     1       2.010   1.724   2.153  1.00  0.00     0.219 HD
ENDBRANCH   7  13
ENDBRANCH   1   7
BRANCH   6  15
HETATM   15  C6  UNL     1      -0.498  -0.692  -1.136  1.00  0.00     0.168 C 
BRANCH  15  16
HETATM   16  O4  UNL     1      -1.531  -1.431  -1.422  1.00  0.00    -0.344 OA
ATOM     17  H4  UNL     1      -1.536  -1.852  -2.274  1.00  0.00     0.219 HD
ENDBRANCH  15  16
BRANCH  15  18
HETATM   18  N5  UNL     1       0.430  -0.614  -2.135  1.00  0.00    -0.286 N 
ATOM     19  H5  UNL     1       1.266  -0.039  -2.027  1.00  0.00     0.188 HD
BRANCH  18  20
HETATM   20  N6  UNL     1       0.198  -1.371  -3.359  1.00  0.00    -0.343 N 
ATOM     21  H62 UNL     1      -0.643  -1.941  -3.451  1.00  0.00     0.176 HD
ATOM     22  H61 UNL     1       0.891  -1.313  -4.105  1.00  0.00     0.176 HD
ENDBRANCH  18  20
ENDBRANCH  15  18
ENDBRANCH   6  15
BRANCH   3  23
HETATM   23  N3  UNL     1      -2.930   0.981   2.876  1.00  0.00    -0.106 N 
HETATM   24  O2  UNL     1      -2.751   1.550   3.945  1.00  0.00    -0.531 OA
HETATM   25  O3  UNL     1      -4.156   0.594   2.446  1.00  0.00    -0.531 OA
ENDBRANCH   3  23
TORSDOF 9
