REMARK  5 active torsions:
REMARK  status: ('A' for Active; 'I' for Inactive)
REMARK    1  A    between atoms: N1_1  and  N2_4 
REMARK    2  A    between atoms: N2_4  and  N3_6 
REMARK    3  A    between atoms: C2_13  and  N7_14 
REMARK    4  A    between atoms: C3_17  and  C4_18 
REMARK       I    between atoms: C4_18  and  N8_20 
REMARK    5  A    between atoms: N8_20  and  C5_22 
ROOT
HETATM    1  N3  UNL     1      -3.951   0.036  -0.504  1.00  0.00    -0.163 N 
HETATM    2  N4  UNL     1      -4.696  -1.055  -0.400  1.00  0.00     0.004 NA
HETATM    3  N5  UNL     1      -3.935  -2.095  -0.046  1.00  0.00    -0.266 N 
ATOM      4  H5  UNL     1      -4.267  -3.048   0.100  1.00  0.00     0.186 HD
HETATM    5  C1  UNL     1      -2.666  -1.686   0.087  1.00  0.00     0.150 A 
HETATM    6  N6  UNL     1      -1.484  -2.250   0.412  1.00  0.00    -0.325 N 
ATOM      7  H6  UNL     1      -1.462  -3.246   0.629  1.00  0.00     0.169 HD
HETATM    8  C2  UNL     1      -0.336  -1.557   0.462  1.00  0.00     0.116 A 
HETATM    9  C3  UNL     1      -0.347  -0.210   0.173  1.00  0.00     0.078 A 
HETATM   10  C6  UNL     1      -1.536   0.402  -0.164  1.00  0.00     0.058 A 
HETATM   11  C7  UNL     1      -2.687  -0.333  -0.206  1.00  0.00     0.120 A 
ENDROOT
BRANCH   9  12
HETATM   12  C4  UNL     1       0.887   0.565   0.221  1.00  0.00     0.273 C 
HETATM   13  O1  UNL     1       0.859   1.801  -0.049  1.00  0.00    -0.267 OA
HETATM   14  N8  UNL     1       2.108  -0.081   0.570  1.00  0.00    -0.153 N 
ATOM     15  H8  UNL     1       2.122  -1.073   0.809  1.00  0.00     0.187 HD
BRANCH  14  16
HETATM   16  C5  UNL     1       3.208   0.621   0.578  1.00  0.00     0.710 A 
HETATM   17  N9  UNL     1       3.325   1.929   0.285  1.00  0.00    -0.117 N 
HETATM   18  N10 UNL     1       4.600   2.255   0.411  1.00  0.00     0.006 NA
ATOM     19  H9  UNL     1       2.567   2.556   0.015  1.00  0.00     0.202 HD
HETATM   20  N11 UNL     1       5.309   1.201   0.776  1.00  0.00     0.006 NA
HETATM   21  N12 UNL     1       4.444   0.208   0.875  1.00  0.00    -0.117 N 
ATOM     22  H12 UNL     1       4.687  -0.746   1.142  1.00  0.00     0.202 HD
ENDBRANCH  14  16
ENDBRANCH   9  12
BRANCH   8  23
HETATM   23  N7  UNL     1       0.782  -2.133   0.779  1.00  0.00    -0.385 N 
ATOM     24  H72 UNL     1       0.790  -3.130   0.993  1.00  0.00     0.157 HD
ATOM     25  H71 UNL     1       1.655  -1.606   0.817  1.00  0.00     0.157 HD
ENDBRANCH   8  23
BRANCH   1  26
HETATM   26  N2  UNL     1      -4.392   1.334  -0.858  1.00  0.00    -0.229 N 
ATOM     27  H2  UNL     1      -4.973   1.496  -1.681  1.00  0.00     0.209 HD
BRANCH  26  28
HETATM   28  N1  UNL     1      -4.024   2.300  -0.090  1.00  0.00    -0.329 N 
ATOM     29  H12 UNL     1      -3.443   2.122   0.729  1.00  0.00     0.178 HD
ATOM     30  H11 UNL     1      -4.342   3.235  -0.345  1.00  0.00     0.178 HD
ENDBRANCH  26  28
ENDBRANCH   1  26
TORSDOF 5
