REMARK  5 active torsions:
REMARK  status: ('A' for Active; 'I' for Inactive)
REMARK    1  A    between atoms: N1_1  and  N2_4 
REMARK    2  A    between atoms: N2_4  and  C1_6 
REMARK    3  A    between atoms: C2_12  and  C3_13 
REMARK    4  A    between atoms: C3_13  and  S1_14 
REMARK    5  A    between atoms: S1_14  and  C4_15 
ROOT
HETATM    1  C3  UNL     1      -1.088   1.050  -0.945  1.00  0.00     0.145 C 
ENDROOT
BRANCH   1   2
HETATM    2  C2  UNL     1      -1.620  -0.260  -0.526  1.00  0.00     0.091 A 
HETATM    3  C1  UNL     1      -2.714  -0.611   0.196  1.00  0.00     0.167 A 
HETATM    4  N3  UNL     1      -2.681  -2.000   0.243  1.00  0.00    -0.222 N 
HETATM    5  O1  UNL     1      -1.658  -2.440  -0.396  1.00  0.00    -0.155 OA
ATOM      6  H3  UNL     1      -3.370  -2.585   0.716  1.00  0.00     0.198 HD
HETATM    7  N4  UNL     1      -1.013  -1.424  -0.862  1.00  0.00    -0.241 N 
ATOM      8  H4  UNL     1      -0.157  -1.489  -1.412  1.00  0.00     0.196 HD
BRANCH   3   9
HETATM    9  N2  UNL     1      -3.592   0.090   0.729  1.00  0.00    -0.289 N 
ATOM     10  H2  UNL     1      -4.316  -0.434   1.221  1.00  0.00     0.188 HD
BRANCH   9  11
HETATM   11  N1  UNL     1      -3.743   1.428   0.762  1.00  0.00    -0.344 N 
ATOM     12  H12 UNL     1      -3.010   1.933   0.264  1.00  0.00     0.176 HD
ATOM     13  H11 UNL     1      -4.463   2.003   1.199  1.00  0.00     0.176 HD
ENDBRANCH   9  11
ENDBRANCH   3   9
ENDBRANCH   1   2
BRANCH   1  14
HETATM   14  S1  UNL     1       0.443   0.848  -1.900  1.00  0.00    -0.087 SA
BRANCH  14  15
HETATM   15  C4  UNL     1       1.764   0.242  -0.866  1.00  0.00     0.152 A 
HETATM   16  N5  UNL     1       2.057  -1.057  -0.692  1.00  0.00    -0.289 N 
HETATM   17  C5  UNL     1       3.055  -1.515   0.080  1.00  0.00     0.330 A 
ATOM     18  H5  UNL     1       1.481  -1.743  -1.180  1.00  0.00     0.172 HD
HETATM   19  O2  UNL     1       3.292  -2.741   0.212  1.00  0.00    -0.246 OA
HETATM   20  N6  UNL     1       3.829  -0.633   0.734  1.00  0.00    -0.260 N 
HETATM   21  C6  UNL     1       3.577   0.689   0.594  1.00  0.00     0.330 A 
ATOM     22  H6  UNL     1       4.594  -0.955   1.327  1.00  0.00     0.175 HD
HETATM   23  O3  UNL     1       4.332   1.479   1.230  1.00  0.00    -0.246 OA
HETATM   24  N7  UNL     1       2.572   1.111  -0.185  1.00  0.00    -0.289 N 
ATOM     25  H7  UNL     1       2.404   2.113  -0.273  1.00  0.00     0.172 HD
ENDBRANCH  14  15
ENDBRANCH   1  14
TORSDOF 5
