REMARK  4 active torsions:
REMARK  status: ('A' for Active; 'I' for Inactive)
REMARK    1  A    between atoms: C3_6  and  N2_7 
REMARK    2  A    between atoms: N3_10  and  C6_11 
REMARK    3  A    between atoms: C6_11  and  N4_12 
REMARK    4  A    between atoms: C7_19  and  N8_20 
ROOT
HETATM    1  N2  UNL     1       1.250   0.266   0.402  1.00  0.00    -0.358 N 
HETATM    2  C4  UNL     1       0.405   1.405   0.295  1.00  0.00     0.169 C 
HETATM    3  C5  UNL     1      -0.983   1.013  -0.094  1.00  0.00     0.084 C 
HETATM    4  N3  UNL     1      -1.507  -0.143   0.480  1.00  0.00    -0.352 N 
HETATM    5  C8  UNL     1      -0.692  -0.976   1.259  1.00  0.00     0.084 C 
HETATM    6  C9  UNL     1       0.776  -0.930   0.999  1.00  0.00     0.169 C 
ENDROOT
BRANCH   4   7
HETATM    7  C6  UNL     1      -2.821  -0.035   1.077  1.00  0.00     0.297 C 
BRANCH   7   8
HETATM    8  N4  UNL     1      -3.842   0.363   0.147  1.00  0.00    -0.089 N 
HETATM    9  N5  UNL     1      -4.203   1.586  -0.122  1.00  0.00    -0.209 N 
HETATM   10  N6  UNL     1      -5.161   1.557  -1.016  1.00  0.00    -0.213 N 
ATOM     11  H5  UNL     1      -3.805   2.428   0.295  1.00  0.00     0.210 HD
HETATM   12  N7  UNL     1      -5.407   0.297  -1.315  1.00  0.00    -0.115 N 
ATOM     13  H6  UNL     1      -5.634   2.369  -1.412  1.00  0.00     0.210 HD
HETATM   14  C7  UNL     1      -4.580  -0.474  -0.586  1.00  0.00     0.711 A 
ATOM     15  H7  UNL     1      -6.103  -0.035  -1.983  1.00  0.00     0.207 HD
BRANCH  14  16
HETATM   16  N8  UNL     1      -4.520  -1.788  -0.601  1.00  0.00    -0.232 N 
ATOM     17  H82 UNL     1      -3.893  -2.373  -0.048  1.00  0.00     0.174 HD
ATOM     18  H81 UNL     1      -5.084  -2.427  -1.161  1.00  0.00     0.174 HD
ENDBRANCH  14  16
ENDBRANCH   7   8
ENDBRANCH   4   7
BRANCH   1  19
HETATM   19  C3  UNL     1       2.575   0.329  -0.093  1.00  0.00     0.108 A 
HETATM   20  C2  UNL     1       3.443  -0.739  -0.017  1.00  0.00     0.096 A 
HETATM   21  C1  UNL     1       4.735  -0.715  -0.486  1.00  0.00     0.103 A 
HETATM   22  N1  UNL     1       5.549  -1.687  -0.426  1.00  0.00    -0.385 N 
HETATM   23  N10 UNL     1       5.146   0.448  -1.051  1.00  0.00    -0.339 N 
ATOM     24  H12 UNL     1       5.240  -2.561  -0.001  1.00  0.00     0.157 HD
ATOM     25  H11 UNL     1       6.508  -1.669  -0.774  1.00  0.00     0.157 HD
HETATM   26  C10 UNL     1       4.311   1.499  -1.133  1.00  0.00     0.183 A 
ATOM     27  H10 UNL     1       6.095   0.526  -1.416  1.00  0.00     0.168 HD
HETATM   28  N9  UNL     1       3.067   1.460  -0.676  1.00  0.00    -0.339 N 
ATOM     29  H9  UNL     1       2.472   2.284  -0.761  1.00  0.00     0.168 HD
ENDBRANCH   1  19
TORSDOF 4
