REMARK  5 active torsions:
REMARK  status: ('A' for Active; 'I' for Inactive)
REMARK    1  A    between atoms: C3_3  and  C4_4 
REMARK       I    between atoms: C4_4  and  N1_6 
REMARK       I    between atoms: N1_6  and  C5_8 
REMARK    2  A    between atoms: C7_14  and  C8_15 
REMARK    3  A    between atoms: C8_15  and  O4_16 
REMARK    4  A    between atoms: C8_15  and  N4_18 
REMARK    5  A    between atoms: N4_18  and  N5_20 
ROOT
HETATM    1  C1  UNL     1      -0.079   0.799  -1.215  1.00  0.00     0.052 C 
HETATM    2  C2  UNL     1      -0.257   0.144   0.080  1.00  0.00    -0.004 A 
HETATM    3  C3  UNL     1       0.770  -0.170   0.925  1.00  0.00     0.152 A 
HETATM    4  O3  UNL     1       0.219  -0.681   2.039  1.00  0.00    -0.289 OA
HETATM    5  C6  UNL     1      -1.072  -0.698   1.917  1.00  0.00     0.173 A 
HETATM    6  N3  UNL     1      -1.933  -1.185   2.935  1.00  0.00    -0.073 NA
HETATM    7  C7  UNL     1      -1.439  -0.177   0.664  1.00  0.00     0.073 A 
ENDROOT
BRANCH   7   8
HETATM    8  C8  UNL     1      -2.796  -0.075   0.236  1.00  0.00     0.169 C 
BRANCH   8   9
HETATM    9  O4  UNL     1      -3.714  -0.436   1.095  1.00  0.00    -0.344 OA
ATOM     10  H4  UNL     1      -4.618  -0.368   0.810  1.00  0.00     0.219 HD
ENDBRANCH   8   9
BRANCH   8  11
HETATM   11  N4  UNL     1      -3.355   0.344  -0.959  1.00  0.00    -0.286 N 
ATOM     12  H4  UNL     1      -2.737   0.644  -1.713  1.00  0.00     0.188 HD
BRANCH  11  13
HETATM   13  N5  UNL     1      -4.758   0.371  -1.173  1.00  0.00    -0.343 N 
ATOM     14  H52 UNL     1      -5.362   0.068  -0.409  1.00  0.00     0.176 HD
ATOM     15  H51 UNL     1      -5.170   0.680  -2.054  1.00  0.00     0.176 HD
ENDBRANCH  11  13
ENDBRANCH   8  11
ENDBRANCH   7   8
BRANCH   3  16
HETATM   16  C4  UNL     1       2.211  -0.073   0.848  1.00  0.00     0.283 C 
HETATM   17  O1  UNL     1       2.917  -0.058   1.936  1.00  0.00    -0.265 OA
HETATM   18  N1  UNL     1       2.951   0.006  -0.352  1.00  0.00    -0.276 N 
HETATM   19  C5  UNL     1       4.380   0.136  -0.335  1.00  0.00     0.335 C 
ATOM     20  H1  UNL     1       2.461  -0.030  -1.246  1.00  0.00     0.173 HD
HETATM   21  N2  UNL     1       5.082   0.212  -1.553  1.00  0.00    -0.040 NA
HETATM   22  O2  UNL     1       4.959   0.179   0.765  1.00  0.00    -0.251 OA
ENDBRANCH   3  16
TORSDOF 5
