REMARK  6 active torsions:
REMARK  status: ('A' for Active; 'I' for Inactive)
REMARK    1  A    between atoms: C3_5  and  N2_6 
REMARK    2  A    between atoms: C4_9  and  N3_10 
REMARK    3  A    between atoms: N3_10  and  C5_12 
REMARK    4  A    between atoms: C5_12  and  C6_13 
REMARK    5  A    between atoms: C6_13  and  N4_14 
REMARK    6  A    between atoms: C7_20  and  C8_21 
ROOT
HETATM    1  C1  UNL     1       3.256  -0.932   0.930  1.00  0.00     0.070 C 
HETATM    2  C2  UNL     1       1.825  -0.911   0.534  1.00  0.00     0.036 A 
HETATM    3  N1  UNL     1       1.070  -2.004   0.904  1.00  0.00    -0.342 N 
ATOM      4  H1  UNL     1       1.530  -2.760   1.411  1.00  0.00     0.167 HD
HETATM    5  C3  UNL     1      -0.237  -2.125   0.632  1.00  0.00     0.144 A 
HETATM    6  C4  UNL     1      -0.883  -1.126  -0.048  1.00  0.00     0.146 A 
HETATM    7  N5  UNL     1      -0.163  -0.075  -0.405  1.00  0.00    -0.336 N 
ATOM      8  H5  UNL     1      -0.637   0.673  -0.911  1.00  0.00     0.168 HD
HETATM    9  C7  UNL     1       1.195   0.085  -0.141  1.00  0.00     0.091 A 
ENDROOT
BRANCH   6  10
HETATM   10  N3  UNL     1      -2.140  -1.187  -0.338  1.00  0.00    -0.372 N 
ATOM     11  H3  UNL     1      -2.642  -2.022  -0.037  1.00  0.00     0.161 HD
BRANCH  10  12
HETATM   12  C5  UNL     1      -2.892  -0.204  -1.036  1.00  0.00     0.148 C 
BRANCH  12  13
HETATM   13  C6  UNL     1      -3.357   0.844  -0.016  1.00  0.00     0.249 C 
BRANCH  13  14
HETATM   14  N4  UNL     1      -4.181   0.154   0.980  1.00  0.00    -0.078 N 
ATOM     15  H43 UNL     1      -4.953  -0.367   0.565  1.00  0.00     0.274 HD
ATOM     16  H42 UNL     1      -3.703  -0.637   1.412  1.00  0.00     0.274 HD
ATOM     17  H41 UNL     1      -4.490   0.851   1.658  1.00  0.00     0.274 HD
ENDBRANCH  13  14
ENDBRANCH  12  13
ENDBRANCH  10  12
ENDBRANCH   6  10
BRANCH   5  18
HETATM   18  N2  UNL     1      -0.927  -3.158   0.988  1.00  0.00    -0.382 N 
ATOM     19  H22 UNL     1      -0.446  -3.902   1.494  1.00  0.00     0.157 HD
ATOM     20  H21 UNL     1      -1.922  -3.250   0.781  1.00  0.00     0.157 HD
ENDBRANCH   5  18
BRANCH   9  21
HETATM   21  C8  UNL     1       1.799   1.302  -0.611  1.00  0.00     0.154 A 
HETATM   22  N6  UNL     1       1.020   2.247  -1.281  1.00  0.00    -0.234 N 
HETATM   23  O1  UNL     1       1.738   3.244  -1.627  1.00  0.00    -0.153 OA
ATOM     24  H6  UNL     1       0.021   2.154  -1.467  1.00  0.00     0.197 HD
HETATM   25  N7  UNL     1       2.947   3.079  -1.258  1.00  0.00    -0.204 N 
HETATM   26  C9  UNL     1       3.013   1.848  -0.608  1.00  0.00     0.297 A 
ATOM     27  H7  UNL     1       3.721   3.726  -1.410  1.00  0.00     0.200 HD
HETATM   28  O2  UNL     1       4.116   1.512  -0.177  1.00  0.00    -0.264 OA
ENDBRANCH   9  21
TORSDOF 6
