REMARK  4 active torsions:
REMARK  status: ('A' for Active; 'I' for Inactive)
REMARK    1  A    between atoms: N1_1  and  N2_4 
REMARK    2  A    between atoms: N2_4  and  N3_6 
REMARK       I    between atoms: N3_6  and  C1_8 
REMARK       I    between atoms: C1_8  and  N4_9 
REMARK    3  A    between atoms: C2_11  and  O1_13 
REMARK    4  A    between atoms: N6_15  and  C3_17 
ROOT
HETATM    1  N3  UNL     1       0.945   0.977  -0.728  1.00  0.00    -0.118 N 
ATOM      2  H3  UNL     1       1.003   1.948  -1.034  1.00  0.00     0.207 HD
HETATM    3  C1  UNL     1      -0.301   0.554  -0.227  1.00  0.00     0.703 C 
HETATM    4  N4  UNL     1      -0.776  -0.742  -0.535  1.00  0.00    -0.156 N 
ATOM      5  H4  UNL     1      -0.430  -1.212  -1.371  1.00  0.00     0.187 HD
HETATM    6  C2  UNL     1      -1.624  -1.336   0.205  1.00  0.00     0.243 C 
HETATM    7  N5  UNL     1      -2.041  -2.638  -0.189  1.00  0.00    -0.056 NA
HETATM    8  N6  UNL     1      -1.002   1.331   0.500  1.00  0.00    -0.166 N 
ATOM      9  H6  UNL     1      -1.897   0.974   0.835  1.00  0.00     0.186 HD
ENDROOT
BRANCH   1  10
HETATM   10  N2  UNL     1       2.079   0.238  -0.850  1.00  0.00    -0.235 N 
ATOM     11  H2  UNL     1       2.604   0.241  -1.725  1.00  0.00     0.208 HD
BRANCH  10  12
HETATM   12  N1  UNL     1       2.502  -0.496   0.193  1.00  0.00    -0.330 N 
ATOM     13  H12 UNL     1       1.966  -0.488   1.061  1.00  0.00     0.178 HD
ATOM     14  H11 UNL     1       3.353  -1.051   0.101  1.00  0.00     0.178 HD
ENDBRANCH  10  12
ENDBRANCH   1  10
BRANCH   8  15
HETATM   15  C3  UNL     1      -0.649   2.635   0.879  1.00  0.00     0.368 C 
HETATM   16  O2  UNL     1      -0.508   3.605   0.107  1.00  0.00    -0.283 OA
ENDBRANCH   8  15
BRANCH   6  17
HETATM   17  O1  UNL     1      -2.167  -0.803   1.365  1.00  0.00    -0.334 OA
ATOM     18  H1  UNL     1      -2.800  -1.246   1.917  1.00  0.00     0.220 HD
ENDBRANCH   6  17
TORSDOF 4
