REMARK  10 active torsions:
REMARK  status: ('A' for Active; 'I' for Inactive)
REMARK    1  A    between atoms: C3_3  and  N1_4 
REMARK    2  A    between atoms: C8_13  and  O3_14 
REMARK    3  A    between atoms: C9_16  and  O4_17 
REMARK    4  A    between atoms: O4_17  and  C10_18 
REMARK    5  A    between atoms: C12_21  and  O6_22 
REMARK    6  A    between atoms: C14_24  and  O7_25 
REMARK    7  A    between atoms: O7_25  and  C15_26 
REMARK    8  A    between atoms: C15_26  and  C16_27 
REMARK    9  A    between atoms: C17_28  and  C18_29 
REMARK   10  A    between atoms: C24_36  and  C25_37 
ROOT
HETATM    1  C1  UNL     1      -3.036   0.940  -2.710  1.00  0.00     0.100 C 
HETATM    2  C2  UNL     1      -2.665   0.206  -1.799  1.00  0.00    -0.148 C 
HETATM    3  C3  UNL     1      -2.218  -0.729  -0.686  1.00  0.00     0.147 C 
HETATM    4  C8  UNL     1      -2.065   0.266   0.484  1.00  0.00     0.195 C 
HETATM    5  C9  UNL     1      -1.103   1.326   0.029  1.00  0.00     0.196 C 
HETATM    6  C12 UNL     1       0.218   0.725  -0.290  1.00  0.00     0.186 C 
HETATM    7  C14 UNL     1       0.267  -0.752  -0.325  1.00  0.00     0.186 C 
HETATM    8  C24 UNL     1      -0.963  -1.366  -1.010  1.00  0.00    -0.007 C 
ENDROOT
BRANCH   3   9
HETATM    9  N1  UNL     1      -3.406  -1.530  -0.488  1.00  0.00    -0.283 N 
HETATM   10  C4  UNL     1      -3.976  -1.671   0.710  1.00  0.00     0.103 A 
HETATM   11  C5  UNL     1      -5.130  -2.403   0.890  1.00  0.00     0.092 A 
HETATM   12  C6  UNL     1      -5.738  -3.024  -0.201  1.00  0.00     0.250 A 
HETATM   13  O1  UNL     1      -6.784  -3.704  -0.122  1.00  0.00    -0.268 OA
HETATM   14  N2  UNL     1      -5.126  -2.852  -1.378  1.00  0.00    -0.275 N 
HETATM   15  C7  UNL     1      -3.997  -2.135  -1.546  1.00  0.00     0.331 A 
ATOM     16  H2  UNL     1      -5.540  -3.291  -2.200  1.00  0.00     0.173 HD
HETATM   17  O2  UNL     1      -3.554  -2.075  -2.721  1.00  0.00    -0.246 OA
ENDBRANCH   3   9
BRANCH   4  18
HETATM   18  O3  UNL     1      -3.298   0.937   0.632  1.00  0.00    -0.389 OA
ATOM     19  H3  UNL     1      -3.204   1.549   1.352  1.00  0.00     0.210 HD
ENDBRANCH   4  18
BRANCH   8  20
HETATM   20  C25 UNL     1      -0.719  -2.803  -1.004  1.00  0.00    -0.001 C 
HETATM   21  C26 UNL     1      -1.309  -3.823  -0.474  1.00  0.00     0.011 C 
ENDBRANCH   8  20
BRANCH   5  22
HETATM   22  O4  UNL     1      -1.014   2.280   1.093  1.00  0.00    -0.311 OA
BRANCH  22  23
HETATM   23  C10 UNL     1      -1.352   3.590   0.880  1.00  0.00     0.255 C 
HETATM   24  C11 UNL     1      -1.279   4.637   1.959  1.00  0.00     0.126 C 
HETATM   25  O5  UNL     1      -1.742   3.929  -0.274  1.00  0.00    -0.266 OA
ENDBRANCH  22  23
ENDBRANCH   5  22
BRANCH   7  26
HETATM   26  O7  UNL     1       0.423  -1.258   0.952  1.00  0.00    -0.367 OA
BRANCH  26  27
HETATM   27  C15 UNL     1       1.528  -2.017   1.184  1.00  0.00     0.262 C 
BRANCH  27  28
HETATM   28  C16 UNL     1       2.727  -1.249   0.959  1.00  0.00    -0.075 C 
HETATM   29  C17 UNL     1       3.739  -0.627   0.786  1.00  0.00    -0.065 C 
BRANCH  29  30
HETATM   30  C18 UNL     1       4.964   0.097   0.583  1.00  0.00     0.018 A 
HETATM   31  C19 UNL     1       5.711   0.572   1.660  1.00  0.00     0.024 A 
HETATM   32  C20 UNL     1       6.889   1.269   1.485  1.00  0.00     0.044 A 
HETATM   33  C21 UNL     1       7.368   1.518   0.211  1.00  0.00     0.116 A 
HETATM   34  F1  UNL     1       8.528   2.203   0.024  1.00  0.00    -0.206 F 
HETATM   35  C22 UNL     1       6.634   1.050  -0.865  1.00  0.00     0.044 A 
HETATM   36  C23 UNL     1       5.454   0.353  -0.680  1.00  0.00     0.024 A 
ENDBRANCH  29  30
ENDBRANCH  27  28
ENDBRANCH  26  27
ENDBRANCH   7  26
BRANCH   6  37
HETATM   37  O6  UNL     1       0.637   1.287  -1.521  1.00  0.00    -0.385 OA
HETATM   38  C13 UNL     1       1.705   2.135  -1.391  1.00  0.00     0.202 C 
ENDBRANCH   6  37
TORSDOF 10
