REMARK  9 active torsions:
REMARK  status: ('A' for Active; 'I' for Inactive)
REMARK    1  A    between atoms: O1_2  and  C2_3 
REMARK    2  A    between atoms: C2_3  and  C3_4 
REMARK    3  A    between atoms: C4_5  and  C5_6 
REMARK    4  A    between atoms: C5_6  and  N1_7 
REMARK    5  A    between atoms: C8_11  and  C9_12 
REMARK    6  A    between atoms: C9_12  and  N2_13 
REMARK       I    between atoms: N2_13  and  C10_14 
REMARK    7  A    between atoms: C10_14  and  C11_16 
REMARK    8  A    between atoms: C16_22  and  C17_23 
REMARK       I    between atoms: C17_23  and  N3_25 
REMARK    9  A    between atoms: C24_34  and  O5_35 
ROOT
HETATM    1  C17 UNL     1      -3.379  -1.155  -0.628  1.00  0.00     0.248 C 
HETATM    2  O4  UNL     1      -3.386  -2.287  -1.087  1.00  0.00    -0.271 OA
HETATM    3  N3  UNL     1      -4.250  -0.130  -1.117  1.00  0.00    -0.316 N 
HETATM    4  C18 UNL     1      -5.232  -0.340  -2.156  1.00  0.00     0.196 C 
HETATM    5  C19 UNL     1      -5.783  -1.699  -2.111  1.00  0.00     0.085 C 
HETATM    6  N4  UNL     1      -6.196  -2.763  -2.092  1.00  0.00    -0.195 NA
HETATM    7  C20 UNL     1      -6.316   0.677  -1.853  1.00  0.00     0.043 C 
HETATM    8  C21 UNL     1      -5.833   1.489  -0.668  1.00  0.00     0.043 C 
HETATM    9  C22 UNL     1      -4.345   1.241  -0.724  1.00  0.00     0.196 C 
HETATM   10  C23 UNL     1      -3.815   2.064  -1.836  1.00  0.00     0.085 C 
HETATM   11  N5  UNL     1      -3.387   2.715  -2.684  1.00  0.00    -0.195 NA
ENDROOT
BRANCH   1  12
HETATM   12  C16 UNL     1      -2.427  -0.752   0.510  1.00  0.00     0.165 A 
HETATM   13  C11 UNL     1      -1.272  -1.796   0.827  1.00  0.00     0.212 A 
HETATM   14  O3  UNL     1      -1.956  -2.649   1.494  1.00  0.00    -0.365 OA
HETATM   15  C24 UNL     1      -1.214  -0.758  -0.143  1.00  0.00     0.198 A 
HETATM   16  C12 UNL     1      -2.312  -2.858   2.730  1.00  0.00     0.170 C 
HETATM   17  C13 UNL     1      -2.964  -1.919   3.691  1.00  0.00     0.037 C 
HETATM   18  C14 UNL     1      -3.501  -0.611   3.074  1.00  0.00     0.083 C 
HETATM   19  C15 UNL     1      -3.048  -0.493   1.743  1.00  0.00    -0.157 C 
BRANCH  13  20
HETATM   20  C10 UNL     1      -0.105  -1.434   1.693  1.00  0.00     0.331 C 
HETATM   21  N2  UNL     1       0.871  -0.673   1.096  1.00  0.00    -0.383 NA
HETATM   22  O2  UNL     1       0.024  -1.775   2.886  1.00  0.00    -0.253 OA
BRANCH  21  23
HETATM   23  C9  UNL     1       1.856   0.089   0.511  1.00  0.00     0.198 C 
BRANCH  23  24
HETATM   24  C8  UNL     1       3.249  -0.463   0.432  1.00  0.00     0.311 C 
HETATM   25  N1  UNL     1       4.244   0.311  -0.183  1.00  0.00     0.115 N 
HETATM   26  C6  UNL     1       5.220  -0.311   0.661  1.00  0.00     0.314 C 
HETATM   27  C7  UNL     1       4.071  -0.509   1.671  1.00  0.00     0.238 C 
HETATM   28  F1  UNL     1       4.043   0.568   2.507  1.00  0.00    -0.245 F 
BRANCH  25  29
HETATM   29  C5  UNL     1       4.189   1.709  -0.296  1.00  0.00     0.367 C 
BRANCH  29  30
HETATM   30  C4  UNL     1       5.360   2.273  -1.013  1.00  0.00    -0.074 C 
HETATM   31  C3  UNL     1       6.301   2.720  -1.615  1.00  0.00    -0.079 C 
BRANCH  31  32
HETATM   32  C2  UNL     1       7.446   3.248  -2.355  1.00  0.00     0.260 C 
BRANCH  32  33
HETATM   33  O1  UNL     1       7.510   2.614  -3.590  1.00  0.00    -0.384 OA
HETATM   34  C1  UNL     1       7.696   1.236  -3.331  1.00  0.00     0.202 C 
ENDBRANCH  32  33
ENDBRANCH  31  32
ENDBRANCH  29  30
ENDBRANCH  25  29
ENDBRANCH  23  24
ENDBRANCH  21  23
ENDBRANCH  13  20
BRANCH  15  35
HETATM   35  O5  UNL     1      -0.856  -1.314  -1.368  1.00  0.00    -0.390 OA
ATOM     36  H5  UNL     1      -0.817  -0.620  -2.016  1.00  0.00     0.210 HD
ENDBRANCH  15  35
ENDBRANCH   1  12
TORSDOF 9
