REMARK  7 active torsions:
REMARK  status: ('A' for Active; 'I' for Inactive)
REMARK    1  A    between atoms: C3_3  and  O1_4 
REMARK    2  A    between atoms: O1_4  and  C4_5 
REMARK    3  A    between atoms: C4_5  and  C5_6 
REMARK    4  A    between atoms: C5_6  and  O2_7 
REMARK    5  A    between atoms: O2_7  and  C6_8 
REMARK    6  A    between atoms: C14_18  and  O4_19 
REMARK    7  A    between atoms: C20_28  and  C21_29 
ROOT
HETATM    1  C1  UNL     1       6.794   1.768  -1.831  1.00  0.00     0.014 C 
HETATM    2  C2  UNL     1       6.646   0.606  -1.574  1.00  0.00    -0.091 C 
HETATM    3  C3  UNL     1       6.467  -0.818  -1.244  1.00  0.00     0.260 C 
ENDROOT
BRANCH   3   4
HETATM    4  O1  UNL     1       5.403  -0.976  -0.355  1.00  0.00    -0.377 OA
BRANCH   4   5
HETATM    5  C4  UNL     1       4.219  -0.504  -0.902  1.00  0.00     0.195 C 
BRANCH   5   6
HETATM    6  C5  UNL     1       3.133  -0.730   0.163  1.00  0.00     0.195 C 
BRANCH   6   7
HETATM    7  O2  UNL     1       1.979  -0.274  -0.363  1.00  0.00    -0.374 OA
BRANCH   7   8
HETATM    8  C6  UNL     1       0.830  -0.368   0.425  1.00  0.00     0.110 A 
HETATM    9  C7  UNL     1       0.738   0.232   1.654  1.00  0.00     0.102 A 
HETATM   10  C8  UNL     1      -0.076  -0.146   2.818  1.00  0.00     0.149 C 
HETATM   11  C24 UNL     1       0.264   1.066   0.578  1.00  0.00     0.044 A 
HETATM   12  O3  UNL     1       0.111  -1.216   3.423  1.00  0.00    -0.296 OA
HETATM   13  C9  UNL     1      -1.129   0.764   3.269  1.00  0.00     0.131 C 
HETATM   14 BR1  UNL     1      -0.407   2.580   3.095  1.00  0.00    -0.083 Br
HETATM   15  C10 UNL     1      -2.470   0.718   2.719  1.00  0.00     0.068 C 
HETATM   16  C11 UNL     1      -2.736  -0.086   1.468  1.00  0.00     0.129 A 
HETATM   17  C12 UNL     1      -4.006  -0.907   1.516  1.00  0.00     0.047 A 
HETATM   18  C14 UNL     1      -3.220   0.712   0.271  1.00  0.00     0.097 A 
HETATM   19  O6  UNL     1      -1.669  -0.623   1.056  1.00  0.00    -0.226 OA
HETATM   20  C13 UNL     1      -4.480  -0.170   0.305  1.00  0.00     0.044 A 
HETATM   21  C15 UNL     1      -2.504   0.463  -1.013  1.00  0.00     0.039 C 
HETATM   22  C16 UNL     1      -2.209  -0.955  -1.373  1.00  0.00     0.012 C 
HETATM   23  C20 UNL     1      -1.366   1.288  -1.420  1.00  0.00     0.024 A 
HETATM   24  C17 UNL     1      -0.742  -1.358  -1.336  1.00  0.00     0.044 C 
HETATM   25  C18 UNL     1      -0.094  -1.388  -0.007  1.00  0.00     0.125 C 
HETATM   26  C19 UNL     1       0.712  -2.715   0.108  1.00  0.00     0.052 C 
HETATM   27  O5  UNL     1      -1.159  -1.694   0.895  1.00  0.00    -0.226 OA
HETATM   28  C22 UNL     1      -0.972   2.586  -0.916  1.00  0.00     0.024 A 
HETATM   29  C23 UNL     1      -0.110   1.293  -0.784  1.00  0.00     0.010 A 
BRANCH  18  30
HETATM   30  O4  UNL     1      -3.578   2.003   0.481  1.00  0.00    -0.386 OA
ATOM     31  H4  UNL     1      -3.881   2.502  -0.268  1.00  0.00     0.210 HD
ENDBRANCH  18  30
BRANCH  23  32
HETATM   32  C21 UNL     1      -1.340   1.348  -2.955  1.00  0.00     0.241 C 
HETATM   33  O7  UNL     1      -2.318   1.861  -3.447  1.00  0.00    -0.306 OA
ENDBRANCH  23  32
ENDBRANCH   7   8
ENDBRANCH   6   7
ENDBRANCH   5   6
ENDBRANCH   4   5
ENDBRANCH   3   4
TORSDOF 7
