REMARK  8 active torsions:
REMARK  status: ('A' for Active; 'I' for Inactive)
REMARK    1  A    between atoms: C3_6  and  S1_7 
REMARK    2  A    between atoms: S1_7  and  O1_8 
REMARK    3  A    between atoms: S1_7  and  N3_12 
REMARK    4  A    between atoms: C7_16  and  C8_17 
REMARK       I    between atoms: C8_17  and  N4_19 
REMARK    5  A    between atoms: N4_19  and  C9_21 
REMARK    6  A    between atoms: C9_21  and  C12_24 
REMARK    7  A    between atoms: C12_24  and  O4_26 
REMARK    8  A    between atoms: O4_26  and  C13_27 
ROOT
HETATM    1  C8  UNL     1       0.965  -0.776  -0.271  1.00  0.00     0.224 C 
HETATM    2  O2  UNL     1       0.656   0.433  -0.529  1.00  0.00    -0.273 OA
HETATM    3  N4  UNL     1       0.059  -1.530   0.546  1.00  0.00    -0.343 N 
ATOM      4  H4  UNL     1       0.303  -2.497   0.759  1.00  0.00     0.163 HD
ENDROOT
BRANCH   1   5
HETATM    5  C7  UNL     1       2.219  -1.371  -0.803  1.00  0.00     0.092 C 
HETATM    6  C6  UNL     1       2.921  -0.300  -1.612  1.00  0.00     0.016 C 
HETATM    7  C5  UNL     1       4.173  -0.862  -2.228  1.00  0.00     0.016 C 
HETATM    8  C4  UNL     1       4.820  -1.773  -1.215  1.00  0.00     0.107 C 
HETATM    9  N3  UNL     1       4.447  -1.296   0.101  1.00  0.00    -0.212 NA
HETATM   10  C23 UNL     1       3.076  -1.787   0.338  1.00  0.00     0.121 C 
BRANCH   9  11
HETATM   11  S1  UNL     1       5.648  -1.587   1.398  1.00  0.00     0.180 SA
HETATM   12  F1  UNL     1       6.485  -1.664   2.762  1.00  0.00    -0.122 F 
HETATM   13  F2  UNL     1       4.557  -0.322   2.356  1.00  0.00    -0.122 F 
BRANCH  11  14
HETATM   14  C3  UNL     1       7.056  -0.520   0.405  1.00  0.00     0.151 A 
HETATM   15  N2  UNL     1       8.084  -1.019  -0.228  1.00  0.00    -0.341 N 
HETATM   16  C2  UNL     1       8.813  -0.026  -0.758  1.00  0.00     0.183 A 
ATOM     17  H2  UNL     1       8.299  -2.013  -0.307  1.00  0.00     0.167 HD
HETATM   18  N1  UNL     1       8.210   1.111  -0.439  1.00  0.00    -0.354 N 
HETATM   19  C1  UNL     1       8.602   2.453  -0.774  1.00  0.00     0.156 C 
HETATM   20  C24 UNL     1       7.092   0.826   0.299  1.00  0.00     0.134 A 
ENDBRANCH  11  14
BRANCH  11  21
HETATM   21  O1  UNL     1       5.493  -3.164   1.234  1.00  0.00    -0.296 OA
ATOM     22  H1  UNL     1       4.833  -3.664   1.699  1.00  0.00     0.231 HD
ENDBRANCH  11  21
ENDBRANCH   9  11
ENDBRANCH   1   5
BRANCH   3  23
HETATM   23  C9  UNL     1      -1.162  -1.017   1.081  1.00  0.00     0.113 C 
HETATM   24  C10 UNL     1      -1.784  -2.118   1.931  1.00  0.00     0.049 C 
HETATM   25  C11 UNL     1      -0.988   0.200   1.961  1.00  0.00     0.049 C 
BRANCH  23  26
HETATM   26  C12 UNL     1      -2.138  -0.617   0.003  1.00  0.00     0.287 C 
HETATM   27  O3  UNL     1      -1.812  -0.798  -1.188  1.00  0.00    -0.262 OA
BRANCH  26  28
HETATM   28  O4  UNL     1      -3.370  -0.064   0.282  1.00  0.00    -0.313 OA
BRANCH  28  29
HETATM   29  C13 UNL     1      -4.303   0.319  -0.707  1.00  0.00     0.140 C 
HETATM   30  C14 UNL     1      -4.543   1.805  -0.529  1.00  0.00     0.016 C 
HETATM   31  C15 UNL     1      -4.996   2.052   0.909  1.00  0.00     0.012 C 
HETATM   32  C19 UNL     1      -5.653   2.314  -1.425  1.00  0.00     0.012 C 
HETATM   33  C16 UNL     1      -6.266   1.288   1.196  1.00  0.00    -0.013 C 
HETATM   34  C17 UNL     1      -7.344   1.797   0.282  1.00  0.00     0.009 C 
HETATM   35  C22 UNL     1      -6.066  -0.178   0.968  1.00  0.00     0.012 C 
HETATM   36  C18 UNL     1      -6.927   1.540  -1.137  1.00  0.00    -0.013 C 
HETATM   37  C20 UNL     1      -6.645   0.086  -1.396  1.00  0.00     0.012 C 
HETATM   38  C21 UNL     1      -5.583  -0.411  -0.461  1.00  0.00     0.016 C 
ENDBRANCH  28  29
ENDBRANCH  26  28
ENDBRANCH  23  26
ENDBRANCH   3  23
TORSDOF 8
