REMARK  9 active torsions:
REMARK  status: ('A' for Active; 'I' for Inactive)
REMARK    1  A    between atoms: N1_2  and  C2_3 
REMARK    2  A    between atoms: N1_2  and  C17_29 
REMARK    3  A    between atoms: C2_3  and  C3_4 
REMARK    4  A    between atoms: N2_6  and  C5_7 
REMARK    5  A    between atoms: C5_7  and  C6_8 
REMARK    6  A    between atoms: C9_11  and  C10_12 
REMARK    7  A    between atoms: C10_12  and  N3_13 
REMARK    8  A    between atoms: N3_13  and  C11_15 
REMARK    9  A    between atoms: C21_39  and  N12_40 
ROOT
HETATM    1  C3  UNL     1      -2.086   0.194   1.251  1.00  0.00     0.062 A 
HETATM    2  C4  UNL     1      -1.120  -0.056   2.204  1.00  0.00     0.140 A 
HETATM    3  N2  UNL     1      -0.494   1.105   2.437  1.00  0.00    -0.283 N 
HETATM    4  N7  UNL     1      -1.062   2.003   1.658  1.00  0.00    -0.240 N 
ATOM      5  H7  UNL     1      -0.789   2.985   1.622  1.00  0.00     0.208 HD
HETATM    6  N8  UNL     1      -2.018   1.481   0.938  1.00  0.00    -0.287 N 
ATOM      7  H8  UNL     1      -2.603   1.971   0.261  1.00  0.00     0.188 HD
ENDROOT
BRANCH   1   8
HETATM    8  C2  UNL     1      -3.027  -0.817   0.694  1.00  0.00     0.200 C 
BRANCH   8   9
HETATM    9  N1  UNL     1      -3.706  -0.210  -0.431  1.00  0.00    -0.216 N 
HETATM   10  C1  UNL     1      -2.883   0.229  -1.545  1.00  0.00     0.169 C 
BRANCH   9  11
HETATM   11  C17 UNL     1      -5.112  -0.066  -0.420  1.00  0.00     0.683 A 
HETATM   12  N9  UNL     1      -5.654   1.090   0.059  1.00  0.00    -0.178 N 
HETATM   13  C18 UNL     1      -7.012   1.244   0.076  1.00  0.00     0.151 A 
ATOM     14  H9  UNL     1      -5.049   1.836   0.403  1.00  0.00     0.185 HD
HETATM   15  N10 UNL     1      -7.566   2.455   0.577  1.00  0.00    -0.081 NA
HETATM   16  C19 UNL     1      -7.831   0.239  -0.389  1.00  0.00     0.119 A 
HETATM   17  C20 UNL     1      -9.195   0.382  -0.378  1.00  0.00     0.277 A 
HETATM   18  C22 UNL     1      -7.251  -0.914  -0.865  1.00  0.00     0.155 A 
HETATM   19  O1  UNL     1      -9.756   1.433   0.055  1.00  0.00    -0.267 OA
HETATM   20  N11 UNL     1      -9.940  -0.650  -0.852  1.00  0.00    -0.155 N 
HETATM   21  C21 UNL     1      -9.390  -1.784  -1.321  1.00  0.00     0.680 A 
ATOM     22  H11 UNL     1     -10.956  -0.561  -0.852  1.00  0.00     0.187 HD
HETATM   23  N13 UNL     1      -8.044  -1.898  -1.320  1.00  0.00    -0.175 N 
ATOM     24  H13 UNL     1      -7.618  -2.755  -1.674  1.00  0.00     0.186 HD
HETATM   25  N14 UNL     1      -5.894  -1.062  -0.879  1.00  0.00    -0.175 N 
ATOM     26  H14 UNL     1      -5.475  -1.921  -1.235  1.00  0.00     0.186 HD
BRANCH  21  27
HETATM   27  N12 UNL     1     -10.071  -2.779  -1.776  1.00  0.00    -0.234 N 
ATOM     28 2H12 UNL     1     -11.087  -2.693  -1.777  1.00  0.00     0.174 HD
ATOM     29 1H12 UNL     1      -9.654  -3.639  -2.132  1.00  0.00     0.174 HD
ENDBRANCH  21  27
ENDBRANCH   9  11
ENDBRANCH   8   9
ENDBRANCH   1   8
BRANCH   3  30
HETATM   30  C5  UNL     1       0.596   1.312   3.363  1.00  0.00     0.188 C 
BRANCH  30  31
HETATM   31  C6  UNL     1       1.920   1.100   2.679  1.00  0.00    -0.038 A 
HETATM   32  C7  UNL     1       2.570   2.147   2.059  1.00  0.00     0.009 A 
HETATM   33  C8  UNL     1       3.781   1.953   1.429  1.00  0.00     0.009 A 
HETATM   34  C9  UNL     1       4.398   0.718   1.385  1.00  0.00    -0.041 A 
HETATM   35  C15 UNL     1       3.748  -0.327   2.005  1.00  0.00     0.009 A 
HETATM   36  C16 UNL     1       2.533  -0.133   2.637  1.00  0.00     0.009 A 
BRANCH  34  37
HETATM   37  C10 UNL     1       5.711   0.549   0.688  1.00  0.00     0.159 C 
BRANCH  37  38
HETATM   38  N3  UNL     1       5.543   0.222  -0.693  1.00  0.00    -0.373 N 
ATOM     39  H3  UNL     1       4.587   0.130  -1.036  1.00  0.00     0.161 HD
BRANCH  38  40
HETATM   40  C11 UNL     1       6.584   0.015  -1.626  1.00  0.00     0.116 C 
HETATM   41  N4  UNL     1       6.635   0.727  -2.727  1.00  0.00    -0.275 N 
HETATM   42  N5  UNL     1       7.740   0.349  -3.485  1.00  0.00    -0.029 NA
ATOM     43  H4  UNL     1       5.965   1.450  -2.989  1.00  0.00     0.185 HD
HETATM   44  N6  UNL     1       8.633  -0.288  -2.603  1.00  0.00    -0.109 NA
HETATM   45  C12 UNL     1       7.725  -0.892  -1.665  1.00  0.00     0.100 C 
HETATM   46  C13 UNL     1       8.376  -1.151  -0.327  1.00  0.00     0.043 C 
HETATM   47  C14 UNL     1       7.360  -2.262  -2.231  1.00  0.00     0.043 C 
ENDBRANCH  38  40
ENDBRANCH  37  38
ENDBRANCH  34  37
ENDBRANCH  30  31
ENDBRANCH   3  30
TORSDOF 9
