REMARK  12 active torsions:
REMARK  status: ('A' for Active; 'I' for Inactive)
REMARK    1  A    between atoms: N1_1  and  C1_4 
REMARK    2  A    between atoms: C4_14  and  C5_15 
REMARK    3  A    between atoms: C5_15  and  N5_16 
REMARK    4  A    between atoms: C5_15  and  C11_33 
REMARK    5  A    between atoms: N5_16  and  C6_18 
REMARK    6  A    between atoms: C6_18  and  C7_19 
REMARK    7  A    between atoms: C6_18  and  C10_25 
REMARK    8  A    between atoms: C10_25  and  O3_26 
REMARK    9  A    between atoms: C10_25  and  N7_28 
REMARK   10  A    between atoms: N7_28  and  N8_30 
REMARK   11  A    between atoms: C14_36  and  C15_37 
REMARK   12  A    between atoms: C19_41  and  N9_42 
ROOT
HETATM    1  C5  UNL     1      -0.544   0.201  -0.694  1.00  0.00     0.205 C 
ENDROOT
BRANCH   1   2
HETATM    2  C4  UNL     1      -1.004   1.614  -0.971  1.00  0.00     0.142 A 
HETATM    3  N4  UNL     1      -1.646   2.353  -0.053  1.00  0.00    -0.174 N 
HETATM    4  C3  UNL     1      -1.929   3.544  -0.561  1.00  0.00     0.724 A 
ATOM      5  H4  UNL     1      -1.880   2.045   0.891  1.00  0.00     0.185 HD
HETATM    6  N3  UNL     1      -2.557   4.627  -0.043  1.00  0.00    -0.138 N 
HETATM    7  N11 UNL     1      -1.453   3.546  -1.825  1.00  0.00     0.091 N 
HETATM    8  C2  UNL     1      -2.720   5.729  -0.777  1.00  0.00     0.352 A 
ATOM      9  H3  UNL     1      -2.907   4.600   0.915  1.00  0.00     0.189 HD
HETATM   10  N2  UNL     1      -2.259   5.756  -2.028  1.00  0.00    -0.139 N 
HETATM   11  O1  UNL     1      -3.304   6.754  -0.315  1.00  0.00    -0.246 OA
HETATM   12  C1  UNL     1      -1.638   4.675  -2.530  1.00  0.00     0.716 A 
ATOM     13  H2  UNL     1      -2.377   6.592  -2.600  1.00  0.00     0.189 HD
HETATM   14  N10 UNL     1      -0.890   2.358  -2.060  1.00  0.00    -0.250 N 
ATOM     15  H10 UNL     1      -0.446   2.072  -2.933  1.00  0.00     0.190 HD
BRANCH  12  16
HETATM   16  N1  UNL     1      -1.202   4.716  -3.729  1.00  0.00    -0.232 N 
ATOM     17  H12 UNL     1      -1.342   5.573  -4.264  1.00  0.00     0.174 HD
ATOM     18  H11 UNL     1      -0.731   3.896  -4.110  1.00  0.00     0.174 HD
ENDBRANCH  12  16
ENDBRANCH   1   2
BRANCH   1  19
HETATM   19  N5  UNL     1      -1.636  -0.439  -0.051  1.00  0.00    -0.391 N 
ATOM     20  H5  UNL     1      -2.520   0.049   0.092  1.00  0.00     0.155 HD
BRANCH  19  21
HETATM   21  C6  UNL     1      -1.461  -1.782   0.388  1.00  0.00     0.203 C 
BRANCH  21  22
HETATM   22  C7  UNL     1      -2.601  -2.087   1.292  1.00  0.00     0.141 C 
HETATM   23  N6  UNL     1      -2.572  -2.740   2.413  1.00  0.00    -0.370 N 
HETATM   24  C8  UNL     1      -3.876  -2.838   3.014  1.00  0.00     0.148 C 
ATOM     25  H6  UNL     1      -1.725  -3.137   2.820  1.00  0.00     0.161 HD
HETATM   26  C9  UNL     1      -4.693  -1.875   2.198  1.00  0.00     0.197 C 
HETATM   27  O2  UNL     1      -3.904  -1.695   1.042  1.00  0.00    -0.336 OA
ENDBRANCH  21  22
BRANCH  21  28
HETATM   28  C10 UNL     1      -1.341  -2.831  -0.664  1.00  0.00     0.262 C 
BRANCH  28  29
HETATM   29  O3  UNL     1      -0.235  -2.596  -1.504  1.00  0.00    -0.373 OA
ATOM     30  H3  UNL     1      -0.159  -3.265  -2.175  1.00  0.00     0.212 HD
ENDBRANCH  28  29
BRANCH  28  31
HETATM   31  N7  UNL     1      -2.495  -3.192  -1.394  1.00  0.00    -0.312 N 
ATOM     32  H7  UNL     1      -2.613  -2.921  -2.370  1.00  0.00     0.182 HD
BRANCH  31  33
HETATM   33  N8  UNL     1      -3.460  -3.931  -0.727  1.00  0.00    -0.347 N 
ATOM     34  H82 UNL     1      -3.327  -4.195   0.249  1.00  0.00     0.176 HD
ATOM     35  H81 UNL     1      -4.293  -4.192  -1.254  1.00  0.00     0.176 HD
ENDBRANCH  31  33
ENDBRANCH  28  31
ENDBRANCH  21  28
ENDBRANCH  19  21
ENDBRANCH   1  19
BRANCH   1  36
HETATM   36  C11 UNL     1       0.691   0.232   0.127  1.00  0.00     0.083 A 
HETATM   37  C12 UNL     1       0.734   0.563   1.466  1.00  0.00     0.038 A 
HETATM   38  C13 UNL     1       2.068   0.478   1.881  1.00  0.00     0.040 A 
HETATM   39  C14 UNL     1       2.749   0.096   0.749  1.00  0.00     0.086 A 
HETATM   40  O6  UNL     1       1.924  -0.038  -0.249  1.00  0.00    -0.312 OA
BRANCH  39  41
HETATM   41  C15 UNL     1       4.206  -0.120   0.713  1.00  0.00     0.000 A 
HETATM   42  C16 UNL     1       4.982   0.055   1.838  1.00  0.00     0.014 A 
HETATM   43  C17 UNL     1       6.343  -0.137   1.845  1.00  0.00     0.003 A 
HETATM   44  C18 UNL     1       6.961  -0.521   0.679  1.00  0.00     0.036 A 
HETATM   45  C19 UNL     1       6.205  -0.706  -0.473  1.00  0.00     0.103 A 
HETATM   46  C20 UNL     1       4.841  -0.506  -0.449  1.00  0.00     0.050 A 
BRANCH  45  47
HETATM   47  N9  UNL     1       6.835  -1.106  -1.694  1.00  0.00    -0.116 N 
HETATM   48  O4  UNL     1       8.064  -1.279  -1.683  1.00  0.00    -0.532 OA
HETATM   49  O5  UNL     1       6.072  -1.285  -2.824  1.00  0.00    -0.532 OA
ENDBRANCH  45  47
ENDBRANCH  39  41
ENDBRANCH   1  36
TORSDOF 12
