REMARK  12 active torsions:
REMARK  status: ('A' for Active; 'I' for Inactive)
REMARK    1  A    between atoms: S1_2  and  C2_3 
REMARK    2  A    between atoms: C4_8  and  N3_9 
REMARK    3  A    between atoms: N3_9  and  C5_11 
REMARK    4  A    between atoms: C5_11  and  C6_12 
REMARK    5  A    between atoms: C6_12  and  N4_13 
REMARK    6  A    between atoms: C9_21  and  N5_22 
REMARK    7  A    between atoms: N6_24  and  C10_26 
REMARK    8  A    between atoms: C12_28  and  S2_29 
REMARK    9  A    between atoms: S2_29  and  N7_30 
REMARK   10  A    between atoms: C13_35  and  O5_36 
REMARK   11  A    between atoms: C14_38  and  O6_39 
REMARK   12  A    between atoms: C15_41  and  N8_42 
ROOT
HETATM    1  N5  UNL     1      -0.901  -0.573  -0.063  1.00  0.00    -0.294 N 
ATOM      2  H5  UNL     1      -1.424  -1.442  -0.175  1.00  0.00     0.187 HD
HETATM    3  N6  UNL     1      -1.504   0.544  -0.076  1.00  0.00    -0.298 N 
ATOM      4  H6  UNL     1      -0.955   1.396   0.039  1.00  0.00     0.187 HD
ENDROOT
BRANCH   1   5
HETATM    5  C9  UNL     1       0.508  -0.602   0.109  1.00  0.00     0.136 C 
HETATM    6  C2  UNL     1       0.918  -0.647   1.431  1.00  0.00     0.103 C 
HETATM    7  N1  UNL     1       2.124  -0.253   1.899  1.00  0.00    -0.335 N 
HETATM    8  C3  UNL     1       3.303  -0.141   1.235  1.00  0.00     0.148 C 
ATOM      9  H1  UNL     1       2.152  -0.006   2.888  1.00  0.00     0.168 HD
HETATM   10  N2  UNL     1       4.401   0.438   1.933  1.00  0.00    -0.080 NA
HETATM   11  C4  UNL     1       3.612  -0.515  -0.057  1.00  0.00     0.124 C 
HETATM   12  C7  UNL     1       2.691  -0.607  -1.101  1.00  0.00     0.253 C 
HETATM   13  O1  UNL     1       3.165  -0.728  -2.256  1.00  0.00    -0.281 OA
HETATM   14  C8  UNL     1       1.308  -0.582  -1.041  1.00  0.00     0.254 C 
HETATM   15  O2  UNL     1       0.660  -0.537  -2.115  1.00  0.00    -0.281 OA
BRANCH   6  16
HETATM   16  S1  UNL     1      -0.251  -1.287   2.623  1.00  0.00    -0.114 SA
HETATM   17  C1  UNL     1      -1.301  -0.016   3.328  1.00  0.00     0.097 C 
ENDBRANCH   6  16
BRANCH  11  18
HETATM   18  N3  UNL     1       4.964  -0.834  -0.360  1.00  0.00    -0.382 N 
ATOM     19  H3  UNL     1       5.260  -1.804  -0.251  1.00  0.00     0.160 HD
BRANCH  18  20
HETATM   20  C5  UNL     1       5.933   0.112  -0.806  1.00  0.00     0.147 C 
BRANCH  20  21
HETATM   21  C6  UNL     1       7.264  -0.572  -1.036  1.00  0.00     0.249 C 
BRANCH  21  22
HETATM   22  N4  UNL     1       8.287   0.336  -1.487  1.00  0.00    -0.078 N 
ATOM     23  H43 UNL     1       7.986   0.840  -2.321  1.00  0.00     0.274 HD
ATOM     24  H42 UNL     1       8.386   1.122  -0.845  1.00  0.00     0.274 HD
ATOM     25  H41 UNL     1       9.184  -0.125  -1.642  1.00  0.00     0.274 HD
ENDBRANCH  21  22
ENDBRANCH  20  21
ENDBRANCH  18  20
ENDBRANCH  11  18
ENDBRANCH   1   5
BRANCH   3  26
HETATM   26  C10 UNL     1      -2.901   0.659  -0.243  1.00  0.00     0.085 A 
HETATM   27  C11 UNL     1      -3.708  -0.452  -0.242  1.00  0.00     0.062 A 
HETATM   28  C12 UNL     1      -5.076  -0.325  -0.406  1.00  0.00     0.117 A 
HETATM   29  C13 UNL     1      -5.651   0.919  -0.574  1.00  0.00     0.125 A 
HETATM   30  C14 UNL     1      -4.818   2.026  -0.571  1.00  0.00     0.136 A 
HETATM   31  C15 UNL     1      -3.444   1.931  -0.408  1.00  0.00     0.166 A 
BRANCH  28  32
HETATM   32  S2  UNL     1      -6.119  -1.718  -0.411  1.00  0.00     0.259 S 
HETATM   33  O3  UNL     1      -7.143  -1.613   0.709  1.00  0.00    -0.201 OA
HETATM   34  O4  UNL     1      -5.348  -2.988  -0.214  1.00  0.00    -0.201 OA
BRANCH  32  35
HETATM   35  N7  UNL     1      -6.945  -1.814  -1.914  1.00  0.00    -0.324 N 
ATOM     36  H72 UNL     1      -6.831  -1.148  -2.678  1.00  0.00     0.169 HD
ATOM     37  H71 UNL     1      -7.556  -2.630  -1.917  1.00  0.00     0.169 HD
ENDBRANCH  32  35
ENDBRANCH  28  32
BRANCH  29  38
HETATM   38  O5  UNL     1      -7.025   1.023  -0.737  1.00  0.00    -0.356 OA
ATOM     39  H5  UNL     1      -7.421   1.879  -0.853  1.00  0.00     0.218 HD
ENDBRANCH  29  38
BRANCH  30  40
HETATM   40  O6  UNL     1      -5.414   3.257  -0.739  1.00  0.00    -0.356 OA
ATOM     41  H6  UNL     1      -4.843   4.016  -0.737  1.00  0.00     0.218 HD
ENDBRANCH  30  40
BRANCH  31  42
HETATM   42  N8  UNL     1      -2.594   3.056  -0.405  1.00  0.00    -0.110 N 
HETATM   43  O7  UNL     1      -2.098   3.443   0.658  1.00  0.00    -0.532 OA
HETATM   44  O8  UNL     1      -2.313   3.720  -1.560  1.00  0.00    -0.532 OA
ENDBRANCH  31  42
ENDBRANCH   3  26
TORSDOF 12
