REMARK  12 active torsions:
REMARK  status: ('A' for Active; 'I' for Inactive)
REMARK    1  A    between atoms: N2_8  and  C5_10 
REMARK    2  A    between atoms: C5_10  and  C6_11 
REMARK    3  A    between atoms: N3_14  and  C8_16 
REMARK    4  A    between atoms: C8_16  and  C9_17 
REMARK    5  A    between atoms: C9_17  and  N4_18 
REMARK    6  A    between atoms: C9_17  and  C10_22 
REMARK    7  A    between atoms: C12_30  and  C13_31 
REMARK    8  A    between atoms: C13_31  and  C15_33 
REMARK    9  A    between atoms: C13_31  and  C16_36 
REMARK   10  A    between atoms: C15_33  and  O6_34 
REMARK   11  A    between atoms: C16_36  and  O7_37 
REMARK   12  A    between atoms: C17_39  and  O8_40 
ROOT
HETATM    1  C1  UNL     1      -4.760  -1.087  -3.686  1.00  0.00     0.160 C 
HETATM    2  N1  UNL     1      -3.349  -1.092  -3.183  1.00  0.00    -0.309 N 
HETATM    3  C2  UNL     1      -2.428  -1.633  -3.982  1.00  0.00     0.291 A 
HETATM    4  O1  UNL     1      -2.550  -2.060  -5.171  1.00  0.00    -0.259 OA
HETATM    5  S1  UNL     1      -1.041  -1.598  -3.005  1.00  0.00    -0.022 SA
HETATM    6  C3  UNL     1      -1.709  -0.887  -1.616  1.00  0.00     0.090 A 
HETATM    7  C4  UNL     1      -1.209  -0.550  -0.364  1.00  0.00     0.164 A 
HETATM    8  N2  UNL     1       0.022  -0.758  -0.081  1.00  0.00    -0.363 N 
ATOM      9  H2  UNL     1       0.618  -1.149  -0.811  1.00  0.00     0.162 HD
HETATM   10  O5  UNL     1      -2.016  -0.009   0.539  1.00  0.00    -0.293 OA
HETATM   11  C12 UNL     1      -3.281   0.209   0.255  1.00  0.00     0.103 A 
HETATM   12  C17 UNL     1      -3.831  -0.122  -0.980  1.00  0.00     0.125 A 
HETATM   13  C18 UNL     1      -3.018  -0.700  -1.978  1.00  0.00     0.095 A 
ENDROOT
BRANCH   8  14
HETATM   14  C5  UNL     1       0.613  -0.483   1.174  1.00  0.00     0.190 C 
BRANCH  14  15
HETATM   15  C6  UNL     1       2.095  -0.605   1.138  1.00  0.00     0.108 A 
HETATM   16  O2  UNL     1       3.017   0.165   0.633  1.00  0.00    -0.279 OA
HETATM   17  C7  UNL     1       4.241  -0.308   0.873  1.00  0.00     0.229 A 
HETATM   18  N3  UNL     1       5.359   0.127   0.601  1.00  0.00    -0.333 N 
HETATM   19  N5  UNL     1       4.065  -1.492   1.582  1.00  0.00    -0.314 N 
ATOM     20  H3  UNL     1       6.068  -0.523   0.940  1.00  0.00     0.168 HD
HETATM   21  C11 UNL     1       2.773  -1.692   1.759  1.00  0.00     0.115 A 
ATOM     22  H5  UNL     1       4.812  -2.104   1.911  1.00  0.00     0.170 HD
HETATM   23  S2  UNL     1       1.946  -3.055   2.580  1.00  0.00    -0.030 SA
BRANCH  18  24
HETATM   24  C8  UNL     1       5.972   1.194  -0.006  1.00  0.00     0.108 C 
BRANCH  24  25
HETATM   25  C9  UNL     1       7.478   1.015  -0.137  1.00  0.00     0.321 C 
BRANCH  25  26
HETATM   26  N4  UNL     1       7.783  -0.120  -0.993  1.00  0.00    -0.061 N 
ATOM     27  H43 UNL     1       7.326  -0.973  -0.669  1.00  0.00     0.275 HD
ATOM     28  H42 UNL     1       7.330  -0.041  -1.903  1.00  0.00     0.275 HD
ATOM     29  H41 UNL     1       8.792  -0.240  -1.081  1.00  0.00     0.275 HD
ENDBRANCH  25  26
BRANCH  25  30
HETATM   30  C10 UNL     1       8.022   0.683   1.246  1.00  0.00     0.209 C 
HETATM   31  O3  UNL     1       7.844   1.563   2.165  1.00  0.00    -0.646 OA
HETATM   32  O4  UNL     1       8.656  -0.499   1.497  1.00  0.00    -0.646 OA
ENDBRANCH  25  30
ENDBRANCH  24  25
ENDBRANCH  18  24
ENDBRANCH  14  15
ENDBRANCH   8  14
BRANCH  11  33
HETATM   33  C13 UNL     1      -4.044   0.847   1.323  1.00  0.00     0.051 C 
HETATM   34  C14 UNL     1      -3.156   0.970   2.561  1.00  0.00     0.027 C 
BRANCH  33  35
HETATM   35  C15 UNL     1      -5.391   0.502   1.677  1.00  0.00     0.182 C 
BRANCH  35  36
HETATM   36  O6  UNL     1      -5.708  -0.783   2.071  1.00  0.00    -0.400 OA
ATOM     37  H6  UNL     1      -6.600  -1.011   2.305  1.00  0.00     0.209 HD
ENDBRANCH  35  36
ENDBRANCH  33  35
BRANCH  33  38
HETATM   38  C16 UNL     1      -4.121   2.387   0.922  1.00  0.00     0.182 C 
BRANCH  38  39
HETATM   39  O7  UNL     1      -4.733   2.585  -0.265  1.00  0.00    -0.400 OA
ATOM     40  H7  UNL     1      -4.779   3.503  -0.504  1.00  0.00     0.209 HD
ENDBRANCH  38  39
ENDBRANCH  33  38
ENDBRANCH  11  33
BRANCH  12  41
HETATM   41  O8  UNL     1      -5.136   0.123  -1.158  1.00  0.00    -0.356 OA
ATOM     42  H8  UNL     1      -5.511  -0.103  -2.001  1.00  0.00     0.218 HD
ENDBRANCH  12  41
TORSDOF 12
