REMARK  1 active torsions:
REMARK  status: ('A' for Active; 'I' for Inactive)
REMARK       I    between atoms: C1_2  and  N2_4 
REMARK    1  A    between atoms: C2_6  and  C3_8 
ROOT
HETATM    1  C3  UNL     1       0.827  -0.204  -0.483  1.00  0.00     0.157 A 
HETATM    2  N4  UNL     1       0.723   1.066  -0.202  1.00  0.00    -0.299 N 
ATOM      3  H4  UNL     1      -0.044   1.403   0.379  1.00  0.00     0.171 HD
HETATM    4  C4  UNL     1       1.619   1.910  -0.676  1.00  0.00     0.305 A 
HETATM    5  O2  UNL     1       1.644   3.175  -0.485  1.00  0.00    -0.258 OA
HETATM    6  S1  UNL     1       2.645   0.870  -1.552  1.00  0.00     0.049 SA
HETATM    7  N5  UNL     1       1.854  -0.586  -1.251  1.00  0.00    -0.305 N 
ATOM      8  H5  UNL     1       2.097  -1.523  -1.573  1.00  0.00     0.176 HD
ENDROOT
BRANCH   1   9
HETATM    9  C2  UNL     1      -0.166  -1.186   0.035  1.00  0.00     0.165 C 
HETATM   10  N2  UNL     1      -1.155  -0.833   0.772  1.00  0.00    -0.296 N 
HETATM   11  C1  UNL     1      -1.461   0.478   1.199  1.00  0.00     0.334 C 
ATOM     12  H2  UNL     1      -1.784  -1.574   1.081  1.00  0.00     0.171 HD
HETATM   13  N1  UNL     1      -2.331   1.336   0.440  1.00  0.00    -0.040 NA
HETATM   14  O1  UNL     1      -0.979   0.951   2.271  1.00  0.00    -0.251 OA
HETATM   15  N3  UNL     1      -0.038  -2.561  -0.280  1.00  0.00    -0.078 NA
ENDBRANCH   1   9
TORSDOF 1
