REMARK  2 active torsions:
REMARK  status: ('A' for Active; 'I' for Inactive)
REMARK    1  A    between atoms: C1_2  and  C2_4 
REMARK    2  A    between atoms: N5_13  and  N6_14 
ROOT
HETATM    1  C2  UNL     1       1.528   0.398   0.227  1.00  0.00     0.190 A 
HETATM    2  N2  UNL     1       1.561   1.559   0.908  1.00  0.00    -0.280 N 
ATOM      3  H2  UNL     1       2.380   1.956   1.369  1.00  0.00     0.189 HD
HETATM    4  N3  UNL     1       0.368   2.093   0.880  1.00  0.00    -0.286 N 
ATOM      5  H3  UNL     1       0.094   2.975   1.312  1.00  0.00     0.188 HD
HETATM    6  C3  UNL     1      -0.425   1.278   0.186  1.00  0.00     0.115 A 
HETATM    7  N4  UNL     1       0.276   0.215  -0.232  1.00  0.00    -0.314 N 
HETATM    8  C4  UNL     1      -0.284  -0.859  -1.011  1.00  0.00     0.148 C 
HETATM    9  C5  UNL     1      -1.783  -0.883  -0.993  1.00  0.00     0.134 C 
HETATM   10  N5  UNL     1      -2.359  -0.062   0.056  1.00  0.00    -0.229 NA
HETATM   11  C6  UNL     1      -1.877   1.302  -0.210  1.00  0.00     0.191 C 
ENDROOT
BRANCH   1  12
HETATM   12  C1  UNL     1       2.688  -0.464   0.056  1.00  0.00     0.300 C 
HETATM   13  N1  UNL     1       3.928  -0.099   0.617  1.00  0.00    -0.054 NA
HETATM   14  O1  UNL     1       2.535  -1.521  -0.598  1.00  0.00    -0.268 OA
ENDBRANCH   1  12
BRANCH  10  15
HETATM   15  N6  UNL     1      -1.907  -0.435   1.318  1.00  0.00    -0.363 NA
ATOM     16  H62 UNL     1      -2.241  -1.381   1.502  1.00  0.00     0.171 HD
ATOM     17  H61 UNL     1      -2.312   0.142   2.055  1.00  0.00     0.171 HD
ENDBRANCH  10  15
TORSDOF 2
