REMARK  2 active torsions:
REMARK  status: ('A' for Active; 'I' for Inactive)
REMARK    1  A    between atoms: N1_1  and  C1_4 
REMARK    2  A    between atoms: C3_8  and  N3_9 
ROOT
HETATM    1  C1  UNL     1      -2.441  -0.825  -0.168  1.00  0.00     0.678 A 
HETATM    2  N2  UNL     1      -1.924  -0.348   0.974  1.00  0.00    -0.200 N 
ATOM      3  H2  UNL     1      -2.482  -0.344   1.828  1.00  0.00     0.183 HD
HETATM    4  C2  UNL     1      -0.675   0.122   0.985  1.00  0.00     0.143 A 
HETATM    5  C3  UNL     1       0.128   0.140  -0.152  1.00  0.00     0.138 A 
HETATM    6  C6  UNL     1      -0.449  -0.361  -1.303  1.00  0.00     0.289 A 
HETATM    7  O1  UNL     1       0.270  -0.353  -2.352  1.00  0.00    -0.265 OA
HETATM    8  N6  UNL     1      -1.706  -0.833  -1.310  1.00  0.00    -0.154 N 
ATOM      9  H6  UNL     1      -2.109  -1.198  -2.173  1.00  0.00     0.187 HD
ENDROOT
BRANCH   5  10
HETATM   10  N3  UNL     1       1.453   0.646  -0.111  1.00  0.00    -0.243 N 
HETATM   11  C4  UNL     1       2.502   0.290   0.624  1.00  0.00     0.133 A 
HETATM   12  C5  UNL     1       3.589   1.080   0.311  1.00  0.00     0.123 A 
HETATM   13  N4  UNL     1       3.138   1.923  -0.644  1.00  0.00    -0.294 N 
HETATM   14  N5  UNL     1       1.867   1.653  -0.883  1.00  0.00    -0.016 NA
ATOM     15  H4  UNL     1       3.688   2.648  -1.104  1.00  0.00     0.183 HD
ENDBRANCH   5  10
BRANCH   1  16
HETATM   16  N1  UNL     1      -3.661  -1.298  -0.233  1.00  0.00    -0.234 N 
ATOM     17  H12 UNL     1      -4.213  -1.292   0.625  1.00  0.00     0.174 HD
ATOM     18  H11 UNL     1      -4.054  -1.661  -1.101  1.00  0.00     0.174 HD
ENDBRANCH   1  16
TORSDOF 2
