REMARK  2 active torsions:
REMARK  status: ('A' for Active; 'I' for Inactive)
REMARK    1  A    between atoms: C3_6  and  N2_7 
REMARK    2  A    between atoms: N2_7  and  C4_9 
ROOT
HETATM    1  O1  UNL     1      -4.439   0.182   0.871  1.00  0.00    -0.245 OA
HETATM    2  C1  UNL     1      -3.282   0.337   0.376  1.00  0.00     0.338 A 
HETATM    3  N1  UNL     1      -3.105   1.106  -0.723  1.00  0.00    -0.314 N 
ATOM      4  H1  UNL     1      -3.894   1.572  -1.171  1.00  0.00     0.170 HD
HETATM    5  C2  UNL     1      -1.843   1.238  -1.211  1.00  0.00     0.143 A 
HETATM    6  C3  UNL     1      -0.787   0.604  -0.596  1.00  0.00     0.151 A 
HETATM    7  N6  UNL     1      -0.989  -0.152   0.492  1.00  0.00    -0.280 N 
ATOM      8  H6  UNL     1      -0.211  -0.624   0.953  1.00  0.00     0.188 HD
HETATM    9  N7  UNL     1      -2.221  -0.270   0.952  1.00  0.00    -0.250 N 
ATOM     10  H7  UNL     1      -2.379  -0.845   1.779  1.00  0.00     0.192 HD
ENDROOT
BRANCH   6  11
HETATM   11  N2  UNL     1       0.380   0.745  -1.073  1.00  0.00    -0.172 N 
ATOM     12  H2  UNL     1       0.480   1.331  -1.902  1.00  0.00     0.186 HD
BRANCH  11  13
HETATM   13  C4  UNL     1       1.551   0.157  -0.550  1.00  0.00     0.699 A 
HETATM   14  N3  UNL     1       2.293   0.512   0.513  1.00  0.00    -0.185 N 
HETATM   15  C5  UNL     1       3.330  -0.325   0.659  1.00  0.00     0.215 A 
ATOM     16  H3  UNL     1       2.095   1.306   1.122  1.00  0.00     0.185 HD
HETATM   17  N4  UNL     1       3.241  -1.229  -0.333  1.00  0.00    -0.281 N 
HETATM   18  N5  UNL     1       2.172  -0.934  -1.054  1.00  0.00    -0.131 N 
ATOM     19  H4  UNL     1       3.883  -2.004  -0.500  1.00  0.00     0.188 HD
ATOM     20  H5  UNL     1       1.860  -1.455  -1.874  1.00  0.00     0.205 HD
ENDBRANCH  11  13
ENDBRANCH   6  11
TORSDOF 2
