REMARK  3 active torsions:
REMARK  status: ('A' for Active; 'I' for Inactive)
REMARK    1  A    between atoms: N1_1  and  C1_4 
REMARK    2  A    between atoms: C2_7  and  N3_8 
REMARK    3  A    between atoms: N3_8  and  C3_10 
ROOT
HETATM    1  C1  UNL     1       0.294  -1.569   0.369  1.00  0.00     0.727 A 
HETATM    2  N2  UNL     1      -1.019  -1.286   0.301  1.00  0.00    -0.020 N 
ATOM      3  H2  UNL     1      -1.720  -2.007   0.473  1.00  0.00     0.203 HD
HETATM    4  C2  UNL     1      -1.383  -0.027  -0.000  1.00  0.00     0.713 A 
HETATM    5  N4  UNL     1      -0.431   0.898  -0.222  1.00  0.00    -0.019 N 
ATOM      6  H4  UNL     1      -0.709   1.852  -0.451  1.00  0.00     0.203 HD
HETATM    7  C4  UNL     1       0.889   0.594  -0.149  1.00  0.00     0.734 A 
HETATM    8  N5  UNL     1       2.015   1.310  -0.320  1.00  0.00    -0.184 N 
ATOM      9  H5  UNL     1       2.047   2.301  -0.558  1.00  0.00     0.185 HD
HETATM   10  C5  UNL     1       3.088   0.529  -0.132  1.00  0.00     0.216 A 
HETATM   11  N6  UNL     1       2.602  -0.697   0.161  1.00  0.00    -0.260 N 
ATOM     12  H6  UNL     1       3.167  -1.523   0.359  1.00  0.00     0.189 HD
HETATM   13  N7  UNL     1       1.266  -0.661   0.152  1.00  0.00     0.091 N 
ENDROOT
BRANCH   4  14
HETATM   14  N3  UNL     1      -2.648   0.223  -0.060  1.00  0.00    -0.166 N 
ATOM     15  H3  UNL     1      -3.321  -0.522   0.118  1.00  0.00     0.186 HD
BRANCH  14  16
HETATM   16  C3  UNL     1      -3.107   1.530  -0.373  1.00  0.00     0.368 C 
HETATM   17  O1  UNL     1      -3.118   2.476   0.454  1.00  0.00    -0.283 OA
ENDBRANCH  14  16
ENDBRANCH   4  14
BRANCH   1  18
HETATM   18  N1  UNL     1       0.677  -2.757   0.654  1.00  0.00    -0.232 N 
ATOM     19  H12 UNL     1      -0.059  -3.444   0.818  1.00  0.00     0.174 HD
ATOM     20  H11 UNL     1       1.673  -2.972   0.706  1.00  0.00     0.174 HD
ENDBRANCH   1  18
TORSDOF 3
