REMARK  1 active torsions:
REMARK  status: ('A' for Active; 'I' for Inactive)
REMARK    1  A    between atoms: C2_3  and  C3_4 
REMARK       I    between atoms: C3_4  and  N2_6 
ROOT
HETATM    1  N1  UNL     1      -5.127   0.539   0.625  1.00  0.00    -0.197 NA
HETATM    2  C1  UNL     1      -4.077   0.136   0.353  1.00  0.00     0.068 C 
HETATM    3  C2  UNL     1      -2.716  -0.371  -0.010  1.00  0.00     0.227 C 
ENDROOT
BRANCH   3   4
HETATM    4  C3  UNL     1      -1.704   0.548   0.504  1.00  0.00     0.252 C 
HETATM    5  O1  UNL     1      -2.125   1.595   1.127  1.00  0.00    -0.271 OA
HETATM    6  N2  UNL     1      -0.309   0.377   0.370  1.00  0.00    -0.134 N 
HETATM    7  C4  UNL     1       0.555   1.409   0.944  1.00  0.00     0.276 A 
HETATM    8  C6  UNL     1       0.199  -0.751  -0.292  1.00  0.00     0.684 A 
HETATM    9  N3  UNL     1       1.929   1.125   0.739  1.00  0.00    -0.347 N 
HETATM   10  C5  UNL     1       2.425   0.118   0.146  1.00  0.00     0.204 A 
ATOM     11  H3  UNL     1       2.593   1.805   1.109  1.00  0.00     0.163 HD
HETATM   12  N4  UNL     1       3.841   0.030   0.052  1.00  0.00    -0.063 NA
HETATM   13  N5  UNL     1       1.632  -0.894  -0.414  1.00  0.00    -0.164 N 
ATOM     14  H5  UNL     1       2.048  -1.696  -0.887  1.00  0.00     0.187 HD
HETATM   15  N6  UNL     1      -0.516  -1.687  -0.807  1.00  0.00    -0.234 N 
ATOM     16  H62 UNL     1      -1.527  -1.586  -0.721  1.00  0.00     0.174 HD
ATOM     17  H61 UNL     1      -0.147  -2.507  -1.288  1.00  0.00     0.174 HD
ENDBRANCH   3   4
TORSDOF 1
