REMARK  8 active torsions:
REMARK  status: ('A' for Active; 'I' for Inactive)
REMARK    1  A    between atoms: C9_9  and  C10_10 
REMARK    2  A    between atoms: C10_10  and  C11_11 
REMARK    3  A    between atoms: C11_11  and  C12_12 
REMARK    4  A    between atoms: C12_12  and  C13_13 
REMARK    5  A    between atoms: C14_14  and  O1_15 
REMARK    6  A    between atoms: C15_17  and  O2_18 
REMARK    7  A    between atoms: C15_17  and  N1_20 
REMARK    8  A    between atoms: C20_25  and  C21_26 
ROOT
HETATM    1  C12 UNL     1       0.986  -1.661   0.782  1.00  0.00    -0.006 C 
HETATM    2  C15 UNL     1       1.863  -0.585   0.687  1.00  0.00     0.145 C 
ENDROOT
BRANCH   1   3
HETATM    3  C11 UNL     1      -0.433  -1.235   1.348  1.00  0.00     0.044 C 
BRANCH   3   4
HETATM    4  C10 UNL     1      -1.005  -0.245   0.390  1.00  0.00     0.016 C 
BRANCH   4   5
HETATM    5  C9  UNL     1      -2.374   0.271   0.830  1.00  0.00     0.040 C 
HETATM    6  C7  UNL     1      -2.953   1.290  -0.088  1.00  0.00    -0.028 C 
HETATM    7  C2  UNL     1      -4.468   1.105   0.151  1.00  0.00    -0.031 C 
HETATM    8  C6  UNL     1      -2.910   0.788  -1.501  1.00  0.00     0.011 C 
HETATM    9  C8  UNL     1      -2.509   2.675   0.112  1.00  0.00     0.016 C 
HETATM   10  C1  UNL     1      -4.844   1.394   1.557  1.00  0.00     0.016 C 
HETATM   11  C3  UNL     1      -5.303   1.880  -0.802  1.00  0.00     0.016 C 
HETATM   12  C4  UNL     1      -4.452  -0.398  -0.154  1.00  0.00     0.040 C 
HETATM   13  C5  UNL     1      -3.851  -0.419  -1.513  1.00  0.00     0.012 C 
HETATM   14  C23 UNL     1      -3.404  -0.801   0.839  1.00  0.00    -0.010 C 
HETATM   15  N2  UNL     1      -3.509  -1.872   1.502  1.00  0.00    -0.405 N 
ATOM     16  H22 UNL     1      -4.216  -2.607   1.508  1.00  0.00     0.155 HD
ATOM     17  H21 UNL     1      -2.796  -2.146   2.178  1.00  0.00     0.155 HD
ENDBRANCH   4   5
ENDBRANCH   3   4
ENDBRANCH   1   3
BRANCH   1  18
HETATM   18  C13 UNL     1       0.955  -2.888   0.443  1.00  0.00     0.035 C 
HETATM   19  C14 UNL     1       1.777  -3.943  -0.103  1.00  0.00     0.132 C 
BRANCH  19  20
HETATM   20  O1  UNL     1       3.055  -3.817  -0.432  1.00  0.00    -0.373 OA
ATOM     21  H1  UNL     1       3.596  -4.511  -0.791  1.00  0.00     0.216 HD
ENDBRANCH  19  20
ENDBRANCH   1  18
BRANCH   2  22
HETATM   22  O2  UNL     1       1.417   0.476   1.436  1.00  0.00    -0.346 OA
ATOM     23  H2  UNL     1       2.016   1.211   1.371  1.00  0.00     0.219 HD
ENDBRANCH   2  22
BRANCH   2  24
HETATM   24  N1  UNL     1       3.055  -0.203   0.077  1.00  0.00    -0.351 N 
HETATM   25  C16 UNL     1       4.009  -0.636  -0.882  1.00  0.00     0.088 C 
HETATM   26  C17 UNL     1       4.222   0.605  -1.742  1.00  0.00     0.027 C 
HETATM   27  C22 UNL     1       5.249  -0.794  -0.014  1.00  0.00     0.042 C 
HETATM   28  C18 UNL     1       3.797   1.749  -0.849  1.00  0.00     0.028 C 
HETATM   29  C19 UNL     1       3.792   1.077   0.475  1.00  0.00     0.101 C 
HETATM   30  C20 UNL     1       5.129   0.516   0.782  1.00  0.00     0.111 C 
BRANCH  30  31
HETATM   31  C21 UNL     1       5.411   0.316   2.196  1.00  0.00     0.179 C 
HETATM   32  O3  UNL     1       5.671  -0.824   2.636  1.00  0.00    -0.648 OA
HETATM   33  O4  UNL     1       5.394   1.382   3.062  1.00  0.00    -0.648 OA
ENDBRANCH  30  31
ENDBRANCH   2  24
TORSDOF 8
