REMARK  3 active torsions:
REMARK  status: ('A' for Active; 'I' for Inactive)
REMARK    1  A    between atoms: N1_1  and  C1_4 
REMARK    2  A    between atoms: C3_8  and  S1_9 
REMARK    3  A    between atoms: S1_9  and  N3_10 
ROOT
HETATM    1  C1  UNL     1       2.356   0.250   0.173  1.00  0.00     0.675 A 
HETATM    2  N2  UNL     1       1.597   0.342   1.279  1.00  0.00    -0.201 N 
ATOM      3  H2  UNL     1       2.031   0.625   2.158  1.00  0.00     0.183 HD
HETATM    4  C2  UNL     1       0.268   0.067   1.255  1.00  0.00     0.132 A 
HETATM    5  C3  UNL     1      -0.365  -0.321   0.090  1.00  0.00     0.111 A 
HETATM    6  C4  UNL     1       0.429  -0.412  -1.039  1.00  0.00     0.132 A 
HETATM    7  N4  UNL     1       1.743  -0.128  -0.963  1.00  0.00    -0.201 N 
ATOM      8  H4  UNL     1       2.303  -0.204  -1.812  1.00  0.00     0.183 HD
ENDROOT
BRANCH   5   9
HETATM    9  S1  UNL     1      -2.067  -0.684   0.014  1.00  0.00     0.259 S 
HETATM   10  O1  UNL     1      -2.367  -1.702  -1.066  1.00  0.00    -0.201 OA
HETATM   11  O2  UNL     1      -2.580  -1.257   1.297  1.00  0.00    -0.201 OA
BRANCH   9  12
HETATM   12  N3  UNL     1      -3.005   0.720  -0.356  1.00  0.00    -0.324 N 
ATOM     13  H32 UNL     1      -2.597   1.642  -0.509  1.00  0.00     0.169 HD
ATOM     14  H31 UNL     1      -4.002   0.507  -0.401  1.00  0.00     0.169 HD
ENDBRANCH   9  12
ENDBRANCH   5   9
BRANCH   1  15
HETATM   15  N1  UNL     1       3.631   0.513   0.192  1.00  0.00    -0.234 N 
ATOM     16  H12 UNL     1       4.096   0.800   1.053  1.00  0.00     0.174 HD
ATOM     17  H11 UNL     1       4.207   0.443  -0.647  1.00  0.00     0.174 HD
ENDBRANCH   1  15
TORSDOF 3
