REMARK  2 active torsions:
REMARK  status: ('A' for Active; 'I' for Inactive)
REMARK    1  A    between atoms: C3_3  and  N1_4 
REMARK    2  A    between atoms: C7_10  and  N4_11 
ROOT
HETATM    1  C1  UNL     1       3.403   0.629  -1.328  1.00  0.00     0.014 C 
HETATM    2  C2  UNL     1       2.599   0.879  -0.463  1.00  0.00    -0.097 C 
HETATM    3  C3  UNL     1       1.621   1.210   0.596  1.00  0.00     0.227 C 
ENDROOT
BRANCH   3   4
HETATM    4  N1  UNL     1       0.553   0.237   0.575  1.00  0.00    -0.275 N 
HETATM    5  C4  UNL     1      -0.531   0.485  -0.209  1.00  0.00     0.147 A 
HETATM    6  N2  UNL     1      -0.597   1.664  -0.975  1.00  0.00    -0.081 NA
HETATM    7  C5  UNL     1      -1.562  -0.428  -0.246  1.00  0.00     0.129 A 
HETATM    8  C6  UNL     1      -2.703  -0.177  -1.065  1.00  0.00     0.106 C 
HETATM    9  C7  UNL     1      -1.429  -1.562   0.530  1.00  0.00     0.127 A 
HETATM   10  N3  UNL     1      -3.632   0.028  -1.721  1.00  0.00    -0.191 NA
HETATM   11  N5  UNL     1      -0.357  -1.782   1.290  1.00  0.00    -0.293 N 
HETATM   12  C8  UNL     1       0.635  -0.881   1.312  1.00  0.00     0.330 A 
ATOM     13  H5  UNL     1      -0.292  -2.631   1.852  1.00  0.00     0.172 HD
HETATM   14  O1  UNL     1       1.644  -1.074   2.018  1.00  0.00    -0.246 OA
BRANCH   9  15
HETATM   15  N4  UNL     1      -2.372  -2.413   0.506  1.00  0.00    -0.384 N 
ATOM     16  H42 UNL     1      -3.193  -2.245  -0.076  1.00  0.00     0.157 HD
ATOM     17  H41 UNL     1      -2.274  -3.251   1.079  1.00  0.00     0.157 HD
ENDBRANCH   9  15
ENDBRANCH   3   4
TORSDOF 2
