REMARK  10 active torsions:
REMARK  status: ('A' for Active; 'I' for Inactive)
REMARK    1  A    between atoms: O1_1  and  C1_3 
REMARK    2  A    between atoms: C1_3  and  C2_4 
REMARK    3  A    between atoms: C2_4  and  O2_5 
REMARK    4  A    between atoms: O2_5  and  C3_6 
REMARK    5  A    between atoms: C3_6  and  C4_7 
REMARK    6  A    between atoms: C5_8  and  C6_9 
REMARK    7  A    between atoms: C6_9  and  N1_10 
REMARK    8  A    between atoms: N1_10  and  C7_11 
REMARK    9  A    between atoms: C7_11  and  C8_12 
REMARK   10  A    between atoms: C8_12  and  O3_13 
ROOT
HETATM    1  N1  UNL     1      -1.306  -0.115  -0.579  1.00  0.00    -0.062 N 
HETATM    2  C9  UNL     1      -2.223   0.892  -0.938  1.00  0.00     0.238 C 
HETATM    3  C10 UNL     1      -2.965   1.618   0.119  1.00  0.00     0.028 C 
HETATM    4  C11 UNL     1      -3.295   0.862   1.361  1.00  0.00     0.003 C 
HETATM    5  C12 UNL     1      -2.365  -0.278   1.657  1.00  0.00     0.028 C 
HETATM    6  C13 UNL     1      -1.091  -0.227   0.869  1.00  0.00     0.238 C 
ENDROOT
BRANCH   1   7
HETATM    7  C6  UNL     1       0.021   0.338  -1.085  1.00  0.00     0.265 C 
BRANCH   7   8
HETATM    8  C5  UNL     1       0.502   1.573  -0.526  1.00  0.00    -0.001 C 
HETATM    9  C4  UNL     1       1.616   1.701   0.140  1.00  0.00    -0.003 C 
BRANCH   9  10
HETATM   10  C3  UNL     1       2.563   0.608   0.432  1.00  0.00     0.194 C 
BRANCH  10  11
HETATM   11  O2  UNL     1       3.816   0.907  -0.130  1.00  0.00    -0.385 OA
BRANCH  11  12
HETATM   12  C2  UNL     1       4.719  -0.095   0.105  1.00  0.00     0.194 C 
BRANCH  12  13
HETATM   13  C1  UNL     1       5.003  -0.395   1.542  1.00  0.00     0.190 C 
BRANCH  13  14
HETATM   14  O1  UNL     1       5.955  -1.448   1.536  1.00  0.00    -0.399 OA
ATOM     15  H1  UNL     1       6.135  -1.639   2.449  1.00  0.00     0.209 HD
ENDBRANCH  13  14
ENDBRANCH  12  13
ENDBRANCH  11  12
ENDBRANCH  10  11
ENDBRANCH   9  10
ENDBRANCH   7   8
ENDBRANCH   1   7
BRANCH   1  16
HETATM   16  C7  UNL     1      -1.458  -1.407  -1.157  1.00  0.00     0.263 C 
BRANCH  16  17
HETATM   17  C8  UNL     1      -2.674  -1.763  -1.895  1.00  0.00     0.192 C 
BRANCH  17  18
HETATM   18  O3  UNL     1      -3.847  -1.697  -1.149  1.00  0.00    -0.399 OA
ATOM     19  H3  UNL     1      -4.635  -1.928  -1.627  1.00  0.00     0.209 HD
ENDBRANCH  17  18
ENDBRANCH  16  17
ENDBRANCH   1  16
TORSDOF 10
