REMARK  9 active torsions:
REMARK  status: ('A' for Active; 'I' for Inactive)
REMARK    1  A    between atoms: N1_2  and  C2_5 
REMARK    2  A    between atoms: C2_5  and  C3_6 
REMARK    3  A    between atoms: C5_8  and  C6_9 
REMARK    4  A    between atoms: C6_9  and  C7_10 
REMARK    5  A    between atoms: C7_10  and  N2_11 
REMARK    6  A    between atoms: N2_11  and  C8_13 
REMARK    7  A    between atoms: C8_13  and  C9_15 
REMARK    8  A    between atoms: C9_15  and  C10_16 
REMARK    9  A    between atoms: C10_16  and  N3_17 
ROOT
HETATM    1  C7  UNL     1      -0.461   1.210  -0.784  1.00  0.00     0.120 C 
ENDROOT
BRANCH   1   2
HETATM    2  C6  UNL     1      -1.019   0.314   0.246  1.00  0.00     0.024 C 
BRANCH   2   3
HETATM    3  C5  UNL     1      -2.022  -0.704  -0.161  1.00  0.00    -0.007 A 
HETATM    4  C3  UNL     1      -3.287  -0.107  -0.744  1.00  0.00     0.016 A 
HETATM    5  C4  UNL     1      -2.443  -1.057  -1.512  1.00  0.00     0.011 A 
BRANCH   4   6
HETATM    6  C2  UNL     1      -4.628  -0.602  -0.309  1.00  0.00     0.236 C 
BRANCH   6   7
HETATM    7  N1  UNL     1      -5.292   0.475   0.429  1.00  0.00    -0.079 N 
HETATM    8  C1  UNL     1      -4.584   0.694   1.688  1.00  0.00     0.267 C 
ATOM      9  H12 UNL     1      -6.286   0.295   0.568  1.00  0.00     0.276 HD
ATOM     10  H11 UNL     1      -5.378   1.329  -0.122  1.00  0.00     0.276 HD
ENDBRANCH   6   7
ENDBRANCH   4   6
ENDBRANCH   2   3
ENDBRANCH   1   2
BRANCH   1  11
HETATM   11  N2  UNL     1       0.270   0.532  -1.797  1.00  0.00    -0.384 N 
ATOM     12  H2  UNL     1      -0.141   0.452  -2.727  1.00  0.00     0.160 HD
BRANCH  11  13
HETATM   13  C8  UNL     1       1.544  -0.036  -1.566  1.00  0.00     0.074 C 
HETATM   14  S1  UNL     1       2.334  -0.849  -2.775  1.00  0.00    -0.066 SA
BRANCH  13  15
HETATM   15  C9  UNL     1       2.177   0.084  -0.235  1.00  0.00     0.088 C 
BRANCH  15  16
HETATM   16  C10 UNL     1       3.687  -0.186  -0.483  1.00  0.00     0.122 C 
BRANCH  16  17
HETATM   17  N3  UNL     1       4.376  -0.047   0.746  1.00  0.00    -0.420 N 
HETATM   18  C11 UNL     1       4.108  -1.014   1.744  1.00  0.00     0.142 C 
HETATM   19  C12 UNL     1       5.746   0.336   0.593  1.00  0.00     0.142 C 
ENDBRANCH  16  17
ENDBRANCH  15  16
ENDBRANCH  13  15
ENDBRANCH  11  13
ENDBRANCH   1  11
TORSDOF 9
