REMARK  4 active torsions:
REMARK  status: ('A' for Active; 'I' for Inactive)
REMARK    1  A    between atoms: N2_4  and  N3_6 
REMARK       I    between atoms: N3_6  and  C1_8 
REMARK       I    between atoms: C1_8  and  N5_12 
REMARK    2  A    between atoms: N5_12  and  C2_14 
REMARK    3  A    between atoms: C4_23  and  C5_24 
REMARK    4  A    between atoms: C5_24  and  C6_25 
ROOT
HETATM    1  C2  UNL     1       2.280  -0.676  -0.553  1.00  0.00     0.156 A 
HETATM    2  N6  UNL     1       2.312  -1.155   0.680  1.00  0.00    -0.175 N 
ATOM      3  H6  UNL     1       3.138  -1.676   0.973  1.00  0.00     0.186 HD
HETATM    4  C3  UNL     1       1.317  -0.993   1.567  1.00  0.00     0.677 A 
HETATM    5  N7  UNL     1       1.342  -1.459   2.767  1.00  0.00    -0.234 N 
ATOM      6  H71 UNL     1       0.586  -1.336   3.441  1.00  0.00     0.174 HD
ATOM      7  H72 UNL     1       2.153  -1.985   3.092  1.00  0.00     0.174 HD
HETATM    8  N8  UNL     1       0.229  -0.288   1.131  1.00  0.00    -0.194 N 
ATOM      9  H8  UNL     1      -0.547  -0.144   1.777  1.00  0.00     0.184 HD
HETATM   10  C4  UNL     1       0.135   0.221  -0.100  1.00  0.00     0.051 A 
HETATM   11  C9  UNL     1       1.195   0.032  -1.000  1.00  0.00     0.080 A 
HETATM   12  S1  UNL     1       1.127   0.692  -2.672  1.00  0.00    -0.046 SA
ENDROOT
BRANCH   1  13
HETATM   13  N5  UNL     1       3.258  -0.831  -1.412  1.00  0.00    -0.174 N 
HETATM   14  C1  UNL     1       4.444  -1.529  -1.091  1.00  0.00     0.693 C 
HETATM   15  N3  UNL     1       5.512  -0.960  -0.353  1.00  0.00    -0.118 N 
HETATM   16  N4  UNL     1       4.554  -2.757  -1.498  1.00  0.00    -0.233 N 
ATOM     17  H3  UNL     1       6.203  -1.583   0.065  1.00  0.00     0.207 HD
ATOM     18  H42 UNL     1       5.410  -3.261  -1.266  1.00  0.00     0.174 HD
ATOM     19  H41 UNL     1       3.785  -3.166  -2.029  1.00  0.00     0.174 HD
ATOM     20  H5  UNL     1       3.159  -0.433  -2.346  1.00  0.00     0.186 HD
BRANCH  15  21
HETATM   21  N2  UNL     1       5.659   0.420  -0.174  1.00  0.00    -0.235 N 
HETATM   22  N1  UNL     1       5.644   0.933   1.000  1.00  0.00    -0.330 N 
ATOM     23  H12 UNL     1       5.523   0.315   1.802  1.00  0.00     0.178 HD
ATOM     24  H11 UNL     1       5.751   1.939   1.130  1.00  0.00     0.178 HD
ATOM     25  H2  UNL     1       5.779   1.024  -0.987  1.00  0.00     0.208 HD
ENDBRANCH  15  21
ENDBRANCH   1  13
BRANCH  10  26
HETATM   26  C5  UNL     1      -1.004   0.992  -0.620  1.00  0.00     0.106 C 
BRANCH  26  27
HETATM   27  C6  UNL     1      -2.169   1.128   0.317  1.00  0.00     0.192 A 
HETATM   28  N9  UNL     1      -2.779  -0.091   0.713  1.00  0.00    -0.343 N 
HETATM   29  C7  UNL     1      -4.026  -0.388   0.628  1.00  0.00     0.192 A 
ATOM     30  H9  UNL     1      -2.164  -0.804   1.105  1.00  0.00     0.164 HD
HETATM   31  N10 UNL     1      -4.414  -1.672   1.086  1.00  0.00    -0.063 NA
HETATM   32  N11 UNL     1      -4.983   0.533   0.098  1.00  0.00    -0.305 N 
HETATM   33  C8  UNL     1      -4.524   1.682  -0.290  1.00  0.00     0.192 A 
ATOM     34  H11 UNL     1      -5.973   0.299   0.029  1.00  0.00     0.171 HD
HETATM   35  N12 UNL     1      -5.428   2.666  -0.837  1.00  0.00    -0.063 NA
HETATM   36  N13 UNL     1      -3.163   2.041  -0.199  1.00  0.00    -0.343 N 
ATOM     37  H13 UNL     1      -2.873   2.970  -0.506  1.00  0.00     0.164 HD
ENDBRANCH  26  27
ENDBRANCH  10  26
TORSDOF 4
