REMARK  8 active torsions:
REMARK  status: ('A' for Active; 'I' for Inactive)
REMARK    1  A    between atoms: C3_3  and  O1_4 
REMARK       I    between atoms: N3_13  and  C6_15 
REMARK       I    between atoms: C6_15  and  N5_19 
REMARK       I    between atoms: N5_19  and  C7_21 
REMARK    2  A    between atoms: C7_21  and  C8_23 
REMARK    3  A    between atoms: C8_23  and  N6_24 
REMARK    4  A    between atoms: C8_23  and  C9_28 
REMARK    5  A    between atoms: C9_28  and  O4_29 
REMARK    6  A    between atoms: C9_28  and  C10_31 
REMARK    7  A    between atoms: C10_31  and  O5_32 
REMARK    8  A    between atoms: C10_31  and  C11_34 
ROOT
HETATM    1  C1  UNL     1       3.316  -1.329  -0.846  1.00  0.00     0.057 C 
HETATM    2  C2  UNL     1       3.610  -0.234   0.106  1.00  0.00     0.034 A 
HETATM    3  C3  UNL     1       4.863   0.383  -0.039  1.00  0.00     0.153 A 
HETATM    4  N1  UNL     1       5.147   1.378   0.810  1.00  0.00    -0.288 N 
ATOM      5  H1  UNL     1       6.047   1.854   0.742  1.00  0.00     0.172 HD
HETATM    6  C4  UNL     1       4.263   1.762   1.754  1.00  0.00     0.327 A 
HETATM    7  O2  UNL     1       4.579   2.718   2.542  1.00  0.00    -0.247 OA
HETATM    8  N2  UNL     1       3.082   1.182   1.893  1.00  0.00    -0.293 N 
ATOM      9  H2  UNL     1       2.447   1.506   2.623  1.00  0.00     0.172 HD
HETATM   10  C5  UNL     1       2.689   0.134   1.058  1.00  0.00     0.135 A 
HETATM   11  N3  UNL     1       1.562  -0.354   1.267  1.00  0.00    -0.176 N 
ATOM     12  H3  UNL     1       1.099   0.121   2.042  1.00  0.00     0.186 HD
HETATM   13  C6  UNL     1       0.774  -1.332   0.764  1.00  0.00     0.680 C 
HETATM   14  N4  UNL     1       0.927  -2.622   1.017  1.00  0.00    -0.234 N 
ATOM     15  H41 UNL     1       0.333  -3.359   0.638  1.00  0.00     0.174 HD
ATOM     16  H42 UNL     1       1.718  -2.835   1.624  1.00  0.00     0.174 HD
HETATM   17  N5  UNL     1      -0.355  -1.028  -0.102  1.00  0.00    -0.158 N 
ATOM     18  H5  UNL     1      -0.935  -1.791  -0.451  1.00  0.00     0.187 HD
HETATM   19  C7  UNL     1      -0.666   0.300  -0.470  1.00  0.00     0.269 C 
HETATM   20  O3  UNL     1       0.048   1.233  -0.043  1.00  0.00    -0.270 OA
ENDROOT
BRANCH  19  21
HETATM   21  C8  UNL     1      -1.811   0.594  -1.345  1.00  0.00     0.306 C 
BRANCH  21  22
HETATM   22  N6  UNL     1      -1.696   2.033  -1.705  1.00  0.00    -0.064 N 
ATOM     23  H63 UNL     1      -1.634   2.651  -0.896  1.00  0.00     0.275 HD
ATOM     24  H62 UNL     1      -0.796   2.278  -2.117  1.00  0.00     0.275 HD
ATOM     25  H61 UNL     1      -2.490   2.237  -2.312  1.00  0.00     0.275 HD
ENDBRANCH  21  22
BRANCH  21  26
HETATM   26  C9  UNL     1      -3.148   0.520  -0.632  1.00  0.00     0.195 C 
BRANCH  26  27
HETATM   27  O4  UNL     1      -4.098   0.986  -1.577  1.00  0.00    -0.390 OA
ATOM     28  H4  UNL     1      -4.935   0.940  -1.131  1.00  0.00     0.210 HD
ENDBRANCH  26  27
BRANCH  26  29
HETATM   29  C10 UNL     1      -3.583  -0.857  -0.259  1.00  0.00     0.238 C 
BRANCH  29  30
HETATM   30  O5  UNL     1      -3.646  -1.736  -1.348  1.00  0.00    -0.384 OA
ATOM     31  H5  UNL     1      -3.923  -2.613  -1.110  1.00  0.00     0.210 HD
ENDBRANCH  29  30
BRANCH  29  32
HETATM   32  C11 UNL     1      -4.982  -0.706   0.295  1.00  0.00     0.262 C 
HETATM   33  N7  UNL     1      -5.232   0.131   1.415  1.00  0.00    -0.060 NA
HETATM   34  O6  UNL     1      -5.957  -1.309  -0.210  1.00  0.00    -0.274 OA
ENDBRANCH  29  32
ENDBRANCH  26  29
ENDBRANCH  21  26
ENDBRANCH  19  21
BRANCH   3  35
HETATM   35  O1  UNL     1       5.745  -0.042  -1.025  1.00  0.00    -0.345 OA
ATOM     36  H1  UNL     1       6.593   0.375  -1.123  1.00  0.00     0.219 HD
ENDBRANCH   3  35
TORSDOF 8
