REMARK  6 active torsions:
REMARK  status: ('A' for Active; 'I' for Inactive)
REMARK    1  A    between atoms: N1_1  and  N2_4 
REMARK       I    between atoms: N2_4  and  C1_6 
REMARK       I    between atoms: C1_6  and  N11_31 
REMARK    2  A    between atoms: N3_7  and  C2_9 
REMARK    3  A    between atoms: C2_9  and  C3_10 
REMARK    4  A    between atoms: C4_13  and  N5_14 
REMARK       I    between atoms: N5_14  and  C5_16 
REMARK       I    between atoms: C5_16  and  N6_17 
REMARK       I    between atoms: C5_16  and  N7_21 
REMARK    5  A    between atoms: N9_27  and  N10_28 
REMARK    6  A    between atoms: N11_31  and  S1_33 
ROOT
HETATM    1  C3  UNL     1       0.502  -0.797   0.119  1.00  0.00     0.155 A 
HETATM    2  N4  UNL     1       1.234   0.303  -0.140  1.00  0.00    -0.174 N 
ATOM      3  H4  UNL     1       0.871   1.158  -0.561  1.00  0.00     0.185 HD
HETATM    4  C4  UNL     1       2.509   0.115   0.234  1.00  0.00     0.698 A 
HETATM    5  N8  UNL     1       2.558  -1.130   0.733  1.00  0.00    -0.110 N 
ATOM      6  H8  UNL     1       3.394  -1.581   1.105  1.00  0.00     0.208 HD
HETATM    7  N9  UNL     1       1.344  -1.691   0.668  1.00  0.00    -0.174 N 
ENDROOT
BRANCH   1   8
HETATM    8  C2  UNL     1      -0.957  -0.996  -0.146  1.00  0.00     0.218 C 
BRANCH   8   9
HETATM    9  N3  UNL     1      -1.538   0.166  -0.738  1.00  0.00    -0.217 N 
HETATM   10  C1  UNL     1      -2.802   0.360  -0.671  1.00  0.00     0.702 C 
HETATM   11  N2  UNL     1      -3.626  -0.584  -0.006  1.00  0.00    -0.138 N 
HETATM   12  N11 UNL     1      -3.442   1.497  -1.239  1.00  0.00    -0.106 N 
ATOM     13  H2  UNL     1      -4.146  -0.289   0.820  1.00  0.00     0.205 HD
ATOM     14  H11 UNL     1      -3.359   1.702  -2.235  1.00  0.00     0.198 HD
ATOM     15  H3  UNL     1      -0.944   0.844  -1.216  1.00  0.00     0.178 HD
BRANCH  11  16
HETATM   16  N1  UNL     1      -3.749  -1.910  -0.448  1.00  0.00    -0.331 N 
ATOM     17  H12 UNL     1      -3.222  -2.188  -1.276  1.00  0.00     0.177 HD
ATOM     18  H11 UNL     1      -4.341  -2.589   0.030  1.00  0.00     0.177 HD
ENDBRANCH  11  16
BRANCH  12  19
HETATM   19  S1  UNL     1      -4.351   2.508  -0.209  1.00  0.00     0.312 S 
HETATM   20  O1  UNL     1      -4.078   3.904  -0.597  1.00  0.00    -0.192 OA
HETATM   21  O2  UNL     1      -3.973   2.395   1.231  1.00  0.00    -0.192 OA
HETATM   22  S2  UNL     1      -6.250   1.769  -0.199  1.00  0.00     0.076 SA
ENDBRANCH  12  19
ENDBRANCH   8   9
ENDBRANCH   1   8
BRANCH   7  23
HETATM   23  N10 UNL     1       0.993  -2.973   1.088  1.00  0.00    -0.322 N 
ATOM     24 2H10 UNL     1       0.068  -3.400   1.038  1.00  0.00     0.179 HD
ATOM     25 1H10 UNL     1       1.631  -3.651   1.504  1.00  0.00     0.179 HD
ENDBRANCH   7  23
BRANCH   4  26
HETATM   26  N5  UNL     1       3.432   0.996   0.106  1.00  0.00    -0.172 N 
HETATM   27  C5  UNL     1       4.800   0.795   0.506  1.00  0.00     0.494 C 
HETATM   28  N6  UNL     1       5.450   2.113   0.429  1.00  0.00    -0.032 N 
HETATM   29  N7  UNL     1       5.519  -0.061  -0.417  1.00  0.00    -0.032 N 
ATOM     30  H63 UNL     1       5.356   2.559  -0.484  1.00  0.00     0.278 HD
ATOM     31  H62 UNL     1       4.971   2.833   0.970  1.00  0.00     0.278 HD
ATOM     32  H61 UNL     1       6.419   1.971   0.712  1.00  0.00     0.278 HD
ATOM     33  H73 UNL     1       5.038  -0.951  -0.547  1.00  0.00     0.278 HD
ATOM     34  H72 UNL     1       5.462   0.294  -1.371  1.00  0.00     0.278 HD
ATOM     35  H71 UNL     1       6.488  -0.203  -0.134  1.00  0.00     0.278 HD
ATOM     36  H5  UNL     1       3.181   1.895  -0.305  1.00  0.00     0.181 HD
ENDBRANCH   4  26
TORSDOF 6
