REMARK  4 active torsions:
REMARK  status: ('A' for Active; 'I' for Inactive)
REMARK    1  A    between atoms: O1_2  and  C2_3 
REMARK    2  A    between atoms: C5_6  and  C6_7 
REMARK    3  A    between atoms: C6_7  and  C7_8 
REMARK    4  A    between atoms: C7_8  and  N1_9 
ROOT
HETATM    1  C2  UNL     1      -7.246   0.666   0.360  1.00  0.00     0.101 A 
HETATM    2  C3  UNL     1      -6.357   1.532   0.786  1.00  0.00     0.040 A 
HETATM    3  C4  UNL     1      -5.035   1.696   0.461  1.00  0.00     0.010 A 
HETATM    4  C5  UNL     1      -4.556   0.745  -0.503  1.00  0.00    -0.054 A 
HETATM    5  C23 UNL     1      -5.405  -0.163  -0.979  1.00  0.00     0.046 A 
HETATM    6  C24 UNL     1      -6.776  -0.284  -0.605  1.00  0.00     0.102 A 
HETATM    7  O6  UNL     1      -7.583  -1.162  -1.062  1.00  0.00    -0.353 OA
HETATM    8  C25 UNL     1      -8.384  -2.040  -1.521  1.00  0.00     0.210 C 
ENDROOT
BRANCH   1   9
HETATM    9  O1  UNL     1      -8.574   0.616   0.777  1.00  0.00    -0.353 OA
HETATM   10  C1  UNL     1      -9.052   1.593   1.704  1.00  0.00     0.210 C 
ENDBRANCH   1   9
BRANCH   4  11
HETATM   11  C6  UNL     1      -3.078   0.792  -0.766  1.00  0.00     0.058 C 
BRANCH  11  12
HETATM   12  C7  UNL     1      -2.563  -0.469  -0.063  1.00  0.00     0.121 C 
BRANCH  12  13
HETATM   13  N1  UNL     1      -1.188  -0.608  -0.129  1.00  0.00    -0.412 N 
HETATM   14  C8  UNL     1      -0.372   0.284   0.666  1.00  0.00     0.122 C 
HETATM   15  C9  UNL     1       0.819  -0.576   1.079  1.00  0.00     0.094 C 
HETATM   16  C10 UNL     1       1.614  -0.877  -0.140  1.00  0.00     0.232 C 
HETATM   17  C11 UNL     1       0.795  -1.467  -1.267  1.00  0.00     0.094 C 
HETATM   18  O2  UNL     1       2.228   0.280  -0.602  1.00  0.00    -0.194 OA
HETATM   19  O5  UNL     1       2.587  -1.823   0.181  1.00  0.00    -0.194 OA
HETATM   20  C12 UNL     1      -0.577  -0.907  -1.391  1.00  0.00     0.122 C 
HETATM   21  O3  UNL     1       3.093   0.698   0.268  1.00  0.00    -0.194 OA
HETATM   22  C13 UNL     1       4.121  -0.247   0.395  1.00  0.00     0.237 C 
HETATM   23  O4  UNL     1       3.568  -1.404   0.896  1.00  0.00    -0.194 OA
HETATM   24  C14 UNL     1       4.779  -0.407  -0.932  1.00  0.00     0.055 C 
HETATM   25  C21 UNL     1       5.104   0.266   1.425  1.00  0.00     0.055 C 
HETATM   26  C15 UNL     1       5.975  -1.330  -0.805  1.00  0.00     0.015 C 
HETATM   27  C19 UNL     1       5.223   0.990  -1.395  1.00  0.00     0.015 C 
HETATM   28  C16 UNL     1       6.934  -0.737   0.181  1.00  0.00    -0.013 C 
HETATM   29  C17 UNL     1       7.338   0.641  -0.240  1.00  0.00     0.009 C 
HETATM   30  C22 UNL     1       6.280  -0.680   1.528  1.00  0.00     0.015 C 
HETATM   31  C18 UNL     1       6.154   1.561  -0.357  1.00  0.00    -0.013 C 
HETATM   32  C20 UNL     1       5.495   1.651   1.020  1.00  0.00     0.015 C 
ENDBRANCH  12  13
ENDBRANCH  11  12
ENDBRANCH   4  11
TORSDOF 4
