REMARK  5 active torsions:
REMARK  status: ('A' for Active; 'I' for Inactive)
REMARK    1  A    between atoms: C2_2  and  C3_3 
REMARK    2  A    between atoms: C3_3  and  C4_4 
REMARK    3  A    between atoms: N2_8  and  C7_9 
REMARK       I    between atoms: N3_12  and  C10_13 
REMARK    4  A    between atoms: C10_13  and  C11_15 
REMARK    5  A    between atoms: C13_17  and  C14_18 
ROOT
HETATM    1  C4  UNL     1      -7.035   0.112  -1.136  1.00  0.00     0.163 C 
HETATM    2  C5  UNL     1      -8.106  -0.870  -1.319  1.00  0.00     0.062 C 
HETATM    3  N1  UNL     1      -8.959  -1.666  -1.451  1.00  0.00    -0.197 NA
ENDROOT
BRANCH   1   4
HETATM    4  C3  UNL     1      -6.003  -0.427  -0.106  1.00  0.00     0.099 C 
HETATM    5  C6  UNL     1      -4.969   0.624   0.016  1.00  0.00     0.311 C 
HETATM    6  N2  UNL     1      -3.617   0.113  -0.045  1.00  0.00     0.097 N 
HETATM    7  C22 UNL     1      -3.351  -0.415  -1.371  1.00  0.00     0.275 C 
HETATM    8  C23 UNL     1      -3.410  -1.925  -1.258  1.00  0.00     0.056 C 
HETATM    9  C24 UNL     1      -4.468  -2.204  -0.175  1.00  0.00     0.170 C 
HETATM   10  O4  UNL     1      -5.629  -1.638  -0.596  1.00  0.00    -0.377 OA
BRANCH   4  11
HETATM   11  C2  UNL     1      -6.823  -0.621   1.149  1.00  0.00     0.036 C 
HETATM   12  C1  UNL     1      -6.070  -1.134   2.325  1.00  0.00     0.008 C 
ENDBRANCH   4  11
BRANCH   6  13
HETATM   13  C7  UNL     1      -2.645   1.144   0.218  1.00  0.00     0.242 C 
HETATM   14  C8  UNL     1      -2.803   1.735   1.605  1.00  0.00     0.057 C 
HETATM   15  C9  UNL     1      -1.458   2.479   1.702  1.00  0.00     0.128 C 
HETATM   16  N3  UNL     1      -0.526   1.623   1.003  1.00  0.00    -0.345 N 
HETATM   17  C10 UNL     1       0.884   1.774   1.020  1.00  0.00     0.272 C 
HETATM   18  C21 UNL     1      -1.238   0.600   0.292  1.00  0.00     0.161 C 
HETATM   19  O1  UNL     1       1.356   2.752   1.701  1.00  0.00    -0.266 OA
BRANCH  17  20
HETATM   20  C11 UNL     1       1.827   0.928   0.342  1.00  0.00     0.125 A 
HETATM   21  C12 UNL     1       3.198   1.081   0.363  1.00  0.00     0.074 A 
HETATM   22  C13 UNL     1       3.787   0.091  -0.393  1.00  0.00     0.107 A 
HETATM   23  O3  UNL     1       2.776  -0.634  -0.853  1.00  0.00    -0.239 OA
HETATM   24  N4  UNL     1       1.642  -0.164  -0.437  1.00  0.00    -0.256 N 
ATOM     25  H4  UNL     1       0.732  -0.563  -0.666  1.00  0.00     0.195 HD
BRANCH  22  26
HETATM   26  C14 UNL     1       5.247  -0.157  -0.669  1.00  0.00     0.180 C 
HETATM   27  C15 UNL     1       6.013   0.654   0.342  1.00  0.00     0.039 C 
HETATM   28  C16 UNL     1       7.492   0.729   0.043  1.00  0.00     0.003 C 
HETATM   29  C17 UNL     1       8.192  -0.568   0.373  1.00  0.00     0.000 C 
HETATM   30  C18 UNL     1       8.616  -1.194  -0.924  1.00  0.00     0.002 C 
HETATM   31  C19 UNL     1       7.464  -1.478  -1.853  1.00  0.00     0.026 C 
HETATM   32  C20 UNL     1       6.323  -2.171  -1.216  1.00  0.00     0.168 C 
HETATM   33  O2  UNL     1       5.459  -1.472  -0.482  1.00  0.00    -0.379 OA
ENDBRANCH  22  26
ENDBRANCH  17  20
ENDBRANCH   6  13
ENDBRANCH   1   4
TORSDOF 5
