REMARK  8 active torsions:
REMARK  status: ('A' for Active; 'I' for Inactive)
REMARK    1  A    between atoms: N1_1  and  N2_4 
REMARK       I    between atoms: N2_4  and  C1_6 
REMARK    2  A    between atoms: C1_6  and  C2_8 
REMARK    3  A    between atoms: C4_12  and  N4_13 
REMARK       I    between atoms: N4_13  and  C5_15 
REMARK       I    between atoms: C5_15  and  N5_16 
REMARK       I    between atoms: C5_15  and  N6_20 
REMARK    4  A    between atoms: N9_30  and  C8_31 
REMARK    5  A    between atoms: C9_32  and  N10_33 
REMARK    6  A    between atoms: C11_38  and  N11_39 
REMARK    7  A    between atoms: C12_43  and  O2_44 
REMARK    8  A    between atoms: C13_46  and  O3_47 
ROOT
HETATM    1  C2  UNL     1       0.680   1.308   0.272  1.00  0.00     0.185 A 
HETATM    2  N3  UNL     1       1.989   0.962   0.579  1.00  0.00    -0.331 N 
ATOM      3  H3  UNL     1       2.706   1.557   0.994  1.00  0.00     0.168 HD
HETATM    4  C3  UNL     1       2.106  -0.315   0.215  1.00  0.00     0.123 A 
HETATM    5  C4  UNL     1       3.209  -1.164   0.281  1.00  0.00     0.136 A 
HETATM    6  N7  UNL     1       3.108  -2.413  -0.160  1.00  0.00    -0.337 N 
ATOM      7  H7  UNL     1       3.912  -3.039  -0.114  1.00  0.00     0.168 HD
HETATM    8  C6  UNL     1       1.946  -2.847  -0.666  1.00  0.00     0.183 A 
HETATM    9  N8  UNL     1       0.908  -2.028  -0.722  1.00  0.00    -0.336 N 
ATOM     10  H8  UNL     1       0.039  -2.390  -1.114  1.00  0.00     0.168 HD
HETATM   11  C7  UNL     1       0.919  -0.758  -0.301  1.00  0.00     0.145 A 
HETATM   12  N9  UNL     1       0.030   0.295  -0.249  1.00  0.00    -0.280 N 
ENDROOT
BRANCH  12  13
HETATM   13  C8  UNL     1      -1.317   0.057  -0.696  1.00  0.00     0.059 C 
HETATM   14  C9  UNL     1      -2.330   1.090  -0.654  1.00  0.00     0.234 C 
HETATM   15  C10 UNL     1      -3.572   0.445  -1.382  1.00  0.00     0.074 C 
HETATM   16  C11 UNL     1      -4.215  -0.526  -0.433  1.00  0.00     0.217 C 
HETATM   17  C12 UNL     1      -3.221  -1.344   0.317  1.00  0.00     0.183 C 
HETATM   18  C13 UNL     1      -1.832  -1.295  -0.231  1.00  0.00     0.197 C 
BRANCH  14  19
HETATM   19  N10 UNL     1      -2.890   1.546   0.553  1.00  0.00    -0.070 N 
ATOM     20 3H10 UNL     1      -3.256   0.734   1.050  1.00  0.00     0.275 HD
ATOM     21 2H10 UNL     1      -2.123   1.841   1.158  1.00  0.00     0.275 HD
ATOM     22 1H10 UNL     1      -3.604   2.274   0.583  1.00  0.00     0.275 HD
ENDBRANCH  14  19
BRANCH  16  23
HETATM   23  N11 UNL     1      -5.063   0.215   0.470  1.00  0.00    -0.072 N 
ATOM     24 3H11 UNL     1      -4.564   0.963   0.952  1.00  0.00     0.274 HD
ATOM     25 2H11 UNL     1      -5.744   0.795  -0.019  1.00  0.00     0.274 HD
ATOM     26 1H11 UNL     1      -5.500  -0.444   1.114  1.00  0.00     0.274 HD
ENDBRANCH  16  23
BRANCH  17  27
HETATM   27  O2  UNL     1      -3.302  -1.192   1.690  1.00  0.00    -0.391 OA
ATOM     28  H2  UNL     1      -2.668  -1.714   2.168  1.00  0.00     0.210 HD
ENDBRANCH  17  27
BRANCH  18  29
HETATM   29  O3  UNL     1      -1.821  -2.235  -1.292  1.00  0.00    -0.387 OA
ATOM     30  H3  UNL     1      -2.143  -3.080  -1.001  1.00  0.00     0.210 HD
ENDBRANCH  18  29
ENDBRANCH  12  13
BRANCH   1  31
HETATM   31  C1  UNL     1       0.291   2.649   0.574  1.00  0.00     0.304 C 
HETATM   32  N2  UNL     1      -0.137   3.573  -0.378  1.00  0.00    -0.270 N 
ATOM     33  H2  UNL     1      -0.184   3.271  -1.351  1.00  0.00     0.189 HD
HETATM   34  O1  UNL     1       0.347   3.033   1.769  1.00  0.00    -0.263 OA
BRANCH  32  35
HETATM   35  N1  UNL     1      -0.504   4.881  -0.082  1.00  0.00    -0.342 N 
ATOM     36  H12 UNL     1      -0.451   5.166   0.896  1.00  0.00     0.176 HD
ATOM     37  H11 UNL     1      -0.817   5.557  -0.779  1.00  0.00     0.176 HD
ENDBRANCH  32  35
ENDBRANCH   1  31
BRANCH   5  38
HETATM   38  N4  UNL     1       4.293  -0.666   0.784  1.00  0.00    -0.325 N 
HETATM   39  C5  UNL     1       5.506  -1.397   0.924  1.00  0.00     0.481 C 
HETATM   40  N5  UNL     1       6.340  -1.352  -0.265  1.00  0.00    -0.033 N 
HETATM   41  N6  UNL     1       6.287  -0.765   1.990  1.00  0.00    -0.033 N 
ATOM     42  H53 UNL     1       5.820  -1.664  -1.085  1.00  0.00     0.278 HD
ATOM     43  H52 UNL     1       6.527  -0.388  -0.542  1.00  0.00     0.278 HD
ATOM     44  H51 UNL     1       7.209  -1.876  -0.165  1.00  0.00     0.278 HD
ATOM     45  H63 UNL     1       6.441   0.231   1.832  1.00  0.00     0.278 HD
ATOM     46  H62 UNL     1       5.770  -0.684   2.865  1.00  0.00     0.278 HD
ATOM     47  H61 UNL     1       7.156  -1.289   2.090  1.00  0.00     0.278 HD
ATOM     48  H4  UNL     1       4.277   0.305   1.097  1.00  0.00     0.165 HD
ENDBRANCH   5  38
TORSDOF 8
