REMARK  10 active torsions:
REMARK  status: ('A' for Active; 'I' for Inactive)
REMARK    1  A    between atoms: C4_6  and  N2_7 
REMARK    2  A    between atoms: C5_12  and  N4_13 
REMARK    3  A    between atoms: N6_19  and  C7_20 
REMARK    4  A    between atoms: C8_22  and  C9_23 
REMARK    5  A    between atoms: C9_23  and  O2_24 
REMARK    6  A    between atoms: C10_26  and  C11_27 
REMARK       I    between atoms: C11_27  and  N7_29 
REMARK    7  A    between atoms: N7_29  and  N8_31 
REMARK       I    between atoms: N8_31  and  C12_33 
REMARK    8  A    between atoms: C12_33  and  C13_35 
REMARK    9  A    between atoms: C13_35  and  N9_36 
REMARK   10  A    between atoms: C13_35  and  N10_40 
ROOT
HETATM    1  C7  UNL     1       1.816  -1.051  -0.796  1.00  0.00     0.381 C 
HETATM    2  O1  UNL     1       1.235  -1.962   0.112  1.00  0.00    -0.333 OA
HETATM    3  C8  UNL     1       0.454  -2.674  -0.835  1.00  0.00     0.188 C 
HETATM    4  C10 UNL     1      -0.282  -1.485  -1.424  1.00  0.00     0.251 C 
HETATM    5  O5  UNL     1       0.737  -0.502  -1.423  1.00  0.00    -0.326 OA
ENDROOT
BRANCH   1   6
HETATM    6  N6  UNL     1       2.687  -0.132  -0.125  1.00  0.00    -0.270 N 
HETATM    7  C2  UNL     1       3.576  -0.497   0.848  1.00  0.00     0.085 A 
HETATM    8  C1  UNL     1       3.791  -1.876   1.376  1.00  0.00     0.089 C 
HETATM    9  N1  UNL     1       4.196   0.629   1.214  1.00  0.00    -0.340 N 
HETATM   10  C3  UNL     1       3.735   1.679   0.515  1.00  0.00     0.123 A 
ATOM     11  H1  UNL     1       4.922   0.684   1.928  1.00  0.00     0.167 HD
HETATM   12  C4  UNL     1       4.024   3.028   0.500  1.00  0.00     0.145 A 
HETATM   13  C6  UNL     1       2.757   1.185  -0.352  1.00  0.00     0.159 A 
HETATM   14  N3  UNL     1       3.377   3.860  -0.336  1.00  0.00    -0.175 N 
HETATM   15  C5  UNL     1       2.434   3.401  -1.176  1.00  0.00     0.679 A 
ATOM     16  H3  UNL     1       3.606   4.854  -0.332  1.00  0.00     0.186 HD
HETATM   17  N5  UNL     1       2.167   2.079  -1.145  1.00  0.00    -0.174 N 
ATOM     18  H5  UNL     1       1.451   1.734  -1.784  1.00  0.00     0.186 HD
BRANCH  12  19
HETATM   19  N2  UNL     1       4.913   3.523   1.275  1.00  0.00    -0.383 N 
ATOM     20  H22 UNL     1       5.404   2.892   1.909  1.00  0.00     0.157 HD
ATOM     21  H21 UNL     1       5.127   4.520   1.264  1.00  0.00     0.157 HD
ENDBRANCH  12  19
BRANCH  15  22
HETATM   22  N4  UNL     1       1.792   4.199  -1.992  1.00  0.00    -0.234 N 
ATOM     23  H42 UNL     1       1.994   5.199  -2.015  1.00  0.00     0.174 HD
ATOM     24  H41 UNL     1       1.076   3.851  -2.630  1.00  0.00     0.174 HD
ENDBRANCH  15  22
ENDBRANCH   1   6
BRANCH   3  25
HETATM   25  C9  UNL     1      -0.370  -3.735  -0.240  1.00  0.00     0.199 C 
BRANCH  25  26
HETATM   26  O2  UNL     1      -1.031  -4.448  -1.219  1.00  0.00    -0.398 OA
ATOM     27  H2  UNL     1      -1.564  -5.134  -0.834  1.00  0.00     0.209 HD
ENDBRANCH  25  26
ENDBRANCH   3  25
BRANCH   4  28
HETATM   28  C11 UNL     1      -1.382  -0.975  -0.605  1.00  0.00     0.268 C 
HETATM   29  O3  UNL     1      -1.209   0.097   0.080  1.00  0.00    -0.269 OA
HETATM   30  N7  UNL     1      -2.669  -1.545  -0.475  1.00  0.00    -0.265 N 
ATOM     31  H7  UNL     1      -2.881  -2.396  -0.996  1.00  0.00     0.190 HD
BRANCH  30  32
HETATM   32  N8  UNL     1      -3.676  -0.986   0.346  1.00  0.00    -0.264 N 
HETATM   33  C12 UNL     1      -4.233   0.259   0.033  1.00  0.00     0.294 C 
HETATM   34  O4  UNL     1      -3.835   0.903  -0.997  1.00  0.00    -0.267 OA
ATOM     35  H8  UNL     1      -3.998  -1.493   1.170  1.00  0.00     0.190 HD
BRANCH  33  36
HETATM   36  C13 UNL     1      -5.284   0.890   0.846  1.00  0.00     0.469 C 
BRANCH  36  37
HETATM   37  N9  UNL     1      -5.730   2.157   0.349  1.00  0.00    -0.041 N 
ATOM     38  H93 UNL     1      -4.941   2.792   0.231  1.00  0.00     0.277 HD
ATOM     39  H92 UNL     1      -6.032   2.073  -0.622  1.00  0.00     0.277 HD
ATOM     40  H91 UNL     1      -6.459   2.595   0.913  1.00  0.00     0.277 HD
ENDBRANCH  36  37
BRANCH  36  41
HETATM   41  N10 UNL     1      -4.885   1.015   2.246  1.00  0.00    -0.041 N 
ATOM     42 3H10 UNL     1      -4.606   0.114   2.634  1.00  0.00     0.277 HD
ATOM     43 2H10 UNL     1      -3.998   1.510   2.337  1.00  0.00     0.277 HD
ATOM     44 1H10 UNL     1      -5.614   1.453   2.810  1.00  0.00     0.277 HD
ENDBRANCH  36  41
ENDBRANCH  33  36
ENDBRANCH  30  32
ENDBRANCH   4  28
TORSDOF 10
