REMARK  8 active torsions:
REMARK  status: ('A' for Active; 'I' for Inactive)
REMARK    1  A    between atoms: C2_3  and  C3_4 
REMARK    2  A    between atoms: C3_4  and  C4_5 
REMARK    3  A    between atoms: C4_5  and  N2_6 
REMARK    4  A    between atoms: C4_5  and  N3_10 
REMARK    5  A    between atoms: C6_20  and  C7_21 
REMARK    6  A    between atoms: C7_21  and  O1_22 
REMARK    7  A    between atoms: C8_24  and  O2_25 
REMARK    8  A    between atoms: C12_33  and  N8_34 
ROOT
HETATM    1  C3  UNL     1      -0.825  -0.189   0.056  1.00  0.00     0.157 C 
HETATM    2  N4  UNL     1      -1.615   0.246  -1.106  1.00  0.00    -0.344 N 
ATOM      3  H4  UNL     1      -1.207   0.097  -2.029  1.00  0.00     0.163 HD
HETATM    4  C5  UNL     1      -2.747   0.784  -1.061  1.00  0.00     0.185 C 
HETATM    5  N5  UNL     1      -3.376   1.139  -2.301  1.00  0.00    -0.064 NA
HETATM    6  N6  UNL     1      -3.370   1.042   0.170  1.00  0.00    -0.355 N 
ATOM      7  H6  UNL     1      -4.375   1.215   0.205  1.00  0.00     0.162 HD
HETATM    8  C6  UNL     1      -2.593   1.063   1.387  1.00  0.00     0.139 C 
HETATM    9  C8  UNL     1      -1.416   0.115   1.376  1.00  0.00     0.181 C 
ENDROOT
BRANCH   1  10
HETATM   10  C2  UNL     1       0.600  -0.001  -0.158  1.00  0.00     0.050 A 
HETATM   11  N1  UNL     1       1.118   1.220  -0.367  1.00  0.00    -0.318 N 
HETATM   12  C1  UNL     1       0.355   2.397  -0.380  1.00  0.00     0.159 C 
HETATM   13  C14 UNL     1       2.468   1.335  -0.587  1.00  0.00     0.276 A 
HETATM   14  C13 UNL     1       3.333   0.294  -0.612  1.00  0.00     0.133 A 
HETATM   15  O4  UNL     1       2.951   2.495  -0.783  1.00  0.00    -0.265 OA
HETATM   16  C10 UNL     1       2.844  -0.958  -0.404  1.00  0.00     0.067 A 
HETATM   17  N9  UNL     1       4.649   0.497  -0.853  1.00  0.00    -0.185 N 
HETATM   18  C9  UNL     1       1.483  -1.099  -0.177  1.00  0.00     0.047 A 
HETATM   19  C11 UNL     1       3.695  -2.032  -0.438  1.00  0.00     0.272 A 
HETATM   20  O3  UNL     1       3.301  -3.208  -0.255  1.00  0.00    -0.267 OA
HETATM   21  N7  UNL     1       4.997  -1.779  -0.682  1.00  0.00    -0.156 N 
HETATM   22  C12 UNL     1       5.476  -0.544  -0.887  1.00  0.00     0.679 A 
ATOM     23  H7  UNL     1       5.648  -2.564  -0.712  1.00  0.00     0.187 HD
ATOM     24  H9  UNL     1       5.004   1.441  -1.007  1.00  0.00     0.184 HD
BRANCH  22  25
HETATM   25  N8  UNL     1       6.724  -0.350  -1.117  1.00  0.00    -0.234 N 
ATOM     26  H82 UNL     1       7.358  -1.148  -1.143  1.00  0.00     0.174 HD
ATOM     27  H81 UNL     1       7.089   0.590  -1.273  1.00  0.00     0.174 HD
ENDBRANCH  22  25
ENDBRANCH   1  10
BRANCH   1  28
HETATM   28  C4  UNL     1      -1.092  -1.736  -0.084  1.00  0.00     0.414 C 
BRANCH  28  29
HETATM   29  N2  UNL     1      -2.541  -1.938   0.155  1.00  0.00    -0.048 N 
ATOM     30  H23 UNL     1      -2.861  -1.552   1.043  1.00  0.00     0.276 HD
ATOM     31  H22 UNL     1      -3.133  -1.370  -0.451  1.00  0.00     0.276 HD
ATOM     32  H21 UNL     1      -2.714  -2.939   0.064  1.00  0.00     0.276 HD
ENDBRANCH  28  29
BRANCH  28  33
HETATM   33  N3  UNL     1      -0.861  -2.191  -1.415  1.00  0.00    -0.048 N 
ATOM     34  H33 UNL     1      -1.406  -1.656  -2.091  1.00  0.00     0.276 HD
ATOM     35  H32 UNL     1       0.075  -1.944  -1.736  1.00  0.00     0.276 HD
ATOM     36  H31 UNL     1      -1.034  -3.192  -1.506  1.00  0.00     0.276 HD
ENDBRANCH  28  33
ENDBRANCH   1  28
BRANCH   9  37
HETATM   37  O2  UNL     1      -0.521   0.538   2.357  1.00  0.00    -0.390 OA
ATOM     38  H2  UNL     1      -0.901   0.733   3.206  1.00  0.00     0.210 HD
ENDBRANCH   9  37
BRANCH   8  39
HETATM   39  C7  UNL     1      -3.569   0.714   2.507  1.00  0.00     0.191 C 
BRANCH  39  40
HETATM   40  O1  UNL     1      -4.612   1.640   2.559  1.00  0.00    -0.399 OA
ATOM     41  H1  UNL     1      -5.220   1.423   3.256  1.00  0.00     0.209 HD
ENDBRANCH  39  40
ENDBRANCH   8  39
TORSDOF 8
