REMARK  6 active torsions:
REMARK  status: ('A' for Active; 'I' for Inactive)
REMARK    1  A    between atoms: C2_3  and  C4_11 
REMARK    2  A    between atoms: N2_4  and  N3_6 
REMARK    3  A    between atoms: C5_15  and  N7_16 
REMARK    4  A    between atoms: C9_25  and  N10_26 
REMARK    5  A    between atoms: C11_32  and  O2_33 
REMARK    6  A    between atoms: C12_35  and  O3_36 
ROOT
HETATM    1  N1  UNL     1       1.959  -3.152   2.998  1.00  0.00    -0.190 NA
HETATM    2  C1  UNL     1       2.106  -2.327   2.199  1.00  0.00     0.119 C 
HETATM    3  C2  UNL     1       2.265  -1.290   1.194  1.00  0.00     0.162 C 
HETATM    4  N2  UNL     1       3.447  -1.056   0.807  1.00  0.00    -0.289 N 
ATOM      5  H2  UNL     1       4.154  -1.637   1.259  1.00  0.00     0.187 HD
ENDROOT
BRANCH   3   6
HETATM    6  C4  UNL     1       1.122  -0.523   0.628  1.00  0.00     0.389 C 
HETATM    7  N6  UNL     1       0.394   0.196   1.612  1.00  0.00    -0.018 N 
HETATM    8  C5  UNL     1      -0.797   0.800   1.058  1.00  0.00     0.330 C 
ATOM      9  H62 UNL     1       0.174  -0.392   2.416  1.00  0.00     0.283 HD
ATOM     10  H61 UNL     1       0.981   0.888   2.077  1.00  0.00     0.283 HD
HETATM   11  C11 UNL     1      -0.418   1.586  -0.134  1.00  0.00     0.223 C 
HETATM   12  C12 UNL     1       1.115   1.591  -0.352  1.00  0.00     0.292 C 
HETATM   13  O4  UNL     1       1.626   0.335  -0.320  1.00  0.00    -0.321 OA
BRANCH   8  14
HETATM   14  N7  UNL     1      -1.789  -0.232   0.891  1.00  0.00    -0.295 N 
HETATM   15  C6  UNL     1      -1.738  -1.489   1.440  1.00  0.00     0.187 A 
HETATM   16  N8  UNL     1      -2.810  -2.204   1.100  1.00  0.00    -0.345 N 
HETATM   17  C7  UNL     1      -3.549  -1.389   0.327  1.00  0.00     0.147 A 
ATOM     18  H8  UNL     1      -3.024  -3.164   1.369  1.00  0.00     0.167 HD
HETATM   19  C8  UNL     1      -4.769  -1.628  -0.290  1.00  0.00     0.290 A 
HETATM   20  C10 UNL     1      -2.932  -0.150   0.182  1.00  0.00     0.158 A 
HETATM   21  O1  UNL     1      -5.342  -2.748  -0.168  1.00  0.00    -0.265 OA
HETATM   22  N9  UNL     1      -5.313  -0.641  -1.012  1.00  0.00    -0.154 N 
HETATM   23  C9  UNL     1      -4.707   0.551  -1.144  1.00  0.00     0.680 A 
ATOM     24  H9  UNL     1      -6.209  -0.797  -1.473  1.00  0.00     0.187 HD
HETATM   25  N11 UNL     1      -3.524   0.806  -0.555  1.00  0.00    -0.174 N 
ATOM     26  H11 UNL     1      -3.080   1.717  -0.667  1.00  0.00     0.186 HD
BRANCH  23  27
HETATM   27  N10 UNL     1      -5.244   1.497  -1.844  1.00  0.00    -0.234 N 
ATOM     28 2H10 UNL     1      -6.141   1.304  -2.290  1.00  0.00     0.174 HD
ATOM     29 1H10 UNL     1      -4.784   2.402  -1.944  1.00  0.00     0.174 HD
ENDBRANCH  23  27
ENDBRANCH   8  14
BRANCH  11  30
HETATM   30  O2  UNL     1      -0.657   2.980   0.034  1.00  0.00    -0.387 OA
ATOM     31  H2  UNL     1      -0.413   3.485  -0.733  1.00  0.00     0.210 HD
ENDBRANCH  11  30
BRANCH  12  32
HETATM   32  O3  UNL     1       1.705   2.496   0.523  1.00  0.00    -0.368 OA
ATOM     33  H3  UNL     1       2.646   2.499   0.389  1.00  0.00     0.212 HD
ENDBRANCH  12  32
ENDBRANCH   3   6
BRANCH   4  34
HETATM   34  N3  UNL     1       3.951  -0.177  -0.097  1.00  0.00    -0.275 N 
HETATM   35  C3  UNL     1       5.081  -0.385  -0.671  1.00  0.00     0.215 C 
HETATM   36  N4  UNL     1       5.810  -1.548  -0.355  1.00  0.00    -0.065 NA
HETATM   37  N5  UNL     1       5.569   0.552  -1.603  1.00  0.00    -0.065 NA
ATOM     38  H3  UNL     1       3.422   0.665  -0.325  1.00  0.00     0.189 HD
ENDBRANCH   4  34
TORSDOF 6
