REMARK  10 active torsions:
REMARK  status: ('A' for Active; 'I' for Inactive)
REMARK    1  A    between atoms: C2_2  and  C3_4 
REMARK    2  A    between atoms: C3_4  and  N13_47 
REMARK    3  A    between atoms: N1_5  and  N2_7 
REMARK       I    between atoms: N2_7  and  C4_9 
REMARK       I    between atoms: C4_9  and  N3_11 
REMARK    4  A    between atoms: N3_11  and  N4_12 
REMARK    5  A    between atoms: N3_11  and  C5_16 
REMARK    6  A    between atoms: N4_12  and  O3_14 
REMARK    7  A    between atoms: C5_16  and  N5_17 
REMARK    8  A    between atoms: N5_17  and  C6_19 
REMARK    9  A    between atoms: C6_19  and  C7_20 
REMARK   10  A    between atoms: N9_33  and  C14_35 
ROOT
HETATM    1  C5  UNL     1      -0.336  -1.294   0.123  1.00  0.00     0.164 C 
HETATM    2  C9  UNL     1       0.604  -1.112   0.963  1.00  0.00     0.123 C 
HETATM    3  N7  UNL     1       0.803  -0.223   2.015  1.00  0.00    -0.339 N 
ATOM      4  H7  UNL     1      -0.032   0.048   2.535  1.00  0.00     0.167 HD
HETATM    5  C10 UNL     1       2.023   0.353   2.454  1.00  0.00     0.117 C 
HETATM    6  C11 UNL     1       2.031   1.285   3.582  1.00  0.00     0.117 C 
HETATM    7  N8  UNL     1       2.016   2.019   4.476  1.00  0.00    -0.190 NA
HETATM    8  C12 UNL     1       3.165   0.098   1.903  1.00  0.00     0.079 C 
HETATM    9  C13 UNL     1       3.374  -0.804   0.779  1.00  0.00     0.095 C 
HETATM   10  N9  UNL     1       4.287  -0.719  -0.059  1.00  0.00    -0.184 N 
ATOM     11  H9  UNL     1       4.291  -1.435  -0.786  1.00  0.00     0.185 HD
HETATM   12  S1  UNL     1       2.147  -2.133   0.678  1.00  0.00    -0.050 SA
ENDROOT
BRANCH   1  13
HETATM   13  N3  UNL     1      -1.568  -0.677  -0.122  1.00  0.00    -0.166 N 
HETATM   14  C4  UNL     1      -2.134   0.494   0.397  1.00  0.00     0.363 C 
HETATM   15  N2  UNL     1      -3.491   0.823   0.037  1.00  0.00    -0.248 N 
HETATM   16  O2  UNL     1      -1.595   1.316   1.154  1.00  0.00    -0.243 OA
ATOM     17  H2  UNL     1      -4.015   0.207  -0.584  1.00  0.00     0.192 HD
BRANCH  15  18
HETATM   18  N1  UNL     1      -4.080   1.963   0.528  1.00  0.00    -0.278 N 
HETATM   19  C3  UNL     1      -5.051   2.593  -0.048  1.00  0.00     0.175 C 
ATOM     20  H1  UNL     1      -3.727   2.338   1.408  1.00  0.00     0.189 HD
BRANCH  19  21
HETATM   21  C2  UNL     1      -5.555   3.785   0.613  1.00  0.00     0.191 C 
HETATM   22  C1  UNL     1      -6.669   4.527  -0.027  1.00  0.00     0.100 C 
HETATM   23  O1  UNL     1      -5.057   4.190   1.718  1.00  0.00    -0.290 OA
ENDBRANCH  19  21
BRANCH  19  24
HETATM   24  N13 UNL     1      -5.623   2.171  -1.269  1.00  0.00    -0.275 N 
HETATM   25  C17 UNL     1      -6.780   1.383  -1.293  1.00  0.00     0.183 C 
HETATM   26  N14 UNL     1      -7.736   0.732  -1.323  1.00  0.00    -0.172 NA
ATOM     27  H13 UNL     1      -5.185   2.445  -2.149  1.00  0.00     0.180 HD
ENDBRANCH  19  24
ENDBRANCH  15  18
BRANCH  13  28
HETATM   28  N4  UNL     1      -2.414  -1.417  -1.038  1.00  0.00    -0.198 N 
ATOM     29  H4  UNL     1      -2.204  -1.402  -2.036  1.00  0.00     0.216 HD
BRANCH  28  30
HETATM   30  O3  UNL     1      -3.389  -2.068  -0.631  1.00  0.00    -0.274 OA
ATOM     31  H3  UNL     1      -3.943  -2.553  -1.231  1.00  0.00     0.246 HD
ENDBRANCH  28  30
ENDBRANCH  13  28
ENDBRANCH   1  13
BRANCH   1  32
HETATM   32  N5  UNL     1      -0.093  -2.414  -0.828  1.00  0.00    -0.367 N 
ATOM     33  H5  UNL     1       0.182  -2.216  -1.790  1.00  0.00     0.161 HD
BRANCH  32  34
HETATM   34  C6  UNL     1      -0.246  -3.769  -0.390  1.00  0.00     0.182 C 
BRANCH  34  35
HETATM   35  C7  UNL     1       0.063  -4.705  -1.485  1.00  0.00     0.074 A 
HETATM   36  C8  UNL     1       0.085  -6.063  -1.635  1.00  0.00     0.196 A 
HETATM   37  O4  UNL     1       0.458  -5.958  -2.887  1.00  0.00    -0.248 OA
HETATM   38  N6  UNL     1       0.440  -4.667  -2.754  1.00  0.00    -0.262 N 
ATOM     39  H6  UNL     1       0.643  -3.900  -3.395  1.00  0.00     0.194 HD
ENDBRANCH  34  35
ENDBRANCH  32  34
ENDBRANCH   1  32
BRANCH  10  40
HETATM   40  C14 UNL     1       5.312   0.233  -0.135  1.00  0.00     0.700 A 
HETATM   41  N10 UNL     1       5.241   1.199  -1.075  1.00  0.00    -0.129 N 
HETATM   42  N11 UNL     1       6.155   2.131  -1.219  1.00  0.00    -0.247 N 
ATOM     43  H10 UNL     1       4.438   1.205  -1.704  1.00  0.00     0.205 HD
HETATM   44  C15 UNL     1       7.230   2.156  -0.406  1.00  0.00     0.329 A 
ATOM     45  H11 UNL     1       6.051   2.837  -1.947  1.00  0.00     0.191 HD
HETATM   46  O5  UNL     1       8.094   3.056  -0.558  1.00  0.00    -0.261 OA
HETATM   47  C16 UNL     1       7.358   1.195   0.576  1.00  0.00     0.329 A 
HETATM   48  O6  UNL     1       8.362   1.218   1.334  1.00  0.00    -0.261 OA
HETATM   49  N12 UNL     1       6.383   0.261   0.673  1.00  0.00    -0.150 N 
ATOM     50  H12 UNL     1       6.466  -0.455   1.394  1.00  0.00     0.188 HD
ENDBRANCH  10  40
TORSDOF 10
