REMARK  16 active torsions:
REMARK  status: ('A' for Active; 'I' for Inactive)
REMARK    1  A    between atoms: O1_2  and  C2_3 
REMARK    2  A    between atoms: C2_3  and  C3_5 
REMARK    3  A    between atoms: C3_5  and  N1_6 
REMARK    4  A    between atoms: C3_5  and  C4_10 
REMARK    5  A    between atoms: C4_10  and  S1_11 
REMARK    6  A    between atoms: S1_11  and  S2_12 
REMARK    7  A    between atoms: S2_12  and  C5_13 
REMARK    8  A    between atoms: C5_13  and  C6_14 
REMARK    9  A    between atoms: C6_14  and  C8_17 
REMARK   10  A    between atoms: C8_17  and  O4_19 
REMARK   11  A    between atoms: O4_19  and  C9_20 
REMARK   12  A    between atoms: C9_20  and  C10_21 
REMARK   13  A    between atoms: C9_20  and  C11_24 
REMARK   14  A    between atoms: C12_28  and  N4_29 
REMARK   15  A    between atoms: C12_28  and  C13_33 
REMARK   16  A    between atoms: C19_42  and  O10_43 
ROOT
HETATM    1  C9  UNL     1      -1.986  -1.386   0.923  1.00  0.00     0.269 C 
ENDROOT
BRANCH   1   2
HETATM    2  O4  UNL     1      -0.751  -1.357   0.234  1.00  0.00    -0.298 OA
BRANCH   2   3
HETATM    3  C8  UNL     1       0.468  -1.467   0.806  1.00  0.00     0.303 C 
HETATM    4  O3  UNL     1       0.577  -1.606   2.044  1.00  0.00    -0.258 OA
BRANCH   3   5
HETATM    5  C6  UNL     1       1.733  -1.432   0.019  1.00  0.00     0.105 C 
HETATM    6  C7  UNL     1       1.687  -1.292  -1.290  1.00  0.00     0.126 C 
HETATM    7  N2  UNL     1       2.873  -1.254  -2.042  1.00  0.00    -0.113 NA
BRANCH   5   8
HETATM    8  C5  UNL     1       2.982  -1.543   0.657  1.00  0.00    -0.054 C 
BRANCH   8   9
HETATM    9  S2  UNL     1       4.224  -1.635   1.334  1.00  0.00    -0.013 SA
BRANCH   9  10
HETATM   10  S1  UNL     1       6.033  -1.682   2.312  1.00  0.00    -0.082 SA
BRANCH  10  11
HETATM   11  C4  UNL     1       7.017  -0.247   1.704  1.00  0.00     0.130 C 
BRANCH  11  12
HETATM   12  C3  UNL     1       7.341  -0.535   0.262  1.00  0.00     0.292 C 
BRANCH  12  13
HETATM   13  C2  UNL     1       8.135   0.527  -0.388  1.00  0.00     0.290 C 
HETATM   14  O2  UNL     1       7.780   1.035  -1.501  1.00  0.00    -0.263 OA
BRANCH  13  15
HETATM   15  O1  UNL     1       9.292   0.985   0.218  1.00  0.00    -0.325 OA
HETATM   16  C1  UNL     1      10.104   1.986  -0.327  1.00  0.00     0.213 C 
ENDBRANCH  13  15
ENDBRANCH  12  13
BRANCH  12  17
HETATM   17  N1  UNL     1       6.185  -0.872  -0.515  1.00  0.00    -0.065 N 
ATOM     18  H13 UNL     1       5.616  -0.049  -0.715  1.00  0.00     0.275 HD
ATOM     19  H12 UNL     1       6.437  -1.125  -1.470  1.00  0.00     0.275 HD
ATOM     20  H11 UNL     1       5.637  -1.606  -0.066  1.00  0.00     0.275 HD
ENDBRANCH  12  17
ENDBRANCH  11  12
ENDBRANCH  10  11
ENDBRANCH   9  10
ENDBRANCH   8   9
ENDBRANCH   5   8
ENDBRANCH   3   5
ENDBRANCH   2   3
ENDBRANCH   1   2
BRANCH   1  21
HETATM   21  C10 UNL     1      -2.745  -2.571   0.480  1.00  0.00     0.206 C 
HETATM   22  O5  UNL     1      -2.284  -3.384  -0.386  1.00  0.00    -0.646 OA
HETATM   23  O6  UNL     1      -3.982  -2.828   0.998  1.00  0.00    -0.646 OA
ENDBRANCH   1  21
BRANCH   1  24
HETATM   24  C11 UNL     1      -2.795  -0.144   0.792  1.00  0.00     0.291 C 
HETATM   25  N3  UNL     1      -4.026  -0.368   1.566  1.00  0.00    -0.018 N 
HETATM   26  C12 UNL     1      -4.495   0.955   1.953  1.00  0.00     0.371 C 
ATOM     27  H32 UNL     1      -4.725  -0.921   1.070  1.00  0.00     0.281 HD
ATOM     28  H31 UNL     1      -3.903  -1.005   2.353  1.00  0.00     0.281 HD
HETATM   29  C14 UNL     1      -4.296   1.966   0.875  1.00  0.00     0.091 C 
HETATM   30  C15 UNL     1      -4.128   1.419  -0.495  1.00  0.00     0.057 C 
HETATM   31  C16 UNL     1      -5.407   0.908  -1.110  1.00  0.00     0.042 C 
HETATM   32  C19 UNL     1      -3.207   0.228  -0.588  1.00  0.00     0.198 C 
HETATM   33  C17 UNL     1      -4.870  -0.189  -2.025  1.00  0.00     0.121 C 
HETATM   34  C18 UNL     1      -4.360   0.441  -3.291  1.00  0.00     0.040 C 
HETATM   35  O9  UNL     1      -3.867  -0.769  -1.273  1.00  0.00    -0.348 OA
BRANCH  26  36
HETATM   36  N4  UNL     1      -3.667   1.363   3.099  1.00  0.00    -0.034 N 
ATOM     37  H43 UNL     1      -3.674   0.690   3.865  1.00  0.00     0.278 HD
ATOM     38  H42 UNL     1      -2.665   1.326   2.910  1.00  0.00     0.278 HD
ATOM     39  H41 UNL     1      -3.996   2.290   3.370  1.00  0.00     0.278 HD
ENDBRANCH  26  36
BRANCH  26  40
HETATM   40  C13 UNL     1      -5.885   0.833   2.410  1.00  0.00     0.240 C 
HETATM   41  O7  UNL     1      -6.512  -0.270   2.431  1.00  0.00    -0.645 OA
HETATM   42  O8  UNL     1      -6.588   1.943   2.848  1.00  0.00    -0.645 OA
ENDBRANCH  26  40
BRANCH  32  43
HETATM   43  O10 UNL     1      -2.087   0.580  -1.363  1.00  0.00    -0.363 OA
ATOM     44  H10 UNL     1      -2.350   0.818  -2.244  1.00  0.00     0.213 HD
ENDBRANCH  32  43
ENDBRANCH   1  24
TORSDOF 16
