REMARK  6 active torsions:
REMARK  status: ('A' for Active; 'I' for Inactive)
REMARK    1  A    between atoms: C2_2  and  C3_3 
REMARK    2  A    between atoms: C3_3  and  C4_4 
REMARK    3  A    between atoms: C3_3  and  N2_9 
REMARK    4  A    between atoms: C4_4  and  N1_5 
REMARK       I    between atoms: N2_9  and  C5_11 
REMARK       I    between atoms: C5_11  and  N4_21 
REMARK    5  A    between atoms: N3_12  and  C6_14 
REMARK    6  A    between atoms: C6_14  and  C7_15 
ROOT
HETATM    1  N2  UNL     1      -1.292  -0.520   0.045  1.00  0.00    -0.220 N 
ATOM      2  H2  UNL     1      -1.060  -0.544   1.038  1.00  0.00     0.178 HD
HETATM    3  C5  UNL     1      -0.337  -0.892  -0.924  1.00  0.00     0.683 C 
HETATM    4  N3  UNL     1       0.899  -0.617  -0.776  1.00  0.00    -0.222 N 
ATOM      5  H3  UNL     1       1.584  -0.889  -1.481  1.00  0.00     0.178 HD
HETATM    6  N4  UNL     1      -0.746  -1.584  -2.088  1.00  0.00    -0.126 N 
ATOM      7  H4  UNL     1      -0.569  -1.153  -2.995  1.00  0.00     0.197 HD
HETATM    8  C13 UNL     1      -1.383  -2.833  -2.057  1.00  0.00     0.196 C 
HETATM    9  N5  UNL     1      -1.914  -3.862  -2.047  1.00  0.00    -0.171 NA
ENDROOT
BRANCH   1  10
HETATM   10  C3  UNL     1      -2.604  -0.104  -0.393  1.00  0.00     0.124 C 
BRANCH  10  11
HETATM   11  C2  UNL     1      -3.476   0.249   0.791  1.00  0.00     0.023 C 
HETATM   12  C1  UNL     1      -3.525  -0.960   1.698  1.00  0.00     0.007 C 
ENDBRANCH  10  11
BRANCH  10  13
HETATM   13  C4  UNL     1      -2.505   1.063  -1.354  1.00  0.00     0.255 C 
BRANCH  13  14
HETATM   14  N1  UNL     1      -1.945   2.238  -0.766  1.00  0.00    -0.077 N 
ATOM     15  H13 UNL     1      -2.461   2.503   0.073  1.00  0.00     0.274 HD
ATOM     16  H12 UNL     1      -1.037   2.035  -0.349  1.00  0.00     0.274 HD
ATOM     17  H11 UNL     1      -1.878   3.024  -1.413  1.00  0.00     0.274 HD
ENDBRANCH  13  14
ENDBRANCH  10  13
ENDBRANCH   1  10
BRANCH   4  18
HETATM   18  C6  UNL     1       1.304   0.091   0.419  1.00  0.00     0.176 C 
BRANCH  18  19
HETATM   19  C7  UNL     1       2.772   0.285   0.448  1.00  0.00    -0.040 A 
HETATM   20  C8  UNL     1       3.563  -0.682   1.043  1.00  0.00     0.009 A 
HETATM   21  C9  UNL     1       4.935  -0.549   1.096  1.00  0.00     0.001 A 
HETATM   22  C10 UNL     1       5.516   0.576   0.541  1.00  0.00     0.000 A 
HETATM   23  C11 UNL     1       4.720   1.533  -0.049  1.00  0.00     0.001 A 
HETATM   24  C12 UNL     1       3.364   1.397  -0.099  1.00  0.00     0.009 A 
ENDBRANCH  18  19
ENDBRANCH   4  18
TORSDOF 6
