REMARK  6 active torsions:
REMARK  status: ('A' for Active; 'I' for Inactive)
REMARK    1  A    between atoms: C2_2  and  C3_3 
REMARK    2  A    between atoms: C2_2  and  N2_8 
REMARK    3  A    between atoms: C3_3  and  N1_4 
REMARK    4  A    between atoms: N2_8  and  C4_11 
REMARK    5  A    between atoms: C4_11  and  C5_12 
REMARK    6  A    between atoms: C8_15  and  C9_16 
ROOT
HETATM    1  C5  UNL     1      -0.237  -0.380   0.351  1.00  0.00    -0.033 A 
HETATM    2  C6  UNL     1       0.329   0.262  -0.721  1.00  0.00     0.010 A 
HETATM    3  C7  UNL     1       1.682   0.467  -0.829  1.00  0.00     0.014 A 
HETATM    4  C8  UNL     1       2.555   0.022   0.162  1.00  0.00    -0.009 A 
HETATM    5  C14 UNL     1       2.002  -0.622   1.238  1.00  0.00     0.014 A 
HETATM    6  C15 UNL     1       0.630  -0.816   1.325  1.00  0.00     0.010 A 
ENDROOT
BRANCH   1   7
HETATM    7  C4  UNL     1      -1.686  -0.632   0.533  1.00  0.00     0.271 C 
BRANCH   7   8
HETATM    8  N2  UNL     1      -2.495  -0.064  -0.491  1.00  0.00    -0.066 N 
ATOM      9  H22 UNL     1      -2.191  -0.363  -1.417  1.00  0.00     0.278 HD
ATOM     10  H21 UNL     1      -2.328   0.938  -0.587  1.00  0.00     0.278 HD
BRANCH   8  11
HETATM   11  C2  UNL     1      -3.875  -0.346  -0.278  1.00  0.00     0.207 C 
HETATM   12  C1  UNL     1      -4.491   0.214   0.956  1.00  0.00     0.041 C 
BRANCH  11  13
HETATM   13  C3  UNL     1      -4.710   0.139  -1.475  1.00  0.00     0.262 C 
BRANCH  13  14
HETATM   14  N1  UNL     1      -6.053  -0.366  -1.265  1.00  0.00    -0.077 N 
ATOM     15  H13 UNL     1      -6.089  -1.376  -1.128  1.00  0.00     0.274 HD
ATOM     16  H12 UNL     1      -6.448  -0.103  -0.362  1.00  0.00     0.274 HD
ATOM     17  H11 UNL     1      -6.607  -0.044  -2.059  1.00  0.00     0.274 HD
ENDBRANCH  13  14
ENDBRANCH  11  13
ENDBRANCH   8  11
ENDBRANCH   7   8
ENDBRANCH   1   7
BRANCH   4  18
HETATM   18  C9  UNL     1       3.982   0.239   0.045  1.00  0.00     0.042 A 
HETATM   19  C10 UNL     1       4.865  -0.175   0.993  1.00  0.00     0.030 A 
HETATM   20  C11 UNL     1       6.246   0.047   0.862  1.00  0.00     0.004 A 
HETATM   21  C12 UNL     1       6.672   0.700  -0.267  1.00  0.00     0.017 A 
HETATM   22  C13 UNL     1       5.776   1.113  -1.217  1.00  0.00     0.088 A 
HETATM   23  N3  UNL     1       4.462   0.872  -1.036  1.00  0.00    -0.365 N 
ATOM     24  H3  UNL     1       3.805   1.184  -1.751  1.00  0.00     0.165 HD
ENDBRANCH   4  18
TORSDOF 6
