REMARK  9 active torsions:
REMARK  status: ('A' for Active; 'I' for Inactive)
REMARK    1  A    between atoms: N1_8  and  O1_9 
REMARK    2  A    between atoms: C10_13  and  N2_14 
REMARK       I    between atoms: N2_14  and  C11_16 
REMARK    3  A    between atoms: C11_16  and  C12_18 
REMARK    4  A    between atoms: C12_18  and  O3_19 
REMARK    5  A    between atoms: O3_19  and  C13_20 
REMARK    6  A    between atoms: C13_20  and  C14_22 
REMARK    7  A    between atoms: C14_22  and  O5_23 
REMARK    8  A    between atoms: O5_23  and  C15_24 
REMARK    9  A    between atoms: N3_32  and  O6_33 
ROOT
HETATM    1  N2  UNL     1      -0.851  -1.868  -0.783  1.00  0.00    -0.308 N 
ATOM      2  H2  UNL     1      -0.095  -1.198  -0.643  1.00  0.00     0.170 HD
HETATM    3  C11 UNL     1      -0.416  -3.006  -1.430  1.00  0.00     0.247 C 
HETATM    4  O2  UNL     1      -1.173  -3.919  -1.850  1.00  0.00    -0.271 OA
ENDROOT
BRANCH   1   5
HETATM    5  C10 UNL     1      -2.073  -1.397  -0.267  1.00  0.00     0.161 A 
HETATM    6  C8  UNL     1      -3.182  -2.102   0.079  1.00  0.00     0.083 A 
HETATM    7  N1  UNL     1      -4.340  -1.437   0.416  1.00  0.00    -0.223 N 
HETATM    8  C9  UNL     1      -3.175  -3.584   0.230  1.00  0.00     0.075 C 
HETATM    9  C6  UNL     1      -4.426  -0.104   0.422  1.00  0.00     0.092 A 
HETATM   10  C5  UNL     1      -3.316   0.632   0.081  1.00  0.00     0.094 A 
HETATM   11  C7  UNL     1      -5.578   0.575   0.756  1.00  0.00     0.041 A 
HETATM   12  C4  UNL     1      -3.390   2.029   0.085  1.00  0.00     0.035 A 
HETATM   13  N3  UNL     1      -2.197  -0.007  -0.247  1.00  0.00    -0.204 N 
HETATM   14  C3  UNL     1      -4.556   2.679   0.424  1.00  0.00     0.009 A 
HETATM   15  C2  UNL     1      -5.673   1.948   0.767  1.00  0.00    -0.060 A 
HETATM   16  C1  UNL     1      -6.932   2.666   1.133  1.00  0.00     0.048 C 
BRANCH   7  17
HETATM   17  O1  UNL     1      -5.426  -2.190   0.751  1.00  0.00    -0.282 OA
ATOM     18  H1  UNL     1      -5.365  -3.138   0.747  1.00  0.00     0.245 HD
ENDBRANCH   7  17
BRANCH  13  19
HETATM   19  O6  UNL     1      -1.117   0.776  -0.587  1.00  0.00    -0.281 OA
ATOM     20  H6  UNL     1      -0.318   0.319  -0.821  1.00  0.00     0.245 HD
ENDBRANCH  13  19
ENDBRANCH   1   5
BRANCH   3  21
HETATM   21  C12 UNL     1       1.051  -3.217  -1.669  1.00  0.00     0.281 C 
BRANCH  21  22
HETATM   22  O3  UNL     1       1.857  -2.112  -1.450  1.00  0.00    -0.310 OA
BRANCH  22  23
HETATM   23  C13 UNL     1       1.797  -0.954  -2.214  1.00  0.00     0.283 C 
HETATM   24  O4  UNL     1       0.974  -0.888  -3.162  1.00  0.00    -0.263 OA
BRANCH  23  25
HETATM   25  C14 UNL     1       2.662   0.229  -1.971  1.00  0.00     0.286 C 
BRANCH  25  26
HETATM   26  O5  UNL     1       3.489  -0.055  -0.887  1.00  0.00    -0.342 OA
BRANCH  26  27
HETATM   27  C15 UNL     1       4.434   0.766  -0.339  1.00  0.00     0.070 A 
HETATM   28  C16 UNL     1       4.692   2.028  -0.813  1.00  0.00     0.038 A 
HETATM   29  C17 UNL     1       5.662   2.796  -0.206  1.00  0.00     0.027 A 
HETATM   30  C18 UNL     1       6.381   2.325   0.872  1.00  0.00     0.040 A 
HETATM   31 CL1  UNL     1       7.609   3.294   1.644  1.00  0.00    -0.084 Cl
HETATM   32  C19 UNL     1       6.137   1.052   1.369  1.00  0.00    -0.038 A 
HETATM   33  C20 UNL     1       6.902   0.508   2.541  1.00  0.00     0.050 C 
HETATM   34  C21 UNL     1       5.161   0.309   0.739  1.00  0.00     0.045 A 
ENDBRANCH  26  27
ENDBRANCH  25  26
ENDBRANCH  23  25
ENDBRANCH  22  23
ENDBRANCH  21  22
ENDBRANCH   3  21
TORSDOF 9
