REMARK  8 active torsions:
REMARK  status: ('A' for Active; 'I' for Inactive)
REMARK    1  A    between atoms: C2_2  and  N1_3 
REMARK       I    between atoms: N1_3  and  C3_4 
REMARK    2  A    between atoms: N1_3  and  C12_21 
REMARK    3  A    between atoms: C3_4  and  C4_6 
REMARK    4  A    between atoms: C4_6  and  O2_7 
REMARK    5  A    between atoms: O2_7  and  C5_8 
REMARK    6  A    between atoms: C5_8  and  C6_10 
REMARK       I    between atoms: C6_10  and  N2_12 
REMARK    7  A    between atoms: N2_12  and  C7_14 
REMARK    8  A    between atoms: C15_24  and  N4_25 
ROOT
HETATM    1  N1  UNL     1      -2.119  -0.589  -0.666  1.00  0.00    -0.315 N 
HETATM    2  C3  UNL     1      -1.081  -0.396  -1.591  1.00  0.00     0.248 C 
HETATM    3  O1  UNL     1      -1.045   0.690  -2.227  1.00  0.00    -0.271 OA
ENDROOT
BRANCH   2   4
HETATM    4  C4  UNL     1      -0.058  -1.399  -1.858  1.00  0.00     0.282 C 
BRANCH   4   5
HETATM    5  O2  UNL     1       0.750  -1.804  -0.789  1.00  0.00    -0.304 OA
BRANCH   5   6
HETATM    6  C5  UNL     1       1.669  -0.888  -0.229  1.00  0.00     0.352 C 
HETATM    7  O3  UNL     1       1.692   0.256  -0.761  1.00  0.00    -0.254 OA
BRANCH   6   8
HETATM    8  C6  UNL     1       2.547  -1.198   0.881  1.00  0.00     0.322 C 
HETATM    9  O4  UNL     1       2.568  -2.303   1.460  1.00  0.00    -0.261 OA
HETATM   10  N2  UNL     1       3.445  -0.188   1.344  1.00  0.00    -0.304 N 
ATOM     11  H2  UNL     1       3.179   0.391   2.140  1.00  0.00     0.171 HD
BRANCH  10  12
HETATM   12  C7  UNL     1       4.596   0.007   0.770  1.00  0.00     0.107 A 
HETATM   13  C8  UNL     1       4.934  -0.796  -0.313  1.00  0.00     0.048 A 
HETATM   14  C9  UNL     1       6.158  -0.602  -0.959  1.00  0.00     0.005 A 
HETATM   15  C10 UNL     1       6.974   0.387  -0.482  1.00  0.00     0.017 A 
HETATM   16  C11 UNL     1       6.594   1.162   0.600  1.00  0.00     0.089 A 
HETATM   17  N3  UNL     1       5.429   0.964   1.201  1.00  0.00    -0.352 N 
ATOM     18  H3  UNL     1       5.165   1.544   1.997  1.00  0.00     0.166 HD
ENDBRANCH  10  12
ENDBRANCH   6   8
ENDBRANCH   5   6
ENDBRANCH   4   5
ENDBRANCH   2   4
BRANCH   1  19
HETATM   19  C2  UNL     1      -2.297  -1.852  -0.001  1.00  0.00     0.128 C 
HETATM   20  C1  UNL     1      -1.636  -2.078   1.295  1.00  0.00     0.027 C 
ENDBRANCH   1  19
BRANCH   1  21
HETATM   21  C12 UNL     1      -3.108   0.424  -0.401  1.00  0.00     0.054 A 
HETATM   22  C13 UNL     1      -4.408   0.203  -0.902  1.00  0.00     0.033 A 
HETATM   23  C14 UNL     1      -5.420   1.108  -0.696  1.00  0.00     0.038 A 
HETATM   24  C15 UNL     1      -5.164   2.258   0.015  1.00  0.00     0.104 A 
HETATM   25  C16 UNL     1      -3.915   2.510   0.518  1.00  0.00     0.057 A 
HETATM   26  C17 UNL     1      -2.891   1.567   0.294  1.00  0.00     0.040 A 
HETATM   27 BR1  UNL     1      -1.139   1.932   0.973  1.00  0.00    -0.049 Br
BRANCH  24  28
HETATM   28  N4  UNL     1      -6.202   3.191   0.237  1.00  0.00    -0.116 N 
HETATM   29  O5  UNL     1      -7.352   3.007  -0.222  1.00  0.00    -0.532 OA
HETATM   30  O6  UNL     1      -5.933   4.318   0.967  1.00  0.00    -0.532 OA
ENDBRANCH  24  28
ENDBRANCH   1  21
TORSDOF 8
