REMARK  6 active torsions:
REMARK  status: ('A' for Active; 'I' for Inactive)
REMARK    1  A    between atoms: O1_2  and  C2_3 
REMARK    2  A    between atoms: C5_6  and  C6_7 
REMARK    3  A    between atoms: C6_7  and  C7_8 
REMARK    4  A    between atoms: C7_8  and  N1_9 
REMARK       I    between atoms: N1_9  and  C8_11 
REMARK    5  A    between atoms: C8_11  and  C9_13 
REMARK    6  A    between atoms: C9_13  and  N2_14 
ROOT
HETATM    1  N2  UNL     1      -2.062   0.078  -0.531  1.00  0.00    -0.272 N 
HETATM    2  C10 UNL     1      -1.902  -1.221  -0.188  1.00  0.00     0.253 A 
HETATM    3  O3  UNL     1      -0.803  -1.778  -0.450  1.00  0.00    -0.268 OA
HETATM    4  C11 UNL     1      -2.938  -1.919   0.441  1.00  0.00     0.105 A 
HETATM    5  C12 UNL     1      -4.122  -1.268   0.708  1.00  0.00     0.054 A 
HETATM    6  N3  UNL     1      -5.039  -2.037   1.312  1.00  0.00    -0.349 N 
ATOM      7  H3  UNL     1      -4.675  -2.898   1.721  1.00  0.00     0.166 HD
HETATM    8  C13 UNL     1      -6.377  -1.853   1.467  1.00  0.00     0.080 C 
HETATM    9 BR1  UNL     1      -7.354  -3.429   1.853  1.00  0.00    -0.031 Br
HETATM   10  C14 UNL     1      -7.043  -0.656   1.368  1.00  0.00     0.037 C 
HETATM   11  C15 UNL     1      -6.597   0.602   1.029  1.00  0.00     0.004 C 
HETATM   12  C16 UNL     1      -5.372   0.953   0.510  1.00  0.00     0.019 C 
HETATM   13  C17 UNL     1      -4.284   0.122   0.338  1.00  0.00     0.059 A 
HETATM   14  C18 UNL     1      -3.215   0.744  -0.281  1.00  0.00     0.263 A 
HETATM   15  O4  UNL     1      -3.321   1.955  -0.617  1.00  0.00    -0.267 OA
ENDROOT
BRANCH   1  16
HETATM   16  C9  UNL     1      -0.980   0.770  -1.176  1.00  0.00     0.238 C 
BRANCH  16  17
HETATM   17  C8  UNL     1      -0.084   1.415  -0.189  1.00  0.00     0.236 C 
HETATM   18  N1  UNL     1       1.046   2.150  -0.597  1.00  0.00    -0.359 N 
ATOM     19  H1  UNL     1       1.245   2.237  -1.594  1.00  0.00     0.162 HD
HETATM   20  O2  UNL     1      -0.352   1.294   1.026  1.00  0.00    -0.272 OA
BRANCH  18  21
HETATM   21  C7  UNL     1       1.920   2.776   0.340  1.00  0.00     0.127 C 
BRANCH  21  22
HETATM   22  C6  UNL     1       2.618   1.869   1.299  1.00  0.00     0.058 C 
BRANCH  22  23
HETATM   23  C5  UNL     1       3.481   0.898   0.619  1.00  0.00    -0.057 A 
HETATM   24  C4  UNL     1       3.034  -0.346   0.289  1.00  0.00     0.010 A 
HETATM   25  C3  UNL     1       3.893  -1.232  -0.368  1.00  0.00     0.037 A 
HETATM   26  C2  UNL     1       5.186  -0.894  -0.698  1.00  0.00     0.068 A 
HETATM   27  C20 UNL     1       5.606   0.373  -0.348  1.00  0.00     0.037 A 
HETATM   28  C19 UNL     1       4.778   1.265   0.299  1.00  0.00     0.010 A 
BRANCH  26  29
HETATM   29  O1  UNL     1       6.045  -1.779  -1.355  1.00  0.00    -0.356 OA
HETATM   30  C1  UNL     1       5.538  -3.059  -1.678  1.00  0.00     0.210 C 
ENDBRANCH  26  29
ENDBRANCH  22  23
ENDBRANCH  21  22
ENDBRANCH  18  21
ENDBRANCH  16  17
ENDBRANCH   1  16
TORSDOF 6
