REMARK  13 active torsions:
REMARK  status: ('A' for Active; 'I' for Inactive)
REMARK    1  A    between atoms: C2_2  and  O1_3 
REMARK    2  A    between atoms: O1_3  and  C3_4 
REMARK       I    between atoms: N1_6  and  C5_7 
REMARK    3  A    between atoms: C5_7  and  C6_9 
REMARK    4  A    between atoms: C6_9  and  C7_10 
REMARK    5  A    between atoms: C12_15  and  C13_17 
REMARK    6  A    between atoms: C14_18  and  C15_19 
REMARK    7  A    between atoms: C15_19  and  N2_20 
REMARK    8  A    between atoms: N2_20  and  O3_21 
REMARK    9  A    between atoms: N2_20  and  C16_23 
REMARK   10  A    between atoms: C16_23  and  C17_24 
REMARK   11  A    between atoms: C17_24  and  N3_25 
REMARK       I    between atoms: N3_25  and  C18_27 
REMARK   12  A    between atoms: C18_27  and  O5_29 
REMARK   13  A    between atoms: O5_29  and  C19_30 
ROOT
HETATM    1  C3  UNL     1      -3.040   1.385  -0.655  1.00  0.00     0.282 C 
HETATM    2  C4  UNL     1      -3.485  -0.049  -0.423  1.00  0.00     0.186 C 
HETATM    3  N1  UNL     1      -3.705  -0.206   1.010  1.00  0.00    -0.341 N 
HETATM    4  C5  UNL     1      -4.922  -0.722   1.505  1.00  0.00     0.220 C 
HETATM    5  O2  UNL     1      -5.092  -0.850   2.732  1.00  0.00    -0.273 OA
HETATM    6  C11 UNL     1      -2.654   0.176   1.950  1.00  0.00     0.214 C 
HETATM    7  C12 UNL     1      -1.962   1.406   1.399  1.00  0.00     0.289 C 
HETATM    8  F1  UNL     1      -1.681   2.302   2.421  1.00  0.00    -0.195 F 
HETATM    9  O6  UNL     1      -2.831   2.051   0.541  1.00  0.00    -0.308 OA
ENDROOT
BRANCH   7  10
HETATM   10  C13 UNL     1      -0.745   1.066   0.661  1.00  0.00    -0.031 C 
HETATM   11  C14 UNL     1       0.268   0.785   0.073  1.00  0.00    -0.084 C 
BRANCH  11  12
HETATM   12  C15 UNL     1       1.530   0.436  -0.626  1.00  0.00     0.214 C 
BRANCH  12  13
HETATM   13  N2  UNL     1       2.642   0.906   0.150  1.00  0.00    -0.187 NA
BRANCH  13  14
HETATM   14  O3  UNL     1       2.572   0.517   1.432  1.00  0.00    -0.312 OA
ATOM     15  H3  UNL     1       3.308   0.828   1.946  1.00  0.00     0.237 HD
ENDBRANCH  13  14
BRANCH  13  16
HETATM   16  C16 UNL     1       3.934   0.628  -0.418  1.00  0.00     0.141 C 
BRANCH  16  17
HETATM   17  C17 UNL     1       4.271  -0.831  -0.425  1.00  0.00     0.141 C 
BRANCH  17  18
HETATM   18  N3  UNL     1       5.571  -1.043  -1.001  1.00  0.00    -0.336 N 
HETATM   19  C18 UNL     1       6.728  -0.488  -0.430  1.00  0.00     0.361 C 
HETATM   20  O4  UNL     1       6.788   0.219   0.595  1.00  0.00    -0.238 OA
ATOM     21  H3  UNL     1       5.655  -1.610  -1.845  1.00  0.00     0.164 HD
BRANCH  19  22
HETATM   22  O5  UNL     1       7.975  -0.728  -1.044  1.00  0.00    -0.294 OA
BRANCH  22  23
HETATM   23  C19 UNL     1       9.178  -0.230  -0.560  1.00  0.00     0.061 C 
HETATM   24  C20 UNL     1      10.265  -0.713  -1.533  1.00  0.00     0.046 C 
HETATM   25  C21 UNL     1       9.255   1.259  -0.509  1.00  0.00     0.046 C 
HETATM   26  C22 UNL     1       9.574  -0.771   0.793  1.00  0.00     0.046 C 
ENDBRANCH  22  23
ENDBRANCH  19  22
ENDBRANCH  17  18
ENDBRANCH  16  17
ENDBRANCH  13  16
ENDBRANCH  12  13
ENDBRANCH  11  12
ENDBRANCH   7  10
BRANCH   1  27
HETATM   27  O1  UNL     1      -4.003   2.107  -1.355  1.00  0.00    -0.360 OA
BRANCH  27  28
HETATM   28  C2  UNL     1      -3.524   2.511  -2.609  1.00  0.00     0.166 C 
HETATM   29  C1  UNL     1      -4.540   3.287  -3.380  1.00  0.00     0.033 C 
ENDBRANCH  27  28
ENDBRANCH   1  27
BRANCH   4  30
HETATM   30  C6  UNL     1      -5.994  -1.112   0.573  1.00  0.00     0.111 C 
BRANCH  30  31
HETATM   31  C7  UNL     1      -7.195  -1.636   1.365  1.00  0.00    -0.043 C 
HETATM   32  C8  UNL     1      -7.731  -0.598   2.297  1.00  0.00     0.015 C 
HETATM   33  C9  UNL     1      -8.296  -2.028   0.380  1.00  0.00     0.015 C 
HETATM   34  C10 UNL     1      -6.798  -2.885   2.114  1.00  0.00     0.015 C 
ENDBRANCH  30  31
ENDBRANCH   4  30
TORSDOF 13
