REMARK  9 active torsions:
REMARK  status: ('A' for Active; 'I' for Inactive)
REMARK    1  A    between atoms: N1_2  and  C2_3 
REMARK       I    between atoms: N1_2  and  C10_15 
REMARK    2  A    between atoms: C2_3  and  C3_4 
REMARK       I    between atoms: C3_4  and  N2_6 
REMARK    3  A    between atoms: N2_6  and  C4_8 
REMARK    4  A    between atoms: C10_15  and  C11_17 
REMARK    5  A    between atoms: C11_17  and  O3_18 
REMARK    6  A    between atoms: O3_18  and  C12_19 
REMARK    7  A    between atoms: N3_22  and  O4_23 
REMARK    8  A    between atoms: C15_25  and  N4_26 
REMARK    9  A    between atoms: C16_29  and  O7_30 
ROOT
HETATM    1  C1  UNL     1      -0.683  -0.615   2.964  1.00  0.00     0.153 C 
HETATM    2  N1  UNL     1      -0.426   0.386   1.936  1.00  0.00    -0.346 N 
HETATM    3  C10 UNL     1       0.550   0.090   0.936  1.00  0.00     0.244 C 
HETATM    4  O2  UNL     1       0.800   0.925   0.034  1.00  0.00    -0.271 OA
ENDROOT
BRANCH   3   5
HETATM    5  C11 UNL     1       1.282  -1.192   0.937  1.00  0.00     0.278 C 
BRANCH   5   6
HETATM    6  O3  UNL     1       2.249  -1.256  -0.040  1.00  0.00    -0.339 OA
BRANCH   6   7
HETATM    7  C12 UNL     1       3.383  -0.492  -0.204  1.00  0.00     0.107 A 
HETATM    8  C13 UNL     1       3.790   0.513   0.640  1.00  0.00     0.059 A 
HETATM    9  C14 UNL     1       4.962   1.241   0.389  1.00  0.00     0.128 A 
HETATM   10  N3  UNL     1       5.733   0.988  -0.682  1.00  0.00    -0.211 N 
HETATM   11  C15 UNL     1       5.353   0.007  -1.523  1.00  0.00     0.235 A 
HETATM   12  C16 UNL     1       4.208  -0.732  -1.313  1.00  0.00     0.152 A 
BRANCH  10  13
HETATM   13  O4  UNL     1       6.878   1.699  -0.929  1.00  0.00    -0.281 OA
ATOM     14  H4  UNL     1       7.423   1.520  -1.686  1.00  0.00     0.245 HD
ENDBRANCH  10  13
BRANCH  11  15
HETATM   15  N4  UNL     1       6.146  -0.304  -2.687  1.00  0.00    -0.092 N 
HETATM   16  O5  UNL     1       5.802  -1.209  -3.469  1.00  0.00    -0.530 OA
HETATM   17  O6  UNL     1       7.301   0.411  -2.937  1.00  0.00    -0.530 OA
ENDBRANCH  11  15
BRANCH  12  18
HETATM   18  O7  UNL     1       3.822  -1.741  -2.181  1.00  0.00    -0.355 OA
ATOM     19  H7  UNL     1       4.381  -1.904  -2.932  1.00  0.00     0.218 HD
ENDBRANCH  12  18
ENDBRANCH   6   7
ENDBRANCH   5   6
ENDBRANCH   3   5
BRANCH   2  20
HETATM   20  C2  UNL     1      -1.111   1.640   1.910  1.00  0.00     0.228 C 
BRANCH  20  21
HETATM   21  C3  UNL     1      -2.355   1.510   1.093  1.00  0.00     0.240 C 
HETATM   22  O1  UNL     1      -3.098   2.509   0.946  1.00  0.00    -0.271 OA
HETATM   23  N2  UNL     1      -2.686   0.281   0.497  1.00  0.00    -0.326 N 
ATOM     24  H2  UNL     1      -2.040  -0.494   0.649  1.00  0.00     0.169 HD
BRANCH  23  25
HETATM   25  C4  UNL     1      -3.822   0.018  -0.288  1.00  0.00     0.034 A 
HETATM   26  C5  UNL     1      -3.786  -1.134  -1.071  1.00  0.00     0.031 A 
HETATM   27  C6  UNL     1      -4.818  -1.535  -1.873  1.00  0.00     0.021 A 
HETATM   28  C7  UNL     1      -5.957  -0.769  -1.917  1.00  0.00     0.011 A 
HETATM   29 BR1  UNL     1      -7.383  -1.354  -3.047  1.00  0.00    -0.051 Br
HETATM   30  C8  UNL     1      -6.027   0.372  -1.159  1.00  0.00     0.021 A 
HETATM   31  C9  UNL     1      -4.968   0.764  -0.349  1.00  0.00     0.031 A 
ENDBRANCH  23  25
ENDBRANCH  20  21
ENDBRANCH   2  20
TORSDOF 9
