REMARK  8 active torsions:
REMARK  status: ('A' for Active; 'I' for Inactive)
REMARK    1  A    between atoms: C2_2  and  C3_3 
REMARK    2  A    between atoms: C5_5  and  C6_6 
REMARK    3  A    between atoms: C6_6  and  S1_7 
REMARK    4  A    between atoms: S1_7  and  C7_8 
REMARK    5  A    between atoms: C7_8  and  C8_9 
REMARK       I    between atoms: C8_9  and  N1_11 
REMARK    6  A    between atoms: N1_11  and  C9_12 
REMARK       I    between atoms: N1_11  and  C16_25 
REMARK    7  A    between atoms: C9_12  and  C10_13 
REMARK       I    between atoms: C10_13  and  N2_15 
REMARK    8  A    between atoms: N2_15  and  C11_17 
ROOT
HETATM    1  C8  UNL     1      -0.603  -0.656   1.226  1.00  0.00     0.238 C 
HETATM    2  O1  UNL     1      -0.583  -1.590   2.061  1.00  0.00    -0.272 OA
HETATM    3  N1  UNL     1      -1.652   0.294   1.299  1.00  0.00    -0.253 N 
HETATM    4  C16 UNL     1      -2.639   0.164   2.302  1.00  0.00     0.293 C 
HETATM    5  O3  UNL     1      -2.578  -0.780   3.109  1.00  0.00    -0.629 OA
HETATM    6  O4  UNL     1      -3.658   1.096   2.366  1.00  0.00    -0.629 OA
ENDROOT
BRANCH   3   7
HETATM    7  C9  UNL     1      -1.713   1.402   0.342  1.00  0.00     0.241 C 
BRANCH   7   8
HETATM    8  C10 UNL     1      -2.510   1.000  -0.858  1.00  0.00     0.241 C 
HETATM    9  O2  UNL     1      -2.657   1.842  -1.778  1.00  0.00    -0.271 OA
HETATM   10  N2  UNL     1      -3.095  -0.265  -0.999  1.00  0.00    -0.312 N 
ATOM     11  H2  UNL     1      -2.461  -1.056  -1.107  1.00  0.00     0.170 HD
BRANCH  10  12
HETATM   12  C11 UNL     1      -4.344  -0.523  -1.005  1.00  0.00     0.107 A 
HETATM   13  C12 UNL     1      -5.255   0.492  -0.863  1.00  0.00     0.050 A 
HETATM   14  C13 UNL     1      -6.611   0.207  -0.870  1.00  0.00     0.024 A 
HETATM   15  C14 UNL     1      -7.022  -1.110  -1.020  1.00  0.00     0.026 A 
HETATM   16 BR1  UNL     1      -8.885  -1.508  -1.030  1.00  0.00    -0.050 Br
HETATM   17  C15 UNL     1      -6.075  -2.104  -1.160  1.00  0.00     0.108 A 
HETATM   18  N3  UNL     1      -4.760  -1.783  -1.149  1.00  0.00    -0.351 N 
ATOM     19  H3  UNL     1      -4.068  -2.525  -1.254  1.00  0.00     0.166 HD
ENDBRANCH  10  12
ENDBRANCH   7   8
ENDBRANCH   3   7
BRANCH   1  20
HETATM   20  C7  UNL     1       0.437  -0.526   0.178  1.00  0.00     0.177 C 
BRANCH  20  21
HETATM   21  S1  UNL     1       1.630  -1.888   0.354  1.00  0.00    -0.153 SA
BRANCH  21  22
HETATM   22  C6  UNL     1       2.928  -1.786  -0.896  1.00  0.00     0.141 C 
BRANCH  22  23
HETATM   23  C5  UNL     1       3.749  -0.555  -0.645  1.00  0.00     0.087 A 
HETATM   24  C4  UNL     1       4.878  -0.417   0.135  1.00  0.00     0.062 A 
HETATM   25  C3  UNL     1       5.291   0.899   0.067  1.00  0.00     0.034 A 
HETATM   26  N4  UNL     1       4.401   1.498  -0.745  1.00  0.00    -0.265 N 
HETATM   27  O5  UNL     1       3.512   0.646  -1.151  1.00  0.00    -0.241 OA
ATOM     28  H4  UNL     1       4.423   2.484  -1.005  1.00  0.00     0.194 HD
BRANCH  25  29
HETATM   29  C2  UNL     1       6.474   1.519   0.751  1.00  0.00     0.054 C 
HETATM   30  C1  UNL     1       7.705   1.445  -0.087  1.00  0.00     0.011 C 
ENDBRANCH  25  29
ENDBRANCH  22  23
ENDBRANCH  21  22
ENDBRANCH  20  21
ENDBRANCH   1  20
TORSDOF 8
