REMARK  7 active torsions:
REMARK  status: ('A' for Active; 'I' for Inactive)
REMARK    1  A    between atoms: O1_2  and  C2_3 
REMARK    2  A    between atoms: C2_3  and  C3_4 
REMARK    3  A    between atoms: N3_13  and  C9_14 
REMARK    4  A    between atoms: C9_14  and  C10_15 
REMARK    5  A    between atoms: C10_15  and  C11_16 
REMARK    6  A    between atoms: C11_16  and  O2_17 
REMARK    7  A    between atoms: O2_17  and  C12_18 
ROOT
HETATM    1  C3  UNL     1      -2.727   0.196  -1.151  1.00  0.00     0.157 C 
HETATM    2  C4  UNL     1      -4.109  -0.312  -1.116  1.00  0.00     0.253 C 
HETATM    3  C5  UNL     1      -4.827  -0.299   0.203  1.00  0.00     0.085 C 
HETATM    4  C6  UNL     1      -5.502  -1.547  -0.384  1.00  0.00     0.296 C 
HETATM    5 BR1  UNL     1      -5.839  -2.941   0.874  1.00  0.00    -0.058 Br
HETATM    6  N1  UNL     1      -4.280  -1.714  -1.185  1.00  0.00     0.113 N 
HETATM    7  C7  UNL     1      -3.313  -2.502  -0.504  1.00  0.00     0.318 C 
HETATM    8  C8  UNL     1      -1.912  -2.005  -0.574  1.00  0.00     0.266 A 
HETATM    9  N2  UNL     1      -1.719  -0.623  -0.610  1.00  0.00    -0.301 N 
HETATM   10  N3  UNL     1      -1.072  -0.236   0.538  1.00  0.00    -0.119 NA
HETATM   11  S1  UNL     1      -1.109  -1.914   1.030  1.00  0.00     0.253 S 
HETATM   12  O3  UNL     1      -2.025  -2.165   2.174  1.00  0.00    -0.207 OA
HETATM   13  O4  UNL     1       0.216  -2.566   1.096  1.00  0.00    -0.207 OA
ENDROOT
BRANCH  10  14
HETATM   14  C9  UNL     1       0.297   0.154   0.306  1.00  0.00     0.134 C 
BRANCH  14  15
HETATM   15  C10 UNL     1       0.962   0.698   1.543  1.00  0.00     0.044 C 
BRANCH  15  16
HETATM   16  C11 UNL     1       2.390   1.065   1.151  1.00  0.00     0.177 C 
BRANCH  16  17
HETATM   17  O2  UNL     1       3.001  -0.120   0.699  1.00  0.00    -0.351 OA
BRANCH  17  18
HETATM   18  C12 UNL     1       4.318  -0.092   0.272  1.00  0.00     0.068 A 
HETATM   19  C13 UNL     1       5.070   1.054   0.267  1.00  0.00     0.038 A 
HETATM   20  C14 UNL     1       6.364   1.027  -0.164  1.00  0.00     0.029 A 
HETATM   21  C15 UNL     1       6.945  -0.136  -0.601  1.00  0.00     0.046 A 
HETATM   22  N4  UNL     1       8.297  -0.201  -1.059  1.00  0.00    -0.102 NA
HETATM   23  C16 UNL     1       6.180  -1.277  -0.591  1.00  0.00     0.029 A 
HETATM   24  C17 UNL     1       4.881  -1.295  -0.167  1.00  0.00     0.038 A 
ENDBRANCH  17  18
ENDBRANCH  16  17
ENDBRANCH  15  16
ENDBRANCH  14  15
ENDBRANCH  10  14
BRANCH   1  25
HETATM   25  C2  UNL     1      -2.740   1.589  -0.499  1.00  0.00     0.195 C 
BRANCH  25  26
HETATM   26  O1  UNL     1      -3.773   2.286  -1.121  1.00  0.00    -0.394 OA
HETATM   27  C1  UNL     1      -3.906   3.578  -0.628  1.00  0.00     0.201 C 
ENDBRANCH  25  26
ENDBRANCH   1  25
TORSDOF 7
