REMARK  7 active torsions:
REMARK  status: ('A' for Active; 'I' for Inactive)
REMARK    1  A    between atoms: N2_5  and  C3_6 
REMARK    2  A    between atoms: C3_6  and  C4_7 
REMARK    3  A    between atoms: C4_7  and  C5_8 
REMARK    4  A    between atoms: C5_8  and  C6_9 
REMARK    5  A    between atoms: C6_9  and  N3_10 
REMARK    6  A    between atoms: C12_19  and  C13_20 
REMARK    7  A    between atoms: C13_20  and  C14_21 
ROOT
HETATM    1  C1  UNL     1       3.047   0.502   2.264  1.00  0.00     0.045 C 
HETATM    2  C2  UNL     1       2.099   0.440   1.348  1.00  0.00     0.054 A 
HETATM    3  N1  UNL     1       0.768   0.449   1.687  1.00  0.00    -0.296 N 
ATOM      4  H1  UNL     1       0.397   0.501   2.636  1.00  0.00     0.187 HD
HETATM    5  N2  UNL     1       0.058   0.380   0.599  1.00  0.00    -0.257 N 
HETATM    6  C11 UNL     1       0.844   0.324  -0.472  1.00  0.00     0.274 A 
HETATM    7  O1  UNL     1       0.486   0.250  -1.689  1.00  0.00    -0.266 OA
HETATM    8  C12 UNL     1       2.184   0.362  -0.009  1.00  0.00     0.061 A 
ENDROOT
BRANCH   5   9
HETATM    9  C3  UNL     1      -1.417   0.364   0.539  1.00  0.00     0.152 C 
BRANCH   9  10
HETATM   10  C4  UNL     1      -1.840  -1.069   0.603  1.00  0.00     0.023 C 
BRANCH  10  11
HETATM   11  C5  UNL     1      -3.327  -1.242   0.552  1.00  0.00     0.022 C 
BRANCH  11  12
HETATM   12  C6  UNL     1      -3.911  -0.672  -0.739  1.00  0.00     0.130 C 
BRANCH  12  13
HETATM   13  N3  UNL     1      -5.341  -0.846  -0.772  1.00  0.00    -0.336 N 
HETATM   14  C7  UNL     1      -6.272  -0.002  -0.316  1.00  0.00     0.185 A 
HETATM   15  N4  UNL     1      -7.488  -0.533  -0.535  1.00  0.00    -0.354 N 
HETATM   16  C8  UNL     1      -8.775   0.057  -0.192  1.00  0.00     0.156 C 
HETATM   17  C9  UNL     1      -7.339  -1.713  -1.127  1.00  0.00     0.128 A 
HETATM   18  C10 UNL     1      -5.970  -1.913  -1.279  1.00  0.00     0.098 A 
HETATM   19 BR1  UNL     1      -5.181  -3.464  -2.080  1.00  0.00    -0.030 Br
ENDBRANCH  12  13
ENDBRANCH  11  12
ENDBRANCH  10  11
ENDBRANCH   9  10
ENDBRANCH   5   9
BRANCH   8  20
HETATM   20  C13 UNL     1       3.208   0.322  -0.832  1.00  0.00     0.031 C 
BRANCH  20  21
HETATM   21  C14 UNL     1       4.601   0.354  -0.483  1.00  0.00    -0.032 A 
HETATM   22  C15 UNL     1       5.342  -0.814  -0.259  1.00  0.00     0.014 A 
HETATM   23  C16 UNL     1       6.687  -0.770   0.026  1.00  0.00     0.040 A 
HETATM   24  C17 UNL     1       7.367   0.431   0.102  1.00  0.00     0.105 A 
HETATM   25  C18 UNL     1       6.666   1.598  -0.113  1.00  0.00     0.105 A 
HETATM   26  O3  UNL     1       8.673   0.805   0.360  1.00  0.00    -0.323 OA
HETATM   27  C19 UNL     1       5.325   1.549  -0.397  1.00  0.00     0.051 A 
HETATM   28  O2  UNL     1       7.559   2.679   0.016  1.00  0.00    -0.323 OA
HETATM   29  C20 UNL     1       8.794   2.200   0.458  1.00  0.00     0.352 C 
ENDBRANCH  20  21
ENDBRANCH   8  20
TORSDOF 7
