REMARK  3 active torsions:
REMARK  status: ('A' for Active; 'I' for Inactive)
REMARK    1  A    between atoms: C2_2  and  C3_3 
REMARK    2  A    between atoms: C3_3  and  C4_4 
REMARK    3  A    between atoms: C4_4  and  N1_5 
ROOT
HETATM    1  C4  UNL     1       0.174  -0.128  -0.296  1.00  0.00     0.163 C 
HETATM    2  C5  UNL     1       0.482  -0.669   1.067  1.00  0.00     0.272 C 
HETATM    3  N2  UNL     1       1.772  -1.314   0.968  1.00  0.00    -0.073 N 
ATOM      4  H21 UNL     1       1.727  -2.110   0.332  1.00  0.00     0.277 HD
ATOM      5  H22 UNL     1       1.997  -1.800   1.836  1.00  0.00     0.277 HD
HETATM    6  C6  UNL     1       2.821  -0.443   0.600  1.00  0.00     0.233 C 
HETATM    7  C7  UNL     1       2.471   0.852   0.007  1.00  0.00     0.049 C 
HETATM    8  C8  UNL     1       1.132   0.987  -0.611  1.00  0.00     0.132 C 
HETATM    9  C9  UNL     1       0.497   2.253  -0.242  1.00  0.00     0.066 C 
HETATM   10  N3  UNL     1       0.004   3.283   0.047  1.00  0.00    -0.197 NA
ENDROOT
BRANCH   1  11
HETATM   11  C3  UNL     1      -1.226   0.380  -0.325  1.00  0.00     0.041 C 
BRANCH  11  12
HETATM   12  C2  UNL     1      -2.284  -0.648  -0.057  1.00  0.00    -0.002 C 
HETATM   13  C1  UNL     1      -3.627   0.091  -0.140  1.00  0.00     0.005 C 
ENDBRANCH  11  12
ENDBRANCH   1  11
BRANCH   1  14
HETATM   14  N1  UNL     1       0.426  -1.171  -1.270  1.00  0.00    -0.067 N 
ATOM     15  H13 UNL     1      -0.239  -1.936  -1.161  1.00  0.00     0.275 HD
ATOM     16  H12 UNL     1       0.173  -0.860  -2.208  1.00  0.00     0.275 HD
ATOM     17  H11 UNL     1       1.385  -1.519  -1.250  1.00  0.00     0.275 HD
ENDBRANCH   1  14
TORSDOF 3
