REMARK  3 active torsions:
REMARK  status: ('A' for Active; 'I' for Inactive)
REMARK    1  A    between atoms: C2_2  and  N1_3 
REMARK    2  A    between atoms: C2_2  and  C3_7 
REMARK    3  A    between atoms: C3_7  and  C5_9 
ROOT
HETATM    1  C5  UNL     1       0.555   0.009  -0.105  1.00  0.00     0.052 C 
HETATM    2  C6  UNL     1       0.663   0.861  -1.343  1.00  0.00     0.041 C 
HETATM    3  C7  UNL     1       1.254   0.673   1.050  1.00  0.00     0.199 C 
HETATM    4  O1  UNL     1       2.502   1.088   0.579  1.00  0.00    -0.384 OA
HETATM    5  C8  UNL     1       3.275  -0.041   0.453  1.00  0.00     0.211 C 
HETATM    6  C9  UNL     1       2.678  -1.104  -0.403  1.00  0.00     0.082 C 
HETATM    7  N2  UNL     1       1.276  -1.230  -0.366  1.00  0.00    -0.389 N 
ATOM      8  H2  UNL     1       0.801  -2.121  -0.511  1.00  0.00     0.159 HD
ENDROOT
BRANCH   1   9
HETATM    9  C3  UNL     1      -0.852  -0.393   0.203  1.00  0.00     0.041 C 
HETATM   10  C4  UNL     1      -1.341  -1.334  -0.877  1.00  0.00     0.015 C 
BRANCH   9  11
HETATM   11  C2  UNL     1      -1.794   0.736   0.441  1.00  0.00     0.185 C 
HETATM   12  C1  UNL     1      -3.132   0.141   0.871  1.00  0.00     0.040 C 
BRANCH  11  13
HETATM   13  N1  UNL     1      -2.067   1.558  -0.691  1.00  0.00    -0.075 N 
ATOM     14  H13 UNL     1      -2.551   1.066  -1.442  1.00  0.00     0.274 HD
ATOM     15  H12 UNL     1      -2.786   2.261  -0.517  1.00  0.00     0.274 HD
ATOM     16  H11 UNL     1      -1.173   1.956  -0.978  1.00  0.00     0.274 HD
ENDBRANCH  11  13
ENDBRANCH   9  11
ENDBRANCH   1   9
TORSDOF 3
