REMARK  4 active torsions:
REMARK  status: ('A' for Active; 'I' for Inactive)
REMARK    1  A    between atoms: N1_1  and  C1_4 
REMARK    2  A    between atoms: N5_14  and  N6_16 
REMARK    3  A    between atoms: N6_16  and  S1_18 
REMARK    4  A    between atoms: S1_18  and  N7_19 
ROOT
HETATM    1  C1  UNL     1      -1.302  -0.767   0.283  1.00  0.00     0.150 A 
HETATM    2  N2  UNL     1      -2.604  -0.752   0.661  1.00  0.00    -0.291 N 
ATOM      3  H2  UNL     1      -3.034  -1.623   0.972  1.00  0.00     0.172 HD
HETATM    4  C2  UNL     1      -3.350   0.367   0.642  1.00  0.00     0.340 A 
HETATM    5  O1  UNL     1      -4.557   0.394   0.990  1.00  0.00    -0.245 OA
HETATM    6  N3  UNL     1      -2.746   1.492   0.227  1.00  0.00    -0.250 N 
ATOM      7  H3  UNL     1      -3.283   2.359   0.201  1.00  0.00     0.192 HD
HETATM    8  N4  UNL     1      -1.479   1.513  -0.149  1.00  0.00    -0.277 N 
ATOM      9  H4  UNL     1      -1.069   2.395  -0.456  1.00  0.00     0.189 HD
HETATM   10  C3  UNL     1      -0.703   0.389  -0.138  1.00  0.00     0.180 A 
HETATM   11  N5  UNL     1       0.497   0.517  -0.516  1.00  0.00    -0.271 N 
ATOM     12  H5  UNL     1       0.773   1.458  -0.795  1.00  0.00     0.189 HD
ENDROOT
BRANCH   1  13
HETATM   13  N1  UNL     1      -0.610  -1.839   0.307  1.00  0.00    -0.382 N 
ATOM     14  H12 UNL     1      -1.057  -2.701   0.621  1.00  0.00     0.157 HD
ATOM     15  H11 UNL     1       0.369  -1.850   0.023  1.00  0.00     0.157 HD
ENDBRANCH   1  13
BRANCH  11  16
HETATM   16  N6  UNL     1       1.472  -0.432  -0.601  1.00  0.00    -0.208 N 
ATOM     17  H6  UNL     1       1.358  -1.217  -1.242  1.00  0.00     0.201 HD
BRANCH  16  18
HETATM   18  S1  UNL     1       2.888  -0.317   0.360  1.00  0.00     0.330 S 
HETATM   19  O2  UNL     1       2.643   0.397   1.656  1.00  0.00    -0.181 OA
HETATM   20  O3  UNL     1       3.466  -1.692   0.608  1.00  0.00    -0.181 OA
BRANCH  18  21
HETATM   21  N7  UNL     1       4.095   0.579  -0.500  1.00  0.00    -0.310 N 
ATOM     22  H72 UNL     1       3.968   0.971  -1.433  1.00  0.00     0.170 HD
ATOM     23  H71 UNL     1       4.937   0.647   0.072  1.00  0.00     0.170 HD
ENDBRANCH  18  21
ENDBRANCH  16  18
ENDBRANCH  11  16
TORSDOF 4
