REMARK  4 active torsions:
REMARK  status: ('A' for Active; 'I' for Inactive)
REMARK    1  A    between atoms: C1_4  and  N2_5 
REMARK    2  A    between atoms: C5_15  and  C6_16 
REMARK    3  A    between atoms: C6_16  and  N5_17 
REMARK    4  A    between atoms: N5_17  and  C7_19 
ROOT
HETATM    1  N2  UNL     1      -1.878   1.530  -0.725  1.00  0.00    -0.341 N 
ATOM      2  H2  UNL     1      -1.133   1.951  -1.280  1.00  0.00     0.167 HD
HETATM    3  C2  UNL     1      -1.727   0.348  -0.241  1.00  0.00     0.111 C 
HETATM    4  N3  UNL     1      -2.773  -0.221   0.527  1.00  0.00    -0.376 N 
ATOM      5  H3  UNL     1      -3.556   0.368   0.811  1.00  0.00     0.160 HD
HETATM    6  C3  UNL     1      -2.763  -1.630   0.924  1.00  0.00     0.148 C 
HETATM    7  C4  UNL     1      -1.566  -2.320   0.315  1.00  0.00     0.253 C 
HETATM    8  N4  UNL     1      -0.413  -1.466   0.494  1.00  0.00    -0.061 N 
ATOM      9  H41 UNL     1       0.466  -1.982   0.458  1.00  0.00     0.278 HD
ATOM     10  H42 UNL     1      -0.330  -1.115   1.448  1.00  0.00     0.278 HD
HETATM   11  C5  UNL     1      -0.475  -0.403  -0.487  1.00  0.00     0.270 C 
ENDROOT
BRANCH  11  12
HETATM   12  C6  UNL     1       0.748   0.508  -0.337  1.00  0.00     0.179 C 
BRANCH  12  13
HETATM   13  N5  UNL     1       1.923  -0.274  -0.586  1.00  0.00    -0.222 N 
ATOM     14  H5  UNL     1       1.812  -1.186  -1.029  1.00  0.00     0.177 HD
BRANCH  13  15
HETATM   15  C7  UNL     1       3.118   0.117  -0.278  1.00  0.00     0.693 A 
HETATM   16  N6  UNL     1       3.448   1.278   0.305  1.00  0.00    -0.185 N 
HETATM   17  C8  UNL     1       4.779   1.314   0.459  1.00  0.00     0.215 A 
ATOM     18  H6  UNL     1       2.796   2.011   0.584  1.00  0.00     0.185 HD
HETATM   19  N7  UNL     1       5.250   0.160  -0.038  1.00  0.00    -0.281 N 
HETATM   20  N8  UNL     1       4.248  -0.574  -0.488  1.00  0.00    -0.131 N 
ATOM     21  H7  UNL     1       6.233  -0.110  -0.064  1.00  0.00     0.188 HD
ATOM     22  H8  UNL     1       4.321  -1.497  -0.916  1.00  0.00     0.205 HD
ENDBRANCH  13  15
ENDBRANCH  12  13
ENDBRANCH  11  12
BRANCH   1  23
HETATM   23  C1  UNL     1      -3.077   2.251  -0.490  1.00  0.00     0.174 C 
HETATM   24  N1  UNL     1      -4.132   2.045  -1.200  1.00  0.00    -0.395 N 
ATOM     25  H12 UNL     1      -4.088   1.346  -1.942  1.00  0.00     0.156 HD
ATOM     26  H11 UNL     1      -4.994   2.563  -1.031  1.00  0.00     0.156 HD
ENDBRANCH   1  23
TORSDOF 4
