REMARK  6 active torsions:
REMARK  status: ('A' for Active; 'I' for Inactive)
REMARK    1  A    between atoms: C1_2  and  C2_4 
REMARK    2  A    between atoms: C5_13  and  O3_14 
REMARK    3  A    between atoms: C6_16  and  N4_17 
REMARK       I    between atoms: N4_17  and  C7_19 
REMARK    4  A    between atoms: C7_19  and  C8_21 
REMARK    5  A    between atoms: C8_21  and  N5_22 
REMARK    6  A    between atoms: C8_21  and  C9_26 
ROOT
HETATM    1  C2  UNL     1      -3.718  -0.455  -0.115  1.00  0.00     0.388 C 
HETATM    2  N2  UNL     1      -2.486  -1.210   0.015  1.00  0.00    -0.036 N 
ATOM      3  H21 UNL     1      -1.750  -0.883  -0.611  1.00  0.00     0.280 HD
ATOM      4  H22 UNL     1      -2.559  -2.159  -0.352  1.00  0.00     0.280 HD
HETATM    5  C3  UNL     1      -2.111  -1.172   1.377  1.00  0.00     0.337 C 
HETATM    6  C4  UNL     1      -0.795  -1.721   1.752  1.00  0.00     0.245 C 
HETATM    7  O2  UNL     1      -0.742  -1.940   3.022  1.00  0.00    -0.272 OA
HETATM    8  N3  UNL     1       0.325  -2.019   0.991  1.00  0.00    -0.331 N 
ATOM      9  H3  UNL     1       0.722  -2.932   1.210  1.00  0.00     0.165 HD
HETATM   10  C5  UNL     1       1.038  -1.338  -0.021  1.00  0.00     0.252 C 
HETATM   11  C6  UNL     1       1.510   0.039   0.153  1.00  0.00     0.225 C 
HETATM   12  C10 UNL     1       0.713   0.974   0.940  1.00  0.00     0.244 C 
HETATM   13  O6  UNL     1       0.831   0.934   2.197  1.00  0.00    -0.271 OA
HETATM   14  N6  UNL     1      -0.195   1.940   0.420  1.00  0.00    -0.358 N 
ATOM     15  H6  UNL     1      -0.698   2.518   1.093  1.00  0.00     0.162 HD
HETATM   16  C11 UNL     1      -0.463   2.169  -0.972  1.00  0.00     0.143 C 
HETATM   17  C12 UNL     1      -1.971   2.205  -1.258  1.00  0.00     0.158 C 
HETATM   18  N7  UNL     1      -2.439   0.892  -1.598  1.00  0.00    -0.337 N 
ATOM     19  H7  UNL     1      -1.880   0.250  -2.160  1.00  0.00     0.179 HD
HETATM   20  N8  UNL     1      -3.666   0.553  -1.130  1.00  0.00    -0.303 N 
ATOM     21  H8  UNL     1      -4.513   0.996  -1.485  1.00  0.00     0.182 HD
ENDROOT
BRANCH  11  22
HETATM   22  N4  UNL     1       2.843   0.035   0.738  1.00  0.00    -0.342 N 
HETATM   23  C7  UNL     1       4.003   0.470   0.081  1.00  0.00     0.256 C 
HETATM   24  O4  UNL     1       3.912   0.899  -1.098  1.00  0.00    -0.271 OA
ATOM     25  H4  UNL     1       2.940  -0.309   1.693  1.00  0.00     0.163 HD
BRANCH  23  26
HETATM   26  C8  UNL     1       5.352   0.457   0.697  1.00  0.00     0.335 C 
BRANCH  26  27
HETATM   27  N5  UNL     1       6.354   0.955  -0.210  1.00  0.00    -0.060 N 
ATOM     28  H53 UNL     1       6.343   0.445  -1.094  1.00  0.00     0.275 HD
ATOM     29  H52 UNL     1       6.113   1.883  -0.559  1.00  0.00     0.275 HD
ATOM     30  H51 UNL     1       7.282   0.946   0.214  1.00  0.00     0.275 HD
ENDBRANCH  26  27
BRANCH  26  31
HETATM   31  C9  UNL     1       5.691  -0.950   1.118  1.00  0.00     0.273 C 
HETATM   32  O5  UNL     1       6.684  -1.515   0.708  1.00  0.00    -0.304 OA
ENDBRANCH  26  31
ENDBRANCH  23  26
ENDBRANCH  11  22
BRANCH  10  33
HETATM   33  O3  UNL     1       0.240  -1.393  -1.194  1.00  0.00    -0.374 OA
ATOM     34  H3  UNL     1       0.719  -0.935  -1.874  1.00  0.00     0.212 HD
ENDBRANCH  10  33
BRANCH   1  35
HETATM   35  C1  UNL     1      -4.833  -1.378  -0.452  1.00  0.00     0.282 C 
HETATM   36  N1  UNL     1      -6.125  -0.844  -0.624  1.00  0.00    -0.059 NA
HETATM   37  O1  UNL     1      -4.597  -2.605  -0.574  1.00  0.00    -0.272 OA
ENDBRANCH   1  35
TORSDOF 6
