REMARK  7 active torsions:
REMARK  status: ('A' for Active; 'I' for Inactive)
REMARK    1  A    between atoms: C4_7  and  N3_8 
REMARK    2  A    between atoms: N3_8  and  S1_10 
REMARK    3  A    between atoms: S1_10  and  N4_11 
REMARK    4  A    between atoms: C6_20  and  C7_21 
REMARK    5  A    between atoms: C8_25  and  C9_26 
REMARK    6  A    between atoms: C9_26  and  O5_27 
REMARK    7  A    between atoms: C9_26  and  C10_29 
ROOT
HETATM    1  C1  UNL     1      -1.361  -2.588   0.885  1.00  0.00     0.018 C 
HETATM    2  C2  UNL     1      -1.585  -1.083   0.956  1.00  0.00     0.046 C 
HETATM    3  C3  UNL     1      -0.525  -0.356   1.639  1.00  0.00     0.082 C 
HETATM    4  N1  UNL     1       0.841  -0.573   1.537  1.00  0.00    -0.315 N 
ATOM      5  H1  UNL     1       1.445  -0.037   2.160  1.00  0.00     0.181 HD
HETATM    6  N2  UNL     1       1.447  -1.440   0.677  1.00  0.00    -0.094 NA
HETATM    7  C4  UNL     1       2.648  -0.911   0.159  1.00  0.00     0.313 C 
HETATM    8  N5  UNL     1       2.423  -0.269  -1.184  1.00  0.00    -0.323 N 
ATOM      9  H5  UNL     1       3.230   0.206  -1.588  1.00  0.00     0.166 HD
HETATM   10  C5  UNL     1       1.268  -0.238  -1.942  1.00  0.00     0.249 C 
HETATM   11  O3  UNL     1       1.170  -0.829  -3.081  1.00  0.00    -0.271 OA
HETATM   12  C6  UNL     1      -0.021   0.488  -1.572  1.00  0.00     0.232 C 
HETATM   13  N6  UNL     1      -0.983  -0.443  -1.303  1.00  0.00    -0.396 N 
ATOM     14  H6  UNL     1      -0.910  -1.272  -1.892  1.00  0.00     0.154 HD
HETATM   15  C8  UNL     1      -2.037  -0.509  -0.405  1.00  0.00     0.124 C 
ENDROOT
BRANCH   7  16
HETATM   16  N3  UNL     1       3.107   0.166   1.033  1.00  0.00    -0.265 N 
ATOM     17  H3  UNL     1       2.491   0.645   1.690  1.00  0.00     0.177 HD
BRANCH  16  18
HETATM   18  S1  UNL     1       4.771   0.558   0.862  1.00  0.00     0.315 S 
HETATM   19  O1  UNL     1       5.421  -0.416  -0.058  1.00  0.00    -0.183 OA
HETATM   20  O2  UNL     1       5.424   0.514   2.195  1.00  0.00    -0.183 OA
BRANCH  18  21
HETATM   21  N4  UNL     1       4.827   2.179   0.181  1.00  0.00    -0.311 N 
ATOM     22  H42 UNL     1       4.023   2.758  -0.059  1.00  0.00     0.170 HD
ATOM     23  H41 UNL     1       5.815   2.412   0.079  1.00  0.00     0.170 HD
ENDBRANCH  18  21
ENDBRANCH  16  18
ENDBRANCH   7  16
BRANCH  12  24
HETATM   24  C7  UNL     1      -0.265   1.435  -2.657  1.00  0.00     0.265 C 
HETATM   25  O4  UNL     1      -0.485   2.665  -2.347  1.00  0.00    -0.304 OA
ENDBRANCH  12  24
BRANCH  15  26
HETATM   26  C9  UNL     1      -2.799   0.742  -0.149  1.00  0.00     0.230 C 
BRANCH  26  27
HETATM   27  O5  UNL     1      -3.237   1.383  -1.366  1.00  0.00    -0.384 OA
ATOM     28  H5  UNL     1      -3.724   2.182  -1.202  1.00  0.00     0.210 HD
ENDBRANCH  26  27
BRANCH  26  29
HETATM   29  C10 UNL     1      -4.147   0.439   0.425  1.00  0.00     0.262 C 
HETATM   30  N7  UNL     1      -5.105   1.481   0.426  1.00  0.00    -0.060 NA
HETATM   31  O6  UNL     1      -4.462  -0.648   0.918  1.00  0.00    -0.274 OA
ENDBRANCH  26  29
ENDBRANCH  15  26
TORSDOF 7
