REMARK  11 active torsions:
REMARK  status: ('A' for Active; 'I' for Inactive)
REMARK    1  A    between atoms: C3_5  and  N2_6 
REMARK    2  A    between atoms: N2_6  and  C4_8 
REMARK    3  A    between atoms: C5_12  and  N5_13 
REMARK    4  A    between atoms: C5_12  and  C6_17 
REMARK    5  A    between atoms: N7_20  and  C7_21 
REMARK    6  A    between atoms: C7_21  and  O2_22 
REMARK    7  A    between atoms: C7_21  and  C8_24 
REMARK    8  A    between atoms: C8_24  and  O3_25 
REMARK    9  A    between atoms: C8_24  and  C9_27 
REMARK   10  A    between atoms: C9_27  and  O4_28 
REMARK   11  A    between atoms: C11_34  and  N9_35 
ROOT
HETATM    1  C4  UNL     1       0.469   0.451   0.879  1.00  0.00     0.304 C 
HETATM    2  N3  UNL     1      -0.488   0.052   1.849  1.00  0.00    -0.303 N 
ATOM      3  H3  UNL     1      -0.198  -0.518   2.643  1.00  0.00     0.178 HD
HETATM    4  N4  UNL     1      -1.787   0.425   1.725  1.00  0.00    -0.073 NA
HETATM    5  C5  UNL     1      -2.121   1.043   0.455  1.00  0.00     0.375 C 
HETATM    6  N7  UNL     1      -1.560   0.210  -0.550  1.00  0.00    -0.238 N 
HETATM    7  C10 UNL     1      -0.079   0.238  -0.504  1.00  0.00     0.273 C 
HETATM    8  O5  UNL     1       0.605   0.093  -1.531  1.00  0.00    -0.268 OA
ENDROOT
BRANCH   1   9
HETATM    9  N2  UNL     1       1.611  -0.451   1.085  1.00  0.00    -0.195 N 
ATOM     10  H2  UNL     1       1.415  -1.346   1.534  1.00  0.00     0.180 HD
BRANCH   9  11
HETATM   11  C3  UNL     1       2.803  -0.228   0.763  1.00  0.00     0.696 A 
HETATM   12  N1  UNL     1       3.739  -1.152   1.018  1.00  0.00    -0.180 N 
HETATM   13  C2  UNL     1       5.034  -0.995   0.708  1.00  0.00     0.109 A 
ATOM     14  H1  UNL     1       3.452  -2.019   1.471  1.00  0.00     0.185 HD
HETATM   15  C1  UNL     1       6.039  -2.052   1.010  1.00  0.00     0.090 C 
HETATM   16  N10 UNL     1       5.390   0.156   0.112  1.00  0.00    -0.180 N 
HETATM   17  C11 UNL     1       4.477   1.101  -0.156  1.00  0.00     0.691 A 
ATOM     18  H10 UNL     1       6.366   0.313  -0.139  1.00  0.00     0.185 HD
HETATM   19  N8  UNL     1       3.172   0.911   0.171  1.00  0.00    -0.023 N 
ATOM     20  H8  UNL     1       2.480   1.632  -0.034  1.00  0.00     0.203 HD
BRANCH  17  21
HETATM   21  N9  UNL     1       4.879   2.190  -0.731  1.00  0.00    -0.234 N 
ATOM     22  H92 UNL     1       4.185   2.909  -0.935  1.00  0.00     0.174 HD
ATOM     23  H91 UNL     1       5.859   2.333  -0.976  1.00  0.00     0.174 HD
ENDBRANCH  17  21
ENDBRANCH   9  11
ENDBRANCH   1   9
BRANCH   6  24
HETATM   24  C7  UNL     1      -2.122  -0.676  -1.475  1.00  0.00     0.155 C 
BRANCH  24  25
HETATM   25  O2  UNL     1      -1.286  -1.194  -2.354  1.00  0.00    -0.347 OA
ATOM     26  H2  UNL     1      -1.668  -1.796  -2.982  1.00  0.00     0.219 HD
ENDBRANCH  24  25
BRANCH  24  27
HETATM   27  C8  UNL     1      -3.481  -1.160  -1.666  1.00  0.00     0.216 C 
BRANCH  27  28
HETATM   28  O3  UNL     1      -3.633  -1.689  -3.004  1.00  0.00    -0.385 OA
ATOM     29  H3  UNL     1      -4.520  -2.005  -3.129  1.00  0.00     0.210 HD
ENDBRANCH  27  28
BRANCH  27  30
HETATM   30  C9  UNL     1      -3.737  -2.433  -0.836  1.00  0.00     0.204 C 
BRANCH  30  31
HETATM   31  O4  UNL     1      -3.658  -2.259   0.504  1.00  0.00    -0.398 OA
ATOM     32  H4  UNL     1      -3.816  -3.044   1.016  1.00  0.00     0.209 HD
ENDBRANCH  30  31
ENDBRANCH  27  30
ENDBRANCH  24  27
ENDBRANCH   6  24
BRANCH   5  33
HETATM   33  N5  UNL     1      -1.406   2.356   0.508  1.00  0.00    -0.026 N 
ATOM     34  H53 UNL     1      -1.626   2.925   1.326  1.00  0.00     0.279 HD
ATOM     35  H52 UNL     1      -0.406   2.285   0.694  1.00  0.00     0.279 HD
ATOM     36  H51 UNL     1      -1.641   2.790  -0.385  1.00  0.00     0.279 HD
ENDBRANCH   5  33
BRANCH   5  37
HETATM   37  C6  UNL     1      -3.552   1.351   0.405  1.00  0.00     0.308 C 
HETATM   38  N6  UNL     1      -4.117   2.199  -0.622  1.00  0.00    -0.057 NA
HETATM   39  O1  UNL     1      -4.402   0.930   1.232  1.00  0.00    -0.270 OA
ENDBRANCH   5  37
TORSDOF 11
