REMARK  1 active torsions:
REMARK  status: ('A' for Active; 'I' for Inactive)
REMARK    1  A    between atoms: N1_1  and  C1_4 
ROOT
HETATM    1  C1  UNL     1      -2.353  -0.022   0.112  1.00  0.00     0.679 A 
HETATM    2  N2  UNL     1      -1.999  -1.287  -0.189  1.00  0.00    -0.156 N 
ATOM      3  H2  UNL     1      -2.739  -1.978  -0.308  1.00  0.00     0.187 HD
HETATM    4  C2  UNL     1      -0.729  -1.688  -0.341  1.00  0.00     0.274 A 
HETATM    5  O1  UNL     1      -0.410  -2.876  -0.623  1.00  0.00    -0.267 OA
HETATM    6  C3  UNL     1       0.294  -0.772  -0.186  1.00  0.00     0.088 A 
HETATM    7  C4  UNL     1      -0.050   0.537   0.124  1.00  0.00     0.093 A 
HETATM    8  N3  UNL     1      -1.348   0.861   0.261  1.00  0.00    -0.189 N 
ATOM      9  H3  UNL     1      -1.583   1.827   0.490  1.00  0.00     0.184 HD
HETATM   10  C5  UNL     1       1.222   0.923   0.148  1.00  0.00     0.100 A 
HETATM   11  N4  UNL     1       1.914   2.142   0.387  1.00  0.00    -0.098 NA
HETATM   12  C6  UNL     1       1.582  -0.456  -0.179  1.00  0.00     0.090 A 
HETATM   13  N5  UNL     1       2.788  -1.183  -0.401  1.00  0.00    -0.099 NA
ENDROOT
BRANCH   1  14
HETATM   14  N1  UNL     1      -3.595   0.328   0.252  1.00  0.00    -0.234 N 
ATOM     15  H12 UNL     1      -4.357  -0.341   0.139  1.00  0.00     0.174 HD
ATOM     16  H11 UNL     1      -3.863   1.285   0.480  1.00  0.00     0.174 HD
ENDBRANCH   1  14
TORSDOF 1
