REMARK  7 active torsions:
REMARK  status: ('A' for Active; 'I' for Inactive)
REMARK       I    between atoms: C2_2  and  N1_4 
REMARK       I    between atoms: N1_4  and  C3_6 
REMARK    1  A    between atoms: C3_6  and  C4_8 
REMARK    2  A    between atoms: C4_8  and  N2_9 
REMARK    3  A    between atoms: N2_9  and  C5_10 
REMARK    4  A    between atoms: N2_9  and  S1_16 
REMARK    5  A    between atoms: S1_16  and  C11_19 
REMARK    6  A    between atoms: C14_22  and  O5_23 
REMARK    7  A    between atoms: O5_23  and  C15_24 
ROOT
HETATM    1  N2  UNL     1      -1.500  -1.652  -0.572  1.00  0.00    -0.263 N 
ENDROOT
BRANCH   1   2
HETATM    2  C4  UNL     1      -2.171  -0.416  -0.766  1.00  0.00     0.245 C 
BRANCH   2   3
HETATM    3  C3  UNL     1      -1.701   0.731   0.007  1.00  0.00     0.243 C 
HETATM    4  N1  UNL     1      -2.330   2.016  -0.131  1.00  0.00    -0.297 N 
HETATM    5  C2  UNL     1      -1.871   3.125   0.621  1.00  0.00     0.220 C 
ATOM      6  H1  UNL     1      -3.113   2.130  -0.775  1.00  0.00     0.171 HD
HETATM    7  C1  UNL     1      -2.515   4.450   0.483  1.00  0.00     0.117 C 
HETATM    8  O1  UNL     1      -0.911   3.036   1.427  1.00  0.00    -0.274 OA
HETATM    9  O2  UNL     1      -0.735   0.617   0.811  1.00  0.00    -0.271 OA
ENDBRANCH   2   3
ENDBRANCH   1   2
BRANCH   1  10
HETATM   10  C5  UNL     1      -1.992  -2.587   0.387  1.00  0.00     0.045 A 
HETATM   11  C6  UNL     1      -1.545  -2.607   1.664  1.00  0.00     0.030 A 
HETATM   12  C7  UNL     1      -2.098  -3.578   2.512  1.00  0.00     0.002 A 
HETATM   13  C8  UNL     1      -3.044  -4.468   2.084  1.00  0.00     0.000 A 
HETATM   14  C9  UNL     1      -3.462  -4.399   0.765  1.00  0.00     0.002 A 
HETATM   15  C10 UNL     1      -2.952  -3.468  -0.103  1.00  0.00     0.030 A 
ENDBRANCH   1  10
BRANCH   1  16
HETATM   16  S1  UNL     1      -0.104  -2.134  -1.480  1.00  0.00     0.265 S 
HETATM   17  O3  UNL     1      -0.448  -2.184  -2.962  1.00  0.00    -0.200 OA
HETATM   18  O4  UNL     1       0.307  -3.542  -1.128  1.00  0.00    -0.200 OA
BRANCH  16  19
HETATM   19  C11 UNL     1       1.233  -1.058  -1.252  1.00  0.00     0.081 A 
HETATM   20  C12 UNL     1       1.382   0.040  -2.088  1.00  0.00     0.028 A 
HETATM   21  C13 UNL     1       2.443   0.906  -1.927  1.00  0.00     0.040 A 
HETATM   22  C14 UNL     1       3.396   0.732  -0.946  1.00  0.00     0.096 A 
HETATM   23  C17 UNL     1       3.248  -0.358  -0.117  1.00  0.00     0.046 A 
HETATM   24 BR1  UNL     1       4.526  -0.668   1.267  1.00  0.00    -0.048 Br
HETATM   25  C18 UNL     1       2.197  -1.240  -0.255  1.00  0.00     0.047 A 
BRANCH  22  26
HETATM   26  O5  UNL     1       4.473   1.590  -0.764  1.00  0.00    -0.278 OA
BRANCH  26  27
HETATM   27  C15 UNL     1       4.451   2.698   0.054  1.00  0.00     0.260 C 
HETATM   28  C16 UNL     1       5.612   3.609   0.240  1.00  0.00     0.126 C 
HETATM   29  O6  UNL     1       3.388   2.950   0.678  1.00  0.00    -0.265 OA
ENDBRANCH  26  27
ENDBRANCH  22  26
ENDBRANCH  16  19
ENDBRANCH   1  16
TORSDOF 7
