REMARK  7 active torsions:
REMARK  status: ('A' for Active; 'I' for Inactive)
REMARK    1  A    between atoms: O1_2  and  C2_3 
REMARK    2  A    between atoms: C2_3  and  C3_5 
REMARK    3  A    between atoms: C3_5  and  N1_6 
REMARK    4  A    between atoms: N2_9  and  C6_10 
REMARK    5  A    between atoms: C6_10  and  C7_11 
REMARK    6  A    between atoms: C7_11  and  N3_12 
REMARK       I    between atoms: N3_12  and  C8_14 
REMARK    7  A    between atoms: C8_14  and  C9_16 
ROOT
HETATM    1  N1  UNL     1       5.045   0.475  -0.532  1.00  0.00    -0.380 N 
HETATM    2  C4  UNL     1       4.561  -0.363   0.496  1.00  0.00     0.142 C 
HETATM    3  C5  UNL     1       3.222  -0.962   0.120  1.00  0.00     0.143 C 
HETATM    4  N2  UNL     1       2.344   0.170  -0.122  1.00  0.00    -0.369 N 
HETATM    5  C19 UNL     1       2.709   0.845  -1.299  1.00  0.00     0.230 C 
HETATM    6  C20 UNL     1       2.576  -0.010  -2.479  1.00  0.00     0.090 C 
HETATM    7  N4  UNL     1       2.472  -0.682  -3.385  1.00  0.00    -0.195 NA
HETATM    8  C21 UNL     1       4.146   1.305  -1.215  1.00  0.00     0.098 C 
ENDROOT
BRANCH   4   9
HETATM    9  C6  UNL     1       0.989  -0.096   0.158  1.00  0.00     0.079 C 
BRANCH   9  10
HETATM   10  C7  UNL     1       0.137   1.115  -0.111  1.00  0.00     0.166 C 
BRANCH  10  11
HETATM   11  N3  UNL     1      -1.270   0.897   0.201  1.00  0.00    -0.356 N 
HETATM   12  C8  UNL     1      -2.050  -0.074  -0.451  1.00  0.00     0.226 C 
HETATM   13  O3  UNL     1      -1.550  -0.794  -1.344  1.00  0.00    -0.273 OA
ATOM     14  H3  UNL     1      -1.706   1.472   0.922  1.00  0.00     0.162 HD
BRANCH  12  15
HETATM   15  C9  UNL     1      -3.480  -0.249  -0.078  1.00  0.00     0.043 C 
HETATM   16  C10 UNL     1      -4.097  -1.304  -0.959  1.00  0.00     0.024 C 
HETATM   17  C11 UNL     1      -5.551  -1.508  -0.664  1.00  0.00    -0.012 C 
HETATM   18  C12 UNL     1      -5.660  -2.031   0.751  1.00  0.00     0.009 C 
HETATM   19  C16 UNL     1      -6.264  -0.181  -0.796  1.00  0.00     0.025 C 
HETATM   20  C13 UNL     1      -5.020  -1.042   1.678  1.00  0.00    -0.012 C 
HETATM   21  C14 UNL     1      -5.799   0.257   1.589  1.00  0.00     0.025 C 
HETATM   22  C18 UNL     1      -3.593  -0.749   1.347  1.00  0.00     0.024 C 
HETATM   23  C15 UNL     1      -5.678   0.795   0.200  1.00  0.00     0.020 C 
HETATM   24 BR1  UNL     1      -6.629   2.483   0.080  1.00  0.00    -0.085 Br
HETATM   25  C17 UNL     1      -4.234   1.044  -0.168  1.00  0.00     0.040 C 
ENDBRANCH  12  15
ENDBRANCH  10  11
ENDBRANCH   9  10
ENDBRANCH   4   9
BRANCH   1  26
HETATM   26  C3  UNL     1       6.167  -0.019  -1.274  1.00  0.00     0.233 C 
BRANCH  26  27
HETATM   27  C2  UNL     1       7.367  -0.047  -0.360  1.00  0.00     0.276 C 
HETATM   28  O2  UNL     1       8.496  -0.430  -0.756  1.00  0.00    -0.263 OA
BRANCH  27  29
HETATM   29  O1  UNL     1       7.258   0.354   0.963  1.00  0.00    -0.325 OA
HETATM   30  C1  UNL     1       8.303   0.365   1.885  1.00  0.00     0.213 C 
ENDBRANCH  27  29
ENDBRANCH  26  27
ENDBRANCH   1  26
TORSDOF 7
