REMARK  6 active torsions:
REMARK  status: ('A' for Active; 'I' for Inactive)
REMARK    1  A    between atoms: N2_5  and  C4_6 
REMARK    2  A    between atoms: C4_6  and  C5_7 
REMARK       I    between atoms: C5_7  and  N3_9 
REMARK    3  A    between atoms: N3_9  and  C6_11 
REMARK    4  A    between atoms: C11_16  and  C12_17 
REMARK    5  A    between atoms: C12_17  and  S1_18 
REMARK    6  A    between atoms: S1_18  and  N4_21 
ROOT
HETATM    1  C6  UNL     1       0.371  -1.636  -0.869  1.00  0.00     0.095 C 
HETATM    2  C7  UNL     1       0.895  -2.925  -1.525  1.00  0.00     0.031 C 
HETATM    3  C8  UNL     1      -0.131  -3.924  -1.092  1.00  0.00    -0.004 C 
HETATM    4  C9  UNL     1      -0.027  -4.030   0.399  1.00  0.00     0.006 C 
HETATM    5  C10 UNL     1      -0.715  -2.809   0.957  1.00  0.00     0.014 C 
HETATM    6  C11 UNL     1      -0.958  -1.955  -0.319  1.00  0.00     0.002 C 
HETATM    7  C19 UNL     1      -1.422  -3.071  -1.207  1.00  0.00    -0.034 C 
HETATM    8  C20 UNL     1      -1.643  -2.702  -2.648  1.00  0.00     0.016 C 
HETATM    9  C21 UNL     1      -2.588  -3.838  -0.689  1.00  0.00     0.016 C 
ENDROOT
BRANCH   1  10
HETATM   10  N3  UNL     1       1.370  -1.204   0.056  1.00  0.00    -0.354 N 
HETATM   11  C5  UNL     1       2.131  -0.034  -0.154  1.00  0.00     0.246 C 
HETATM   12  O1  UNL     1       1.919   0.640  -1.188  1.00  0.00    -0.272 OA
ATOM     13  H3  UNL     1       1.539  -1.759   0.895  1.00  0.00     0.162 HD
BRANCH  11  14
HETATM   14  C4  UNL     1       3.167   0.434   0.789  1.00  0.00     0.374 C 
BRANCH  14  15
HETATM   15  N2  UNL     1       3.796   1.662   0.328  1.00  0.00     0.100 N 
HETATM   16  C3  UNL     1       4.573   1.405  -0.846  1.00  0.00     0.303 C 
HETATM   17  C2  UNL     1       5.920   2.090  -0.834  1.00  0.00     0.302 C 
HETATM   18  N1  UNL     1       6.701   1.789   0.329  1.00  0.00     0.087 N 
HETATM   19  C1  UNL     1       7.656   2.852   0.520  1.00  0.00     0.310 C 
HETATM   20  C23 UNL     1       5.923   1.511   1.497  1.00  0.00     0.302 C 
HETATM   21  C22 UNL     1       4.580   2.182   1.435  1.00  0.00     0.303 C 
ENDBRANCH  14  15
ENDBRANCH  11  14
ENDBRANCH   1  10
BRANCH   6  22
HETATM   22  C12 UNL     1      -1.866  -0.894   0.043  1.00  0.00     0.170 C 
BRANCH  22  23
HETATM   23  S1  UNL     1      -2.463   0.283  -1.053  1.00  0.00     0.212 S 
HETATM   24  O2  UNL     1      -3.418  -0.234  -2.116  1.00  0.00    -0.211 OA
HETATM   25  O3  UNL     1      -1.388   1.119  -1.651  1.00  0.00    -0.211 OA
BRANCH  23  26
HETATM   26  N4  UNL     1      -3.504   1.404  -0.176  1.00  0.00    -0.207 NA
HETATM   27  C13 UNL     1      -2.816   2.109   0.851  1.00  0.00     0.107 C 
HETATM   28  C14 UNL     1      -3.895   2.619   1.819  1.00  0.00     0.019 C 
HETATM   29  C15 UNL     1      -5.100   3.054   1.010  1.00  0.00     0.045 C 
HETATM   30  C16 UNL     1      -5.761   1.841   0.425  1.00  0.00     0.112 C 
HETATM   31  C17 UNL     1      -6.301   2.108  -0.972  1.00  0.00     0.053 C 
HETATM   32  F1  UNL     1      -6.759   1.323   1.215  1.00  0.00    -0.242 F 
HETATM   33  C18 UNL     1      -4.701   0.755   0.261  1.00  0.00     0.150 C 
ENDBRANCH  23  26
ENDBRANCH  22  23
ENDBRANCH   6  22
TORSDOF 6
