REMARK  13 active torsions:
REMARK  status: ('A' for Active; 'I' for Inactive)
REMARK    1  A    between atoms: C2_2  and  C3_3 
REMARK    2  A    between atoms: C2_2  and  C21_29 
REMARK    3  A    between atoms: C4_4  and  C5_5 
REMARK    4  A    between atoms: N1_11  and  C9_12 
REMARK    5  A    between atoms: C9_12  and  C10_13 
REMARK    6  A    between atoms: C10_13  and  C11_14 
REMARK    7  A    between atoms: C11_14  and  O3_15 
REMARK    8  A    between atoms: C11_14  and  C12_17 
REMARK    9  A    between atoms: C12_17  and  C13_18 
REMARK   10  A    between atoms: C18_24  and  O5_25 
REMARK   11  A    between atoms: C22_30  and  O6_31 
REMARK   12  A    between atoms: C22_30  and  C23_33 
REMARK   13  A    between atoms: C23_33  and  O7_36 
ROOT
HETATM    1  C5  UNL     1       2.107   0.316  -0.641  1.00  0.00     0.033 C 
HETATM    2  C6  UNL     1       0.795   0.076  -0.683  1.00  0.00     0.064 C 
HETATM    3  O1  UNL     1       0.136  -0.116   0.541  1.00  0.00    -0.281 OA
HETATM    4  C7  UNL     1      -1.091  -0.784   0.554  1.00  0.00     0.301 C 
HETATM    5  O2  UNL     1      -1.555  -1.169   1.637  1.00  0.00    -0.262 OA
HETATM    6  C8  UNL     1      -1.744  -0.984  -0.720  1.00  0.00     0.364 C 
HETATM    7  N1  UNL     1      -3.184  -1.019  -0.723  1.00  0.00     0.113 N 
HETATM    8  C16 UNL     1      -3.463  -0.830  -2.160  1.00  0.00     0.355 C 
HETATM    9  C17 UNL     1      -2.266  -0.210  -2.785  1.00  0.00     0.192 C 
HETATM   10  O4  UNL     1      -2.032  -0.027  -3.952  1.00  0.00    -0.293 OA
HETATM   11  C18 UNL     1      -1.394   0.149  -1.650  1.00  0.00     0.169 C 
HETATM   12  C19 UNL     1       0.079   0.018  -1.975  1.00  0.00     0.084 C 
HETATM   13  C20 UNL     1       0.539   1.108  -2.921  1.00  0.00     0.020 C 
ENDROOT
BRANCH   1  14
HETATM   14  C4  UNL     1       2.787   0.369   0.625  1.00  0.00    -0.001 C 
HETATM   15  C3  UNL     1       4.009   0.582   0.892  1.00  0.00    -0.018 C 
BRANCH  15  16
HETATM   16  C2  UNL     1       5.204   0.853   0.130  1.00  0.00     0.029 C 
HETATM   17  C1  UNL     1       5.079   1.113  -1.326  1.00  0.00     0.018 C 
BRANCH  16  18
HETATM   18  C21 UNL     1       6.176  -0.269   0.412  1.00  0.00     0.016 C 
HETATM   19  C22 UNL     1       7.354  -0.037   0.946  1.00  0.00     0.073 C 
BRANCH  19  20
HETATM   20  O6  UNL     1       7.698   1.281   1.253  1.00  0.00    -0.362 OA
ATOM     21  H6  UNL     1       8.550   1.449   1.639  1.00  0.00     0.217 HD
ENDBRANCH  19  20
BRANCH  19  22
HETATM   22  C23 UNL     1       8.271  -1.160   1.204  1.00  0.00     0.098 C 
HETATM   23  C24 UNL     1       8.622  -1.290   2.664  1.00  0.00     0.053 C 
HETATM   24  C25 UNL     1       9.571  -0.942   0.445  1.00  0.00     0.053 C 
BRANCH  22  25
HETATM   25  O7  UNL     1       7.731  -2.372   0.786  1.00  0.00    -0.384 OA
ATOM     26  H7  UNL     1       8.323  -3.096   0.952  1.00  0.00     0.211 HD
ENDBRANCH  22  25
ENDBRANCH  19  22
ENDBRANCH  16  18
ENDBRANCH  15  16
ENDBRANCH   1  14
BRANCH  11  27
HETATM   27  O5  UNL     1      -1.683   1.401  -1.184  1.00  0.00    -0.378 OA
ATOM     28  H5  UNL     1      -1.462   2.115  -1.770  1.00  0.00     0.211 HD
ENDBRANCH  11  27
BRANCH   7  29
HETATM   29  C9  UNL     1      -3.801  -0.010   0.050  1.00  0.00     0.277 C 
BRANCH  29  30
HETATM   30  C10 UNL     1      -5.145  -0.279   0.653  1.00  0.00     0.062 C 
BRANCH  30  31
HETATM   31  C11 UNL     1      -6.256  -0.678  -0.227  1.00  0.00     0.120 C 
BRANCH  31  32
HETATM   32  O3  UNL     1      -5.960  -1.901  -0.898  1.00  0.00    -0.396 OA
ATOM     33  H3  UNL     1      -6.677  -2.158  -1.466  1.00  0.00     0.210 HD
ENDBRANCH  31  32
BRANCH  31  34
HETATM   34  C12 UNL     1      -7.565  -0.826   0.472  1.00  0.00     0.035 C 
BRANCH  34  35
HETATM   35  C13 UNL     1      -8.143   0.343   1.170  1.00  0.00    -0.020 C 
HETATM   36  C14 UNL     1      -8.340   1.539   0.255  1.00  0.00     0.009 C 
HETATM   37  C15 UNL     1      -7.593   0.674   2.517  1.00  0.00     0.009 C 
ENDBRANCH  34  35
ENDBRANCH  31  34
ENDBRANCH  30  31
ENDBRANCH  29  30
ENDBRANCH   7  29
TORSDOF 13
