REMARK  17 active torsions:
REMARK  status: ('A' for Active; 'I' for Inactive)
REMARK    1  A    between atoms: O1_2  and  N1_3 
REMARK    2  A    between atoms: N1_3  and  C2_4 
REMARK    3  A    between atoms: C2_4  and  C3_5 
REMARK    4  A    between atoms: C2_4  and  C24_54 
REMARK       I    between atoms: C3_5  and  N2_7 
REMARK    5  A    between atoms: N2_7  and  N3_9 
REMARK    6  A    between atoms: C4_10  and  C5_11 
REMARK       I    between atoms: C5_11  and  N4_13 
REMARK       I    between atoms: N4_13  and  C6_15 
REMARK    7  A    between atoms: C6_15  and  C7_17 
REMARK    8  A    between atoms: C7_17  and  N5_18 
REMARK    9  A    between atoms: N5_18  and  C8_20 
REMARK   10  A    between atoms: C8_20  and  C9_21 
REMARK   11  A    between atoms: C8_20  and  C10_28 
REMARK       I    between atoms: C9_21  and  N6_23 
REMARK   12  A    between atoms: N6_23  and  N7_25 
REMARK   13  A    between atoms: C13_36  and  C14_37 
REMARK   14  A    between atoms: C14_37  and  O6_38 
REMARK   15  A    between atoms: C14_37  and  O7_40 
REMARK   16  A    between atoms: C19_46  and  O8_47 
REMARK   17  A    between atoms: C24_54  and  O11_56 
ROOT
HETATM    1  C5  UNL     1       0.800  -1.016   0.791  1.00  0.00     0.277 C 
HETATM    2  O3  UNL     1       0.525  -0.086  -0.003  1.00  0.00    -0.266 OA
HETATM    3  N4  UNL     1      -0.366  -1.576   1.430  1.00  0.00    -0.287 N 
ATOM      4  H4  UNL     1      -0.215  -2.340   2.089  1.00  0.00     0.172 HD
HETATM    5  C6  UNL     1      -1.692  -1.159   1.222  1.00  0.00     0.263 C 
HETATM    6  O4  UNL     1      -2.587  -1.784   1.892  1.00  0.00    -0.267 OA
ENDROOT
BRANCH   1   7
HETATM    7  C4  UNL     1       2.129  -1.525   1.084  1.00  0.00     0.129 A 
HETATM    8  N3  UNL     1       3.243  -0.942   0.527  1.00  0.00    -0.212 N 
HETATM    9  C23 UNL     1       4.438  -1.535   0.740  1.00  0.00     0.278 A 
HETATM   10  C22 UNL     1       4.602  -2.704   1.493  1.00  0.00     0.044 A 
HETATM   11  O9  UNL     1       5.496  -1.070   0.274  1.00  0.00    -0.265 OA
HETATM   12  C17 UNL     1       3.509  -3.287   2.051  1.00  0.00    -0.015 A 
HETATM   13  C21 UNL     1       5.848  -3.264   1.676  1.00  0.00     0.021 A 
HETATM   14  C16 UNL     1       2.290  -2.683   1.834  1.00  0.00     0.050 A 
HETATM   15  C18 UNL     1       3.637  -4.435   2.799  1.00  0.00     0.049 A 
HETATM   16  C19 UNL     1       4.889  -5.007   2.988  1.00  0.00     0.066 A 
HETATM   17  C20 UNL     1       6.008  -4.413   2.419  1.00  0.00     0.037 A 
BRANCH   8  18
HETATM   18  N2  UNL     1       3.093   0.296  -0.070  1.00  0.00    -0.258 N 
HETATM   19  C3  UNL     1       3.895   0.912  -1.038  1.00  0.00     0.268 C 
HETATM   20  O2  UNL     1       4.903   0.377  -1.537  1.00  0.00    -0.269 OA
ATOM     21  H2  UNL     1       2.285   0.836   0.238  1.00  0.00     0.190 HD
BRANCH  19  22
HETATM   22  C2  UNL     1       3.544   2.313  -1.530  1.00  0.00     0.298 C 
BRANCH  22  23
HETATM   23  N1  UNL     1       4.502   2.692  -2.573  1.00  0.00    -0.077 NA
BRANCH  23  24
HETATM   24  O1  UNL     1       5.749   2.659  -2.007  1.00  0.00    -0.290 OA
HETATM   25  C1  UNL     1       6.655   2.542  -3.046  1.00  0.00     0.231 C 
ENDBRANCH  23  24
ENDBRANCH  22  23
BRANCH  22  26
HETATM   26  C24 UNL     1       3.555   3.303  -0.448  1.00  0.00     0.289 C 
HETATM   27  O10 UNL     1       4.346   4.311  -0.507  1.00  0.00    -0.263 OA
BRANCH  26  28
HETATM   28  O11 UNL     1       2.764   3.251   0.673  1.00  0.00    -0.325 OA
HETATM   29  C25 UNL     1       2.817   4.239   1.686  1.00  0.00     0.213 C 
ENDBRANCH  26  28
ENDBRANCH  22  26
ENDBRANCH  19  22
ENDBRANCH   8  18
BRANCH  16  30
HETATM   30  O8  UNL     1       5.053  -6.168   3.739  1.00  0.00    -0.361 OA
ATOM     31  H8  UNL     1       5.909  -6.559   3.868  1.00  0.00     0.217 HD
ENDBRANCH  16  30
ENDBRANCH   1   7
BRANCH   5  32
HETATM   32  C7  UNL     1      -2.112  -0.103   0.332  1.00  0.00     0.163 C 
BRANCH  32  33
HETATM   33  N5  UNL     1      -3.494   0.165   0.260  1.00  0.00    -0.353 N 
ATOM     34  H5  UNL     1      -3.845   1.034   0.661  1.00  0.00     0.165 HD
BRANCH  33  35
HETATM   35  C8  UNL     1      -4.394  -0.703  -0.333  1.00  0.00     0.148 C 
BRANCH  35  36
HETATM   36  C9  UNL     1      -4.260  -0.909  -1.803  1.00  0.00     0.290 C 
HETATM   37  O5  UNL     1      -3.359  -0.340  -2.447  1.00  0.00    -0.264 OA
HETATM   38  N6  UNL     1      -5.139  -1.747  -2.521  1.00  0.00    -0.271 N 
ATOM     39  H6  UNL     1      -5.890  -2.230  -2.029  1.00  0.00     0.189 HD
BRANCH  38  40
HETATM   40  N7  UNL     1      -4.993  -1.920  -3.886  1.00  0.00    -0.342 N 
ATOM     41  H72 UNL     1      -4.237  -1.429  -4.363  1.00  0.00     0.176 HD
ATOM     42  H71 UNL     1      -5.629  -2.526  -4.405  1.00  0.00     0.176 HD
ENDBRANCH  38  40
ENDBRANCH  35  36
BRANCH  35  43
HETATM   43  C10 UNL     1      -5.814  -0.695   0.033  1.00  0.00     0.162 A 
HETATM   44  N8  UNL     1      -6.376  -1.898   0.496  1.00  0.00    -0.281 N 
HETATM   45  N9  UNL     1      -7.609  -1.749   0.800  1.00  0.00    -0.277 N 
ATOM     46  H8  UNL     1      -5.865  -2.777   0.579  1.00  0.00     0.188 HD
HETATM   47  C11 UNL     1      -7.886  -0.430   0.540  1.00  0.00     0.172 A 
ATOM     48  H9  UNL     1      -8.249  -2.458   1.159  1.00  0.00     0.189 HD
HETATM   49  S1  UNL     1      -9.130   0.713   0.605  1.00  0.00    -0.061 SA
HETATM   50  N10 UNL     1      -6.821   0.234   0.073  1.00  0.00    -0.268 N 
HETATM   51  C12 UNL     1      -8.273   2.040   0.028  1.00  0.00     0.088 A 
HETATM   52  C13 UNL     1      -6.982   1.525  -0.210  1.00  0.00     0.107 A 
BRANCH  52  53
HETATM   53  C14 UNL     1      -6.032   2.511  -0.752  1.00  0.00     0.206 C 
BRANCH  53  54
HETATM   54  O6  UNL     1      -6.415   3.754  -0.880  1.00  0.00    -0.339 OA
ATOM     55  H6  UNL     1      -5.802   4.390  -1.230  1.00  0.00     0.220 HD
ENDBRANCH  53  54
BRANCH  53  56
HETATM   56  O7  UNL     1      -4.774   2.364  -1.170  1.00  0.00    -0.334 OA
HETATM   57  C15 UNL     1      -3.943   3.371  -1.682  1.00  0.00     0.212 C 
ENDBRANCH  53  56
ENDBRANCH  52  53
ENDBRANCH  35  43
ENDBRANCH  33  35
ENDBRANCH  32  33
ENDBRANCH   5  32
TORSDOF 17
