REMARK  16 active torsions:
REMARK  status: ('A' for Active; 'I' for Inactive)
REMARK    1  A    between atoms: C2_2  and  O1_3 
REMARK    2  A    between atoms: O1_3  and  C3_4 
REMARK    3  A    between atoms: C4_7  and  S1_8 
REMARK    4  A    between atoms: N3_13  and  C7_15 
REMARK    5  A    between atoms: C8_16  and  O2_18 
REMARK    6  A    between atoms: C10_20  and  O3_21 
REMARK    7  A    between atoms: O3_21  and  C11_22 
REMARK    8  A    between atoms: C11_22  and  C12_24 
REMARK    9  A    between atoms: C12_24  and  N4_25 
REMARK   10  A    between atoms: C12_24  and  C14_29 
REMARK   11  A    between atoms: N4_25  and  O5_27 
REMARK   12  A    between atoms: C16_32  and  N5_33 
REMARK   13  A    between atoms: C17_38  and  C18_39 
REMARK   14  A    between atoms: C18_39  and  O6_41 
REMARK   15  A    between atoms: C18_39  and  C20_43 
REMARK   16  A    between atoms: C20_43  and  O7_44 
REMARK       I    between atoms: N7_46  and  C21_47 
ROOT
HETATM    1  C7  UNL     1       1.730  -0.920   0.428  1.00  0.00     0.280 C 
HETATM    2  C8  UNL     1       0.491  -0.148   0.424  1.00  0.00     0.122 C 
HETATM    3  C9  UNL     1       0.508   0.702   1.719  1.00  0.00     0.052 C 
HETATM    4  C10 UNL     1      -0.805  -0.727   0.157  1.00  0.00     0.219 C 
HETATM    5  C17 UNL     1      -1.187  -2.089   0.634  1.00  0.00     0.080 C 
HETATM    6  N7  UNL     1      -0.105  -3.051   0.405  1.00  0.00    -0.183 N 
HETATM    7  C21 UNL     1      -0.097  -4.241  -0.306  1.00  0.00     0.304 C 
HETATM    8  O8  UNL     1      -0.994  -4.759  -0.986  1.00  0.00    -0.629 OA
HETATM    9  O9  UNL     1       1.089  -5.027  -0.284  1.00  0.00    -0.629 OA
HETATM   10  S3  UNL     1       1.482  -2.582   1.031  1.00  0.00     0.266 S 
HETATM   11  O10 UNL     1       2.587  -3.375   0.355  1.00  0.00    -0.203 OA
HETATM   12  O11 UNL     1       1.664  -2.740   2.455  1.00  0.00    -0.203 OA
ENDROOT
BRANCH   4  13
HETATM   13  O3  UNL     1      -1.795   0.231   0.441  1.00  0.00    -0.305 OA
BRANCH  13  14
HETATM   14  C11 UNL     1      -2.910   0.538  -0.303  1.00  0.00     0.290 C 
HETATM   15  O4  UNL     1      -3.071  -0.226  -1.331  1.00  0.00    -0.262 OA
BRANCH  14  16
HETATM   16  C12 UNL     1      -3.880   1.608  -0.025  1.00  0.00     0.255 C 
BRANCH  16  17
HETATM   17  N4  UNL     1      -4.747   1.495   1.078  1.00  0.00    -0.283 N 
ATOM     18  H4  UNL     1      -5.618   0.967   1.029  1.00  0.00     0.189 HD
BRANCH  17  19
HETATM   19  O5  UNL     1      -4.354   2.131   2.209  1.00  0.00    -0.289 OA
HETATM   20  C13 UNL     1      -5.371   3.006   2.638  1.00  0.00     0.237 C 
ENDBRANCH  17  19
ENDBRANCH  16  17
BRANCH  16  21
HETATM   21  C14 UNL     1      -4.854   1.618  -1.264  1.00  0.00     0.052 A 
HETATM   22  C15 UNL     1      -6.189   1.316  -1.131  1.00  0.00     0.081 A 
HETATM   23  S2  UNL     1      -6.751   1.419  -2.729  1.00  0.00    -0.064 SA
HETATM   24  C16 UNL     1      -5.280   1.834  -3.480  1.00  0.00     0.142 A 
HETATM   25  N6  UNL     1      -4.413   1.877  -2.460  1.00  0.00    -0.338 N 
ATOM     26  H6  UNL     1      -3.432   2.107  -2.617  1.00  0.00     0.168 HD
BRANCH  24  27
HETATM   27  N5  UNL     1      -5.055   2.044  -4.748  1.00  0.00    -0.380 N 
ATOM     28  H52 UNL     1      -5.715   2.011  -5.525  1.00  0.00     0.158 HD
ATOM     29  H51 UNL     1      -4.174   2.293  -5.198  1.00  0.00     0.158 HD
ENDBRANCH  24  27
ENDBRANCH  16  21
ENDBRANCH  14  16
ENDBRANCH  13  14
ENDBRANCH   4  13
BRANCH   2  30
HETATM   30  O2  UNL     1       0.681   0.887  -0.551  1.00  0.00    -0.384 OA
ATOM     31  H2  UNL     1      -0.125   1.389  -0.554  1.00  0.00     0.210 HD
ENDBRANCH   2  30
BRANCH   5  32
HETATM   32  C18 UNL     1      -2.133  -2.312   1.717  1.00  0.00     0.117 C 
HETATM   33  C19 UNL     1      -3.293  -3.316   1.203  1.00  0.00     0.055 C 
BRANCH  32  34
HETATM   34  O6  UNL     1      -2.976  -1.271   2.080  1.00  0.00    -0.382 OA
ATOM     35  H6  UNL     1      -3.594  -1.417   2.787  1.00  0.00     0.211 HD
ENDBRANCH  32  34
BRANCH  32  36
HETATM   36  C20 UNL     1      -1.703  -3.020   2.961  1.00  0.00     0.207 C 
BRANCH  36  37
HETATM   37  O7  UNL     1      -1.112  -2.244   3.946  1.00  0.00    -0.398 OA
ATOM     38  H7  UNL     1      -0.839  -2.694   4.737  1.00  0.00     0.209 HD
ENDBRANCH  36  37
ENDBRANCH  32  36
ENDBRANCH   5  32
BRANCH   1  39
HETATM   39  N3  UNL     1       2.451  -0.931  -0.800  1.00  0.00    -0.203 N 
HETATM   40  C6  UNL     1       3.460  -0.220  -1.142  1.00  0.00     0.684 A 
HETATM   41  N2  UNL     1       3.969  -0.426  -2.371  1.00  0.00    -0.170 N 
HETATM   42  N8  UNL     1       4.066   0.709  -0.396  1.00  0.00    -0.155 N 
HETATM   43  C4  UNL     1       5.044   0.274  -2.816  1.00  0.00     0.162 A 
ATOM     44  H2  UNL     1       3.539  -1.122  -2.980  1.00  0.00     0.186 HD
HETATM   45  N1  UNL     1       5.630   1.198  -2.042  1.00  0.00    -0.302 N 
HETATM   46  C3  UNL     1       5.135   1.426  -0.810  1.00  0.00     0.239 A 
ATOM     47  H1  UNL     1       6.438   1.720  -2.380  1.00  0.00     0.171 HD
ATOM     48  H8  UNL     1       3.701   0.887   0.540  1.00  0.00     0.188 HD
ATOM     49  H3  UNL     1       2.120  -1.594  -1.501  1.00  0.00     0.179 HD
BRANCH  43  50
HETATM   50  S1  UNL     1       5.694  -0.096  -4.451  1.00  0.00    -0.098 SA
HETATM   51  C5  UNL     1       6.855  -1.460  -4.330  1.00  0.00     0.099 C 
ENDBRANCH  43  50
BRANCH  46  52
HETATM   52  O1  UNL     1       5.676   2.362   0.045  1.00  0.00    -0.322 OA
BRANCH  52  53
HETATM   53  C2  UNL     1       6.754   3.186  -0.233  1.00  0.00     0.174 C 
HETATM   54  C1  UNL     1       6.995   4.076   0.990  1.00  0.00     0.034 C 
ENDBRANCH  52  53
ENDBRANCH  46  52
ENDBRANCH   1  39
TORSDOF 16
