REMARK  4 active torsions:
REMARK  status: ('A' for Active; 'I' for Inactive)
REMARK    1  A    between atoms: C2_2  and  C3_3 
REMARK    2  A    between atoms: C3_3  and  C4_4 
REMARK    3  A    between atoms: C3_3  and  N3_15 
REMARK       I    between atoms: C4_4  and  N1_6 
REMARK    4  A    between atoms: N1_6  and  C5_8 
ROOT
HETATM    1  C4  UNL     1       0.649  -1.033   1.094  1.00  0.00     0.255 C 
HETATM    2  O1  UNL     1       1.306  -1.993   1.562  1.00  0.00    -0.271 OA
HETATM    3  N1  UNL     1       1.372   0.035   0.502  1.00  0.00    -0.353 N 
ATOM      4  H1  UNL     1       0.850   0.823   0.119  1.00  0.00     0.163 HD
ENDROOT
BRANCH   1   5
HETATM    5  C3  UNL     1      -0.817  -1.097   1.199  1.00  0.00     0.336 C 
BRANCH   5   6
HETATM    6  C2  UNL     1      -1.271  -2.485   0.924  1.00  0.00     0.008 C 
HETATM    7  C1  UNL     1      -0.708  -3.270   0.025  1.00  0.00     0.009 C 
ENDBRANCH   5   6
BRANCH   5   8
HETATM    8  N3  UNL     1      -1.545  -0.070   0.548  1.00  0.00     0.105 N 
HETATM    9  C9  UNL     1      -2.925  -0.130   1.062  1.00  0.00     0.274 C 
HETATM   10  C10 UNL     1      -3.526   1.254   0.935  1.00  0.00     0.030 C 
HETATM   11  C11 UNL     1      -3.326   1.704  -0.493  1.00  0.00     0.003 C 
HETATM   12  C12 UNL     1      -2.873   0.591  -1.392  1.00  0.00     0.030 C 
HETATM   13  C13 UNL     1      -1.652  -0.146  -0.871  1.00  0.00     0.274 C 
ENDBRANCH   5   8
ENDBRANCH   1   5
BRANCH   3  14
HETATM   14  C5  UNL     1       2.814   0.056   0.417  1.00  0.00     0.111 C 
HETATM   15  C6  UNL     1       3.341   0.165  -0.980  1.00  0.00     0.054 C 
HETATM   16  C7  UNL     1       4.173   1.413  -0.937  1.00  0.00     0.234 C 
HETATM   17  N2  UNL     1       4.551   1.603   0.442  1.00  0.00    -0.073 N 
HETATM   18  C8  UNL     1       3.433   1.160   1.238  1.00  0.00     0.257 C 
ATOM     19  H22 UNL     1       5.428   1.144   0.687  1.00  0.00     0.277 HD
ATOM     20  H21 UNL     1       4.844   2.557   0.653  1.00  0.00     0.277 HD
ENDBRANCH   3  14
TORSDOF 4
