REMARK  7 active torsions:
REMARK  status: ('A' for Active; 'I' for Inactive)
REMARK    1  A    between atoms: C2_2  and  C4_4 
REMARK    2  A    between atoms: N1_7  and  C7_8 
REMARK    3  A    between atoms: C7_8  and  C9_15 
REMARK    4  A    between atoms: N2_9  and  N3_11 
REMARK    5  A    between atoms: N3_11  and  C8_13 
REMARK    6  A    between atoms: C9_15  and  N4_16 
REMARK    7  A    between atoms: C9_15  and  C10_20 
ROOT
HETATM    1  C7  UNL     1       1.523  -0.118   0.150  1.00  0.00     0.125 C 
HETATM    2  N2  UNL     1       2.211  -1.036   0.735  1.00  0.00    -0.285 N 
ATOM      3  H2  UNL     1       3.226  -1.031   0.631  1.00  0.00     0.188 HD
ENDROOT
BRANCH   1   4
HETATM    4  N1  UNL     1       0.109  -0.134   0.301  1.00  0.00    -0.367 N 
HETATM    5  C6  UNL     1      -0.546   0.176   1.558  1.00  0.00     0.124 C 
HETATM    6  C5  UNL     1      -2.028   0.317   1.176  1.00  0.00     0.026 C 
HETATM    7  C4  UNL     1      -2.129  -0.737   0.110  1.00  0.00     0.008 C 
HETATM    8  C13 UNL     1      -0.903  -0.446  -0.715  1.00  0.00     0.129 C 
BRANCH   7   9
HETATM    9  C2  UNL     1      -3.398  -0.661  -0.687  1.00  0.00    -0.017 C 
HETATM   10  C1  UNL     1      -3.564   0.650  -1.403  1.00  0.00     0.010 C 
HETATM   11  C3  UNL     1      -4.603  -0.877   0.192  1.00  0.00     0.010 C 
ENDBRANCH   7   9
ENDBRANCH   1   4
BRANCH   1  12
HETATM   12  C9  UNL     1       2.217   0.906  -0.646  1.00  0.00     0.255 C 
BRANCH  12  13
HETATM   13  N4  UNL     1       1.809   0.916  -2.035  1.00  0.00    -0.068 N 
ATOM     14  H43 UNL     1       1.920  -0.007  -2.454  1.00  0.00     0.275 HD
ATOM     15  H42 UNL     1       0.797   1.016  -2.116  1.00  0.00     0.275 HD
ATOM     16  H41 UNL     1       2.290   1.626  -2.587  1.00  0.00     0.275 HD
ENDBRANCH  12  13
BRANCH  12  17
HETATM   17  C10 UNL     1       3.709   0.716  -0.551  1.00  0.00     0.024 A 
HETATM   18  C11 UNL     1       4.240   0.823   0.896  1.00  0.00     0.007 A 
HETATM   19  C12 UNL     1       4.545   1.893  -0.146  1.00  0.00     0.007 A 
ENDBRANCH  12  17
ENDBRANCH   1  12
BRANCH   2  20
HETATM   20  N3  UNL     1       1.626  -2.025   1.496  1.00  0.00    -0.276 N 
ATOM     21  H3  UNL     1       0.744  -1.816   1.963  1.00  0.00     0.189 HD
BRANCH  20  22
HETATM   22  C8  UNL     1       2.124  -3.176   1.646  1.00  0.00     0.368 C 
HETATM   23  O1  UNL     1       2.689  -4.163   2.139  1.00  0.00    -0.282 OA
ENDBRANCH  20  22
ENDBRANCH   2  20
TORSDOF 7
