REMARK  4 active torsions:
REMARK  status: ('A' for Active; 'I' for Inactive)
REMARK    1  A    between atoms: O1_2  and  C2_3 
REMARK       I    between atoms: N1_6  and  C5_7 
REMARK    2  A    between atoms: C7_13  and  O2_14 
REMARK    3  A    between atoms: O2_14  and  C8_15 
REMARK    4  A    between atoms: C8_15  and  C9_16 
ROOT
HETATM    1  C2  UNL     1      -1.021  -1.111   0.882  1.00  0.00     0.153 C 
HETATM    2  C3  UNL     1      -2.149  -1.150  -0.078  1.00  0.00     0.054 C 
HETATM    3  C4  UNL     1      -2.391   0.069  -0.894  1.00  0.00     0.128 C 
HETATM    4  N1  UNL     1      -1.612   1.216  -0.538  1.00  0.00    -0.353 N 
HETATM    5  C5  UNL     1      -2.084   2.498  -0.919  1.00  0.00     0.184 C 
HETATM    6  N2  UNL     1      -2.543   2.640  -2.101  1.00  0.00    -0.374 N 
ATOM      7  H21 UNL     1      -2.882   3.562  -2.375  1.00  0.00     0.158 HD
ATOM      8  H22 UNL     1      -2.585   1.878  -2.777  1.00  0.00     0.158 HD
HETATM    9  N3  UNL     1      -2.026   3.561   0.024  1.00  0.00    -0.064 NA
HETATM   10  C6  UNL     1      -0.365   1.158   0.191  1.00  0.00     0.160 C 
HETATM   11  C7  UNL     1       0.140  -0.252   0.296  1.00  0.00     0.168 C 
ENDROOT
BRANCH  11  12
HETATM   12  O2  UNL     1       1.231  -0.400   1.045  1.00  0.00    -0.381 OA
BRANCH  12  13
HETATM   13  C8  UNL     1       2.300  -1.105   0.707  1.00  0.00     0.172 C 
BRANCH  13  14
HETATM   14  C9  UNL     1       3.140  -0.823  -0.450  1.00  0.00     0.009 A 
HETATM   15  C10 UNL     1       3.854   0.467  -0.645  1.00  0.00     0.007 A 
HETATM   16  C11 UNL     1       2.779   0.010  -1.642  1.00  0.00     0.007 A 
ENDBRANCH  13  14
ENDBRANCH  12  13
ENDBRANCH  11  12
BRANCH   1  17
HETATM   17  O1  UNL     1      -0.486  -2.385   1.034  1.00  0.00    -0.388 OA
HETATM   18  C1  UNL     1      -0.554  -2.786   2.390  1.00  0.00     0.202 C 
ENDBRANCH   1  17
TORSDOF 4
