REMARK  6 active torsions:
REMARK  status: ('A' for Active; 'I' for Inactive)
REMARK    1  A    between atoms: C2_2  and  C3_3 
REMARK    2  A    between atoms: N1_5  and  C5_6 
REMARK    3  A    between atoms: C5_6  and  C6_7 
REMARK    4  A    between atoms: C6_7  and  N2_8 
REMARK    5  A    between atoms: N2_8  and  C7_10 
REMARK    6  A    between atoms: C7_10  and  N3_12 
ROOT
HETATM    1  C5  UNL     1       0.216  -0.122   0.581  1.00  0.00     0.292 C 
ENDROOT
BRANCH   1   2
HETATM    2  N1  UNL     1      -0.689  -1.184   0.951  1.00  0.00     0.094 N 
HETATM    3  C4  UNL     1      -1.862  -0.570   1.502  1.00  0.00     0.304 C 
HETATM    4  C3  UNL     1      -3.068  -0.462   0.667  1.00  0.00     0.149 C 
HETATM    5  O1  UNL     1      -3.207  -1.424  -0.310  1.00  0.00    -0.382 OA
HETATM    6  C10 UNL     1      -2.055  -1.720  -0.978  1.00  0.00     0.198 C 
HETATM    7  C9  UNL     1      -0.926  -2.119  -0.095  1.00  0.00     0.298 C 
BRANCH   4   8
HETATM    8  C2  UNL     1      -3.277   0.917   0.068  1.00  0.00     0.029 C 
HETATM    9  C1  UNL     1      -4.552   0.947  -0.774  1.00  0.00     0.007 C 
ENDBRANCH   4   8
ENDBRANCH   1   2
BRANCH   1  10
HETATM   10  C6  UNL     1       1.630  -0.561   0.403  1.00  0.00     0.152 C 
BRANCH  10  11
HETATM   11  N2  UNL     1       2.465   0.577   0.028  1.00  0.00    -0.366 N 
ATOM     12  H2  UNL     1       2.010   1.447  -0.248  1.00  0.00     0.161 HD
BRANCH  11  13
HETATM   13  C7  UNL     1       3.864   0.523   0.031  1.00  0.00     0.167 C 
HETATM   14  S1  UNL     1       4.576  -0.890   0.516  1.00  0.00    -0.041 SA
BRANCH  13  15
HETATM   15  N3  UNL     1       4.632   1.631  -0.346  1.00  0.00    -0.372 N 
HETATM   16  C8  UNL     1       6.102   1.534  -0.311  1.00  0.00     0.148 C 
ATOM     17  H3  UNL     1       4.179   2.496  -0.642  1.00  0.00     0.161 HD
ENDBRANCH  13  15
ENDBRANCH  11  13
ENDBRANCH  10  11
ENDBRANCH   1  10
TORSDOF 6
