REMARK  4 active torsions:
REMARK  status: ('A' for Active; 'I' for Inactive)
REMARK    1  A    between atoms: C3_3  and  C4_4 
REMARK    2  A    between atoms: C4_4  and  N1_5 
REMARK    3  A    between atoms: N1_5  and  C5_7 
REMARK    4  A    between atoms: C5_7  and  C6_8 
ROOT
HETATM    1  C6  UNL     1       0.847   0.323  -1.030  1.00  0.00     0.064 C 
HETATM    2  C7  UNL     1       1.065   1.146   0.157  1.00  0.00     0.042 C 
HETATM    3  C8  UNL     1       2.612   1.357   0.024  1.00  0.00     0.274 C 
HETATM    4  N2  UNL     1       3.084   0.260  -0.759  1.00  0.00     0.103 N 
HETATM    5  C9  UNL     1       4.283  -0.373  -0.260  1.00  0.00     0.318 C 
HETATM    6  C10 UNL     1       4.096  -0.854   1.147  1.00  0.00     0.090 C 
HETATM    7  N3  UNL     1       2.789  -1.255   1.475  1.00  0.00    -0.379 N 
ATOM      8  H3  UNL     1       2.528  -1.391   2.452  1.00  0.00     0.164 HD
HETATM    9  C11 UNL     1       1.838  -1.469   0.457  1.00  0.00     0.096 C 
HETATM   10  C12 UNL     1       1.985  -0.714  -0.807  1.00  0.00     0.270 C 
ENDROOT
BRANCH   1  11
HETATM   11  C5  UNL     1      -0.397  -0.314  -1.386  1.00  0.00     0.062 C 
BRANCH  11  12
HETATM   12  N1  UNL     1      -1.520   0.514  -1.558  1.00  0.00    -0.401 N 
ATOM     13  H1  UNL     1      -1.858   0.741  -2.493  1.00  0.00     0.158 HD
BRANCH  12  14
HETATM   14  C4  UNL     1      -2.176   1.028  -0.411  1.00  0.00     0.123 C 
BRANCH  14  15
HETATM   15  C3  UNL     1      -2.924  -0.083   0.337  1.00  0.00     0.003 C 
HETATM   16  C2  UNL     1      -3.993  -0.732  -0.513  1.00  0.00     0.006 C 
HETATM   17  C1  UNL     1      -4.991  -0.416   0.572  1.00  0.00     0.001 C 
HETATM   18  C13 UNL     1      -3.997   0.525   1.190  1.00  0.00     0.006 C 
ENDBRANCH  14  15
ENDBRANCH  12  14
ENDBRANCH  11  12
ENDBRANCH   1  11
TORSDOF 4
