REMARK  5 active torsions:
REMARK  status: ('A' for Active; 'I' for Inactive)
REMARK    1  A    between atoms: C2_2  and  N1_3 
REMARK    2  A    between atoms: N2_7  and  C6_8 
REMARK    3  A    between atoms: C6_8  and  C7_9 
REMARK    4  A    between atoms: C7_9  and  C8_10 
REMARK    5  A    between atoms: C8_10  and  O1_11 
ROOT
HETATM    1  N1  UNL     1      -1.633   0.992  -0.729  1.00  0.00     0.099 N 
HETATM    2  C3  UNL     1      -0.949   0.420  -1.846  1.00  0.00     0.284 C 
HETATM    3  C4  UNL     1      -0.801  -1.068  -1.551  1.00  0.00     0.063 C 
HETATM    4  C5  UNL     1       0.634  -1.410  -1.198  1.00  0.00     0.070 C 
HETATM    5  N2  UNL     1       1.103  -0.593  -0.196  1.00  0.00    -0.371 N 
HETATM    6  C9  UNL     1       0.260   0.272   0.526  1.00  0.00     0.099 C 
HETATM    7  C10 UNL     1      -1.205   0.145   0.366  1.00  0.00     0.270 C 
HETATM    8  C11 UNL     1      -1.598  -1.194  -0.282  1.00  0.00    -0.002 C 
HETATM    9  C12 UNL     1      -3.069  -1.134  -0.626  1.00  0.00     0.018 C 
HETATM   10  C13 UNL     1      -1.316  -2.360   0.550  1.00  0.00     0.018 C 
ENDROOT
BRANCH   5  11
HETATM   11  C6  UNL     1       2.343  -0.857   0.424  1.00  0.00     0.129 C 
BRANCH  11  12
HETATM   12  C7  UNL     1       3.559  -0.675  -0.416  1.00  0.00     0.046 C 
BRANCH  12  13
HETATM   13  C8  UNL     1       3.656   0.769  -0.910  1.00  0.00     0.165 C 
BRANCH  13  14
HETATM   14  O1  UNL     1       3.729   1.654   0.161  1.00  0.00    -0.401 OA
ATOM     15  H1  UNL     1       3.789   2.551  -0.146  1.00  0.00     0.209 HD
ENDBRANCH  13  14
ENDBRANCH  12  13
ENDBRANCH  11  12
ENDBRANCH   5  11
BRANCH   1  16
HETATM   16  C2  UNL     1      -1.520   2.374  -0.534  1.00  0.00     0.269 C 
HETATM   17  C1  UNL     1      -2.332   2.737   0.719  1.00  0.00     0.037 C 
ENDBRANCH   1  16
TORSDOF 5
