REMARK  6 active torsions:
REMARK  status: ('A' for Active; 'I' for Inactive)
REMARK    1  A    between atoms: C1_2  and  N1_3 
REMARK    2  A    between atoms: C1_2  and  N3_13 
REMARK    3  A    between atoms: N1_3  and  C2_5 
REMARK    4  A    between atoms: C2_5  and  C3_6 
REMARK    5  A    between atoms: C3_6  and  N2_7 
REMARK    6  A    between atoms: N3_13  and  C8_15 
ROOT
HETATM    1  N1  UNL     1      -1.070   0.663  -1.150  1.00  0.00    -0.366 N 
ATOM      2  H1  UNL     1      -1.327   1.351  -1.858  1.00  0.00     0.161 HD
ENDROOT
BRANCH   1   3
HETATM    3  C1  UNL     1      -2.040   0.244  -0.210  1.00  0.00     0.167 C 
HETATM    4  S1  UNL     1      -1.605  -0.889   0.901  1.00  0.00    -0.041 SA
BRANCH   3   5
HETATM    5  N3  UNL     1      -3.367   0.771  -0.224  1.00  0.00    -0.363 N 
ATOM      6  H3  UNL     1      -3.641   1.466  -0.919  1.00  0.00     0.162 HD
BRANCH   5   7
HETATM    7  C8  UNL     1      -4.312   0.308   0.756  1.00  0.00     0.084 A 
HETATM    8  C9  UNL     1      -5.695   0.934   0.670  1.00  0.00     0.027 A 
HETATM    9  C10 UNL     1      -5.460  -0.544   0.398  1.00  0.00     0.027 A 
ENDBRANCH   5   7
ENDBRANCH   3   5
ENDBRANCH   1   3
BRANCH   1  10
HETATM   10  C2  UNL     1       0.257   0.146  -1.131  1.00  0.00     0.141 C 
BRANCH  10  11
HETATM   11  C3  UNL     1       1.109   0.575   0.024  1.00  0.00     0.136 C 
BRANCH  11  12
HETATM   12  N2  UNL     1       2.393  -0.007  -0.058  1.00  0.00    -0.407 N 
HETATM   13  C4  UNL     1       3.273   0.381  -1.067  1.00  0.00     0.143 C 
HETATM   14  C5  UNL     1       4.634  -0.258  -0.748  1.00  0.00     0.187 C 
HETATM   15  O1  UNL     1       4.461  -1.597  -0.413  1.00  0.00    -0.388 OA
HETATM   16  C6  UNL     1       3.751  -1.779   0.751  1.00  0.00     0.187 C 
HETATM   17  C7  UNL     1       2.943  -0.538   1.135  1.00  0.00     0.143 C 
ENDBRANCH  11  12
ENDBRANCH  10  11
ENDBRANCH   1  10
TORSDOF 6
