REMARK  6 active torsions:
REMARK  status: ('A' for Active; 'I' for Inactive)
REMARK    1  A    between atoms: C4_5  and  O1_6 
REMARK    2  A    between atoms: O1_6  and  C5_7 
REMARK    3  A    between atoms: C5_7  and  C6_8 
REMARK    4  A    between atoms: C6_8  and  O2_9 
REMARK    5  A    between atoms: C6_8  and  C7_11 
REMARK    6  A    between atoms: C7_11  and  N2_12 
ROOT
HETATM    1  C6  UNL     1       0.492  -0.819   0.576  1.00  0.00     0.170 C 
ENDROOT
BRANCH   1   2
HETATM    2  C5  UNL     1       0.104   0.563   0.212  1.00  0.00     0.201 C 
BRANCH   2   3
HETATM    3  O1  UNL     1      -1.114   0.996   0.696  1.00  0.00    -0.383 OA
BRANCH   3   4
HETATM    4  C4  UNL     1      -2.194   0.411   0.180  1.00  0.00     0.124 C 
HETATM    5  C3  UNL     1      -3.119   1.442  -0.532  1.00  0.00     0.062 C 
HETATM    6  C2  UNL     1      -4.063   0.603  -1.364  1.00  0.00     0.274 C 
HETATM    7  N1  UNL     1      -4.885  -0.208  -0.509  1.00  0.00     0.084 N 
HETATM    8  C1  UNL     1      -6.034   0.502   0.002  1.00  0.00     0.309 C 
HETATM    9  C14 UNL     1      -4.183  -0.971   0.471  1.00  0.00     0.274 C 
HETATM   10  C13 UNL     1      -3.128  -0.215   1.205  1.00  0.00     0.062 C 
ENDBRANCH   3   4
ENDBRANCH   2   3
ENDBRANCH   1   2
BRANCH   1  11
HETATM   11  O2  UNL     1      -0.469  -1.754   0.113  1.00  0.00    -0.392 OA
ATOM     12  H2  UNL     1      -0.220  -2.641   0.347  1.00  0.00     0.210 HD
ENDBRANCH   1  11
BRANCH   1  13
HETATM   13  C7  UNL     1       1.838  -1.236   0.098  1.00  0.00     0.306 C 
BRANCH  13  14
HETATM   14  N2  UNL     1       2.922  -0.403   0.497  1.00  0.00     0.091 N 
HETATM   15  C8  UNL     1       4.169  -1.224   0.416  1.00  0.00     0.272 C 
HETATM   16  C9  UNL     1       5.276  -0.396   0.960  1.00  0.00     0.030 C 
HETATM   17  C10 UNL     1       5.548   0.821   0.087  1.00  0.00     0.003 C 
HETATM   18  C11 UNL     1       4.491   0.761  -1.011  1.00  0.00     0.030 C 
HETATM   19  C12 UNL     1       3.141   0.757  -0.366  1.00  0.00     0.272 C 
ENDBRANCH  13  14
ENDBRANCH   1  13
TORSDOF 6
