REMARK  5 active torsions:
REMARK  status: ('A' for Active; 'I' for Inactive)
REMARK    1  A    between atoms: N1_2  and  C2_5 
REMARK    2  A    between atoms: C2_5  and  C3_6 
REMARK    3  A    between atoms: N2_7  and  C4_9 
REMARK    4  A    between atoms: C4_9  and  C5_10 
REMARK    5  A    between atoms: C5_10  and  S1_11 
ROOT
HETATM    1  C4  UNL     1      -0.433  -0.203   0.388  1.00  0.00     0.041 C 
HETATM    2  C7  UNL     1      -0.141   0.677  -0.806  1.00  0.00     0.032 C 
HETATM    3  C8  UNL     1      -1.289   1.626  -1.086  1.00  0.00     0.004 C 
HETATM    4  C9  UNL     1      -1.348   2.593   0.059  1.00  0.00     0.019 C 
HETATM    5  C10 UNL     1      -1.229   1.953   1.400  1.00  0.00     0.095 C 
HETATM    6  C11 UNL     1      -2.338   2.443   2.242  1.00  0.00     0.064 C 
HETATM    7  N3  UNL     1      -3.217   2.834   2.891  1.00  0.00    -0.197 NA
HETATM    8  C12 UNL     1      -1.329   0.452   1.374  1.00  0.00     0.051 C 
ENDROOT
BRANCH   1   9
HETATM    9  N2  UNL     1       0.869  -0.434   1.034  1.00  0.00    -0.391 N 
HETATM   10  C3  UNL     1       1.837  -0.718   0.268  1.00  0.00     0.083 C 
ATOM     11  H2  UNL     1       0.986  -0.369   2.045  1.00  0.00     0.159 HD
BRANCH  10  12
HETATM   12  C2  UNL     1       3.212  -0.977   0.780  1.00  0.00     0.275 C 
BRANCH  12  13
HETATM   13  N1  UNL     1       3.972   0.252   0.591  1.00  0.00    -0.075 N 
HETATM   14  C1  UNL     1       4.175   0.500  -0.823  1.00  0.00     0.267 C 
ATOM     15  H12 UNL     1       4.852   0.240   1.106  1.00  0.00     0.277 HD
ATOM     16  H11 UNL     1       3.536   1.046   1.059  1.00  0.00     0.277 HD
ENDBRANCH  12  13
ENDBRANCH  10  12
ENDBRANCH   1   9
BRANCH   1  17
HETATM   17  C5  UNL     1      -0.847  -1.562  -0.085  1.00  0.00     0.139 C 
BRANCH  17  18
HETATM   18  S1  UNL     1      -2.360  -1.682  -0.935  1.00  0.00     0.013 S 
HETATM   19  C6  UNL     1      -2.616  -3.400  -1.405  1.00  0.00     0.127 C 
HETATM   20  O1  UNL     1      -3.668  -1.301   0.044  1.00  0.00    -0.258 OA
ENDBRANCH  17  18
ENDBRANCH   1  17
TORSDOF 5
