REMARK  3 active torsions:
REMARK  status: ('A' for Active; 'I' for Inactive)
REMARK    1  A    between atoms: C2_2  and  C3_3 
REMARK    2  A    between atoms: C6_6  and  C7_7 
REMARK    3  A    between atoms: C7_7  and  N1_8 
ROOT
HETATM    1  C3  UNL     1      -1.032   0.030   0.253  1.00  0.00     0.144 C 
HETATM    2  C4  UNL     1      -0.272  -1.259   0.248  1.00  0.00     0.038 C 
HETATM    3  C5  UNL     1       0.682  -1.054  -0.932  1.00  0.00     0.036 C 
HETATM    4  C6  UNL     1       0.772   0.450  -0.956  1.00  0.00     0.146 C 
HETATM    5  O3  UNL     1      -0.550   0.831  -0.749  1.00  0.00    -0.375 OA
ENDROOT
BRANCH   4   6
HETATM    6  C7  UNL     1       1.638   0.981   0.166  1.00  0.00     0.233 C 
BRANCH   6   7
HETATM    7  N1  UNL     1       3.018   0.620   0.007  1.00  0.00    -0.153 N 
HETATM    8  O1  UNL     1       3.589  -0.053   0.866  1.00  0.00    -0.536 OA
HETATM    9  O2  UNL     1       3.715   1.014  -1.092  1.00  0.00    -0.536 OA
ENDBRANCH   6   7
ENDBRANCH   4   6
BRANCH   1  10
HETATM   10  C2  UNL     1      -2.501  -0.170   0.159  1.00  0.00    -0.005 C 
HETATM   11  C1  UNL     1      -3.337   0.507   0.907  1.00  0.00     0.009 C 
ENDBRANCH   1  10
TORSDOF 3
