REMARK  5 active torsions:
REMARK  status: ('A' for Active; 'I' for Inactive)
REMARK    1  A    between atoms: C3_6  and  O1_7 
REMARK    2  A    between atoms: O1_7  and  C4_8 
REMARK    3  A    between atoms: C8_13  and  C9_14 
REMARK    4  A    between atoms: C12_17  and  C13_18 
REMARK    5  A    between atoms: C13_18  and  N3_19 
ROOT
HETATM    1  N1  UNL     1      -5.474   2.114  -1.953  1.00  0.00    -0.190 NA
HETATM    2  C1  UNL     1      -4.435   1.894  -1.494  1.00  0.00     0.118 C 
HETATM    3  C2  UNL     1      -3.152   1.597  -0.920  1.00  0.00     0.127 A 
HETATM    4  N2  UNL     1      -2.810   0.414  -0.455  1.00  0.00    -0.327 N 
ATOM      5  H2  UNL     1      -3.505  -0.331  -0.498  1.00  0.00     0.168 HD
HETATM    6  C3  UNL     1      -1.619   0.121   0.069  1.00  0.00     0.151 A 
HETATM    7  C8  UNL     1      -0.579   1.058   0.183  1.00  0.00     0.011 A 
HETATM    8  C16 UNL     1      -0.916   2.314  -0.276  1.00  0.00     0.027 A 
HETATM    9  C17 UNL     1      -0.142   3.412  -0.056  1.00  0.00     0.131 A 
HETATM   10  F1  UNL     1       0.944   3.328   0.782  1.00  0.00    -0.205 F 
HETATM   11  C18 UNL     1      -0.546   4.691  -0.385  1.00  0.00     0.085 A 
HETATM   12  C19 UNL     1      -1.768   4.926  -0.945  1.00  0.00     0.120 A 
HETATM   13  F2  UNL     1      -2.132   6.192  -1.266  1.00  0.00    -0.206 F 
HETATM   14  C20 UNL     1      -2.607   3.862  -1.172  1.00  0.00     0.057 A 
HETATM   15  C21 UNL     1      -2.180   2.603  -0.832  1.00  0.00     0.018 A 
ENDROOT
BRANCH   6  16
HETATM   16  O1  UNL     1      -1.398  -1.150   0.521  1.00  0.00    -0.328 OA
BRANCH  16  17
HETATM   17  C4  UNL     1      -2.370  -2.154   0.455  1.00  0.00     0.156 C 
HETATM   18  C5  UNL     1      -1.920  -3.380  -0.303  1.00  0.00     0.061 C 
HETATM   19  C6  UNL     1      -2.747  -4.466   0.398  1.00  0.00     0.170 C 
HETATM   20  O2  UNL     1      -2.581  -4.101   1.725  1.00  0.00    -0.389 OA
HETATM   21  C7  UNL     1      -2.700  -2.735   1.812  1.00  0.00     0.200 C 
ENDBRANCH  16  17
ENDBRANCH   6  16
BRANCH   7  22
HETATM   22  C9  UNL     1       0.660   0.692   0.808  1.00  0.00     0.024 C 
HETATM   23  C10 UNL     1       1.023  -0.817   0.604  1.00  0.00     0.010 C 
HETATM   24  C11 UNL     1       2.517  -1.004   0.963  1.00  0.00     0.007 C 
HETATM   25  C12 UNL     1       3.204  -0.939  -0.401  1.00  0.00     0.011 C 
HETATM   26  C14 UNL     1       2.311   0.013  -1.145  1.00  0.00     0.007 C 
HETATM   27  C15 UNL     1       1.825   1.124  -0.240  1.00  0.00     0.010 C 
BRANCH  25  28
HETATM   28  C13 UNL     1       4.557  -0.325  -0.201  1.00  0.00     0.234 C 
BRANCH  28  29
HETATM   29  N3  UNL     1       5.386  -1.095   0.707  1.00  0.00    -0.079 N 
ATOM     30  H33 UNL     1       4.914  -1.243   1.599  1.00  0.00     0.274 HD
ATOM     31  H32 UNL     1       5.464  -2.065   0.400  1.00  0.00     0.274 HD
ATOM     32  H31 UNL     1       6.307  -0.677   0.843  1.00  0.00     0.274 HD
ENDBRANCH  28  29
ENDBRANCH  25  28
ENDBRANCH   7  22
TORSDOF 5
