REMARK  5 active torsions:
REMARK  status: ('A' for Active; 'I' for Inactive)
REMARK    1  A    between atoms: O1_1  and  C1_3 
REMARK    2  A    between atoms: C1_3  and  C2_4 
REMARK    3  A    between atoms: C1_3  and  C16_24 
REMARK    4  A    between atoms: C4_6  and  N1_7 
REMARK    5  A    between atoms: C8_11  and  N2_12 
ROOT
HETATM    1  C2  UNL     1       3.372  -0.125  -0.114  1.00  0.00     0.047 A 
HETATM    2  C3  UNL     1       2.075  -0.007  -0.642  1.00  0.00     0.076 A 
HETATM    3  C4  UNL     1       0.970  -0.211   0.129  1.00  0.00     0.105 A 
HETATM    4  N3  UNL     1       1.187  -0.535   1.439  1.00  0.00    -0.339 N 
ATOM      5  H3  UNL     1       0.384  -0.694   2.047  1.00  0.00     0.168 HD
HETATM    6  C15 UNL     1       2.405  -0.649   1.945  1.00  0.00     0.182 A 
HETATM    7  N4  UNL     1       3.492  -0.445   1.170  1.00  0.00    -0.353 N 
ATOM      8  H4  UNL     1       4.422  -0.538   1.578  1.00  0.00     0.166 HD
ENDROOT
BRANCH   3   9
HETATM    9  N1  UNL     1      -0.367  -0.148  -0.304  1.00  0.00    -0.365 N 
HETATM   10  C5  UNL     1      -0.684  -0.237  -1.708  1.00  0.00     0.124 C 
HETATM   11  C6  UNL     1      -1.546  -1.507  -1.820  1.00  0.00     0.022 C 
HETATM   12  C7  UNL     1      -2.842  -1.214  -1.119  1.00  0.00     0.028 C 
HETATM   13  C8  UNL     1      -2.787  -0.045  -0.166  1.00  0.00     0.097 C 
HETATM   14  C14 UNL     1      -1.469   0.009   0.611  1.00  0.00     0.149 C 
BRANCH  13  15
HETATM   15  N2  UNL     1      -3.890  -0.136   0.732  1.00  0.00    -0.407 N 
HETATM   16  C9  UNL     1      -4.301   1.126   1.290  1.00  0.00     0.117 C 
HETATM   17  C10 UNL     1      -5.367   1.836   0.499  1.00  0.00     0.019 C 
HETATM   18  C11 UNL     1      -6.415   0.917  -0.073  1.00  0.00     0.003 C 
HETATM   19  C12 UNL     1      -6.336  -0.371   0.688  1.00  0.00     0.019 C 
HETATM   20  C13 UNL     1      -4.967  -0.984   0.374  1.00  0.00     0.117 C 
ENDBRANCH  13  15
ENDBRANCH   3   9
BRANCH   1  21
HETATM   21  C1  UNL     1       4.568   0.109  -0.950  1.00  0.00     0.204 C 
BRANCH  21  22
HETATM   22  O1  UNL     1       4.532   1.348  -1.609  1.00  0.00    -0.385 OA
ATOM     23  H1  UNL     1       5.301   1.498  -2.146  1.00  0.00     0.211 HD
ENDBRANCH  21  22
BRANCH  21  24
HETATM   24  C16 UNL     1       5.773   0.067  -0.096  1.00  0.00     0.015 A 
HETATM   25  C17 UNL     1       6.706  -0.948  -0.176  1.00  0.00     0.016 A 
HETATM   26  C18 UNL     1       7.808  -0.940   0.641  1.00  0.00     0.043 A 
HETATM   27  C19 UNL     1       8.004   0.088   1.563  1.00  0.00     0.119 A 
HETATM   28  F1  UNL     1       9.092   0.127   2.391  1.00  0.00    -0.206 F 
HETATM   29  C20 UNL     1       7.078   1.101   1.646  1.00  0.00     0.085 A 
HETATM   30  C21 UNL     1       5.975   1.078   0.816  1.00  0.00     0.128 A 
HETATM   31  F2  UNL     1       5.106   2.115   0.955  1.00  0.00    -0.205 F 
ENDBRANCH  21  24
ENDBRANCH   1  21
TORSDOF 5
