REMARK  9 active torsions:
REMARK  status: ('A' for Active; 'I' for Inactive)
REMARK    1  A    between atoms: C2_2  and  C4_4 
REMARK    2  A    between atoms: C2_2  and  C5_8 
REMARK    3  A    between atoms: C4_4  and  N1_5 
REMARK    4  A    between atoms: C12_15  and  O3_16 
REMARK    5  A    between atoms: O3_16  and  C13_17 
REMARK    6  A    between atoms: C13_17  and  C14_18 
REMARK    7  A    between atoms: C14_18  and  C15_19 
REMARK    8  A    between atoms: C15_19  and  C16_20 
REMARK    9  A    between atoms: C16_20  and  O4_21 
ROOT
HETATM    1  C5  UNL     1       3.688  -1.039  -0.855  1.00  0.00    -0.005 C 
HETATM    2  C6  UNL     1       3.178  -2.276  -0.137  1.00  0.00     0.006 C 
HETATM    3  C7  UNL     1       1.789  -1.995   0.414  1.00  0.00     0.014 C 
HETATM    4  C8  UNL     1       0.858  -1.559  -0.700  1.00  0.00    -0.017 C 
HETATM    5  C9  UNL     1       0.886  -2.710  -1.722  1.00  0.00     0.020 C 
HETATM    6  C10 UNL     1      -0.501  -1.483  -0.160  1.00  0.00    -0.066 C 
HETATM    7  C11 UNL     1      -1.071  -0.330   0.222  1.00  0.00    -0.043 C 
HETATM    8  C12 UNL     1      -0.263   0.894   0.082  1.00  0.00     0.151 C 
HETATM    9  C17 UNL     1       0.447   0.851  -1.249  1.00  0.00     0.042 C 
HETATM   10  C18 UNL     1       1.387  -0.320  -1.333  1.00  0.00     0.001 C 
HETATM   11  C19 UNL     1       2.718   0.076  -0.728  1.00  0.00     0.011 C 
HETATM   12  C20 UNL     1      -2.429  -0.322   0.741  1.00  0.00     0.026 C 
HETATM   13  C21 UNL     1      -3.309   0.820   0.418  1.00  0.00     0.010 C 
HETATM   14  C22 UNL     1      -4.728   0.239   0.513  1.00  0.00     0.010 C 
HETATM   15  C23 UNL     1      -4.568  -1.240   0.700  1.00  0.00    -0.040 C 
HETATM   16  C24 UNL     1      -4.670  -1.676   2.139  1.00  0.00     0.015 C 
HETATM   17  C25 UNL     1      -5.675  -1.980  -0.055  1.00  0.00     0.015 C 
HETATM   18  C26 UNL     1      -3.222  -1.475   0.099  1.00  0.00    -0.029 C 
HETATM   19  C27 UNL     1      -3.329  -1.339  -1.377  1.00  0.00     0.016 C 
HETATM   20  C28 UNL     1      -2.550  -2.731   0.563  1.00  0.00     0.015 C 
HETATM   21  C29 UNL     1      -1.207  -2.807  -0.053  1.00  0.00     0.036 C 
ENDROOT
BRANCH   1  22
HETATM   22  C2  UNL     1       5.103  -0.732  -0.490  1.00  0.00    -0.022 C 
HETATM   23  C1  UNL     1       5.174  -0.497   0.997  1.00  0.00     0.017 C 
HETATM   24  C3  UNL     1       5.926  -1.958  -0.891  1.00  0.00     0.017 C 
BRANCH  22  25
HETATM   25  C4  UNL     1       5.598   0.489  -1.185  1.00  0.00     0.210 C 
BRANCH  25  26
HETATM   26  N1  UNL     1       6.953   0.830  -0.868  1.00  0.00    -0.155 N 
HETATM   27  O1  UNL     1       7.197   1.932  -0.349  1.00  0.00    -0.537 OA
HETATM   28  O2  UNL     1       8.029   0.007  -1.102  1.00  0.00    -0.537 OA
ENDBRANCH  25  26
ENDBRANCH  22  25
ENDBRANCH   1  22
BRANCH   8  29
HETATM   29  O3  UNL     1      -0.967   2.027   0.283  1.00  0.00    -0.381 OA
BRANCH  29  30
HETATM   30  C13 UNL     1      -0.470   2.868   1.268  1.00  0.00     0.168 C 
BRANCH  30  31
HETATM   31  C14 UNL     1      -1.374   4.080   1.338  1.00  0.00     0.028 C 
BRANCH  31  32
HETATM   32  C15 UNL     1      -1.387   4.793   0.005  1.00  0.00     0.028 C 
BRANCH  32  33
HETATM   33  C16 UNL     1      -2.277   5.996   0.054  1.00  0.00     0.164 C 
BRANCH  33  34
HETATM   34  O4  UNL     1      -1.871   6.914   1.006  1.00  0.00    -0.401 OA
ATOM     35  H4  UNL     1      -2.436   7.677   1.037  1.00  0.00     0.209 HD
ENDBRANCH  33  34
ENDBRANCH  32  33
ENDBRANCH  31  32
ENDBRANCH  30  31
ENDBRANCH  29  30
ENDBRANCH   8  29
TORSDOF 9
