REMARK  8 active torsions:
REMARK  status: ('A' for Active; 'I' for Inactive)
REMARK    1  A    between atoms: C2_7  and  N3_8 
REMARK    2  A    between atoms: N3_8  and  C3_10 
REMARK    3  A    between atoms: C3_10  and  N4_11 
REMARK    4  A    between atoms: C5_17  and  N7_18 
REMARK    5  A    between atoms: C8_28  and  N10_29 
REMARK    6  A    between atoms: N10_29  and  C9_31 
REMARK    7  A    between atoms: C9_31  and  C10_32 
REMARK    8  A    between atoms: C10_32  and  O1_33 
ROOT
HETATM    1  N3  UNL     1       0.521   0.089  -1.933  1.00  0.00    -0.352 N 
ATOM      2  H3  UNL     1       0.267   1.015  -2.276  1.00  0.00     0.163 HD
ENDROOT
BRANCH   1   3
HETATM    3  C2  UNL     1      -0.443  -0.623  -1.187  1.00  0.00     0.164 A 
HETATM    4  N2  UNL     1      -0.305  -1.841  -0.670  1.00  0.00    -0.170 N 
HETATM    5  C1  UNL     1      -1.204  -2.527   0.037  1.00  0.00     0.679 A 
ATOM      6  H2  UNL     1       0.590  -2.303  -0.833  1.00  0.00     0.186 HD
HETATM    7  N1  UNL     1      -0.849  -3.725   0.452  1.00  0.00    -0.234 N 
HETATM    8  N11 UNL     1      -2.433  -2.126   0.370  1.00  0.00    -0.170 N 
ATOM      9  H12 UNL     1       0.090  -4.031   0.198  1.00  0.00     0.174 HD
ATOM     10  H11 UNL     1      -1.537  -4.250   0.993  1.00  0.00     0.174 HD
HETATM   11  C8  UNL     1      -2.988  -0.949   0.050  1.00  0.00     0.163 A 
ATOM     12  H11 UNL     1      -3.000  -2.773   0.917  1.00  0.00     0.186 HD
HETATM   13  S1  UNL     1      -1.982   0.077  -0.864  1.00  0.00    -0.017 SA
BRANCH  11  14
HETATM   14  N10 UNL     1      -4.189  -0.711   0.448  1.00  0.00    -0.368 N 
ATOM     15  H10 UNL     1      -4.694  -1.410   0.993  1.00  0.00     0.161 HD
BRANCH  14  16
HETATM   16  C9  UNL     1      -4.825   0.554   0.120  1.00  0.00     0.147 C 
BRANCH  16  17
HETATM   17  C10 UNL     1      -5.526   1.089   1.337  1.00  0.00     0.183 C 
BRANCH  17  18
HETATM   18  O1  UNL     1      -6.132   2.297   1.021  1.00  0.00    -0.399 OA
ATOM     19  H1  UNL     1      -6.575   2.635   1.790  1.00  0.00     0.209 HD
ENDBRANCH  17  18
ENDBRANCH  16  17
ENDBRANCH  14  16
ENDBRANCH  11  14
ENDBRANCH   1   3
BRANCH   1  20
HETATM   20  C3  UNL     1       1.819  -0.395  -2.239  1.00  0.00     0.276 C 
BRANCH  20  21
HETATM   21  N4  UNL     1       2.591  -0.557  -1.031  1.00  0.00    -0.242 N 
HETATM   22  N5  UNL     1       2.743  -1.589  -0.249  1.00  0.00    -0.237 N 
HETATM   23  N6  UNL     1       3.552  -1.339   0.767  1.00  0.00    -0.279 N 
ATOM     24  H5  UNL     1       2.289  -2.489  -0.404  1.00  0.00     0.208 HD
HETATM   25  C4  UNL     1       3.965  -0.065   0.657  1.00  0.00     0.139 A 
ATOM     26  H6  UNL     1       3.815  -1.995   1.502  1.00  0.00     0.189 HD
HETATM   27  C5  UNL     1       4.791   0.768   1.377  1.00  0.00     0.132 A 
HETATM   28  C7  UNL     1       3.359   0.430  -0.478  1.00  0.00     0.158 A 
HETATM   29  N8  UNL     1       4.999   2.034   0.979  1.00  0.00    -0.337 N 
HETATM   30  C6  UNL     1       4.400   2.521  -0.142  1.00  0.00     0.183 A 
ATOM     31  H8  UNL     1       5.614   2.638   1.524  1.00  0.00     0.168 HD
HETATM   32  N9  UNL     1       3.592   1.712  -0.849  1.00  0.00    -0.335 N 
ATOM     33  H9  UNL     1       3.141   2.074  -1.689  1.00  0.00     0.168 HD
BRANCH  27  34
HETATM   34  N7  UNL     1       5.358   0.308   2.437  1.00  0.00    -0.383 N 
ATOM     35  H72 UNL     1       5.200  -0.653   2.739  1.00  0.00     0.157 HD
ATOM     36  H71 UNL     1       5.970   0.925   2.971  1.00  0.00     0.157 HD
ENDBRANCH  27  34
ENDBRANCH  20  21
ENDBRANCH   1  20
TORSDOF 8
