REMARK  5 active torsions:
REMARK  status: ('A' for Active; 'I' for Inactive)
REMARK    1  A    between atoms: C2_3  and  O1_6 
REMARK    2  A    between atoms: O1_6  and  S1_7 
REMARK    3  A    between atoms: S1_7  and  S2_10 
REMARK    4  A    between atoms: S2_10  and  C4_11 
REMARK    5  A    between atoms: C6_18  and  N5_19 
REMARK       I    between atoms: N5_19  and  C7_21 
REMARK       I    between atoms: C7_21  and  N6_22 
REMARK       I    between atoms: C7_21  and  N7_26 
ROOT
HETATM    1  N1  UNL     1       5.718  -2.199  -1.050  1.00  0.00    -0.193 NA
HETATM    2  C1  UNL     1       5.633  -1.530  -0.128  1.00  0.00     0.107 C 
HETATM    3  C2  UNL     1       5.523  -0.695   1.069  1.00  0.00     0.355 C 
HETATM    4  C3  UNL     1       6.852  -0.278   1.547  1.00  0.00     0.107 C 
HETATM    5  N2  UNL     1       7.885   0.064   1.924  1.00  0.00    -0.193 NA
ENDROOT
BRANCH   3   6
HETATM    6  O1  UNL     1       4.853   0.475   0.676  1.00  0.00    -0.232 OA
BRANCH   6   7
HETATM    7  S1  UNL     1       3.479   0.733   1.573  1.00  0.00     0.333 S 
HETATM    8  O2  UNL     1       3.622   1.687   2.708  1.00  0.00    -0.186 OA
HETATM    9  O3  UNL     1       3.065  -0.560   2.117  1.00  0.00    -0.186 OA
BRANCH   7  10
HETATM   10  S2  UNL     1       2.359   1.783   0.235  1.00  0.00     0.069 SA
BRANCH  10  11
HETATM   11  C4  UNL     1       0.828   1.136  -0.161  1.00  0.00     0.164 A 
HETATM   12  N3  UNL     1       0.368  -0.012   0.377  1.00  0.00    -0.321 N 
HETATM   13  C5  UNL     1      -0.809  -0.583   0.123  1.00  0.00     0.131 A 
ATOM     14  H3  UNL     1       0.979  -0.488   1.041  1.00  0.00     0.169 HD
HETATM   15  N4  UNL     1      -1.174  -1.707   0.690  1.00  0.00    -0.383 N 
HETATM   16  C6  UNL     1      -1.661   0.022  -0.762  1.00  0.00     0.117 A 
ATOM     17  H42 UNL     1      -0.539  -2.158   1.349  1.00  0.00     0.157 HD
ATOM     18  H41 UNL     1      -2.075  -2.144   0.496  1.00  0.00     0.157 HD
HETATM   19  C8  UNL     1      -1.216   1.203  -1.331  1.00  0.00     0.148 A 
HETATM   20  N8  UNL     1      -2.122   1.821  -2.255  1.00  0.00    -0.080 NA
HETATM   21  N9  UNL     1      -0.023   1.735  -1.042  1.00  0.00    -0.322 N 
ATOM     22  H9  UNL     1       0.256   2.608  -1.490  1.00  0.00     0.169 HD
BRANCH  16  23
HETATM   23  N5  UNL     1      -2.923  -0.536  -1.065  1.00  0.00    -0.335 N 
HETATM   24  C7  UNL     1      -4.152  -0.230  -0.385  1.00  0.00     0.480 C 
HETATM   25  N6  UNL     1      -4.154  -0.520   1.007  1.00  0.00    -0.033 N 
HETATM   26  N7  UNL     1      -5.241  -0.971  -1.012  1.00  0.00    -0.033 N 
ATOM     27  H63 UNL     1      -3.897  -1.494   1.165  1.00  0.00     0.278 HD
ATOM     28  H62 UNL     1      -3.371  -0.053   1.466  1.00  0.00     0.278 HD
ATOM     29  H61 UNL     1      -5.026  -0.303   1.489  1.00  0.00     0.278 HD
ATOM     30  H73 UNL     1      -5.300  -0.799  -2.016  1.00  0.00     0.278 HD
ATOM     31  H72 UNL     1      -5.057  -1.974  -1.049  1.00  0.00     0.278 HD
ATOM     32  H71 UNL     1      -6.113  -0.754  -0.530  1.00  0.00     0.278 HD
ATOM     33  H5  UNL     1      -2.966  -1.211  -1.828  1.00  0.00     0.163 HD
ENDBRANCH  16  23
ENDBRANCH  10  11
ENDBRANCH   7  10
ENDBRANCH   6   7
ENDBRANCH   3   6
TORSDOF 5
