REMARK  7 active torsions:
REMARK  status: ('A' for Active; 'I' for Inactive)
REMARK    1  A    between atoms: C5_14  and  N4_15 
REMARK    2  A    between atoms: N4_15  and  N5_17 
REMARK    3  A    between atoms: C6_19  and  C7_20 
REMARK    4  A    between atoms: C7_20  and  C8_21 
REMARK    5  A    between atoms: C8_21  and  O3_22 
REMARK    6  A    between atoms: O3_22  and  C9_23 
REMARK    7  A    between atoms: C10_26  and  N7_27 
ROOT
HETATM    1  N4  UNL     1       2.466  -1.320  -0.036  1.00  0.00    -0.294 N 
ATOM      2  H4  UNL     1       1.980  -1.782  -0.805  1.00  0.00     0.187 HD
ENDROOT
BRANCH   1   3
HETATM    3  C5  UNL     1       3.840  -0.990  -0.148  1.00  0.00     0.145 A 
HETATM    4  C4  UNL     1       4.906  -1.972   0.004  1.00  0.00     0.278 A 
HETATM    5  N3  UNL     1       6.261  -1.601  -0.115  1.00  0.00    -0.286 N 
HETATM    6  O2  UNL     1       4.595  -3.164   0.245  1.00  0.00    -0.265 OA
HETATM    7  C3  UNL     1       6.642  -0.262  -0.387  1.00  0.00     0.277 A 
ATOM      8  H3  UNL     1       6.984  -2.312  -0.003  1.00  0.00     0.172 HD
HETATM    9  C2  UNL     1       5.561   0.713  -0.537  1.00  0.00     0.133 A 
HETATM   10  O1  UNL     1       7.818   0.120  -0.502  1.00  0.00    -0.266 OA
HETATM   11  N2  UNL     1       5.575   1.975  -0.781  1.00  0.00    -0.322 N 
HETATM   12  C11 UNL     1       4.154   0.277  -0.404  1.00  0.00     0.101 A 
HETATM   13  C1  UNL     1       4.241   2.498  -0.836  1.00  0.00     0.178 A 
ATOM     14  H2  UNL     1       6.420   2.529  -0.917  1.00  0.00     0.169 HD
HETATM   15  N1  UNL     1       3.864   3.709  -1.056  1.00  0.00    -0.371 N 
HETATM   16  N11 UNL     1       3.339   1.426  -0.597  1.00  0.00    -0.324 N 
ATOM     17  H12 UNL     1       4.511   4.478  -1.228  1.00  0.00     0.159 HD
ATOM     18  H11 UNL     1       2.915   4.081  -1.095  1.00  0.00     0.159 HD
ATOM     19  H11 UNL     1       2.320   1.471  -0.570  1.00  0.00     0.169 HD
ENDBRANCH   1   3
BRANCH   1  20
HETATM   20  N5  UNL     1       1.797  -1.007   1.129  1.00  0.00    -0.315 N 
HETATM   21  C6  UNL     1       0.514  -1.010   1.252  1.00  0.00     0.082 C 
ATOM     22  H5  UNL     1       2.354  -0.757   1.946  1.00  0.00     0.185 HD
BRANCH  21  23
HETATM   23  C7  UNL     1      -0.402  -1.356   0.139  1.00  0.00     0.073 C 
BRANCH  23  24
HETATM   24  C8  UNL     1      -1.727  -0.723   0.411  1.00  0.00     0.184 C 
BRANCH  24  25
HETATM   25  O3  UNL     1      -2.678  -1.001  -0.610  1.00  0.00    -0.321 OA
BRANCH  25  26
HETATM   26  C9  UNL     1      -3.972  -0.506  -0.549  1.00  0.00     0.234 C 
HETATM   27  N6  UNL     1      -4.182   0.596   0.106  1.00  0.00    -0.314 N 
HETATM   28  C10 UNL     1      -5.509   1.125   0.183  1.00  0.00     0.397 C 
ATOM     29  H6  UNL     1      -3.408   1.080   0.561  1.00  0.00     0.166 HD
HETATM   30  N8  UNL     1      -6.407   0.595  -0.815  1.00  0.00    -0.072 NA
HETATM   31  N9  UNL     1      -6.385  -0.805  -0.871  1.00  0.00    -0.025 NA
HETATM   32  N10 UNL     1      -5.070  -1.172  -1.182  1.00  0.00    -0.252 N 
ATOM     33  H10 UNL     1      -4.894  -1.914  -1.860  1.00  0.00     0.187 HD
BRANCH  28  34
HETATM   34  N7  UNL     1      -5.554   2.568   0.088  1.00  0.00    -0.043 N 
ATOM     35  H73 UNL     1      -4.951   2.997   0.790  1.00  0.00     0.278 HD
ATOM     36  H72 UNL     1      -5.083   2.891  -0.757  1.00  0.00     0.278 HD
ATOM     37  H71 UNL     1      -6.500   2.945   0.143  1.00  0.00     0.278 HD
ENDBRANCH  28  34
ENDBRANCH  25  26
ENDBRANCH  24  25
ENDBRANCH  23  24
ENDBRANCH  21  23
ENDBRANCH   1  20
TORSDOF 7
