REMARK  7 active torsions:
REMARK  status: ('A' for Active; 'I' for Inactive)
REMARK    1  A    between atoms: N1_1  and  C1_4 
REMARK    2  A    between atoms: C3_11  and  C4_12 
REMARK    3  A    between atoms: C4_12  and  O2_13 
REMARK    4  A    between atoms: C5_15  and  C6_16 
REMARK    5  A    between atoms: C8_21  and  N5_22 
REMARK    6  A    between atoms: N5_22  and  O4_24 
REMARK    7  A    between atoms: C9_26  and  C10_27 
ROOT
HETATM    1  C6  UNL     1      -0.104   0.342  -0.661  1.00  0.00     0.124 A 
HETATM    2  N4  UNL     1       0.267   1.396  -1.481  1.00  0.00    -0.307 N 
ATOM      3  H4  UNL     1      -0.454   1.825  -2.061  1.00  0.00     0.170 HD
HETATM    4  C7  UNL     1       1.496   1.883  -1.561  1.00  0.00     0.278 A 
HETATM    5  O3  UNL     1       1.832   2.838  -2.303  1.00  0.00    -0.265 OA
HETATM    6  C8  UNL     1       2.508   1.325  -0.788  1.00  0.00     0.152 A 
HETATM    7  C9  UNL     1       2.175   0.279   0.034  1.00  0.00     0.115 A 
HETATM    8  N10 UNL     1       0.880  -0.155   0.049  1.00  0.00    -0.336 N 
ATOM      9  H10 UNL     1       0.659  -0.935   0.668  1.00  0.00     0.168 HD
ENDROOT
BRANCH   1  10
HETATM   10  C5  UNL     1      -1.519  -0.008  -0.644  1.00  0.00     0.076 A 
HETATM   11  C1  UNL     1      -2.286   0.425  -1.749  1.00  0.00     0.118 A 
HETATM   12  N2  UNL     1      -3.601   0.248  -1.838  1.00  0.00    -0.294 N 
HETATM   13  C2  UNL     1      -4.228  -0.365  -0.841  1.00  0.00     0.326 A 
ATOM     14  H2  UNL     1      -4.117   0.576  -2.655  1.00  0.00     0.172 HD
HETATM   15  O1  UNL     1      -5.484  -0.536  -0.923  1.00  0.00    -0.247 OA
HETATM   16  N3  UNL     1      -3.543  -0.792   0.223  1.00  0.00    -0.309 N 
HETATM   17  C3  UNL     1      -2.189  -0.632   0.359  1.00  0.00     0.054 A 
ATOM     18  H3  UNL     1      -4.053  -1.261   0.972  1.00  0.00     0.170 HD
BRANCH  11  19
HETATM   19  N1  UNL     1      -1.628   1.014  -2.706  1.00  0.00    -0.385 N 
ATOM     20  H12 UNL     1      -2.182   1.327  -3.504  1.00  0.00     0.157 HD
ATOM     21  H11 UNL     1      -0.619   1.150  -2.638  1.00  0.00     0.157 HD
ENDBRANCH  11  19
BRANCH  17  22
HETATM   22  C4  UNL     1      -1.521  -1.140   1.568  1.00  0.00     0.222 C 
BRANCH  22  23
HETATM   23  O2  UNL     1      -2.532  -1.666   2.428  1.00  0.00    -0.395 OA
ATOM     24  H2  UNL     1      -2.101  -1.994   3.208  1.00  0.00     0.209 HD
ENDBRANCH  22  23
ENDBRANCH  17  22
ENDBRANCH   1  10
BRANCH   7  25
HETATM   25  C10 UNL     1       3.173  -0.365   0.879  1.00  0.00     0.161 A 
HETATM   26  N6  UNL     1       2.969  -1.392   1.720  1.00  0.00    -0.268 N 
HETATM   27  N7  UNL     1       4.127  -1.704   2.320  1.00  0.00    -0.007 NA
ATOM     28  H6  UNL     1       2.076  -1.860   1.877  1.00  0.00     0.185 HD
HETATM   29  N8  UNL     1       5.056  -0.882   1.863  1.00  0.00    -0.007 NA
HETATM   30  N9  UNL     1       4.472  -0.062   0.980  1.00  0.00    -0.268 N 
ATOM     31  H9  UNL     1       4.945   0.680   0.464  1.00  0.00     0.185 HD
ENDBRANCH   7  25
BRANCH   6  32
HETATM   32  N5  UNL     1       3.825   1.832  -0.859  1.00  0.00    -0.262 N 
ATOM     33  H5  UNL     1       4.489   1.415  -1.511  1.00  0.00     0.194 HD
BRANCH  32  34
HETATM   34  O4  UNL     1       4.184   2.770  -0.145  1.00  0.00    -0.289 OA
ATOM     35  H4  UNL     1       5.069   3.111  -0.193  1.00  0.00     0.244 HD
ENDBRANCH  32  34
ENDBRANCH   6  32
TORSDOF 7
