REMARK  9 active torsions:
REMARK  status: ('A' for Active; 'I' for Inactive)
REMARK    1  A    between atoms: C2_2  and  C3_3 
REMARK    2  A    between atoms: C3_3  and  O1_4 
REMARK    3  A    between atoms: N1_7  and  C5_8 
REMARK    4  A    between atoms: C6_11  and  N3_12 
REMARK    5  A    between atoms: C7_15  and  N4_16 
REMARK    6  A    between atoms: N4_16  and  N5_18 
REMARK    7  A    between atoms: C8_21  and  N6_22 
REMARK    8  A    between atoms: N6_22  and  C9_24 
REMARK    9  A    between atoms: C9_24  and  C10_25 
ROOT
HETATM    1  C5  UNL     1      -0.473  -0.675   0.358  1.00  0.00     0.683 A 
HETATM    2  N2  UNL     1      -0.586  -1.998   0.550  1.00  0.00    -0.175 N 
ATOM      3  H2  UNL     1      -1.513  -2.423   0.587  1.00  0.00     0.186 HD
HETATM    4  C6  UNL     1       0.503  -2.773   0.695  1.00  0.00     0.146 A 
HETATM    5  C7  UNL     1       1.798  -2.237   0.652  1.00  0.00     0.136 A 
HETATM    6  C8  UNL     1       1.898  -0.874   0.453  1.00  0.00     0.149 A 
HETATM    7  N11 UNL     1       0.746  -0.136   0.312  1.00  0.00    -0.174 N 
ATOM      8  H11 UNL     1       0.828   0.870   0.165  1.00  0.00     0.186 HD
ENDROOT
BRANCH   6   9
HETATM    9  N6  UNL     1       3.147  -0.225   0.396  1.00  0.00    -0.367 N 
ATOM     10  H6  UNL     1       4.015  -0.749   0.507  1.00  0.00     0.161 HD
BRANCH   9  11
HETATM   11  C9  UNL     1       3.165   1.220   0.174  1.00  0.00     0.200 C 
BRANCH  11  12
HETATM   12  C10 UNL     1       4.526   1.779   0.154  1.00  0.00     0.131 A 
HETATM   13  N7  UNL     1       5.414   1.640  -0.818  1.00  0.00    -0.271 N 
HETATM   14  N8  UNL     1       6.532   2.299  -0.474  1.00  0.00    -0.227 N 
ATOM     15  H7  UNL     1       5.272   1.119  -1.684  1.00  0.00     0.190 HD
HETATM   16  N9  UNL     1       6.330   2.842   0.705  1.00  0.00    -0.227 N 
ATOM     17  H8  UNL     1       7.385   2.366  -1.029  1.00  0.00     0.210 HD
HETATM   18  N10 UNL     1       5.120   2.545   1.116  1.00  0.00    -0.271 N 
ATOM     19  H9  UNL     1       7.007   3.405   1.220  1.00  0.00     0.210 HD
ATOM     20  H10 UNL     1       4.698   2.835   1.998  1.00  0.00     0.190 HD
ENDBRANCH  11  12
ENDBRANCH   9  11
ENDBRANCH   6   9
BRANCH   5  21
HETATM   21  N4  UNL     1       2.871  -3.120   0.814  1.00  0.00    -0.301 N 
ATOM     22  H4  UNL     1       2.596  -4.095   0.931  1.00  0.00     0.186 HD
BRANCH  21  23
HETATM   23  N5  UNL     1       4.224  -2.911   0.844  1.00  0.00    -0.344 N 
ATOM     24  H52 UNL     1       4.477  -1.930   0.726  1.00  0.00     0.176 HD
ATOM     25  H51 UNL     1       5.006  -3.555   0.962  1.00  0.00     0.176 HD
ENDBRANCH  21  23
ENDBRANCH   5  21
BRANCH   4  26
HETATM   26  N3  UNL     1       0.373  -4.037   0.877  1.00  0.00    -0.383 N 
ATOM     27  H32 UNL     1      -0.569  -4.427   0.908  1.00  0.00     0.157 HD
ATOM     28  H31 UNL     1       1.199  -4.625   0.987  1.00  0.00     0.157 HD
ENDBRANCH   4  26
BRANCH   1  29
HETATM   29  N1  UNL     1      -1.620   0.117   0.225  1.00  0.00    -0.213 N 
HETATM   30  C4  UNL     1      -2.339   0.355  -1.009  1.00  0.00     0.181 C 
HETATM   31  C2  UNL     1      -3.815   0.471  -0.862  1.00  0.00     0.095 C 
HETATM   32  C1  UNL     1      -4.465  -0.915  -0.980  1.00  0.00     0.050 C 
HETATM   33  O2  UNL     1      -4.202   1.039   0.336  1.00  0.00    -0.375 OA
HETATM   34  C12 UNL     1      -3.158   1.806   0.834  1.00  0.00     0.189 C 
HETATM   35  C11 UNL     1      -2.167   0.790   1.422  1.00  0.00     0.167 C 
BRANCH  31  36
HETATM   36  C3  UNL     1      -4.408   1.344  -1.977  1.00  0.00     0.203 C 
BRANCH  36  37
HETATM   37  O1  UNL     1      -5.809   1.343  -1.830  1.00  0.00    -0.398 OA
ATOM     38  H1  UNL     1      -6.176   1.883  -2.520  1.00  0.00     0.209 HD
ENDBRANCH  36  37
ENDBRANCH  31  36
ENDBRANCH   1  29
TORSDOF 9
