REMARK  7 active torsions:
REMARK  status: ('A' for Active; 'I' for Inactive)
REMARK    1  A    between atoms: C2_2  and  O1_4 
REMARK    2  A    between atoms: C2_2  and  C4_6 
REMARK    3  A    between atoms: C4_6  and  N1_7 
REMARK    4  A    between atoms: N1_7  and  C5_10 
REMARK    5  A    between atoms: C5_10  and  C6_11 
REMARK    6  A    between atoms: C7_16  and  N5_17 
REMARK    7  A    between atoms: C8_18  and  O2_19 
ROOT
HETATM    1  N5  UNL     1      -2.233   0.546  -0.212  1.00  0.00    -0.247 N 
HETATM    2  C8  UNL     1      -1.979   1.805  -0.601  1.00  0.00     0.231 A 
HETATM    3  N6  UNL     1      -3.172   2.400  -0.837  1.00  0.00    -0.316 N 
ATOM      4  H6  UNL     1      -3.288   3.365  -1.148  1.00  0.00     0.169 HD
HETATM    5  C9  UNL     1      -4.171   1.555  -0.608  1.00  0.00     0.124 A 
HETATM    6  C10 UNL     1      -5.555   1.624  -0.679  1.00  0.00     0.132 A 
HETATM    7  N7  UNL     1      -6.082   2.741  -1.053  1.00  0.00    -0.383 N 
ATOM      8  H71 UNL     1      -7.099   2.792  -1.105  1.00  0.00     0.157 HD
ATOM      9  H72 UNL     1      -5.532   3.565  -1.298  1.00  0.00     0.157 HD
HETATM   10  N8  UNL     1      -6.280   0.538  -0.356  1.00  0.00    -0.318 N 
ATOM     11  H8  UNL     1      -7.297   0.600  -0.411  1.00  0.00     0.169 HD
HETATM   12  C11 UNL     1      -5.736  -0.612   0.031  1.00  0.00     0.191 A 
HETATM   13  C12 UNL     1      -6.500  -1.778   0.381  1.00  0.00     0.137 C 
HETATM   14  N9  UNL     1      -7.120  -2.700   0.677  1.00  0.00    -0.188 NA
HETATM   15  N10 UNL     1      -4.369  -0.675   0.098  1.00  0.00    -0.317 N 
ATOM     16  H10 UNL     1      -3.936  -1.550   0.393  1.00  0.00     0.169 HD
HETATM   17  C13 UNL     1      -3.577   0.358  -0.205  1.00  0.00     0.149 A 
ENDROOT
BRANCH   1  18
HETATM   18  C7  UNL     1      -1.244  -0.426   0.138  1.00  0.00     0.128 C 
HETATM   19  C6  UNL     1       0.202  -0.240   0.438  1.00  0.00     0.192 C 
HETATM   20  N2  UNL     1       0.387  -1.326   1.426  1.00  0.00    -0.112 NA
HETATM   21  N3  UNL     1      -0.249  -2.345   0.657  1.00  0.00    -0.029 NA
HETATM   22  N4  UNL     1      -1.459  -1.712   0.282  1.00  0.00    -0.274 N 
ATOM     23  H4  UNL     1      -2.354  -2.181   0.146  1.00  0.00     0.185 HD
BRANCH  19  24
HETATM   24  C5  UNL     1       0.952  -0.615  -0.836  1.00  0.00     0.262 C 
BRANCH  24  25
HETATM   25  N1  UNL     1       2.356  -0.793  -0.596  1.00  0.00    -0.070 N 
ATOM     26  H12 UNL     1       2.815  -1.246  -1.386  1.00  0.00     0.277 HD
ATOM     27  H11 UNL     1       2.526  -1.505   0.114  1.00  0.00     0.277 HD
BRANCH  25  28
HETATM   28  C4  UNL     1       2.988   0.439  -0.261  1.00  0.00     0.269 C 
BRANCH  28  29
HETATM   29  C2  UNL     1       4.473   0.255  -0.007  1.00  0.00     0.074 C 
HETATM   30  C1  UNL     1       5.102  -0.190  -1.322  1.00  0.00     0.047 C 
HETATM   31  C3  UNL     1       4.746  -0.706   1.103  1.00  0.00     0.047 C 
BRANCH  29  32
HETATM   32  O1  UNL     1       4.996   1.496   0.313  1.00  0.00    -0.389 OA
ATOM     33  H1  UNL     1       4.604   1.773   1.133  1.00  0.00     0.210 HD
ENDBRANCH  29  32
ENDBRANCH  28  29
ENDBRANCH  25  28
ENDBRANCH  24  25
ENDBRANCH  19  24
ENDBRANCH   1  18
BRANCH   2  34
HETATM   34  O2  UNL     1      -0.720   2.400  -0.739  1.00  0.00    -0.332 OA
ATOM     35  H2  UNL     1      -0.540   3.291  -1.014  1.00  0.00     0.221 HD
ENDBRANCH   2  34
TORSDOF 7
