REMARK  3 active torsions:
REMARK  status: ('A' for Active; 'I' for Inactive)
REMARK       I    between atoms: N1_2  and  C2_4 
REMARK    1  A    between atoms: N3_6  and  O1_8 
REMARK    2  A    between atoms: O1_8  and  C3_9 
REMARK       I    between atoms: C3_9  and  N4_11 
REMARK    3  A    between atoms: N4_11  and  N5_13 
ROOT
HETATM    1  O1  UNL     1       0.794   0.109  -0.050  1.00  0.00    -0.177 OA
ENDROOT
BRANCH   1   2
HETATM    2  N3  UNL     1      -0.141  -0.779  -0.514  1.00  0.00    -0.228 N 
HETATM    3  C2  UNL     1      -1.370  -0.593  -0.152  1.00  0.00     0.208 C 
HETATM    4  N1  UNL     1      -1.757   0.473   0.686  1.00  0.00    -0.367 N 
HETATM    5  N2  UNL     1      -2.301  -1.553  -0.667  1.00  0.00    -0.062 NA
HETATM    6  C1  UNL     1      -3.059   1.098   0.611  1.00  0.00     0.148 C 
ATOM      7  H1  UNL     1      -1.089   0.818   1.375  1.00  0.00     0.161 HD
ATOM      8  H3  UNL     1       0.121  -1.556  -1.121  1.00  0.00     0.198 HD
ENDBRANCH   1   2
BRANCH   1   9
HETATM    9  C3  UNL     1       2.100  -0.314   0.054  1.00  0.00     0.401 C 
HETATM   10  O2  UNL     1       2.399  -1.479  -0.271  1.00  0.00    -0.235 OA
HETATM   11  N4  UNL     1       3.091   0.571   0.527  1.00  0.00    -0.250 N 
ATOM     12  H4  UNL     1       2.848   1.525   0.793  1.00  0.00     0.191 HD
BRANCH  11  13
HETATM   13  N5  UNL     1       4.423   0.119   0.627  1.00  0.00    -0.341 N 
ATOM     14  H52 UNL     1       4.650  -0.838   0.357  1.00  0.00     0.177 HD
ATOM     15  H51 UNL     1       5.140   0.759   0.969  1.00  0.00     0.177 HD
ENDBRANCH  11  13
ENDBRANCH   1   9
TORSDOF 3
