REMARK  1 active torsions:
REMARK  status: ('A' for Active; 'I' for Inactive)
REMARK    1  A    between atoms: N1_1  and  C1_4 
ROOT
HETATM    1  C1  UNL     1      -0.124  -1.140  -0.000  1.00  0.00     0.144 A 
HETATM    2  N2  UNL     1       1.217  -1.192   0.082  1.00  0.00    -0.281 N 
ATOM      3  H2  UNL     1       1.687  -2.094   0.155  1.00  0.00     0.188 HD
HETATM    4  N3  UNL     1       1.930  -0.077   0.069  1.00  0.00    -0.263 N 
ATOM      5  H3  UNL     1       2.945  -0.149   0.134  1.00  0.00     0.190 HD
HETATM    6  C2  UNL     1       1.384   1.138  -0.025  1.00  0.00     0.290 A 
HETATM    7  O1  UNL     1       2.068   2.197  -0.038  1.00  0.00    -0.264 OA
HETATM    8  C3  UNL     1       0.019   1.277  -0.114  1.00  0.00     0.151 A 
HETATM    9  N4  UNL     1      -0.838   2.310  -0.217  1.00  0.00    -0.279 N 
ATOM     10  H4  UNL     1      -0.590   3.299  -0.252  1.00  0.00     0.189 HD
HETATM   11  N5  UNL     1      -2.059   1.807  -0.264  1.00  0.00    -0.241 N 
ATOM     12  H5  UNL     1      -2.917   2.353  -0.342  1.00  0.00     0.208 HD
HETATM   13  N6  UNL     1      -2.001   0.500  -0.195  1.00  0.00    -0.280 N 
ATOM     14  H6  UNL     1      -2.808  -0.124  -0.212  1.00  0.00     0.188 HD
HETATM   15  C4  UNL     1      -0.721   0.104  -0.098  1.00  0.00     0.128 A 
ENDROOT
BRANCH   1  16
HETATM   16  N1  UNL     1      -0.856  -2.201   0.010  1.00  0.00    -0.382 N 
ATOM     17  H12 UNL     1      -0.416  -3.118   0.082  1.00  0.00     0.157 HD
ATOM     18  H11 UNL     1      -1.873  -2.162  -0.052  1.00  0.00     0.157 HD
ENDBRANCH   1  16
TORSDOF 1
