REMARK  2 active torsions:
REMARK  status: ('A' for Active; 'I' for Inactive)
REMARK       I    between atoms: C1_2  and  N2_4 
REMARK    1  A    between atoms: N2_4  and  N3_6 
REMARK    2  A    between atoms: N4_8  and  N5_10 
REMARK       I    between atoms: N5_10  and  C2_12 
ROOT
HETATM    1  N3  UNL     1       0.590  -0.328  -1.666  1.00  0.00    -0.224 N 
ATOM      2  H3  UNL     1       1.037  -0.171  -2.569  1.00  0.00     0.210 HD
HETATM    3  N4  UNL     1      -0.553  -0.854  -1.662  1.00  0.00    -0.224 N 
ATOM      4  H4  UNL     1      -1.012  -1.112  -2.536  1.00  0.00     0.210 HD
ENDROOT
BRANCH   1   5
HETATM    5  N2  UNL     1       1.288   0.055  -0.520  1.00  0.00    -0.238 N 
HETATM    6  C1  UNL     1       2.174   1.149  -0.630  1.00  0.00     0.348 C 
HETATM    7  N1  UNL     1       2.892   1.549   0.532  1.00  0.00    -0.038 NA
HETATM    8  O1  UNL     1       2.324   1.759  -1.740  1.00  0.00    -0.249 OA
ATOM      9  H2  UNL     1       1.163  -0.437   0.365  1.00  0.00     0.193 HD
ENDBRANCH   1   5
BRANCH   3  10
HETATM   10  N5  UNL     1      -1.175  -1.075  -0.439  1.00  0.00    -0.238 N 
HETATM   11  C2  UNL     1      -2.273  -0.270  -0.068  1.00  0.00     0.348 C 
HETATM   12  N6  UNL     1      -2.905  -0.503   1.187  1.00  0.00    -0.038 NA
HETATM   13  O2  UNL     1      -2.664   0.629  -0.853  1.00  0.00    -0.249 OA
ATOM     14  H5  UNL     1      -0.842  -1.811   0.184  1.00  0.00     0.193 HD
ENDBRANCH   3  10
TORSDOF 2
