REMARK  12 active torsions:
REMARK  status: ('A' for Active; 'I' for Inactive)
REMARK    1  A    between atoms: C2_2  and  N1_5 
REMARK    2  A    between atoms: N1_5  and  C5_8 
REMARK    3  A    between atoms: C5_8  and  C6_9 
REMARK    4  A    between atoms: C6_9  and  C9_12 
REMARK    5  A    between atoms: C9_12  and  C12_15 
REMARK    6  A    between atoms: C12_15  and  O1_16 
REMARK    7  A    between atoms: O1_16  and  C13_17 
REMARK    8  A    between atoms: C16_21  and  C17_22 
REMARK    9  A    between atoms: C17_22  and  C18_23 
REMARK   10  A    between atoms: C19_26  and  C20_27 
REMARK   11  A    between atoms: C20_27  and  C21_28 
REMARK   12  A    between atoms: C21_28  and  O5_29 
ROOT
HETATM    1  C13 UNL     1      -0.728  -0.184  -0.661  1.00  0.00     0.263 C 
HETATM    2  C14 UNL     1       0.053  -1.497  -1.003  1.00  0.00     0.095 C 
HETATM    3  C15 UNL     1       1.384  -1.110  -0.352  1.00  0.00     0.159 C 
HETATM    4  O2  UNL     1       2.417  -1.719  -0.992  1.00  0.00    -0.376 OA
HETATM    5  C16 UNL     1       3.595  -1.824  -0.290  1.00  0.00     0.140 C 
HETATM    6  C19 UNL     1       4.388  -0.498  -0.343  1.00  0.00     0.043 C 
HETATM    7  C29 UNL     1       3.792   0.367  -1.354  1.00  0.00    -0.021 C 
HETATM    8  C30 UNL     1       2.523   0.733  -1.430  1.00  0.00     0.004 C 
HETATM    9  C31 UNL     1       1.352   0.390  -0.543  1.00  0.00     0.176 C 
HETATM   10  O8  UNL     1       0.199   0.715  -1.220  1.00  0.00    -0.350 OA
ENDROOT
BRANCH   1  11
HETATM   11  O1  UNL     1      -1.924  -0.177  -1.240  1.00  0.00    -0.360 OA
BRANCH  11  12
HETATM   12  C12 UNL     1      -3.033  -0.096  -0.489  1.00  0.00     0.180 C 
BRANCH  12  13
HETATM   13  C9  UNL     1      -3.411   1.116   0.256  1.00  0.00    -0.018 C 
HETATM   14  C10 UNL     1      -2.349   1.619   1.197  1.00  0.00     0.018 C 
HETATM   15  C11 UNL     1      -3.653   2.297  -0.697  1.00  0.00     0.018 C 
BRANCH  13  16
HETATM   16  C6  UNL     1      -4.705   0.855   1.013  1.00  0.00    -0.015 C 
HETATM   17  C7  UNL     1      -5.225   2.185   1.580  1.00  0.00     0.017 C 
HETATM   18  C8  UNL     1      -4.498  -0.040   2.205  1.00  0.00     0.017 C 
BRANCH  16  19
HETATM   19  C5  UNL     1      -5.739   0.316   0.069  1.00  0.00     0.242 C 
BRANCH  19  20
HETATM   20  N1  UNL     1      -7.028   0.111   0.746  1.00  0.00    -0.067 N 
ATOM     21  H12 UNL     1      -7.389   0.960   1.181  1.00  0.00     0.278 HD
ATOM     22  H11 UNL     1      -6.948  -0.449   1.595  1.00  0.00     0.278 HD
BRANCH  20  23
HETATM   23  C2  UNL     1      -7.958  -0.471  -0.245  1.00  0.00     0.115 C 
HETATM   24  C1  UNL     1      -8.116   0.556  -1.341  1.00  0.00     0.045 C 
HETATM   25  C3  UNL     1      -7.419  -1.778  -0.773  1.00  0.00     0.045 C 
HETATM   26  C4  UNL     1      -9.284  -0.692   0.445  1.00  0.00     0.045 C 
ENDBRANCH  20  23
ENDBRANCH  19  20
ENDBRANCH  16  19
ENDBRANCH  13  16
ENDBRANCH  12  13
ENDBRANCH  11  12
ENDBRANCH   1  11
BRANCH   5  27
HETATM   27  C17 UNL     1       3.428  -2.161   1.161  1.00  0.00     0.145 C 
BRANCH  27  28
HETATM   28  C18 UNL     1       2.741  -3.452   1.376  1.00  0.00     0.175 C 
HETATM   29  O3  UNL     1       2.544  -3.821   2.562  1.00  0.00    -0.648 OA
HETATM   30  O4  UNL     1       2.321  -4.240   0.337  1.00  0.00    -0.648 OA
ENDBRANCH  27  28
ENDBRANCH   5  27
BRANCH   6  31
HETATM   31  C20 UNL     1       5.805  -0.869  -0.491  1.00  0.00     0.088 C 
BRANCH  31  32
HETATM   32  C21 UNL     1       6.829   0.185  -0.559  1.00  0.00     0.235 C 
HETATM   33  O6  UNL     1       7.086   0.822   0.681  1.00  0.00    -0.305 OA
HETATM   34  C22 UNL     1       8.444   1.174   0.714  1.00  0.00     0.087 A 
HETATM   35  C23 UNL     1       9.137   2.117   1.435  1.00  0.00     0.039 A 
HETATM   36  C27 UNL     1       9.146   0.372  -0.177  1.00  0.00     0.050 A 
HETATM   37  C24 UNL     1      10.514   2.265   1.276  1.00  0.00     0.022 A 
HETATM   38  C25 UNL     1      11.228   1.479   0.397  1.00  0.00     0.012 A 
HETATM   39 BR1  UNL     1      13.109   1.731   0.226  1.00  0.00    -0.051 Br
HETATM   40  C26 UNL     1      10.519   0.538  -0.319  1.00  0.00     0.037 A 
HETATM   41  C28 UNL     1       8.155  -0.506  -0.775  1.00  0.00     0.224 C 
HETATM   42  O7  UNL     1       8.407  -1.590  -1.333  1.00  0.00    -0.286 OA
BRANCH  32  43
HETATM   43  O5  UNL     1       6.726   1.089  -1.600  1.00  0.00    -0.359 OA
ATOM     44  H5  UNL     1       7.387   1.770  -1.644  1.00  0.00     0.213 HD
ENDBRANCH  32  43
ENDBRANCH  31  32
ENDBRANCH   6  31
TORSDOF 12
