REMARK  15 active torsions:
REMARK  status: ('A' for Active; 'I' for Inactive)
REMARK    1  A    between atoms: C2_2  and  O2_4 
REMARK    2  A    between atoms: O2_4  and  C3_5 
REMARK    3  A    between atoms: C4_6  and  O3_7 
REMARK    4  A    between atoms: C17_22  and  C18_23 
REMARK    5  A    between atoms: C18_23  and  O5_24 
REMARK    6  A    between atoms: O5_24  and  C19_25 
REMARK    7  A    between atoms: C19_25  and  C21_27 
REMARK    8  A    between atoms: C22_28  and  O6_29 
REMARK    9  A    between atoms: C22_28  and  C29_37 
REMARK   10  A    between atoms: O6_29  and  C23_30 
REMARK   11  A    between atoms: C23_30  and  C24_32 
REMARK   12  A    between atoms: C24_32  and  C25_33 
REMARK   13  A    between atoms: C25_33  and  C26_34 
REMARK   14  A    between atoms: C29_37  and  O8_40 
REMARK   15  A    between atoms: C33_44  and  O9_45 
ROOT
HETATM    1  C3  UNL     1      -6.410   1.164  -1.106  1.00  0.00     0.169 C 
HETATM    2  C4  UNL     1      -7.598   0.432  -0.589  1.00  0.00     0.170 C 
HETATM    3  C5  UNL     1      -7.263  -0.531   0.491  1.00  0.00     0.004 C 
HETATM    4  C6  UNL     1      -6.049  -0.967   0.794  1.00  0.00    -0.018 C 
HETATM    5  C7  UNL     1      -4.922  -0.468   0.007  1.00  0.00    -0.008 C 
HETATM    6  C8  UNL     1      -5.003  -1.200  -1.336  1.00  0.00     0.021 C 
HETATM    7  C9  UNL     1      -5.180   1.020  -0.230  1.00  0.00     0.031 C 
HETATM    8  C10 UNL     1      -5.271   1.724   1.075  1.00  0.00     0.011 C 
HETATM    9  C11 UNL     1      -4.605   1.031   2.232  1.00  0.00     0.042 C 
HETATM   10  C12 UNL     1      -3.351   0.260   1.808  1.00  0.00     0.099 A 
HETATM   11  O4  UNL     1      -3.130  -0.928   2.506  1.00  0.00    -0.376 OA
HETATM   12  C13 UNL     1      -3.394  -1.800   1.437  1.00  0.00     0.182 A 
HETATM   13  C14 UNL     1      -3.559  -0.570   0.601  1.00  0.00     0.026 A 
HETATM   14  C15 UNL     1      -2.494  -0.413  -0.444  1.00  0.00     0.016 C 
HETATM   15  C16 UNL     1      -1.147  -0.934  -0.098  1.00  0.00     0.009 C 
HETATM   16  C17 UNL     1      -0.503  -0.531   1.149  1.00  0.00     0.030 C 
HETATM   17  C32 UNL     1      -0.834   0.759   1.786  1.00  0.00     0.120 C 
HETATM   18 CL1  UNL     1      -0.008   0.951   3.369  1.00  0.00    -0.122 Cl
HETATM   19  C33 UNL     1      -2.221   1.212   1.839  1.00  0.00     0.172 C 
ENDROOT
BRANCH  16  20
HETATM   20  C18 UNL     1       1.042  -0.634   1.064  1.00  0.00     0.174 C 
BRANCH  20  21
HETATM   21  O5  UNL     1       1.405  -1.942   0.804  1.00  0.00    -0.382 OA
BRANCH  21  22
HETATM   22  C19 UNL     1       2.752  -2.160   0.714  1.00  0.00     0.142 C 
HETATM   23  C20 UNL     1       3.301  -3.069   1.782  1.00  0.00     0.044 C 
BRANCH  22  24
HETATM   24  C21 UNL     1       3.211  -2.670  -0.599  1.00  0.00     0.040 C 
HETATM   25  C22 UNL     1       4.420  -2.474  -1.086  1.00  0.00     0.089 C 
BRANCH  25  26
HETATM   26  O6  UNL     1       5.396  -1.763  -0.415  1.00  0.00    -0.280 OA
BRANCH  26  27
HETATM   27  C23 UNL     1       5.623  -0.423  -0.456  1.00  0.00     0.263 C 
HETATM   28  O7  UNL     1       4.910   0.315  -1.150  1.00  0.00    -0.265 OA
BRANCH  27  29
HETATM   29  C24 UNL     1       6.755   0.122   0.362  1.00  0.00     0.112 C 
BRANCH  29  30
HETATM   30  C25 UNL     1       6.835   1.598   0.121  1.00  0.00     0.013 C 
BRANCH  30  31
HETATM   31  C26 UNL     1       7.947   2.254   0.899  1.00  0.00    -0.022 C 
HETATM   32  C27 UNL     1       8.006   3.742   0.634  1.00  0.00     0.009 C 
HETATM   33  C28 UNL     1       7.763   2.087   2.394  1.00  0.00     0.009 C 
ENDBRANCH  30  31
ENDBRANCH  29  30
ENDBRANCH  27  29
ENDBRANCH  26  27
ENDBRANCH  25  26
BRANCH  25  34
HETATM   34  C29 UNL     1       4.761  -3.038  -2.416  1.00  0.00     0.099 C 
HETATM   35  C30 UNL     1       4.965  -1.927  -3.404  1.00  0.00     0.053 C 
HETATM   36  C31 UNL     1       6.016  -3.895  -2.298  1.00  0.00     0.053 C 
BRANCH  34  37
HETATM   37  O8  UNL     1       3.745  -3.882  -2.845  1.00  0.00    -0.384 OA
ATOM     38  H8  UNL     1       3.963  -4.243  -3.696  1.00  0.00     0.211 HD
ENDBRANCH  34  37
ENDBRANCH  25  34
ENDBRANCH  22  24
ENDBRANCH  21  22
ENDBRANCH  20  21
ENDBRANCH  16  20
BRANCH  19  39
HETATM   39  O9  UNL     1      -2.437   2.313   1.001  1.00  0.00    -0.391 OA
ATOM     40  H9  UNL     1      -1.711   2.925   1.021  1.00  0.00     0.210 HD
ENDBRANCH  19  39
BRANCH   1  41
HETATM   41  O2  UNL     1      -6.733   2.505  -1.332  1.00  0.00    -0.313 OA
BRANCH  41  42
HETATM   42  C2  UNL     1      -6.686   3.027  -2.613  1.00  0.00     0.255 C 
HETATM   43  C1  UNL     1      -7.011   4.435  -2.938  1.00  0.00     0.126 C 
HETATM   44  O1  UNL     1      -6.349   2.291  -3.599  1.00  0.00    -0.266 OA
ENDBRANCH  41  42
ENDBRANCH   1  41
BRANCH   2  45
HETATM   45  O3  UNL     1      -8.610   1.317  -0.186  1.00  0.00    -0.389 OA
ATOM     46  H3  UNL     1      -9.368   0.850   0.144  1.00  0.00     0.210 HD
ENDBRANCH   2  45
TORSDOF 15
