REMARK  3 active torsions:
REMARK  status: ('A' for Active; 'I' for Inactive)
REMARK    1  A    between atoms: C4_5  and  C5_6 
REMARK    2  A    between atoms: C5_6  and  C8_9 
REMARK    3  A    between atoms: C10_13  and  C11_14 
ROOT
HETATM    1  C1  UNL     1      -3.654  -2.047  -0.474  1.00  0.00     0.048 C 
HETATM    2  C2  UNL     1      -2.181  -1.569  -0.485  1.00  0.00     0.185 C 
HETATM    3  O1  UNL     1      -1.559  -2.168   0.569  1.00  0.00    -0.373 OA
HETATM    4  C3  UNL     1      -0.455  -1.473   1.089  1.00  0.00     0.222 C 
HETATM    5  C4  UNL     1      -0.015  -0.371   0.110  1.00  0.00     0.029 C 
HETATM    6  N1  UNL     1      -1.067   0.553   0.052  1.00  0.00    -0.296 N 
HETATM    7  C10 UNL     1      -1.410   1.852   0.187  1.00  0.00     0.133 A 
HETATM    8  C12 UNL     1      -2.792   2.000  -0.080  1.00  0.00     0.126 A 
HETATM    9  N2  UNL     1      -3.239   0.796  -0.363  1.00  0.00    -0.351 N 
ATOM     10  H2  UNL     1      -4.204   0.569  -0.601  1.00  0.00     0.166 HD
HETATM   11  C13 UNL     1      -2.255  -0.068  -0.293  1.00  0.00     0.117 A 
ENDROOT
BRANCH   5  12
HETATM   12  C5  UNL     1       1.402  -0.155   0.017  1.00  0.00     0.006 C 
HETATM   13  C6  UNL     1       2.004  -1.548  -0.462  1.00  0.00     0.022 C 
HETATM   14  C7  UNL     1       1.716   0.689  -1.220  1.00  0.00     0.022 C 
BRANCH  12  15
HETATM   15  C8  UNL     1       2.274   0.125   1.183  1.00  0.00     0.067 C 
HETATM   16  C9  UNL     1       3.745   0.316   0.717  1.00  0.00     0.023 C 
HETATM   17 BR1  UNL     1       2.431  -1.310   2.480  1.00  0.00    -0.090 Br
ENDBRANCH  12  15
ENDBRANCH   5  12
BRANCH   7  18
HETATM   18  C11 UNL     1      -0.658   3.001   0.578  1.00  0.00     0.228 C 
HETATM   19  O2  UNL     1       0.519   3.104   0.939  1.00  0.00    -0.643 OA
HETATM   20  O3  UNL     1      -1.303   4.278   0.577  1.00  0.00    -0.643 OA
ENDBRANCH   7  18
TORSDOF 3
