REMARK  3 active torsions:
REMARK  status: ('A' for Active; 'I' for Inactive)
REMARK    1  A    between atoms: C2_3  and  C3_4 
REMARK    2  A    between atoms: C3_4  and  N2_5 
REMARK    3  A    between atoms: N2_5  and  C4_7 
ROOT
HETATM    1  N1  UNL     1      -1.028   3.384  -0.868  1.00  0.00    -0.197 NA
HETATM    2  C1  UNL     1      -0.281   2.590  -0.525  1.00  0.00     0.061 C 
HETATM    3  C2  UNL     1       0.689   1.595  -0.111  1.00  0.00     0.154 C 
ENDROOT
BRANCH   3   4
HETATM    4  C3  UNL     1       0.139   0.186   0.003  1.00  0.00     0.045 C 
HETATM    5  C5  UNL     1      -0.597  -0.252  -1.206  1.00  0.00     0.059 C 
HETATM    6  C6  UNL     1      -1.847  -1.040  -0.836  1.00  0.00     0.235 C 
HETATM    7  N4  UNL     1      -2.775  -0.173  -0.128  1.00  0.00    -0.075 N 
HETATM    8  C7  UNL     1      -2.194   0.487   0.988  1.00  0.00     0.235 C 
ATOM      9  H42 UNL     1      -3.198   0.501  -0.766  1.00  0.00     0.277 HD
ATOM     10  H41 UNL     1      -3.609  -0.689   0.152  1.00  0.00     0.277 HD
HETATM   11  C8  UNL     1      -0.777   0.152   1.197  1.00  0.00     0.059 C 
BRANCH   4  12
HETATM   12  N2  UNL     1       1.237  -0.640   0.400  1.00  0.00    -0.378 N 
ATOM     13  H2  UNL     1       1.215  -1.120   1.300  1.00  0.00     0.160 HD
BRANCH  12  14
HETATM   14  C4  UNL     1       2.336  -0.789  -0.443  1.00  0.00     0.185 C 
HETATM   15  N3  UNL     1       3.286  -1.689   0.195  1.00  0.00    -0.097 NA
ENDBRANCH  12  14
ENDBRANCH   4  12
ENDBRANCH   3   4
TORSDOF 3
