REMARK  5 active torsions:
REMARK  status: ('A' for Active; 'I' for Inactive)
REMARK    1  A    between atoms: N1_1  and  C1_5 
REMARK    2  A    between atoms: C1_5  and  C2_6 
REMARK    3  A    between atoms: C2_6  and  C3_7 
REMARK    4  A    between atoms: C3_7  and  N2_8 
REMARK    5  A    between atoms: N2_8  and  C4_10 
ROOT
HETATM    1  C4  UNL     1      -0.318   0.008  -0.088  1.00  0.00     0.078 C 
HETATM    2  C5  UNL     1      -1.071   1.319  -0.307  1.00  0.00     0.026 C 
HETATM    3  C6  UNL     1      -2.343   1.321   0.485  1.00  0.00     0.029 C 
HETATM    4  C7  UNL     1      -3.405   0.511  -0.215  1.00  0.00     0.232 C 
HETATM    5  N3  UNL     1      -3.520  -0.772   0.423  1.00  0.00    -0.075 N 
ATOM      6  H31 UNL     1      -4.129  -1.386  -0.118  1.00  0.00     0.277 HD
ATOM      7  H32 UNL     1      -4.067  -0.696   1.280  1.00  0.00     0.277 HD
HETATM    8  C8  UNL     1      -2.262  -1.417   0.686  1.00  0.00     0.234 C 
HETATM    9  C9  UNL     1      -1.199  -1.195  -0.319  1.00  0.00     0.052 C 
ENDROOT
BRANCH   1  10
HETATM   10  N2  UNL     1       0.799  -0.106  -0.984  1.00  0.00    -0.417 N 
ATOM     11  H2  UNL     1       0.854  -0.849  -1.680  1.00  0.00     0.153 HD
BRANCH  10  12
HETATM   12  C3  UNL     1       1.820   0.865  -0.852  1.00  0.00     0.115 C 
BRANCH  12  13
HETATM   13  C2  UNL     1       2.593   0.731   0.434  1.00  0.00     0.046 C 
BRANCH  13  14
HETATM   14  C1  UNL     1       3.253  -0.633   0.508  1.00  0.00     0.231 C 
BRANCH  14  15
HETATM   15  N1  UNL     1       4.147  -0.751  -0.628  1.00  0.00    -0.079 N 
ATOM     16  H13 UNL     1       3.680  -0.584  -1.519  1.00  0.00     0.274 HD
ATOM     17  H12 UNL     1       4.820   0.013  -0.684  1.00  0.00     0.274 HD
ATOM     18  H11 UNL     1       4.591  -1.668  -0.578  1.00  0.00     0.274 HD
ENDBRANCH  14  15
ENDBRANCH  13  14
ENDBRANCH  12  13
ENDBRANCH  10  12
ENDBRANCH   1  10
TORSDOF 5
