REMARK  3 active torsions:
REMARK  status: ('A' for Active; 'I' for Inactive)
REMARK    1  A    between atoms: C3_5  and  C4_6 
REMARK    2  A    between atoms: C4_6  and  C5_7 
REMARK    3  A    between atoms: C5_7  and  C6_8 
ROOT
HETATM    1  C4  UNL     1      -0.320  -0.137  -0.682  1.00  0.00     0.033 C 
ENDROOT
BRANCH   1   2
HETATM    2  C3  UNL     1      -1.811   0.066  -0.644  1.00  0.00     0.100 C 
HETATM    3  C2  UNL     1      -2.232   1.443  -0.255  1.00  0.00     0.145 C 
HETATM    4  N1  UNL     1      -3.513   1.203   0.415  1.00  0.00    -0.384 N 
HETATM    5  C1  UNL     1      -3.614  -0.035   0.754  1.00  0.00     0.171 C 
ATOM      6  H1  UNL     1      -4.223   1.915   0.588  1.00  0.00     0.160 HD
HETATM    7  N4  UNL     1      -2.450  -0.754   0.366  1.00  0.00    -0.380 N 
ATOM      8  H4  UNL     1      -2.132  -1.655   0.723  1.00  0.00     0.160 HD
ENDBRANCH   1   2
BRANCH   1   9
HETATM    9  C5  UNL     1       0.342   0.108   0.631  1.00  0.00     0.061 C 
BRANCH   9  10
HETATM   10  C6  UNL     1       1.814  -0.133   0.434  1.00  0.00     0.027 A 
HETATM   11  C7  UNL     1       2.474  -0.508  -0.714  1.00  0.00     0.045 A 
HETATM   12  C8  UNL     1       3.828  -0.617  -0.447  1.00  0.00     0.109 A 
HETATM   13  N2  UNL     1       3.949  -0.303   0.861  1.00  0.00    -0.312 N 
HETATM   14  N3  UNL     1       2.769  -0.018   1.382  1.00  0.00    -0.305 N 
ATOM     15  H2  UNL     1       4.830  -0.288   1.375  1.00  0.00     0.186 HD
ATOM     16  H3  UNL     1       2.604   0.248   2.353  1.00  0.00     0.186 HD
ENDBRANCH   9  10
ENDBRANCH   1   9
TORSDOF 3
