REMARK  5 active torsions:
REMARK  status: ('A' for Active; 'I' for Inactive)
REMARK    1  A    between atoms: O1_2  and  C2_3 
REMARK    2  A    between atoms: C5_6  and  C6_7 
REMARK    3  A    between atoms: C14_18  and  O2_19 
REMARK    4  A    between atoms: C21_27  and  N2_28 
REMARK    5  A    between atoms: C28_35  and  O3_36 
ROOT
HETATM    1  C6  UNL     1       1.799   0.348   0.636  1.00  0.00    -0.004 C 
HETATM    2  C7  UNL     1       1.661  -0.193   2.063  1.00  0.00     0.020 C 
HETATM    3  C8  UNL     1       0.470  -1.001   1.769  1.00  0.00    -0.008 C 
HETATM    4  C9  UNL     1      -0.875  -0.868   2.245  1.00  0.00     0.010 C 
HETATM    5  C10 UNL     1      -1.888   0.119   2.254  1.00  0.00    -0.009 C 
HETATM    6  C11 UNL     1      -1.486   1.548   2.661  1.00  0.00     0.012 C 
HETATM    7  C12 UNL     1      -0.800   2.014   1.461  1.00  0.00     0.025 C 
HETATM    8  C13 UNL     1      -1.153   3.419   0.938  1.00  0.00     0.241 C 
HETATM    9  N1  UNL     1      -0.270   3.397  -0.212  1.00  0.00    -0.042 N 
ATOM     10  H11 UNL     1       0.512   4.044  -0.112  1.00  0.00     0.280 HD
ATOM     11  H12 UNL     1      -0.699   3.816  -1.037  1.00  0.00     0.280 HD
HETATM   12  C14 UNL     1       0.163   2.056  -0.448  1.00  0.00     0.233 C 
HETATM   13  C15 UNL     1       1.506   1.700   0.196  1.00  0.00     0.084 C 
HETATM   14  C16 UNL     1      -0.844   1.205   0.246  1.00  0.00     0.027 C 
HETATM   15  C17 UNL     1      -0.443  -0.106  -0.131  1.00  0.00     0.021 C 
HETATM   16  C18 UNL     1       0.837  -0.706   0.335  1.00  0.00     0.004 C 
HETATM   17  C19 UNL     1      -2.279   1.149  -0.084  1.00  0.00     0.006 C 
HETATM   18  C20 UNL     1      -2.791   0.347  -1.212  1.00  0.00     0.039 C 
HETATM   19  C21 UNL     1      -4.142  -0.160  -0.680  1.00  0.00     0.190 C 
HETATM   20  C25 UNL     1      -3.729  -0.675   0.700  1.00  0.00     0.039 C 
HETATM   21  C26 UNL     1      -2.837   0.410   1.143  1.00  0.00    -0.003 C 
ENDROOT
BRANCH   1  22
HETATM   22  C5  UNL     1       3.197  -0.033   0.211  1.00  0.00    -0.046 A 
HETATM   23  C4  UNL     1       4.140   0.199   1.198  1.00  0.00     0.011 A 
HETATM   24  C3  UNL     1       5.484  -0.046   1.008  1.00  0.00     0.040 A 
HETATM   25  C2  UNL     1       5.900  -0.530  -0.184  1.00  0.00     0.101 A 
HETATM   26  C28 UNL     1       4.951  -0.774  -1.220  1.00  0.00     0.102 A 
HETATM   27  C27 UNL     1       3.593  -0.509  -0.975  1.00  0.00     0.047 A 
BRANCH  25  28
HETATM   28  O1  UNL     1       7.245  -0.814  -0.462  1.00  0.00    -0.353 OA
HETATM   29  C1  UNL     1       8.243  -0.612   0.500  1.00  0.00     0.210 C 
ENDBRANCH  25  28
BRANCH  26  30
HETATM   30  O3  UNL     1       5.442  -1.229  -2.342  1.00  0.00    -0.353 OA
HETATM   31  C29 UNL     1       5.298  -1.636  -3.597  1.00  0.00     0.210 C 
ENDBRANCH  26  30
ENDBRANCH   1  22
BRANCH  12  32
HETATM   32  O2  UNL     1       0.123   1.772  -1.813  1.00  0.00    -0.364 OA
ATOM     33  H2  UNL     1       0.411   0.880  -1.970  1.00  0.00     0.212 HD
ENDBRANCH  12  32
BRANCH  19  34
HETATM   34  N2  UNL     1      -4.743  -1.158  -1.483  1.00  0.00    -0.074 N 
HETATM   35  C22 UNL     1      -5.973  -0.590  -2.057  1.00  0.00     0.272 C 
HETATM   36  C23 UNL     1      -5.189  -2.336  -0.723  1.00  0.00     0.272 C 
HETATM   37  C24 UNL     1      -3.909  -1.664  -2.550  1.00  0.00     0.272 C 
ENDBRANCH  19  34
TORSDOF 5
