REMARK  8 active torsions:
REMARK  status: ('A' for Active; 'I' for Inactive)
REMARK    1  A    between atoms: C2_2  and  C4_4 
REMARK    2  A    between atoms: C4_4  and  N1_5 
REMARK    3  A    between atoms: C8_9  and  C9_10 
REMARK       I    between atoms: C9_10  and  N2_12 
REMARK    4  A    between atoms: N2_12  and  C10_14 
REMARK    5  A    between atoms: C10_14  and  C11_15 
REMARK    6  A    between atoms: C22_27  and  O3_28 
REMARK    7  A    between atoms: C23_32  and  C24_33 
REMARK    8  A    between atoms: C27_36  and  O4_37 
ROOT
HETATM    1  N1  UNL     1      -1.955   1.923   1.351  1.00  0.00    -0.339 N 
HETATM    2  C5  UNL     1      -0.606   1.433   1.405  1.00  0.00     0.073 C 
HETATM    3  C6  UNL     1       0.207   1.262   0.201  1.00  0.00     0.058 C 
HETATM    4  C7  UNL     1       1.192   2.359  -0.125  1.00  0.00     0.018 C 
HETATM    5  C8  UNL     1       1.079   0.007   0.371  1.00  0.00     0.221 C 
HETATM    6  O2  UNL     1       1.283  -0.723  -0.723  1.00  0.00    -0.375 OA
HETATM    7  C15 UNL     1       0.265  -1.377  -1.331  1.00  0.00     0.174 C 
HETATM    8  C16 UNL     1      -0.557  -2.277  -0.472  1.00  0.00     0.021 C 
HETATM    9  C17 UNL     1       0.242  -3.520  -0.167  1.00  0.00     0.007 C 
HETATM   10  C18 UNL     1       0.396  -4.475  -1.293  1.00  0.00     0.001 C 
HETATM   11  C19 UNL     1      -0.923  -4.777  -1.986  1.00  0.00     0.001 C 
HETATM   12  C20 UNL     1      -1.525  -3.459  -2.340  1.00  0.00     0.013 C 
HETATM   13  C21 UNL     1      -1.886  -2.653  -1.077  1.00  0.00     0.066 C 
HETATM   14  C22 UNL     1      -2.741  -1.514  -1.439  1.00  0.00     0.120 C 
HETATM   15  N3  UNL     1      -3.057  -0.299  -0.867  1.00  0.00    -0.340 N 
ATOM     16  H3  UNL     1      -2.684   0.452  -1.448  1.00  0.00     0.167 HD
HETATM   17  C23 UNL     1      -3.709   0.254   0.229  1.00  0.00     0.066 C 
HETATM   18  C27 UNL     1      -3.161   1.216   1.148  1.00  0.00     0.165 C 
ENDROOT
BRANCH   5  19
HETATM   19  C9  UNL     1       2.407   0.449   0.925  1.00  0.00     0.247 C 
HETATM   20  O1  UNL     1       2.470   1.149   1.965  1.00  0.00    -0.271 OA
HETATM   21  N2  UNL     1       3.611   0.082   0.282  1.00  0.00    -0.358 N 
ATOM     22  H2  UNL     1       3.591  -0.486  -0.565  1.00  0.00     0.162 HD
BRANCH  21  23
HETATM   23  C10 UNL     1       4.870   0.521   0.838  1.00  0.00     0.131 C 
BRANCH  23  24
HETATM   24  C11 UNL     1       6.047   0.036   0.020  1.00  0.00    -0.035 C 
HETATM   25  C12 UNL     1       7.310   0.554   0.693  1.00  0.00     0.016 C 
HETATM   26  C13 UNL     1       5.996   0.634  -1.367  1.00  0.00     0.016 C 
HETATM   27  C14 UNL     1       6.038  -1.458  -0.114  1.00  0.00     0.016 C 
ENDBRANCH  23  24
ENDBRANCH  21  23
ENDBRANCH   5  19
BRANCH   1  28
HETATM   28  C4  UNL     1      -2.088   3.356   1.571  1.00  0.00     0.134 C 
BRANCH  28  29
HETATM   29  C2  UNL     1      -2.087   4.247   0.399  1.00  0.00    -0.004 C 
HETATM   30  C1  UNL     1      -2.248   5.667   1.003  1.00  0.00     0.011 C 
HETATM   31  C3  UNL     1      -3.339   4.097  -0.464  1.00  0.00     0.011 C 
ENDBRANCH  28  29
ENDBRANCH   1  28
BRANCH  18  32
HETATM   32  O4  UNL     1      -4.067   1.511   2.057  1.00  0.00    -0.344 OA
ATOM     33  H4  UNL     1      -4.878   1.036   1.920  1.00  0.00     0.219 HD
ENDBRANCH  18  32
BRANCH  17  34
HETATM   34  C24 UNL     1      -4.491  -0.790   1.004  1.00  0.00     0.032 C 
HETATM   35  C25 UNL     1      -5.532  -1.484   0.168  1.00  0.00     0.016 C 
HETATM   36  C26 UNL     1      -3.660  -1.684   1.867  1.00  0.00     0.016 C 
ENDBRANCH  17  34
BRANCH  14  37
HETATM   37  O3  UNL     1      -3.340  -1.713  -2.585  1.00  0.00    -0.349 OA
ATOM     38  H3  UNL     1      -3.893  -0.977  -2.819  1.00  0.00     0.219 HD
ENDBRANCH  14  37
TORSDOF 8
