REMARK  8 active torsions:
REMARK  status: ('A' for Active; 'I' for Inactive)
REMARK    1  A    between atoms: C2_2  and  S1_5 
REMARK    2  A    between atoms: S1_5  and  N1_8 
REMARK    3  A    between atoms: C7_11  and  N2_12 
REMARK    4  A    between atoms: C10_15  and  C11_16 
REMARK    5  A    between atoms: C11_16  and  N3_17 
REMARK    6  A    between atoms: N3_17  and  C12_19 
REMARK    7  A    between atoms: C12_19  and  N4_21 
REMARK    8  A    between atoms: N4_21  and  C13_23 
ROOT
HETATM    1  N2  UNL     1       1.622  -0.973   0.109  1.00  0.00     0.093 N 
HETATM    2  C8  UNL     1       0.891  -0.429  -0.986  1.00  0.00     0.273 C 
HETATM    3  C9  UNL     1      -0.596  -0.621  -0.878  1.00  0.00     0.036 C 
HETATM    4  C10 UNL     1      -1.032  -0.081   0.473  1.00  0.00     0.007 C 
HETATM    5  C20 UNL     1      -0.323  -0.906   1.525  1.00  0.00     0.036 C 
HETATM    6  C21 UNL     1       1.155  -0.605   1.401  1.00  0.00     0.273 C 
ENDROOT
BRANCH   4   7
HETATM    7  C11 UNL     1      -2.525  -0.127   0.623  1.00  0.00     0.126 C 
BRANCH   7   8
HETATM    8  N3  UNL     1      -3.154   0.670  -0.404  1.00  0.00    -0.367 N 
ATOM      9  H3  UNL     1      -2.565   1.157  -1.080  1.00  0.00     0.161 HD
BRANCH   8  10
HETATM   10  C12 UNL     1      -4.567   0.800  -0.506  1.00  0.00     0.167 C 
HETATM   11  S2  UNL     1      -5.170   1.729  -1.696  1.00  0.00    -0.041 SA
BRANCH  10  12
HETATM   12  N4  UNL     1      -5.441   0.152   0.397  1.00  0.00    -0.363 N 
ATOM     13  H4  UNL     1      -5.017  -0.414   1.132  1.00  0.00     0.162 HD
BRANCH  12  14
HETATM   14  C13 UNL     1      -6.885   0.224   0.367  1.00  0.00     0.083 C 
HETATM   15  C14 UNL     1      -7.371  -0.365  -0.929  1.00  0.00     0.025 C 
HETATM   16  C15 UNL     1      -8.707  -1.068  -0.747  1.00  0.00     0.002 C 
HETATM   17  C16 UNL     1      -9.570  -0.347   0.264  1.00  0.00     0.000 C 
HETATM   18  C17 UNL     1      -9.797   1.088  -0.054  1.00  0.00     0.000 C 
HETATM   19  C18 UNL     1      -8.599   1.957  -0.141  1.00  0.00     0.002 C 
HETATM   20  C19 UNL     1      -7.430   1.573   0.690  1.00  0.00     0.025 C 
ENDBRANCH  12  14
ENDBRANCH  10  12
ENDBRANCH   8  10
ENDBRANCH   7   8
ENDBRANCH   4   7
BRANCH   1  21
HETATM   21  C7  UNL     1       3.019  -0.779  -0.101  1.00  0.00     0.225 C 
HETATM   22  C6  UNL     1       3.435   0.671  -0.167  1.00  0.00     0.051 C 
HETATM   23  C5  UNL     1       4.963   0.715  -0.134  1.00  0.00     0.109 C 
HETATM   24  N1  UNL     1       5.521  -0.537  -0.547  1.00  0.00    -0.210 NA
HETATM   25  C23 UNL     1       5.292  -1.627   0.346  1.00  0.00     0.109 C 
HETATM   26  C22 UNL     1       3.865  -1.583   0.863  1.00  0.00     0.051 C 
BRANCH  24  27
HETATM   27  S1  UNL     1       7.110  -0.413  -1.138  1.00  0.00     0.219 S 
HETATM   28  O1  UNL     1       7.081   0.516  -2.340  1.00  0.00    -0.210 OA
HETATM   29  O2  UNL     1       7.614  -1.744  -1.668  1.00  0.00    -0.210 OA
BRANCH  27  30
HETATM   30  C2  UNL     1       8.287   0.184   0.022  1.00  0.00     0.067 C 
HETATM   31  C1  UNL     1       7.988   1.554   0.549  1.00  0.00     0.033 C 
HETATM   32  C3  UNL     1       9.623   0.283  -0.724  1.00  0.00     0.033 C 
HETATM   33  C4  UNL     1       8.497  -0.743   1.179  1.00  0.00     0.033 C 
ENDBRANCH  27  30
ENDBRANCH  24  27
ENDBRANCH   1  21
TORSDOF 8
