REMARK  7 active torsions:
REMARK  status: ('A' for Active; 'I' for Inactive)
REMARK    1  A    between atoms: C2_2  and  C4_4 
REMARK    2  A    between atoms: C7_8  and  N1_9 
REMARK    3  A    between atoms: C10_12  and  C11_13 
REMARK    4  A    between atoms: C11_13  and  N2_14 
REMARK    5  A    between atoms: N2_14  and  C13_16 
REMARK    6  A    between atoms: C21_24  and  C22_25 
REMARK       I    between atoms: C22_25  and  N3_27 
REMARK    7  A    between atoms: N3_27  and  C23_29 
ROOT
HETATM    1  C4  UNL     1      -2.360   3.599  -0.240  1.00  0.00     0.059 C 
HETATM    2  C5  UNL     1      -1.103   3.308  -0.901  1.00  0.00     0.163 C 
HETATM    3  O1  UNL     1      -0.870   3.959  -1.975  1.00  0.00    -0.292 OA
HETATM    4  C6  UNL     1       0.038   2.406  -0.647  1.00  0.00     0.108 C 
HETATM    5  C7  UNL     1      -0.091   1.045  -1.397  1.00  0.00     0.086 C 
HETATM    6  C19 UNL     1      -1.502   0.908  -1.551  1.00  0.00     0.028 C 
HETATM    7  C20 UNL     1      -2.381  -0.141  -2.032  1.00  0.00     0.037 C 
HETATM    8  C21 UNL     1      -3.777   0.475  -1.685  1.00  0.00     0.177 C 
HETATM    9  N4  UNL     1      -3.793   1.901  -1.693  1.00  0.00    -0.344 N 
ATOM     10  H4  UNL     1      -4.031   2.239  -2.626  1.00  0.00     0.163 HD
HETATM   11  C27 UNL     1      -3.591   2.967  -0.848  1.00  0.00     0.252 C 
HETATM   12  O3  UNL     1      -4.670   3.581  -0.483  1.00  0.00    -0.268 OA
ENDROOT
BRANCH   5  13
HETATM   13  N1  UNL     1       0.667   0.025  -0.761  1.00  0.00    -0.407 N 
HETATM   14  C8  UNL     1       1.309  -0.829  -1.688  1.00  0.00     0.121 C 
HETATM   15  C9  UNL     1       2.807  -0.675  -1.829  1.00  0.00     0.055 C 
HETATM   16  C10 UNL     1       3.493  -0.255  -0.579  1.00  0.00    -0.063 C 
HETATM   17  C16 UNL     1       2.569  -0.602   0.565  1.00  0.00     0.029 C 
HETATM   18  C17 UNL     1       3.155  -0.399   1.924  1.00  0.00     0.016 C 
HETATM   19  C18 UNL     1       1.377   0.369   0.412  1.00  0.00     0.126 C 
BRANCH  16  20
HETATM   20  C11 UNL     1       4.914  -0.517  -0.394  1.00  0.00     0.062 C 
BRANCH  20  21
HETATM   21  N2  UNL     1       5.479  -1.796  -0.391  1.00  0.00    -0.293 NA
HETATM   22  C12 UNL     1       5.513  -2.501  -1.639  1.00  0.00     0.116 C 
BRANCH  21  23
HETATM   23  C13 UNL     1       6.870  -1.635   0.072  1.00  0.00     0.054 C 
HETATM   24  C14 UNL     1       6.931  -1.089   1.482  1.00  0.00     0.026 C 
HETATM   25  C15 UNL     1       7.681  -2.878  -0.026  1.00  0.00     0.026 C 
ENDBRANCH  21  23
ENDBRANCH  20  21
ENDBRANCH  16  20
ENDBRANCH   5  13
BRANCH   1  26
HETATM   26  C2  UNL     1      -2.370   3.788   1.229  1.00  0.00     0.020 C 
HETATM   27  C1  UNL     1      -3.734   4.117   1.830  1.00  0.00     0.015 C 
HETATM   28  C3  UNL     1      -1.787   2.753   2.117  1.00  0.00     0.015 C 
ENDBRANCH   1  26
BRANCH   8  29
HETATM   29  C22 UNL     1      -4.192  -0.201  -0.454  1.00  0.00     0.241 C 
HETATM   30  O2  UNL     1      -3.987   0.268   0.700  1.00  0.00    -0.271 OA
HETATM   31  N3  UNL     1      -4.868  -1.451  -0.491  1.00  0.00    -0.351 N 
ATOM     32  H3  UNL     1      -5.064  -1.868  -1.401  1.00  0.00     0.163 HD
BRANCH  31  33
HETATM   33  C23 UNL     1      -5.293  -2.162   0.695  1.00  0.00     0.022 C 
HETATM   34  C24 UNL     1      -6.198  -1.320   1.585  1.00  0.00     0.037 C 
HETATM   35  C25 UNL     1      -6.107  -3.377   0.248  1.00  0.00     0.037 C 
HETATM   36  C26 UNL     1      -4.157  -2.680   1.515  1.00  0.00     0.037 C 
ENDBRANCH  31  33
ENDBRANCH   8  29
TORSDOF 7
