REMARK  6 active torsions:
REMARK  status: ('A' for Active; 'I' for Inactive)
REMARK    1  A    between atoms: C3_3  and  N1_4 
REMARK    2  A    between atoms: N2_12  and  C10_13 
REMARK    3  A    between atoms: C10_13  and  C11_14 
REMARK    4  A    between atoms: C11_14  and  C14_17 
REMARK    5  A    between atoms: C14_17  and  N3_18 
REMARK       I    between atoms: N3_18  and  C15_20 
REMARK       I    between atoms: C15_20  and  N4_22 
REMARK    6  A    between atoms: C20_27  and  O3_28 
ROOT
HETATM    1  N3  UNL     1      -1.111  -0.551   0.756  1.00  0.00    -0.342 N 
ATOM      2  H3  UNL     1      -1.237   0.454   0.632  1.00  0.00     0.164 HD
HETATM    3  C15 UNL     1      -2.243  -1.409   0.809  1.00  0.00     0.319 C 
HETATM    4  O2  UNL     1      -2.023  -2.662   0.966  1.00  0.00    -0.247 OA
HETATM    5  N4  UNL     1      -3.579  -1.003   0.704  1.00  0.00    -0.322 N 
HETATM    6  C16 UNL     1      -4.663  -1.939   0.755  1.00  0.00     0.090 C 
HETATM    7  C17 UNL     1      -4.496  -3.190  -0.016  1.00  0.00     0.033 C 
HETATM    8  C18 UNL     1      -5.932  -1.173   0.448  1.00  0.00     0.019 C 
HETATM    9  C19 UNL     1      -6.105  -0.225   1.643  1.00  0.00     0.041 C 
HETATM   10  C20 UNL     1      -4.925   0.693   1.659  1.00  0.00     0.142 C 
HETATM   11  C21 UNL     1      -3.921   0.388   0.548  1.00  0.00     0.126 C 
HETATM   12  C22 UNL     1      -4.596   0.522  -0.818  1.00  0.00    -0.017 C 
HETATM   13  C23 UNL     1      -4.880   1.972  -1.141  1.00  0.00     0.018 C 
HETATM   14  C24 UNL     1      -3.567   0.085  -1.842  1.00  0.00     0.018 C 
HETATM   15  C25 UNL     1      -5.818  -0.329  -0.812  1.00  0.00    -0.033 C 
HETATM   16  C26 UNL     1      -7.114   0.463  -0.918  1.00  0.00     0.016 C 
HETATM   17  C27 UNL     1      -5.844  -1.259  -2.023  1.00  0.00     0.016 C 
ENDROOT
BRANCH   1  18
HETATM   18  C14 UNL     1       0.201  -1.098   0.876  1.00  0.00     0.134 C 
BRANCH  18  19
HETATM   19  C11 UNL     1       1.300  -0.030   0.781  1.00  0.00    -0.015 C 
HETATM   20  C12 UNL     1       1.121   0.690  -0.511  1.00  0.00     0.018 C 
HETATM   21  C13 UNL     1       1.111   0.896   1.981  1.00  0.00     0.018 C 
BRANCH  19  22
HETATM   22  C10 UNL     1       2.596  -0.738   0.935  1.00  0.00     0.136 C 
BRANCH  22  23
HETATM   23  N2  UNL     1       3.799   0.001   0.896  1.00  0.00    -0.345 N 
HETATM   24  C2  UNL     1       4.590   0.257  -0.318  1.00  0.00     0.117 C 
HETATM   25  C1  UNL     1       4.413   1.635  -0.862  1.00  0.00     0.034 C 
HETATM   26  C3  UNL     1       6.015   0.086   0.249  1.00  0.00     0.254 C 
HETATM   27  C8  UNL     1       5.879   0.906   1.494  1.00  0.00     0.141 C 
HETATM   28  C9  UNL     1       4.513   0.611   1.976  1.00  0.00     0.222 C 
HETATM   29  O1  UNL     1       4.103   0.869   3.136  1.00  0.00    -0.273 OA
BRANCH  26  30
HETATM   30  N1  UNL     1       6.935   0.590  -0.714  1.00  0.00     0.095 N 
HETATM   31  C4  UNL     1       6.816  -0.213  -1.917  1.00  0.00     0.273 C 
HETATM   32  C5  UNL     1       8.036   0.125  -2.706  1.00  0.00     0.032 C 
HETATM   33  C6  UNL     1       8.987   0.772  -1.699  1.00  0.00     0.032 C 
HETATM   34  C7  UNL     1       8.312   0.435  -0.361  1.00  0.00     0.273 C 
ENDBRANCH  26  30
ENDBRANCH  22  23
ENDBRANCH  19  22
ENDBRANCH  18  19
ENDBRANCH   1  18
BRANCH  10  35
HETATM   35  O3  UNL     1      -5.238   2.037   1.733  1.00  0.00    -0.393 OA
ATOM     36  H3  UNL     1      -4.488   2.620   1.743  1.00  0.00     0.210 HD
ENDBRANCH  10  35
TORSDOF 6
