REMARK  2 active torsions:
REMARK  status: ('A' for Active; 'I' for Inactive)
REMARK    1  A    between atoms: C4_4  and  C5_5 
REMARK    2  A    between atoms: N1_6  and  N2_8 
ROOT
HETATM    1  C1  UNL     1      -4.014   1.651   0.635  1.00  0.00     0.068 C 
HETATM    2  C2  UNL     1      -2.867   0.746   0.355  1.00  0.00     0.007 A 
HETATM    3  C3  UNL     1      -1.545   1.063   0.666  1.00  0.00     0.041 A 
HETATM    4  C4  UNL     1      -0.730   0.018   0.279  1.00  0.00     0.024 A 
HETATM    5  C7  UNL     1      -1.584  -0.920  -0.264  1.00  0.00     0.128 A 
HETATM    6  N5  UNL     1      -1.141  -2.162  -0.788  1.00  0.00    -0.082 NA
HETATM    7  N6  UNL     1      -2.862  -0.474  -0.213  1.00  0.00    -0.348 N 
ATOM      8  H6  UNL     1      -3.683  -0.978  -0.549  1.00  0.00     0.167 HD
ENDROOT
BRANCH   4   9
HETATM    9  C5  UNL     1       0.740  -0.081   0.414  1.00  0.00     0.122 C 
HETATM   10  N1  UNL     1       1.311  -1.136  -0.007  1.00  0.00    -0.309 N 
ATOM     11  H1  UNL     1       0.756  -1.884  -0.424  1.00  0.00     0.186 HD
BRANCH  10  12
HETATM   12  N2  UNL     1       2.679  -1.270   0.099  1.00  0.00    -0.276 N 
HETATM   13  C6  UNL     1       3.549  -0.419  -0.302  1.00  0.00     0.215 C 
HETATM   14  N3  UNL     1       4.922  -0.735  -0.106  1.00  0.00    -0.065 NA
HETATM   15  N4  UNL     1       3.150   0.780  -0.912  1.00  0.00    -0.065 NA
ATOM     16  H2  UNL     1       3.030  -2.123   0.536  1.00  0.00     0.189 HD
ENDBRANCH  10  12
ENDBRANCH   4   9
TORSDOF 2
