REMARK  7 active torsions:
REMARK  status: ('A' for Active; 'I' for Inactive)
REMARK    1  A    between atoms: C6_9  and  C7_10 
REMARK    2  A    between atoms: C9_12  and  N2_13 
REMARK    3  A    between atoms: N2_13  and  C10_15 
REMARK    4  A    between atoms: C10_15  and  C11_19 
REMARK    5  A    between atoms: C14_22  and  C15_23 
REMARK    6  A    between atoms: C15_23  and  N4_24 
REMARK    7  A    between atoms: C15_23  and  O1_28 
ROOT
HETATM    1  C1  UNL     1      -1.544  -4.104  -0.898  1.00  0.00     0.014 C 
HETATM    2  C2  UNL     1      -1.819  -2.921  -0.935  1.00  0.00    -0.082 C 
HETATM    3  C3  UNL     1      -2.152  -1.499  -0.955  1.00  0.00     0.286 C 
HETATM    4  N1  UNL     1      -3.554  -1.397  -1.260  1.00  0.00    -0.059 N 
ATOM      5  H11 UNL     1      -3.970  -2.323  -1.359  1.00  0.00     0.278 HD
ATOM      6  H12 UNL     1      -3.693  -1.046  -2.208  1.00  0.00     0.278 HD
HETATM    7  C4  UNL     1      -4.292  -0.605  -0.310  1.00  0.00     0.234 C 
HETATM    8  C5  UNL     1      -3.631   0.741  -0.246  1.00  0.00     0.034 C 
HETATM    9  C6  UNL     1      -2.292   0.564   0.476  1.00  0.00     0.012 C 
HETATM   10  C9  UNL     1      -1.760  -0.809   0.317  1.00  0.00     0.129 C 
ENDROOT
BRANCH  10  11
HETATM   11  N2  UNL     1      -0.390  -0.910   0.689  1.00  0.00    -0.372 N 
ATOM     12  H2  UNL     1      -0.217  -1.316   1.609  1.00  0.00     0.161 HD
BRANCH  11  13
HETATM   13  C10 UNL     1       0.763  -0.531  -0.029  1.00  0.00     0.075 C 
HETATM   14  N3  UNL     1       0.775  -0.509  -1.294  1.00  0.00    -0.389 N 
ATOM     15  H32 UNL     1      -0.064  -0.764  -1.815  1.00  0.00     0.157 HD
ATOM     16  H31 UNL     1       1.609  -0.235  -1.813  1.00  0.00     0.157 HD
BRANCH  13  17
HETATM   17  C11 UNL     1       1.976  -0.162   0.724  1.00  0.00     0.061 C 
HETATM   18  C12 UNL     1       2.510  -1.279   1.618  1.00  0.00     0.013 C 
HETATM   19  C13 UNL     1       3.899  -0.833   1.214  1.00  0.00     0.010 C 
HETATM   20  C14 UNL     1       3.267  -0.200  -0.012  1.00  0.00     0.053 C 
BRANCH  20  21
HETATM   21  C15 UNL     1       3.826   1.192  -0.202  1.00  0.00     0.321 C 
BRANCH  21  22
HETATM   22  N4  UNL     1       5.081   1.086  -0.924  1.00  0.00    -0.053 N 
ATOM     23  H43 UNL     1       5.743   0.456  -0.470  1.00  0.00     0.277 HD
ATOM     24  H42 UNL     1       4.986   0.578  -1.803  1.00  0.00     0.277 HD
ATOM     25  H41 UNL     1       5.458   2.025  -1.052  1.00  0.00     0.277 HD
ENDBRANCH  21  22
BRANCH  21  26
HETATM   26  O1  UNL     1       2.937   2.056  -0.813  1.00  0.00    -0.370 OA
ATOM     27  H1  UNL     1       3.288   2.931  -0.932  1.00  0.00     0.212 HD
ENDBRANCH  21  26
ENDBRANCH  20  21
ENDBRANCH  13  17
ENDBRANCH  11  13
ENDBRANCH  10  11
BRANCH   9  28
HETATM   28  C7  UNL     1      -1.433   1.689  -0.040  1.00  0.00     0.002 C 
HETATM   29  C8  UNL     1      -2.133   3.019   0.315  1.00  0.00     0.005 C 
ENDBRANCH   9  28
TORSDOF 7
