REMARK  10 active torsions:
REMARK  status: ('A' for Active; 'I' for Inactive)
REMARK    1  A    between atoms: C1_4  and  N2_5 
REMARK    2  A    between atoms: C1_4  and  C9_29 
REMARK    3  A    between atoms: N2_5  and  O1_7 
REMARK    4  A    between atoms: O1_7  and  C2_8 
REMARK       I    between atoms: C2_8  and  N3_10 
REMARK    5  A    between atoms: N3_10  and  N4_12 
REMARK       I    between atoms: N4_12  and  C3_14 
REMARK       I    between atoms: C3_14  and  N6_19 
REMARK    6  A    between atoms: N5_15  and  O3_17 
REMARK    7  A    between atoms: N6_19  and  O4_21 
REMARK    8  A    between atoms: O4_21  and  C4_22 
REMARK    9  A    between atoms: C4_22  and  C5_23 
REMARK   10  A    between atoms: C5_23  and  C6_24 
ROOT
HETATM    1  C2  UNL     1      -2.306  -0.258   0.102  1.00  0.00     0.401 C 
HETATM    2  O2  UNL     1      -1.995   0.894   0.464  1.00  0.00    -0.235 OA
HETATM    3  N3  UNL     1      -1.347  -1.036  -0.590  1.00  0.00    -0.229 N 
ATOM      4  H3  UNL     1      -1.615  -1.976  -0.881  1.00  0.00     0.193 HD
ENDROOT
BRANCH   3   5
HETATM    5  N4  UNL     1      -0.078  -0.606  -0.895  1.00  0.00    -0.124 N 
HETATM    6  C3  UNL     1       0.508   0.613  -0.432  1.00  0.00     0.736 C 
HETATM    7  N5  UNL     1       0.435   1.606  -1.280  1.00  0.00    -0.096 N 
HETATM    8  N6  UNL     1       1.125   0.769   0.826  1.00  0.00    -0.093 N 
ATOM      9  H5  UNL     1      -0.020   1.437  -2.177  1.00  0.00     0.213 HD
ATOM     10  H6  UNL     1       0.569   0.535   1.648  1.00  0.00     0.213 HD
ATOM     11  H4  UNL     1       0.489  -1.202  -1.498  1.00  0.00     0.206 HD
BRANCH   7  12
HETATM   12  O3  UNL     1       0.928   2.847  -1.039  1.00  0.00    -0.276 OA
ATOM     13  H3  UNL     1       0.875   3.568  -1.655  1.00  0.00     0.245 HD
ENDBRANCH   7  12
BRANCH   8  14
HETATM   14  O4  UNL     1       2.379   1.198   1.039  1.00  0.00    -0.266 OA
BRANCH  14  15
HETATM   15  C4  UNL     1       3.312   0.598   0.232  1.00  0.00     0.203 C 
BRANCH  15  16
HETATM   16  C5  UNL     1       4.700   1.126   0.536  1.00  0.00     0.054 C 
BRANCH  16  17
HETATM   17  C6  UNL     1       5.663   0.435  -0.376  1.00  0.00     0.110 C 
HETATM   18  S1  UNL     1       7.371   0.944  -0.149  1.00  0.00    -0.153 SA
HETATM   19  C7  UNL     1       8.304  -0.590   0.074  1.00  0.00     0.085 C 
HETATM   20  C8  UNL     1       7.478  -1.707  -0.468  1.00  0.00     0.085 C 
HETATM   21  S2  UNL     1       5.753  -1.353  -0.049  1.00  0.00    -0.153 SA
ENDBRANCH  16  17
ENDBRANCH  15  16
ENDBRANCH  14  15
ENDBRANCH   8  14
ENDBRANCH   3   5
BRANCH   1  22
HETATM   22  O1  UNL     1      -3.574  -0.764   0.380  1.00  0.00    -0.178 OA
BRANCH  22  23
HETATM   23  N2  UNL     1      -4.438   0.034   1.051  1.00  0.00    -0.239 N 
ATOM     24  H2  UNL     1      -4.304   0.197   2.049  1.00  0.00     0.196 HD
BRANCH  23  25
HETATM   25  C1  UNL     1      -5.533   0.648   0.375  1.00  0.00     0.134 C 
HETATM   26  N1  UNL     1      -5.543   1.922   0.127  1.00  0.00    -0.383 N 
ATOM     27  H12 UNL     1      -4.743   2.479   0.428  1.00  0.00     0.157 HD
ATOM     28  H11 UNL     1      -6.326   2.361  -0.357  1.00  0.00     0.157 HD
BRANCH  25  29
HETATM   29  C9  UNL     1      -6.667  -0.141  -0.051  1.00  0.00     0.067 A 
HETATM   30  C10 UNL     1      -7.787   0.314  -0.703  1.00  0.00     0.078 A 
HETATM   31  C11 UNL     1      -8.601  -0.779  -0.911  1.00  0.00     0.226 A 
HETATM   32  O5  UNL     1      -9.738  -0.751  -1.490  1.00  0.00    -0.284 OA
HETATM   33  C12 UNL     1      -8.009  -1.897  -0.402  1.00  0.00     0.272 A 
HETATM   34  O6  UNL     1      -8.431  -3.091  -0.391  1.00  0.00    -0.280 OA
HETATM   35  C13 UNL     1      -6.800  -1.495   0.135  1.00  0.00     0.239 A 
HETATM   36  O7  UNL     1      -5.994  -2.294   0.693  1.00  0.00    -0.283 OA
ENDBRANCH  25  29
ENDBRANCH  23  25
ENDBRANCH  22  23
ENDBRANCH   1  22
TORSDOF 10
