REMARK  5 active torsions:
REMARK  status: ('A' for Active; 'I' for Inactive)
REMARK    1  A    between atoms: C1_2  and  C2_4 
REMARK    2  A    between atoms: C7_9  and  S1_10 
REMARK    3  A    between atoms: S1_10  and  C8_11 
REMARK    4  A    between atoms: C10_17  and  C11_18 
REMARK    5  A    between atoms: C18_27  and  C19_28 
ROOT
HETATM    1  C8  UNL     1      -0.668   0.816  -1.055  1.00  0.00     0.089 A 
HETATM    2  N2  UNL     1      -0.033   1.814  -0.430  1.00  0.00    -0.334 N 
ATOM      3  H2  UNL     1      -0.416   2.752  -0.310  1.00  0.00     0.168 HD
HETATM    4  C9  UNL     1       1.174   1.425   0.021  1.00  0.00     0.136 A 
HETATM    5  N3  UNL     1       2.298   1.772   0.671  1.00  0.00    -0.326 N 
ATOM      6  H3  UNL     1       2.490   2.695   1.061  1.00  0.00     0.169 HD
HETATM    7  C10 UNL     1       3.130   0.721   0.729  1.00  0.00     0.117 A 
HETATM    8  N4  UNL     1       2.553  -0.314   0.118  1.00  0.00    -0.338 N 
ATOM      9  H4  UNL     1       2.954  -1.245   0.008  1.00  0.00     0.167 HD
HETATM   10  C17 UNL     1       1.355   0.083  -0.326  1.00  0.00     0.092 A 
HETATM   11  C18 UNL     1       0.177  -0.264  -1.001  1.00  0.00     0.039 A 
ENDROOT
BRANCH   1  12
HETATM   12  S1  UNL     1      -2.267   0.829  -1.829  1.00  0.00    -0.071 SA
BRANCH  12  13
HETATM   13  C7  UNL     1      -3.602   0.406  -0.748  1.00  0.00     0.022 A 
HETATM   14  C2  UNL     1      -4.318   1.388  -0.119  1.00  0.00     0.046 A 
HETATM   15  C3  UNL     1      -5.374   1.092   0.743  1.00  0.00     0.018 A 
HETATM   16  C4  UNL     1      -5.730  -0.211   0.985  1.00  0.00     0.001 A 
HETATM   17  C5  UNL     1      -5.014  -1.205   0.354  1.00  0.00     0.001 A 
HETATM   18  C6  UNL     1      -3.968  -0.905  -0.499  1.00  0.00     0.020 A 
BRANCH  14  19
HETATM   19  C1  UNL     1      -4.028   2.771  -0.337  1.00  0.00     0.266 C 
HETATM   20  N1  UNL     1      -4.710   3.788   0.365  1.00  0.00    -0.057 NA
HETATM   21  O1  UNL     1      -3.155   3.115  -1.162  1.00  0.00    -0.271 OA
ENDBRANCH  14  19
ENDBRANCH  12  13
ENDBRANCH   1  12
BRANCH  11  22
HETATM   22  C19 UNL     1      -0.085  -1.574  -1.545  1.00  0.00    -0.021 A 
HETATM   23  C20 UNL     1       0.016  -1.863  -2.889  1.00  0.00     0.012 A 
HETATM   24  C21 UNL     1      -0.224  -3.112  -3.419  1.00  0.00     0.001 A 
HETATM   25  C22 UNL     1      -0.581  -4.111  -2.550  1.00  0.00     0.000 A 
HETATM   26  C23 UNL     1      -0.695  -3.875  -1.202  1.00  0.00     0.001 A 
HETATM   27  C24 UNL     1      -0.449  -2.615  -0.702  1.00  0.00     0.012 A 
ENDBRANCH  11  22
BRANCH   7  28
HETATM   28  C11 UNL     1       4.436   0.772   1.371  1.00  0.00     0.008 A 
HETATM   29  C12 UNL     1       5.255  -0.342   1.406  1.00  0.00     0.015 A 
HETATM   30  C13 UNL     1       6.483  -0.276   2.015  1.00  0.00     0.001 A 
HETATM   31  C14 UNL     1       6.958   0.860   2.606  1.00  0.00     0.000 A 
HETATM   32  C15 UNL     1       6.148   1.987   2.579  1.00  0.00     0.001 A 
HETATM   33  C16 UNL     1       4.922   1.913   1.969  1.00  0.00     0.015 A 
ENDBRANCH   7  28
TORSDOF 5
