REMARK  13 active torsions:
REMARK  status: ('A' for Active; 'I' for Inactive)
REMARK    1  A    between atoms: C2_2  and  C3_3 
REMARK    2  A    between atoms: C3_3  and  C4_4 
REMARK    3  A    between atoms: C4_4  and  C5_5 
REMARK    4  A    between atoms: C5_5  and  C6_6 
REMARK    5  A    between atoms: C6_6  and  N1_7 
REMARK    6  A    between atoms: N1_7  and  C8_9 
REMARK    7  A    between atoms: C8_9  and  C9_10 
REMARK    8  A    between atoms: C9_10  and  O1_11 
REMARK    9  A    between atoms: C9_10  and  C10_13 
REMARK   10  A    between atoms: C10_13  and  O2_14 
REMARK   11  A    between atoms: O2_14  and  C11_15 
REMARK   12  A    between atoms: C16_23  and  N3_24 
REMARK   13  A    between atoms: N3_24  and  C17_26 
ROOT
HETATM    1  C11 UNL     1      -0.234   0.082  -0.322  1.00  0.00     0.144 A 
HETATM    2  C12 UNL     1      -0.100   1.459   0.005  1.00  0.00     0.080 A 
HETATM    3  C13 UNL     1      -1.250   2.162   0.222  1.00  0.00     0.051 A 
HETATM    4 CL1  UNL     1      -1.083   3.899  -0.304  1.00  0.00    -0.083 Cl
HETATM    5  C14 UNL     1      -2.483   1.616   0.165  1.00  0.00     0.029 A 
HETATM    6  C15 UNL     1      -2.566   0.244  -0.183  1.00  0.00     0.091 A 
HETATM    7  N2  UNL     1      -1.461  -0.430  -0.399  1.00  0.00    -0.333 N 
ATOM      8  H2  UNL     1      -1.548  -1.416  -0.643  1.00  0.00     0.168 HD
HETATM    9  C16 UNL     1      -3.815  -0.283  -0.428  1.00  0.00     0.134 A 
HETATM   10  N4  UNL     1      -4.889   0.485  -0.323  1.00  0.00    -0.340 N 
ATOM     11  H4  UNL     1      -5.791   0.054  -0.525  1.00  0.00     0.167 HD
HETATM   12  C23 UNL     1      -4.894   1.777   0.025  1.00  0.00     0.047 A 
HETATM   13  C24 UNL     1      -6.012   2.495   0.216  1.00  0.00     0.053 A 
HETATM   14  C25 UNL     1      -6.016   3.779   0.690  1.00  0.00     0.047 A 
HETATM   15  C26 UNL     1      -7.223   4.514   0.864  1.00  0.00     0.099 C 
HETATM   16  N5  UNL     1      -8.195   5.126   0.997  1.00  0.00    -0.191 NA
HETATM   17  C27 UNL     1      -4.787   4.321   0.988  1.00  0.00     0.030 A 
HETATM   18  C28 UNL     1      -3.570   3.623   0.809  1.00  0.00    -0.047 A 
HETATM   19  C29 UNL     1      -2.455   4.059   1.715  1.00  0.00     0.049 C 
HETATM   20  C30 UNL     1      -3.618   2.364   0.298  1.00  0.00     0.011 A 
ENDROOT
BRANCH   9  21
HETATM   21  N3  UNL     1      -3.866  -1.540  -0.751  1.00  0.00    -0.341 N 
ATOM     22  H3  UNL     1      -3.013  -2.095  -0.817  1.00  0.00     0.167 HD
BRANCH  21  23
HETATM   23  C17 UNL     1      -5.145  -2.130  -1.012  1.00  0.00     0.035 A 
HETATM   24  C18 UNL     1      -5.687  -2.262  -2.268  1.00  0.00     0.031 A 
HETATM   25  C19 UNL     1      -6.921  -2.837  -2.484  1.00  0.00     0.028 A 
HETATM   26  C20 UNL     1      -7.678  -3.311  -1.427  1.00  0.00     0.055 A 
HETATM   27 CL2  UNL     1      -9.252  -4.047  -1.684  1.00  0.00    -0.083 Cl
HETATM   28  C21 UNL     1      -7.146  -3.184  -0.161  1.00  0.00     0.058 A 
HETATM   29 CL3  UNL     1      -8.110  -3.789   1.177  1.00  0.00    -0.082 Cl
HETATM   30  C22 UNL     1      -5.916  -2.612   0.053  1.00  0.00     0.055 A 
ENDBRANCH  21  23
ENDBRANCH   9  21
BRANCH   1  31
HETATM   31  O2  UNL     1       0.899  -0.669  -0.543  1.00  0.00    -0.333 OA
BRANCH  31  32
HETATM   32  C10 UNL     1       0.751  -2.036  -0.883  1.00  0.00     0.214 C 
BRANCH  32  33
HETATM   33  C9  UNL     1       2.100  -2.700  -1.055  1.00  0.00     0.180 C 
BRANCH  33  34
HETATM   34  C8  UNL     1       2.929  -2.589   0.208  1.00  0.00     0.096 C 
BRANCH  34  35
HETATM   35  N1  UNL     1       3.148  -1.275   0.644  1.00  0.00    -0.376 N 
HETATM   36  C7  UNL     1       2.794  -1.007   1.980  1.00  0.00     0.154 C 
BRANCH  35  37
HETATM   37  C6  UNL     1       3.942  -0.389  -0.073  1.00  0.00     0.062 C 
BRANCH  37  38
HETATM   38  C5  UNL     1       5.377  -0.258   0.375  1.00  0.00     0.044 C 
BRANCH  38  39
HETATM   39  C4  UNL     1       6.005   0.761  -0.554  1.00  0.00     0.005 C 
BRANCH  39  40
HETATM   40  C3  UNL     1       7.444   1.037  -0.270  1.00  0.00     0.000 C 
BRANCH  40  41
HETATM   41  C2  UNL     1       8.269  -0.199  -0.396  1.00  0.00    -0.005 C 
HETATM   42  C1  UNL     1       9.718   0.112  -0.104  1.00  0.00     0.005 C 
ENDBRANCH  40  41
ENDBRANCH  39  40
ENDBRANCH  38  39
ENDBRANCH  37  38
ENDBRANCH  35  37
ENDBRANCH  34  35
ENDBRANCH  33  34
BRANCH  33  43
HETATM   43  O1  UNL     1       1.894  -4.018  -1.420  1.00  0.00    -0.388 OA
ATOM     44  H1  UNL     1       1.374  -4.088  -2.212  1.00  0.00     0.210 HD
ENDBRANCH  33  43
ENDBRANCH  32  33
ENDBRANCH  31  32
ENDBRANCH   1  31
TORSDOF 13
