REMARK  13 active torsions:
REMARK  status: ('A' for Active; 'I' for Inactive)
REMARK    1  A    between atoms: C2_2  and  O1_3 
REMARK    2  A    between atoms: O1_3  and  C3_4 
REMARK    3  A    between atoms: C5_6  and  C6_7 
REMARK    4  A    between atoms: C7_8  and  C8_9 
REMARK    5  A    between atoms: C10_11  and  C11_12 
REMARK    6  A    between atoms: C11_12  and  O2_13 
REMARK    7  A    between atoms: C11_12  and  N1_15 
REMARK    8  A    between atoms: N1_15  and  C12_16 
REMARK    9  A    between atoms: C17_23  and  C18_24 
REMARK   10  A    between atoms: C21_30  and  N2_31 
REMARK   11  A    between atoms: C25_35  and  O5_36 
REMARK   12  A    between atoms: C27_38  and  O6_39 
REMARK   13  A    between atoms: O6_39  and  C28_40 
ROOT
HETATM    1  C8  UNL     1       1.170  -1.582   1.259  1.00  0.00    -0.009 A 
HETATM    2  C9  UNL     1       1.846  -0.475   1.707  1.00  0.00     0.032 A 
HETATM    3  C10 UNL     1       3.156  -0.529   2.207  1.00  0.00     0.052 A 
HETATM    4  C19 UNL     1       3.828  -1.744   2.262  1.00  0.00     0.051 A 
HETATM    5 CL3  UNL     1       5.459  -1.908   2.870  1.00  0.00    -0.083 Cl
HETATM    6  C20 UNL     1       3.152  -2.844   1.817  1.00  0.00     0.055 A 
HETATM    7  C21 UNL     1       1.866  -2.793   1.328  1.00  0.00     0.041 A 
ENDROOT
BRANCH   1   8
HETATM    8  C7  UNL     1      -0.178  -1.540   0.721  1.00  0.00     0.014 C 
HETATM    9  C6  UNL     1      -0.850  -0.427   0.639  1.00  0.00     0.012 C 
BRANCH   9  10
HETATM   10  C5  UNL     1      -2.210  -0.305   0.111  1.00  0.00    -0.031 A 
HETATM   11  C4  UNL     1      -2.872   0.913   0.033  1.00  0.00     0.051 A 
HETATM   12  C3  UNL     1      -4.147   1.048  -0.442  1.00  0.00     0.105 A 
HETATM   13  C27 UNL     1      -4.797  -0.089  -0.862  1.00  0.00     0.135 A 
HETATM   14  C25 UNL     1      -4.216  -1.334  -0.820  1.00  0.00     0.105 A 
HETATM   15  C24 UNL     1      -2.907  -1.403  -0.321  1.00  0.00     0.051 A 
BRANCH  12  16
HETATM   16  O1  UNL     1      -4.784   2.255  -0.512  1.00  0.00    -0.349 OA
BRANCH  16  17
HETATM   17  C2  UNL     1      -4.319   3.510  -0.156  1.00  0.00     0.171 C 
HETATM   18  C1  UNL     1      -3.106   3.989  -0.893  1.00  0.00     0.034 C 
ENDBRANCH  16  17
ENDBRANCH  12  16
BRANCH  13  19
HETATM   19  O6  UNL     1      -6.086   0.025  -1.344  1.00  0.00    -0.346 OA
BRANCH  19  20
HETATM   20  C28 UNL     1      -6.273   0.241  -2.729  1.00  0.00     0.171 C 
HETATM   21  C29 UNL     1      -7.750   0.340  -3.069  1.00  0.00     0.034 C 
ENDBRANCH  19  20
ENDBRANCH  13  19
BRANCH  14  22
HETATM   22  O5  UNL     1      -4.895  -2.438  -1.247  1.00  0.00    -0.353 OA
HETATM   23  C26 UNL     1      -4.434  -3.758  -1.266  1.00  0.00     0.210 C 
ENDBRANCH  14  22
ENDBRANCH   9  10
ENDBRANCH   1   8
BRANCH   7  24
HETATM   24  N2  UNL     1       1.190  -3.971   0.921  1.00  0.00    -0.389 N 
HETATM   25  C22 UNL     1       0.091  -4.475   1.759  1.00  0.00     0.149 C 
HETATM   26  C23 UNL     1       1.497  -4.728  -0.257  1.00  0.00     0.149 C 
ENDBRANCH   7  24
BRANCH   3  27
HETATM   27  C11 UNL     1       3.823   0.658   2.687  1.00  0.00     0.227 C 
BRANCH  27  28
HETATM   28  O2  UNL     1       3.634   0.779   3.986  1.00  0.00    -0.335 OA
ATOM     29  H2  UNL     1       4.073   1.560   4.302  1.00  0.00     0.220 HD
ENDBRANCH  27  28
BRANCH  27  30
HETATM   30  N1  UNL     1       4.560   1.592   2.011  1.00  0.00    -0.379 NA
BRANCH  30  31
HETATM   31  C12 UNL     1       5.292   2.539   1.414  1.00  0.00     0.129 A 
HETATM   32  C13 UNL     1       5.402   3.845   1.961  1.00  0.00     0.048 A 
HETATM   33  C14 UNL     1       6.006   4.903   1.367  1.00  0.00     0.029 A 
HETATM   34  C15 UNL     1       6.561   4.720   0.138  1.00  0.00     0.057 A 
HETATM   35 CL1  UNL     1       7.347   6.039  -0.669  1.00  0.00    -0.083 Cl
HETATM   36  C16 UNL     1       6.506   3.494  -0.472  1.00  0.00     0.076 A 
HETATM   37 CL2  UNL     1       7.244   3.320  -2.058  1.00  0.00    -0.081 Cl
HETATM   38  C17 UNL     1       5.880   2.418   0.161  1.00  0.00     0.104 A 
BRANCH  38  39
HETATM   39  C18 UNL     1       5.918   1.184  -0.554  1.00  0.00     0.214 C 
HETATM   40  O3  UNL     1       5.464   0.110  -0.180  1.00  0.00    -0.644 OA
HETATM   41  O4  UNL     1       6.531   1.137  -1.830  1.00  0.00    -0.644 OA
ENDBRANCH  38  39
ENDBRANCH  30  31
ENDBRANCH  27  30
ENDBRANCH   3  27
TORSDOF 13
