REMARK  11 active torsions:
REMARK  status: ('A' for Active; 'I' for Inactive)
REMARK    1  A    between atoms: C4_4  and  N1_5 
REMARK       I    between atoms: N1_5  and  C5_7 
REMARK    2  A    between atoms: C5_7  and  C6_9 
REMARK    3  A    between atoms: C6_9  and  N2_12 
REMARK       I    between atoms: N2_12  and  C9_14 
REMARK    4  A    between atoms: C9_14  and  C10_16 
REMARK    5  A    between atoms: C10_16  and  C11_17 
REMARK    6  A    between atoms: C10_16  and  S1_24 
REMARK    7  A    between atoms: C11_17  and  C12_18 
REMARK    8  A    between atoms: C12_18  and  C14_20 
REMARK    9  A    between atoms: C14_20  and  C15_21 
REMARK   10  A    between atoms: S1_24  and  C18_25 
REMARK   11  A    between atoms: C26_36  and  N3_37 
ROOT
HETATM    1  C6  UNL     1       0.722  -0.440   0.643  1.00  0.00     0.106 C 
HETATM    2  C7  UNL     1       0.860  -1.998   0.818  1.00  0.00     0.048 C 
HETATM    3  C8  UNL     1       0.606  -0.100   2.267  1.00  0.00     0.048 C 
ENDROOT
BRANCH   1   4
HETATM    4  C5  UNL     1       2.051   0.052   0.430  1.00  0.00     0.249 C 
HETATM    5  N1  UNL     1       2.796  -0.078  -0.784  1.00  0.00    -0.323 N 
ATOM      6  H1  UNL     1       2.319  -0.428  -1.615  1.00  0.00     0.169 HD
HETATM    7  O1  UNL     1       2.698   0.649   1.357  1.00  0.00    -0.270 OA
BRANCH   5   8
HETATM    8  C4  UNL     1       4.166   0.258  -0.880  1.00  0.00     0.057 A 
HETATM    9  C3  UNL     1       4.968  -0.353   0.134  1.00  0.00     0.040 A 
HETATM   10  C2  UNL     1       6.327  -0.363   0.051  1.00  0.00    -0.031 A 
HETATM   11  C1  UNL     1       7.152  -1.052   1.095  1.00  0.00     0.050 C 
HETATM   12  C26 UNL     1       6.980   0.237  -1.050  1.00  0.00     0.066 A 
HETATM   13  C25 UNL     1       6.200   0.830  -2.024  1.00  0.00     0.058 A 
HETATM   14  C24 UNL     1       4.792   0.814  -1.890  1.00  0.00     0.063 A 
HETATM   15 CL3  UNL     1       3.897   1.620  -3.212  1.00  0.00    -0.082 Cl
BRANCH  12  16
HETATM   16  N3  UNL     1       8.385   0.151  -1.050  1.00  0.00    -0.235 N 
HETATM   17  C27 UNL     1       9.200   0.832  -0.204  1.00  0.00     0.226 A 
HETATM   18  N4  UNL     1      10.453   0.489  -0.493  1.00  0.00    -0.279 N 
HETATM   19  N5  UNL     1      10.425  -0.364  -1.469  1.00  0.00    -0.227 N 
ATOM     20  H4  UNL     1      11.291   0.837  -0.027  1.00  0.00     0.189 HD
HETATM   21  N6  UNL     1       9.176  -0.556  -1.793  1.00  0.00    -0.220 N 
ATOM     22  H5  UNL     1      11.234  -0.806  -1.905  1.00  0.00     0.210 HD
ATOM     23  H6  UNL     1       8.863  -1.182  -2.535  1.00  0.00     0.210 HD
ENDBRANCH  12  16
ENDBRANCH   5   8
ENDBRANCH   1   4
BRANCH   1  24
HETATM   24  N2  UNL     1      -0.498  -0.050   0.176  1.00  0.00    -0.343 N 
HETATM   25  C9  UNL     1      -1.453   1.007   0.311  1.00  0.00     0.232 C 
HETATM   26  O2  UNL     1      -1.148   1.907   1.096  1.00  0.00    -0.272 OA
ATOM     27  H2  UNL     1      -0.845  -0.740  -0.490  1.00  0.00     0.163 HD
BRANCH  25  28
HETATM   28  C10 UNL     1      -2.706   0.996  -0.449  1.00  0.00     0.145 C 
BRANCH  28  29
HETATM   29  C11 UNL     1      -3.383  -0.367  -0.650  1.00  0.00     0.029 C 
BRANCH  29  30
HETATM   30  C12 UNL     1      -3.931  -1.070   0.494  1.00  0.00    -0.017 C 
HETATM   31  C13 UNL     1      -3.037  -1.456   1.604  1.00  0.00     0.010 C 
BRANCH  30  32
HETATM   32  C14 UNL     1      -4.868  -2.214   0.162  1.00  0.00     0.008 C 
BRANCH  32  33
HETATM   33  C15 UNL     1      -4.327  -3.331  -0.630  1.00  0.00    -0.023 C 
HETATM   34  C16 UNL     1      -5.527  -4.295  -0.827  1.00  0.00     0.009 C 
HETATM   35  C17 UNL     1      -3.342  -4.226   0.137  1.00  0.00     0.009 C 
ENDBRANCH  32  33
ENDBRANCH  30  32
ENDBRANCH  29  30
ENDBRANCH  28  29
BRANCH  28  36
HETATM   36  S1  UNL     1      -3.932   2.104   0.177  1.00  0.00    -0.114 SA
BRANCH  36  37
HETATM   37  C18 UNL     1      -3.993   3.791  -0.188  1.00  0.00     0.023 A 
HETATM   38  C19 UNL     1      -4.539   4.184  -1.433  1.00  0.00     0.022 A 
HETATM   39  C20 UNL     1      -4.799   5.481  -1.792  1.00  0.00     0.025 A 
HETATM   40  C21 UNL     1      -4.531   6.515  -0.919  1.00  0.00     0.035 A 
HETATM   41 CL1  UNL     1      -4.899   8.163  -1.373  1.00  0.00    -0.084 Cl
HETATM   42  C22 UNL     1      -3.992   6.167   0.309  1.00  0.00     0.049 A 
HETATM   43  C23 UNL     1      -3.730   4.853   0.661  1.00  0.00     0.052 A 
HETATM   44 CL2  UNL     1      -3.090   4.524   2.284  1.00  0.00    -0.083 Cl
ENDBRANCH  36  37
ENDBRANCH  28  36
ENDBRANCH  25  28
ENDBRANCH   1  24
TORSDOF 11
