REMARK  15 active torsions:
REMARK  status: ('A' for Active; 'I' for Inactive)
REMARK    1  A    between atoms: C4_4  and  C5_5 
REMARK    2  A    between atoms: C5_5  and  C6_6 
REMARK    3  A    between atoms: C10_10  and  O1_11 
REMARK    4  A    between atoms: O1_11  and  C11_12 
REMARK    5  A    between atoms: C11_12  and  C12_14 
REMARK    6  A    between atoms: C12_14  and  C13_15 
REMARK    7  A    between atoms: C13_15  and  C14_16 
REMARK    8  A    between atoms: C17_19  and  C19_21 
REMARK    9  A    between atoms: C19_21  and  C20_22 
REMARK   10  A    between atoms: C20_22  and  C21_23 
REMARK   11  A    between atoms: C26_30  and  C28_32 
REMARK   12  A    between atoms: C28_32  and  O5_33 
REMARK   13  A    between atoms: C28_32  and  C29_35 
REMARK   14  A    between atoms: C29_35  and  C30_36 
REMARK   15  A    between atoms: C32_41  and  O6_42 
ROOT
HETATM    1  C19 UNL     1       0.049   0.695  -0.860  1.00  0.00     0.015 C 
ENDROOT
BRANCH   1   2
HETATM    2  C17 UNL     1      -1.293   1.203  -1.270  1.00  0.00    -0.016 C 
HETATM    3  C10 UNL     1      -2.452   0.555  -0.687  1.00  0.00     0.140 C 
HETATM    4  C9  UNL     1      -3.781   1.180  -1.182  1.00  0.00     0.034 C 
HETATM    5  C8  UNL     1      -3.634   2.603  -1.571  1.00  0.00     0.012 C 
HETATM    6  C6  UNL     1      -2.550   3.383  -0.935  1.00  0.00    -0.040 C 
HETATM    7  C7  UNL     1      -2.213   4.537  -1.899  1.00  0.00     0.015 C 
HETATM    8  C33 UNL     1      -1.268   2.645  -0.719  1.00  0.00     0.021 C 
HETATM    9  C18 UNL     1      -1.272   1.280  -2.780  1.00  0.00     0.018 C 
BRANCH   3  10
HETATM   10  O1  UNL     1      -2.574  -0.818  -0.570  1.00  0.00    -0.315 OA
BRANCH  10  11
HETATM   11  C11 UNL     1      -2.817  -1.512   0.630  1.00  0.00     0.259 C 
HETATM   12  O2  UNL     1      -2.917  -0.757   1.618  1.00  0.00    -0.265 OA
BRANCH  11  13
HETATM   13  C12 UNL     1      -2.933  -2.983   0.668  1.00  0.00     0.111 C 
BRANCH  13  14
HETATM   14  C13 UNL     1      -3.187  -3.490   2.063  1.00  0.00     0.013 C 
BRANCH  14  15
HETATM   15  C14 UNL     1      -3.310  -4.971   2.141  1.00  0.00    -0.022 C 
HETATM   16  C15 UNL     1      -4.433  -5.526   1.310  1.00  0.00     0.009 C 
HETATM   17  C16 UNL     1      -2.008  -5.599   1.742  1.00  0.00     0.009 C 
ENDBRANCH  14  15
ENDBRANCH  13  14
ENDBRANCH  11  13
ENDBRANCH  10  11
ENDBRANCH   3  10
BRANCH   6  18
HETATM   18  C5  UNL     1      -2.968   3.944   0.408  1.00  0.00     0.036 C 
BRANCH  18  19
HETATM   19  C4  UNL     1      -4.132   4.821   0.388  1.00  0.00    -0.024 C 
HETATM   20  C2  UNL     1      -4.046   6.092   0.801  1.00  0.00    -0.091 C 
HETATM   21  C1  UNL     1      -5.240   6.994   0.781  1.00  0.00     0.042 C 
HETATM   22  C3  UNL     1      -2.764   6.658   1.299  1.00  0.00     0.042 C 
ENDBRANCH  18  19
ENDBRANCH   6  18
ENDBRANCH   1   2
BRANCH   1  23
HETATM   23  C20 UNL     1       0.448  -0.676  -1.153  1.00  0.00     0.042 C 
BRANCH  23  24
HETATM   24  C21 UNL     1       1.848  -0.910  -0.625  1.00  0.00     0.098 C 
HETATM   25  C22 UNL     1       2.912  -0.055  -1.193  1.00  0.00     0.061 C 
HETATM   26  C23 UNL     1       4.010  -0.207  -0.121  1.00  0.00     0.057 C 
HETATM   27  C24 UNL     1       4.966   0.932  -0.159  1.00  0.00     0.027 C 
HETATM   28  C25 UNL     1       3.179  -0.163   1.108  1.00  0.00     0.269 C 
HETATM   29  C26 UNL     1       4.591  -1.566  -0.277  1.00  0.00     0.001 C 
HETATM   30  O3  UNL     1       3.477   0.165   2.281  1.00  0.00    -0.264 OA
HETATM   31  O4  UNL     1       1.885  -0.575   0.760  1.00  0.00    -0.307 OA
HETATM   32  C27 UNL     1       5.266  -1.753  -1.631  1.00  0.00     0.019 C 
HETATM   33  C31 UNL     1       3.549  -2.621  -0.108  1.00  0.00     0.048 C 
HETATM   34  C32 UNL     1       2.230  -2.358  -0.734  1.00  0.00     0.154 C 
BRANCH  29  35
HETATM   35  C28 UNL     1       5.659  -1.759   0.782  1.00  0.00     0.136 C 
BRANCH  35  36
HETATM   36  O5  UNL     1       6.691  -0.838   0.674  1.00  0.00    -0.394 OA
ATOM     37  H5  UNL     1       7.360  -0.959   1.337  1.00  0.00     0.210 HD
ENDBRANCH  35  36
BRANCH  35  38
HETATM   38  C29 UNL     1       6.226  -3.138   0.833  1.00  0.00     0.150 C 
BRANCH  38  39
HETATM   39  C30 UNL     1       7.270  -3.176   1.933  1.00  0.00     0.390 C 
HETATM   40  F1  UNL     1       8.278  -2.290   1.704  1.00  0.00    -0.171 F 
HETATM   41  F2  UNL     1       7.780  -4.460   2.088  1.00  0.00    -0.171 F 
HETATM   42  F3  UNL     1       6.630  -2.795   3.116  1.00  0.00    -0.171 F 
ENDBRANCH  38  39
ENDBRANCH  35  38
ENDBRANCH  29  35
BRANCH  34  43
HETATM   43  O6  UNL     1       1.265  -3.077   0.012  1.00  0.00    -0.392 OA
ATOM     44  H6  UNL     1       1.507  -3.993  -0.057  1.00  0.00     0.210 HD
ENDBRANCH  34  43
ENDBRANCH  23  24
ENDBRANCH   1  23
TORSDOF 15
