REMARK  12 active torsions:
REMARK  status: ('A' for Active; 'I' for Inactive)
REMARK    1  A    between atoms: O1_2  and  C2_3 
REMARK    2  A    between atoms: C5_7  and  N1_8 
REMARK       I    between atoms: N1_8  and  C6_9 
REMARK    3  A    between atoms: C6_9  and  C7_11 
REMARK    4  A    between atoms: C7_11  and  O3_12 
REMARK    5  A    between atoms: O3_12  and  C8_13 
REMARK    6  A    between atoms: C11_16  and  C12_17 
REMARK    7  A    between atoms: C13_18  and  C14_19 
REMARK    8  A    between atoms: C14_19  and  C15_21 
REMARK    9  A    between atoms: C16_22  and  C17_23 
REMARK   10  A    between atoms: C22_30  and  O5_31 
REMARK   11  A    between atoms: C26_36  and  O6_37 
REMARK   12  A    between atoms: C28_39  and  O7_40 
ROOT
HETATM    1  C8  UNL     1       0.152  -1.628  -0.181  1.00  0.00     0.070 A 
HETATM    2  C9  UNL     1      -0.998  -2.252  -0.639  1.00  0.00     0.037 A 
HETATM    3  C10 UNL     1      -2.216  -1.590  -0.681  1.00  0.00     0.014 A 
HETATM    4  C11 UNL     1      -2.326  -0.308  -0.272  1.00  0.00    -0.030 A 
HETATM    5  C23 UNL     1      -1.168   0.328   0.192  1.00  0.00    -0.049 A 
HETATM    6  C24 UNL     1      -1.281   1.738   0.648  1.00  0.00     0.049 C 
HETATM    7  C25 UNL     1       0.022  -0.327   0.229  1.00  0.00     0.044 A 
ENDROOT
BRANCH   1   8
HETATM    8  O3  UNL     1       1.315  -2.340  -0.168  1.00  0.00    -0.341 OA
BRANCH   8   9
HETATM    9  C7  UNL     1       2.589  -1.956   0.214  1.00  0.00     0.294 C 
BRANCH   9  10
HETATM   10  C6  UNL     1       3.087  -0.844  -0.708  1.00  0.00     0.316 C 
HETATM   11  N1  UNL     1       4.238  -0.276  -0.376  1.00  0.00    -0.364 NA
HETATM   12  O2  UNL     1       2.322  -0.574  -1.718  1.00  0.00    -0.255 OA
BRANCH  11  13
HETATM   13  C5  UNL     1       5.420   0.307  -0.036  1.00  0.00     0.169 A 
HETATM   14  C4  UNL     1       5.513   1.422   0.809  1.00  0.00     0.080 A 
HETATM   15  C3  UNL     1       6.741   1.931   1.129  1.00  0.00     0.067 A 
HETATM   16 CL1  UNL     1       4.052   2.155   1.448  1.00  0.00    -0.081 Cl
HETATM   17  C2  UNL     1       7.922   1.403   0.659  1.00  0.00     0.106 A 
HETATM   18  C28 UNL     1       7.851   0.309  -0.174  1.00  0.00     0.138 A 
HETATM   19  C26 UNL     1       6.638  -0.221  -0.509  1.00  0.00     0.147 A 
BRANCH  17  20
HETATM   20  O1  UNL     1       9.153   1.944   1.003  1.00  0.00    -0.353 OA
HETATM   21  C1  UNL     1       9.154   3.082   1.876  1.00  0.00     0.210 C 
ENDBRANCH  17  20
BRANCH  18  22
HETATM   22  O7  UNL     1       9.052  -0.227  -0.652  1.00  0.00    -0.351 OA
HETATM   23  C29 UNL     1       9.640   0.187  -1.848  1.00  0.00     0.210 C 
ENDBRANCH  18  22
BRANCH  19  24
HETATM   24  O6  UNL     1       6.539  -1.324  -1.348  1.00  0.00    -0.350 OA
HETATM   25  C27 UNL     1       6.514  -2.653  -0.903  1.00  0.00     0.210 C 
ENDBRANCH  19  24
ENDBRANCH  11  13
ENDBRANCH   9  10
ENDBRANCH   8   9
ENDBRANCH   1   8
BRANCH   4  26
HETATM   26  C12 UNL     1      -3.576   0.393  -0.214  1.00  0.00     0.016 C 
HETATM   27  C13 UNL     1      -4.818   0.120  -0.042  1.00  0.00     0.055 C 
BRANCH  27  28
HETATM   28  C14 UNL     1      -5.557  -1.063   0.197  1.00  0.00     0.172 C 
HETATM   29  O4  UNL     1      -4.979  -2.180   0.373  1.00  0.00    -0.289 OA
BRANCH  28  30
HETATM   30  C15 UNL     1      -7.032  -1.078   0.254  1.00  0.00     0.055 C 
HETATM   31  C16 UNL     1      -7.759  -0.020   0.071  1.00  0.00     0.018 C 
BRANCH  31  32
HETATM   32  C17 UNL     1      -9.230  -0.033   0.129  1.00  0.00    -0.001 A 
HETATM   33  C18 UNL     1      -9.912  -1.175   0.425  1.00  0.00     0.040 A 
HETATM   34  C19 UNL     1     -11.295  -1.182   0.455  1.00  0.00     0.056 A 
HETATM   35 CL2  UNL     1     -12.175  -2.646   0.834  1.00  0.00    -0.083 Cl
HETATM   36  C20 UNL     1     -12.012  -0.020   0.183  1.00  0.00     0.058 A 
HETATM   37 CL3  UNL     1     -13.767  -0.009   0.212  1.00  0.00    -0.082 Cl
HETATM   38  C21 UNL     1     -11.342   1.119  -0.111  1.00  0.00     0.063 A 
HETATM   39  C22 UNL     1      -9.943   1.112  -0.139  1.00  0.00     0.077 A 
BRANCH  39  40
HETATM   40  O5  UNL     1      -9.337   2.312  -0.447  1.00  0.00    -0.360 OA
ATOM     41  H5  UNL     1      -9.830   3.103  -0.632  1.00  0.00     0.217 HD
ENDBRANCH  39  40
ENDBRANCH  31  32
ENDBRANCH  28  30
ENDBRANCH  27  28
ENDBRANCH   4  26
TORSDOF 12
