REMARK  5 active torsions:
REMARK  status: ('A' for Active; 'I' for Inactive)
REMARK       I    between atoms: C1_2  and  N1_3 
REMARK       I    between atoms: C1_2  and  N4_22 
REMARK    1  A    between atoms: N1_3  and  C2_5 
REMARK    2  A    between atoms: C5_8  and  N2_9 
REMARK       I    between atoms: N2_9  and  C6_11 
REMARK    3  A    between atoms: C6_11  and  C7_13 
REMARK    4  A    between atoms: N4_22  and  C14_24 
REMARK    5  A    between atoms: C19_29  and  C20_30 
ROOT
HETATM    1  O1  UNL     1      -1.003  -1.851  -0.722  1.00  0.00    -0.247 OA
HETATM    2  C1  UNL     1      -1.586  -0.834  -0.314  1.00  0.00     0.325 C 
HETATM    3  N1  UNL     1      -0.764   0.276   0.087  1.00  0.00    -0.309 N 
ATOM      4  H1  UNL     1      -1.260   1.105   0.414  1.00  0.00     0.170 HD
HETATM    5  N4  UNL     1      -2.989  -0.738  -0.234  1.00  0.00    -0.308 N 
ATOM      6  H4  UNL     1      -3.381   0.139   0.108  1.00  0.00     0.170 HD
ENDROOT
BRANCH   3   7
HETATM    7  C2  UNL     1       0.629   0.358   0.083  1.00  0.00     0.036 A 
HETATM    8  C3  UNL     1       1.507  -0.685  -0.016  1.00  0.00     0.032 A 
HETATM    9  C4  UNL     1       2.885  -0.454  -0.031  1.00  0.00     0.032 A 
HETATM   10  C5  UNL     1       3.434   0.787   0.052  1.00  0.00     0.035 A 
HETATM   11  C12 UNL     1       2.517   1.843   0.153  1.00  0.00     0.032 A 
HETATM   12  C13 UNL     1       1.168   1.655   0.170  1.00  0.00     0.032 A 
BRANCH  10  13
HETATM   13  N2  UNL     1       4.825   1.077   0.063  1.00  0.00    -0.323 N 
HETATM   14  C6  UNL     1       5.883   0.193   0.301  1.00  0.00     0.257 C 
HETATM   15  O2  UNL     1       5.643  -1.021   0.552  1.00  0.00    -0.267 OA
ATOM     16  H2  UNL     1       5.083   2.046  -0.125  1.00  0.00     0.169 HD
BRANCH  14  17
HETATM   17  C7  UNL     1       7.281   0.631   0.272  1.00  0.00     0.047 A 
HETATM   18  C8  UNL     1       8.256  -0.191   0.800  1.00  0.00     0.020 A 
HETATM   19  C9  UNL     1       9.583   0.171   0.791  1.00  0.00     0.018 A 
HETATM   20  C10 UNL     1       9.897   1.387   0.232  1.00  0.00     0.087 A 
HETATM   21  N3  UNL     1       8.933   2.164  -0.273  1.00  0.00    -0.374 N 
HETATM   22  C11 UNL     1       7.620   1.832  -0.276  1.00  0.00     0.104 A 
ATOM     23  H3  UNL     1       9.202   3.060  -0.680  1.00  0.00     0.164 HD
ENDBRANCH  14  17
ENDBRANCH  10  13
ENDBRANCH   3   7
BRANCH   5  24
HETATM   24  C14 UNL     1      -3.888  -1.751  -0.587  1.00  0.00     0.047 A 
HETATM   25  C15 UNL     1      -3.547  -3.085  -0.804  1.00  0.00     0.030 A 
HETATM   26  C16 UNL     1      -4.524  -4.031  -1.080  1.00  0.00     0.002 A 
HETATM   27  C17 UNL     1      -5.848  -3.683  -1.146  1.00  0.00     0.001 A 
HETATM   28  C18 UNL     1      -6.160  -2.362  -0.929  1.00  0.00     0.014 A 
HETATM   29  C19 UNL     1      -5.239  -1.378  -0.653  1.00  0.00     0.001 A 
BRANCH  29  30
HETATM   30  C20 UNL     1      -5.655  -0.002  -0.492  1.00  0.00    -0.024 A 
HETATM   31  C21 UNL     1      -6.593   0.231   0.514  1.00  0.00     0.012 A 
HETATM   32  C22 UNL     1      -7.110   1.484   0.754  1.00  0.00     0.001 A 
HETATM   33  C23 UNL     1      -6.653   2.522  -0.056  1.00  0.00     0.000 A 
HETATM   34  C24 UNL     1      -5.737   2.322  -1.046  1.00  0.00     0.001 A 
HETATM   35  C25 UNL     1      -5.244   1.058  -1.256  1.00  0.00     0.012 A 
ENDBRANCH  29  30
ENDBRANCH   5  24
TORSDOF 5
