REMARK  4 active torsions:
REMARK  status: ('A' for Active; 'I' for Inactive)
REMARK    1  A    between atoms: C4_5  and  N2_6 
REMARK       I    between atoms: N2_6  and  C5_8 
REMARK    2  A    between atoms: C5_8  and  C6_10 
REMARK    3  A    between atoms: C13_17  and  C14_18 
REMARK       I    between atoms: C14_18  and  N3_20 
REMARK    4  A    between atoms: N3_20  and  C15_22 
ROOT
HETATM    1  N1  UNL     1      -0.571  -5.038  -0.464  1.00  0.00    -0.101 NA
HETATM    2  C1  UNL     1      -1.367  -3.862  -0.464  1.00  0.00     0.062 A 
HETATM    3  C2  UNL     1      -2.721  -3.939  -0.679  1.00  0.00     0.030 A 
HETATM    4  C3  UNL     1      -3.532  -2.806  -0.686  1.00  0.00     0.031 A 
HETATM    5  C4  UNL     1      -2.954  -1.591  -0.471  1.00  0.00     0.036 A 
HETATM    6  C12 UNL     1      -1.577  -1.493  -0.250  1.00  0.00     0.048 A 
HETATM    7  C13 UNL     1      -0.782  -2.608  -0.244  1.00  0.00     0.058 A 
ENDROOT
BRANCH   7   8
HETATM    8  C14 UNL     1       0.682  -2.560  -0.018  1.00  0.00     0.258 C 
HETATM    9  O2  UNL     1       1.289  -3.645  -0.041  1.00  0.00    -0.267 OA
HETATM   10  N3  UNL     1       1.359  -1.354   0.212  1.00  0.00    -0.323 N 
ATOM     11  H3  UNL     1       0.801  -0.500   0.213  1.00  0.00     0.169 HD
BRANCH  10  12
HETATM   12  C15 UNL     1       2.745  -1.219   0.442  1.00  0.00     0.035 A 
HETATM   13  C16 UNL     1       3.570  -2.212   0.856  1.00  0.00     0.029 A 
HETATM   14  C17 UNL     1       4.930  -1.998   1.031  1.00  0.00     0.003 A 
HETATM   15  C18 UNL     1       5.435  -0.761   0.779  1.00  0.00     0.012 A 
HETATM   16  C19 UNL     1       4.655   0.294   0.357  1.00  0.00    -0.024 A 
HETATM   17  C20 UNL     1       5.228   1.592   0.099  1.00  0.00    -0.026 A 
HETATM   18  C26 UNL     1       3.318   0.047   0.194  1.00  0.00     0.042 A 
HETATM   19  C21 UNL     1       6.516   1.722  -0.370  1.00  0.00     0.012 A 
HETATM   20  C25 UNL     1       4.514   2.758   0.310  1.00  0.00     0.012 A 
HETATM   21  C22 UNL     1       7.081   2.960  -0.622  1.00  0.00     0.001 A 
HETATM   22  C23 UNL     1       6.352   4.093  -0.404  1.00  0.00     0.000 A 
HETATM   23  C24 UNL     1       5.062   4.005   0.064  1.00  0.00     0.001 A 
ENDBRANCH  10  12
ENDBRANCH   7   8
BRANCH   5  24
HETATM   24  N2  UNL     1      -3.700  -0.391  -0.437  1.00  0.00    -0.323 N 
HETATM   25  C5  UNL     1      -5.097  -0.254  -0.262  1.00  0.00     0.256 C 
HETATM   26  O1  UNL     1      -5.853  -1.213  -0.109  1.00  0.00    -0.267 OA
ATOM     27  H2  UNL     1      -3.171   0.474  -0.552  1.00  0.00     0.169 HD
BRANCH  25  28
HETATM   28  C6  UNL     1      -5.678   1.081  -0.263  1.00  0.00     0.032 A 
HETATM   29  C7  UNL     1      -7.053   1.176  -0.465  1.00  0.00     0.017 A 
HETATM   30  C8  UNL     1      -7.679   2.403  -0.474  1.00  0.00     0.001 A 
HETATM   31  C9  UNL     1      -6.933   3.561  -0.279  1.00  0.00     0.000 A 
HETATM   32  C10 UNL     1      -5.576   3.499  -0.077  1.00  0.00     0.001 A 
HETATM   33  C11 UNL     1      -4.970   2.245  -0.073  1.00  0.00     0.017 A 
ENDBRANCH  25  28
ENDBRANCH   5  24
TORSDOF 4
