REMARK  6 active torsions:
REMARK  status: ('A' for Active; 'I' for Inactive)
REMARK    1  A    between atoms: C5_6  and  N2_7 
REMARK    2  A    between atoms: N2_7  and  C6_9 
REMARK    3  A    between atoms: C6_9  and  C7_13 
REMARK    4  A    between atoms: C10_16  and  C11_17 
REMARK       I    between atoms: C11_17  and  N4_19 
REMARK    5  A    between atoms: N4_19  and  C12_21 
REMARK    6  A    between atoms: C16_25  and  C17_26 
ROOT
HETATM    1  N1  UNL     1       9.473   2.879   0.685  1.00  0.00    -0.191 NA
HETATM    2  C1  UNL     1       8.745   2.024   0.427  1.00  0.00     0.099 C 
HETATM    3  C2  UNL     1       7.826   0.962   0.108  1.00  0.00     0.044 A 
HETATM    4  C3  UNL     1       7.895   0.416  -1.162  1.00  0.00     0.025 A 
HETATM    5  C4  UNL     1       7.004  -0.600  -1.442  1.00  0.00     0.031 A 
HETATM    6  C5  UNL     1       6.081  -1.084  -0.554  1.00  0.00     0.033 A 
HETATM    7  C26 UNL     1       6.032  -0.515   0.724  1.00  0.00     0.031 A 
HETATM    8  C27 UNL     1       6.909   0.499   1.026  1.00  0.00     0.025 A 
ENDROOT
BRANCH   6   9
HETATM    9  N2  UNL     1       5.198  -2.122  -0.896  1.00  0.00    -0.342 N 
ATOM     10  H2  UNL     1       5.243  -2.529  -1.830  1.00  0.00     0.167 HD
BRANCH   9  11
HETATM   11  C6  UNL     1       4.229  -2.624   0.047  1.00  0.00     0.109 C 
HETATM   12  N3  UNL     1       4.644  -3.532   0.838  1.00  0.00    -0.385 N 
ATOM     13  H32 UNL     1       5.593  -3.906   0.834  1.00  0.00     0.157 HD
ATOM     14  H31 UNL     1       3.959  -3.887   1.505  1.00  0.00     0.157 HD
BRANCH  11  15
HETATM   15  C7  UNL     1       2.878  -2.092   0.053  1.00  0.00     0.007 A 
HETATM   16  C8  UNL     1       1.941  -2.556   0.943  1.00  0.00     0.016 A 
HETATM   17  C9  UNL     1       0.670  -2.019   0.909  1.00  0.00     0.018 A 
HETATM   18  C10 UNL     1       0.296  -1.037   0.024  1.00  0.00     0.032 A 
HETATM   19  C24 UNL     1       1.227  -0.571  -0.866  1.00  0.00     0.018 A 
HETATM   20  C25 UNL     1       2.528  -1.107  -0.846  1.00  0.00     0.016 A 
BRANCH  18  21
HETATM   21  C11 UNL     1      -1.075  -0.506   0.026  1.00  0.00     0.256 C 
HETATM   22  O1  UNL     1      -1.927  -1.247   0.584  1.00  0.00    -0.267 OA
HETATM   23  N4  UNL     1      -1.349   0.744  -0.568  1.00  0.00    -0.323 N 
ATOM     24  H4  UNL     1      -0.554   1.233  -0.979  1.00  0.00     0.169 HD
BRANCH  23  25
HETATM   25  C12 UNL     1      -2.601   1.396  -0.658  1.00  0.00     0.035 A 
HETATM   26  C13 UNL     1      -2.646   2.696  -1.180  1.00  0.00     0.029 A 
HETATM   27  C14 UNL     1      -3.812   3.415  -1.316  1.00  0.00     0.003 A 
HETATM   28  C15 UNL     1      -4.988   2.816  -0.915  1.00  0.00     0.012 A 
HETATM   29  C16 UNL     1      -5.024   1.560  -0.399  1.00  0.00    -0.024 A 
HETATM   30  C23 UNL     1      -3.807   0.868  -0.281  1.00  0.00     0.042 A 
BRANCH  29  31
HETATM   31  C17 UNL     1      -6.267   0.924   0.026  1.00  0.00    -0.026 A 
HETATM   32  C18 UNL     1      -6.428  -0.443  -0.062  1.00  0.00     0.012 A 
HETATM   33  C19 UNL     1      -7.595  -1.072   0.334  1.00  0.00     0.001 A 
HETATM   34  C20 UNL     1      -8.635  -0.296   0.836  1.00  0.00     0.000 A 
HETATM   35  C21 UNL     1      -8.511   1.079   0.940  1.00  0.00     0.001 A 
HETATM   36  C22 UNL     1      -7.335   1.646   0.533  1.00  0.00     0.012 A 
ENDBRANCH  29  31
ENDBRANCH  23  25
ENDBRANCH  18  21
ENDBRANCH  11  15
ENDBRANCH   9  11
ENDBRANCH   6   9
TORSDOF 6
