REMARK  5 active torsions:
REMARK  status: ('A' for Active; 'I' for Inactive)
REMARK    1  A    between atoms: C4_5  and  N2_6 
REMARK       I    between atoms: N2_6  and  C5_8 
REMARK       I    between atoms: C5_8  and  N3_10 
REMARK       I    between atoms: N3_10  and  C6_12 
REMARK    2  A    between atoms: C6_12  and  C7_14 
REMARK    3  A    between atoms: C11_18  and  O3_19 
REMARK    4  A    between atoms: O3_19  and  C12_20 
REMARK    5  A    between atoms: C19_27  and  C20_28 
ROOT
HETATM    1  N2  UNL     1      -2.346   0.559  -1.662  1.00  0.00    -0.308 N 
ATOM      2  H2  UNL     1      -2.186   0.022  -0.810  1.00  0.00     0.170 HD
HETATM    3  C5  UNL     1      -1.230   1.076  -2.305  1.00  0.00     0.327 C 
HETATM    4  O1  UNL     1      -1.396   1.773  -3.369  1.00  0.00    -0.247 OA
HETATM    5  N3  UNL     1       0.132   0.934  -1.933  1.00  0.00    -0.275 N 
ATOM      6  H3  UNL     1       0.807   1.394  -2.544  1.00  0.00     0.173 HD
HETATM    7  C6  UNL     1       0.673   0.246  -0.838  1.00  0.00     0.259 C 
HETATM    8  O2  UNL     1      -0.057  -0.351  -0.022  1.00  0.00    -0.267 OA
ENDROOT
BRANCH   1   9
HETATM    9  C4  UNL     1      -3.699   0.714  -2.091  1.00  0.00     0.047 A 
HETATM   10  C3  UNL     1      -4.103   1.128  -3.325  1.00  0.00     0.032 A 
HETATM   11  C2  UNL     1      -5.455   1.183  -3.697  1.00  0.00     0.029 A 
HETATM   12  C1  UNL     1      -6.433   0.812  -2.811  1.00  0.00     0.047 A 
HETATM   13  N1  UNL     1      -7.801   0.866  -3.189  1.00  0.00    -0.102 NA
HETATM   14  C26 UNL     1      -6.032   0.394  -1.564  1.00  0.00     0.041 A 
HETATM   15  C19 UNL     1      -4.710   0.338  -1.187  1.00  0.00     0.003 A 
BRANCH  15  16
HETATM   16  C20 UNL     1      -4.355  -0.062   0.177  1.00  0.00    -0.024 A 
HETATM   17  C21 UNL     1      -4.739  -1.315   0.658  1.00  0.00     0.012 A 
HETATM   18  C22 UNL     1      -4.460  -1.685   1.931  1.00  0.00     0.001 A 
HETATM   19  C23 UNL     1      -3.787  -0.833   2.792  1.00  0.00     0.000 A 
HETATM   20  C24 UNL     1      -3.412   0.402   2.307  1.00  0.00     0.001 A 
HETATM   21  C25 UNL     1      -3.684   0.803   1.016  1.00  0.00     0.012 A 
ENDBRANCH  15  16
ENDBRANCH   1   9
BRANCH   7  22
HETATM   22  C7  UNL     1       2.127   0.181  -0.574  1.00  0.00     0.035 A 
HETATM   23  C8  UNL     1       3.076   0.579  -1.482  1.00  0.00     0.017 A 
HETATM   24  C9  UNL     1       4.440   0.513  -1.207  1.00  0.00     0.004 A 
HETATM   25  C10 UNL     1       4.849   0.033   0.018  1.00  0.00     0.037 A 
HETATM   26  C11 UNL     1       3.928  -0.375   0.953  1.00  0.00     0.077 A 
HETATM   27  C18 UNL     1       2.592  -0.293   0.638  1.00  0.00     0.054 A 
BRANCH  26  28
HETATM   28  O3  UNL     1       4.306  -0.872   2.216  1.00  0.00    -0.311 OA
BRANCH  28  29
HETATM   29  C12 UNL     1       5.668  -0.931   2.475  1.00  0.00     0.076 A 
HETATM   30  C13 UNL     1       6.375  -2.072   2.153  1.00  0.00     0.037 A 
HETATM   31  C14 UNL     1       7.713  -2.152   2.398  1.00  0.00     0.003 A 
HETATM   32  C15 UNL     1       8.355  -1.072   2.975  1.00  0.00     0.000 A 
HETATM   33  C16 UNL     1       7.660   0.059   3.295  1.00  0.00     0.003 A 
HETATM   34  C17 UNL     1       6.292   0.154   3.050  1.00  0.00     0.037 A 
ENDBRANCH  28  29
ENDBRANCH  26  28
ENDBRANCH   7  22
TORSDOF 5
