REMARK  1 active torsions:
REMARK  status: ('A' for Active; 'I' for Inactive)
REMARK    1  A    between atoms: N3_4  and  C2_6 
ROOT
HETATM    1  C2  UNL     1      -0.366  -0.352  -0.142  1.00  0.00     0.177 C 
HETATM    2  N4  UNL     1      -0.554   0.706   0.570  1.00  0.00    -0.361 N 
ATOM      3  H4  UNL     1       0.194   1.271   0.973  1.00  0.00     0.162 HD
HETATM    4  C3  UNL     1      -1.969   0.988   0.722  1.00  0.00     0.142 C 
HETATM    5  C4  UNL     1      -2.565   0.239  -0.434  1.00  0.00     0.142 C 
HETATM    6  N5  UNL     1      -1.631  -0.893  -0.545  1.00  0.00    -0.361 N 
ATOM      7  H5  UNL     1      -1.837  -1.847  -0.842  1.00  0.00     0.162 HD
ENDROOT
BRANCH   1   8
HETATM    8  N3  UNL     1       0.872  -0.968  -0.526  1.00  0.00    -0.305 N 
HETATM    9  C1  UNL     1       1.989  -0.476  -0.158  1.00  0.00     0.203 C 
HETATM   10  N1  UNL     1       2.034   0.685   0.635  1.00  0.00    -0.066 NA
HETATM   11  N2  UNL     1       3.183  -1.107  -0.553  1.00  0.00    -0.066 NA
ATOM     12  H3  UNL     1       0.858  -1.810  -1.101  1.00  0.00     0.171 HD
ENDBRANCH   1   8
TORSDOF 1
