REMARK  3 active torsions:
REMARK  status: ('A' for Active; 'I' for Inactive)
REMARK    1  A    between atoms: C2_3  and  C3_4 
REMARK    2  A    between atoms: C3_4  and  C4_5 
REMARK    3  A    between atoms: C4_5  and  C5_6 
ROOT
HETATM    1  C1  UNL     1      -0.024  -2.175  -0.185  1.00  0.00     0.158 C 
HETATM    2  N1  UNL     1      -0.796  -0.944  -0.092  1.00  0.00    -0.329 N 
HETATM    3  C2  UNL     1      -0.210   0.260   0.040  1.00  0.00     0.164 A 
HETATM    4  N2  UNL     1      -0.959   1.381   0.124  1.00  0.00    -0.334 N 
ATOM      5  H2  UNL     1      -0.487   2.280   0.224  1.00  0.00     0.168 HD
HETATM    6  C11 UNL     1      -2.305   1.358   0.081  1.00  0.00     0.047 A 
HETATM    7  C12 UNL     1      -3.059   2.510   0.168  1.00  0.00     0.030 A 
HETATM    8  C13 UNL     1      -4.428   2.436   0.120  1.00  0.00     0.003 A 
HETATM    9  C14 UNL     1      -5.058   1.239  -0.013  1.00  0.00     0.012 A 
HETATM   10  C15 UNL     1      -4.313   0.067  -0.102  1.00  0.00    -0.021 A 
HETATM   11  C16 UNL     1      -4.965  -1.152  -0.237  1.00  0.00     0.012 A 
HETATM   12  C17 UNL     1      -4.179  -2.276  -0.320  1.00  0.00     0.003 A 
HETATM   13  C18 UNL     1      -2.806  -2.210  -0.273  1.00  0.00     0.031 A 
HETATM   14  C19 UNL     1      -2.142  -1.011  -0.139  1.00  0.00     0.049 A 
HETATM   15  C20 UNL     1      -2.938   0.138  -0.054  1.00  0.00     0.028 A 
ENDROOT
BRANCH   3  16
HETATM   16  C3  UNL     1       1.231   0.356   0.093  1.00  0.00    -0.024 C 
BRANCH  16  17
HETATM   17  C4  UNL     1       2.435   0.426   0.155  1.00  0.00    -0.059 C 
BRANCH  17  18
HETATM   18  C5  UNL     1       3.859   0.503   0.254  1.00  0.00     0.018 A 
HETATM   19  C6  UNL     1       4.584   0.780  -0.892  1.00  0.00     0.020 A 
HETATM   20  C7  UNL     1       5.959   0.862  -0.832  1.00  0.00     0.001 A 
HETATM   21  C8  UNL     1       6.652   0.677   0.338  1.00  0.00     0.000 A 
HETATM   22  C9  UNL     1       5.946   0.402   1.486  1.00  0.00     0.001 A 
HETATM   23  C10 UNL     1       4.572   0.321   1.419  1.00  0.00     0.020 A 
ENDBRANCH  17  18
ENDBRANCH  16  17
ENDBRANCH   3  16
TORSDOF 3
