REMARK  2 active torsions:
REMARK  status: ('A' for Active; 'I' for Inactive)
REMARK    1  A    between atoms: C1_1  and  C15_19 
REMARK    2  A    between atoms: C2_2  and  C3_3 
ROOT
HETATM    1  C3  UNL     1      -0.476  -0.329   0.495  1.00  0.00     0.020 A 
HETATM    2  C4  UNL     1      -0.099  -1.079   1.593  1.00  0.00     0.023 A 
HETATM    3  C5  UNL     1       1.216  -1.346   1.910  1.00  0.00     0.033 A 
HETATM    4  C6  UNL     1       2.186  -0.821   1.063  1.00  0.00     0.059 A 
HETATM    5  N1  UNL     1       3.484  -1.079   1.367  1.00  0.00    -0.353 N 
ATOM      6  H1  UNL     1       3.724  -1.637   2.187  1.00  0.00     0.166 HD
HETATM    7  C7  UNL     1       4.447  -0.587   0.570  1.00  0.00     0.059 A 
HETATM    8  C8  UNL     1       5.759  -0.860   0.895  1.00  0.00     0.032 A 
HETATM    9  C9  UNL     1       6.755  -0.356   0.079  1.00  0.00     0.002 A 
HETATM   10  C10 UNL     1       6.469   0.402  -1.037  1.00  0.00     0.002 A 
HETATM   11  C11 UNL     1       5.151   0.664  -1.345  1.00  0.00     0.032 A 
HETATM   12  C12 UNL     1       4.129   0.170  -0.542  1.00  0.00     0.059 A 
HETATM   13  N2  UNL     1       2.836   0.414  -0.825  1.00  0.00    -0.353 N 
ATOM     14  H2  UNL     1       2.600   0.973  -1.645  1.00  0.00     0.166 HD
HETATM   15  C13 UNL     1       1.842  -0.069  -0.040  1.00  0.00     0.061 A 
HETATM   16  C14 UNL     1       0.498   0.186  -0.337  1.00  0.00     0.052 A 
ENDROOT
BRANCH   1  17
HETATM   17  C2  UNL     1      -1.861  -0.072   0.198  1.00  0.00    -0.061 C 
HETATM   18  C1  UNL     1      -3.041   0.140  -0.035  1.00  0.00    -0.061 C 
BRANCH  18  19
HETATM   19  C15 UNL     1      -4.430   0.379  -0.288  1.00  0.00     0.018 A 
HETATM   20  C16 UNL     1      -5.401   0.234   0.678  1.00  0.00     0.020 A 
HETATM   21  C17 UNL     1      -6.737   0.466   0.427  1.00  0.00     0.001 A 
HETATM   22  C18 UNL     1      -7.126   0.857  -0.830  1.00  0.00     0.000 A 
HETATM   23  C19 UNL     1      -6.181   1.010  -1.816  1.00  0.00     0.001 A 
HETATM   24  C20 UNL     1      -4.860   0.772  -1.538  1.00  0.00     0.020 A 
ENDBRANCH  18  19
ENDBRANCH   1  17
TORSDOF 2
