REMARK  11 active torsions:
REMARK  status: ('A' for Active; 'I' for Inactive)
REMARK    1  A    between atoms: C2_2  and  C3_3 
REMARK       I    between atoms: C3_3  and  N1_5 
REMARK    2  A    between atoms: C9_11  and  C10_12 
REMARK    3  A    between atoms: C9_11  and  C11_15 
REMARK    4  A    between atoms: C10_12  and  O2_13 
REMARK    5  A    between atoms: C11_15  and  O4_17 
REMARK    6  A    between atoms: O4_17  and  C12_18 
REMARK    7  A    between atoms: N2_20  and  C14_21 
REMARK    8  A    between atoms: C14_21  and  C15_23 
REMARK    9  A    between atoms: C15_23  and  S2_24 
REMARK   10  A    between atoms: S2_24  and  C16_25 
REMARK   11  A    between atoms: C16_25  and  N3_27 
ROOT
HETATM    1  C3  UNL     1      -3.932  -2.084  -0.665  1.00  0.00     0.243 C 
HETATM    2  O1  UNL     1      -3.745  -3.079  -1.450  1.00  0.00    -0.268 OA
HETATM    3  N1  UNL     1      -2.903  -1.781   0.235  1.00  0.00    -0.339 N 
HETATM    4  C4  UNL     1      -1.690  -2.569   0.261  1.00  0.00     0.152 C 
HETATM    5  C5  UNL     1      -0.793  -1.929   1.300  1.00  0.00     0.104 C 
HETATM    6  C6  UNL     1      -1.482  -1.926   2.637  1.00  0.00     0.029 C 
HETATM    7  C7  UNL     1      -2.841  -1.275   2.555  1.00  0.00     0.030 C 
HETATM    8  C8  UNL     1      -2.980  -0.692   1.169  1.00  0.00     0.128 C 
HETATM    9  C9  UNL     1      -1.771   0.284   0.901  1.00  0.00     0.164 C 
HETATM   10  N2  UNL     1      -0.601  -0.516   0.866  1.00  0.00    -0.346 N 
ENDROOT
BRANCH  10  11
HETATM   11  C14 UNL     1       0.704  -0.198   0.430  1.00  0.00     0.087 C 
HETATM   12  S1  UNL     1       1.782  -1.472   0.383  1.00  0.00    -0.065 SA
BRANCH  11  13
HETATM   13  C15 UNL     1       1.227   1.078  -0.021  1.00  0.00     0.151 C 
BRANCH  13  14
HETATM   14  S2  UNL     1       2.775   0.823  -0.955  1.00  0.00    -0.094 SA
BRANCH  14  15
HETATM   15  C16 UNL     1       4.141   0.401   0.105  1.00  0.00     0.137 C 
HETATM   16  S3  UNL     1       3.937   0.572   1.735  1.00  0.00    -0.053 SA
BRANCH  15  17
HETATM   17  N3  UNL     1       5.386  -0.030  -0.403  1.00  0.00    -0.362 N 
HETATM   18  C17 UNL     1       6.453  -0.357   0.495  1.00  0.00     0.150 C 
HETATM   19  C18 UNL     1       7.802   0.078  -0.047  1.00  0.00     0.187 C 
HETATM   20  O5  UNL     1       7.914  -0.068  -1.408  1.00  0.00    -0.388 OA
HETATM   21  C19 UNL     1       6.916   0.542  -2.136  1.00  0.00     0.187 C 
HETATM   22  C20 UNL     1       5.578  -0.139  -1.821  1.00  0.00     0.150 C 
ENDBRANCH  15  17
ENDBRANCH  14  15
ENDBRANCH  13  14
ENDBRANCH  11  13
ENDBRANCH  10  11
BRANCH   9  23
HETATM   23  C10 UNL     1      -1.829   1.296   1.969  1.00  0.00     0.208 C 
BRANCH  23  24
HETATM   24  O2  UNL     1      -0.860   2.258   1.907  1.00  0.00    -0.398 OA
ATOM     25  H2  UNL     1      -0.897   2.911   2.596  1.00  0.00     0.209 HD
ENDBRANCH  23  24
ENDBRANCH   9  23
BRANCH   9  26
HETATM   26  C11 UNL     1      -2.118   0.847  -0.448  1.00  0.00     0.291 C 
HETATM   27  O3  UNL     1      -1.587   0.328  -1.449  1.00  0.00    -0.262 OA
BRANCH  26  28
HETATM   28  O4  UNL     1      -2.990   1.900  -0.612  1.00  0.00    -0.320 OA
BRANCH  28  29
HETATM   29  C12 UNL     1      -3.311   2.427  -1.903  1.00  0.00     0.174 C 
HETATM   30  C13 UNL     1      -4.282   3.564  -1.762  1.00  0.00     0.034 C 
ENDBRANCH  28  29
ENDBRANCH  26  28
ENDBRANCH   9  26
BRANCH   1  31
HETATM   31  C2  UNL     1      -5.186  -1.378  -0.789  1.00  0.00     0.064 C 
HETATM   32  C1  UNL     1      -6.071  -1.775  -1.687  1.00  0.00     0.017 C 
ENDBRANCH   1  31
TORSDOF 11
