REMARK  8 active torsions:
REMARK  status: ('A' for Active; 'I' for Inactive)
REMARK    1  A    between atoms: O1_2  and  C2_3 
REMARK    2  A    between atoms: C2_3  and  C3_4 
REMARK    3  A    between atoms: C3_4  and  N1_5 
REMARK       I    between atoms: N1_5  and  C5_8 
REMARK    4  A    between atoms: C5_8  and  C6_10 
REMARK    5  A    between atoms: C7_11  and  C8_12 
REMARK       I    between atoms: C8_12  and  N3_14 
REMARK    6  A    between atoms: N3_14  and  C9_16 
REMARK       I    between atoms: N5_23  and  C14_24 
REMARK    7  A    between atoms: C14_24  and  O5_26 
REMARK    8  A    between atoms: O5_26  and  C15_27 
REMARK       I    between atoms: N6_34  and  C22_35 
ROOT
HETATM    1  N1  UNL     1      -2.345  -1.191   1.631  1.00  0.00    -0.247 N 
HETATM    2  C4  UNL     1      -3.105  -0.919   2.804  1.00  0.00     0.187 C 
HETATM    3  N2  UNL     1      -3.705  -0.686   3.764  1.00  0.00    -0.172 NA
HETATM    4  C5  UNL     1      -1.362  -0.229   1.200  1.00  0.00     0.282 C 
HETATM    5  O2  UNL     1      -1.289   0.791   1.977  1.00  0.00    -0.265 OA
ENDROOT
BRANCH   1   6
HETATM    6  C3  UNL     1      -2.605  -2.427   0.955  1.00  0.00     0.170 C 
BRANCH   6   7
HETATM    7  C2  UNL     1      -3.710  -2.329  -0.052  1.00  0.00     0.188 C 
BRANCH   7   8
HETATM    8  O1  UNL     1      -4.924  -1.983   0.483  1.00  0.00    -0.394 OA
HETATM    9  C1  UNL     1      -5.520  -2.916   1.295  1.00  0.00     0.201 C 
ENDBRANCH   7   8
ENDBRANCH   6   7
ENDBRANCH   1   6
BRANCH   4  10
HETATM   10  C6  UNL     1      -0.520  -0.325   0.060  1.00  0.00     0.116 C 
HETATM   11  C7  UNL     1       0.896   0.212   0.170  1.00  0.00     0.238 C 
HETATM   12  N5  UNL     1       1.621  -0.584  -0.854  1.00  0.00    -0.307 N 
HETATM   13  C14 UNL     1       2.783  -1.250  -0.440  1.00  0.00     0.364 C 
HETATM   14  C19 UNL     1       1.136  -0.649  -2.177  1.00  0.00     0.154 C 
HETATM   15  O4  UNL     1       3.423  -1.933  -1.277  1.00  0.00    -0.238 OA
HETATM   16  C20 UNL     1      -0.382  -0.711  -2.312  1.00  0.00     0.107 C 
HETATM   17  C21 UNL     1      -0.753  -0.463  -3.709  1.00  0.00     0.034 C 
HETATM   18  N6  UNL     1      -1.064   0.030  -1.269  1.00  0.00    -0.309 N 
HETATM   19  C22 UNL     1      -2.085   0.962  -1.405  1.00  0.00     0.220 C 
HETATM   20  C23 UNL     1      -2.748   1.459  -2.625  1.00  0.00     0.117 C 
HETATM   21  O6  UNL     1      -2.546   1.494  -0.330  1.00  0.00    -0.273 OA
BRANCH  11  22
HETATM   22  C8  UNL     1       1.061   1.634  -0.100  1.00  0.00     0.252 C 
HETATM   23  O3  UNL     1       1.637   1.980  -1.171  1.00  0.00    -0.270 OA
HETATM   24  N3  UNL     1       0.626   2.640   0.755  1.00  0.00    -0.311 N 
ATOM     25  H3  UNL     1       0.716   2.415   1.746  1.00  0.00     0.170 HD
BRANCH  24  26
HETATM   26  C9  UNL     1       0.140   3.781   0.525  1.00  0.00     0.107 A 
HETATM   27  C10 UNL     1      -0.099   4.356  -0.694  1.00  0.00     0.048 A 
HETATM   28  C11 UNL     1      -0.633   5.617  -0.791  1.00  0.00     0.005 A 
HETATM   29  C12 UNL     1      -0.951   6.357   0.352  1.00  0.00     0.017 A 
HETATM   30  C13 UNL     1      -0.699   5.752   1.554  1.00  0.00     0.089 A 
HETATM   31  N4  UNL     1      -0.181   4.528   1.628  1.00  0.00    -0.352 N 
ATOM     32  H4  UNL     1      -0.015   4.127   2.551  1.00  0.00     0.166 HD
ENDBRANCH  24  26
ENDBRANCH  11  22
BRANCH  13  33
HETATM   33  O5  UNL     1       3.287  -1.208   0.851  1.00  0.00    -0.294 OA
BRANCH  33  34
HETATM   34  C15 UNL     1       4.444  -1.868   1.271  1.00  0.00     0.061 C 
HETATM   35  C16 UNL     1       4.633  -1.554   2.759  1.00  0.00     0.046 C 
HETATM   36  C17 UNL     1       4.384  -3.358   1.141  1.00  0.00     0.046 C 
HETATM   37  C18 UNL     1       5.692  -1.372   0.566  1.00  0.00     0.046 C 
ENDBRANCH  33  34
ENDBRANCH  13  33
ENDBRANCH   4  10
TORSDOF 8
