REMARK  7 active torsions:
REMARK  status: ('A' for Active; 'I' for Inactive)
REMARK       I    between atoms: N1_2  and  C2_4 
REMARK    1  A    between atoms: C2_4  and  C3_6 
REMARK    2  A    between atoms: N3_21  and  C13_22 
REMARK    3  A    between atoms: C13_22  and  C14_23 
REMARK    4  A    between atoms: C14_23  and  O6_24 
REMARK    5  A    between atoms: O6_24  and  C15_25 
REMARK    6  A    between atoms: C15_25  and  N4_27 
REMARK    7  A    between atoms: N4_27  and  C16_29 
ROOT
HETATM    1  C3  UNL     1      -2.634  -0.799  -0.637  1.00  0.00     0.121 C 
HETATM    2  C4  UNL     1      -3.345  -0.071  -1.785  1.00  0.00     0.052 C 
HETATM    3  C5  UNL     1      -3.514   1.347  -1.360  1.00  0.00     0.158 C 
HETATM    4  O2  UNL     1      -4.834   1.775  -1.340  1.00  0.00    -0.348 OA
HETATM    5  C6  UNL     1      -5.142   2.153  -0.056  1.00  0.00     0.158 C 
HETATM    6  C7  UNL     1      -4.757   3.570   0.263  1.00  0.00     0.078 C 
HETATM    7  C8  UNL     1      -6.565   1.919   0.345  1.00  0.00     0.078 C 
HETATM    8  O3  UNL     1      -4.325   1.321   0.734  1.00  0.00    -0.345 OA
HETATM    9  C9  UNL     1      -3.127   1.443   0.114  1.00  0.00     0.192 C 
HETATM   10  C10 UNL     1      -2.168   0.283   0.228  1.00  0.00     0.133 C 
HETATM   11  O4  UNL     1      -1.019   0.838  -0.414  1.00  0.00    -0.260 OA
HETATM   12  N2  UNL     1      -0.003  -0.004  -0.525  1.00  0.00    -0.217 N 
HETATM   13  C11 UNL     1       0.657  -0.287  -1.773  1.00  0.00     0.272 C 
HETATM   14  O5  UNL     1       0.127   0.067  -2.849  1.00  0.00    -0.269 OA
HETATM   15  C12 UNL     1       1.946  -0.985  -1.786  1.00  0.00     0.377 C 
HETATM   16  N3  UNL     1       2.199  -1.863  -0.700  1.00  0.00     0.101 N 
HETATM   17  C19 UNL     1       1.147  -2.011   0.255  1.00  0.00     0.300 C 
HETATM   18  C20 UNL     1       0.513  -0.678   0.627  1.00  0.00     0.147 C 
HETATM   19  C21 UNL     1      -0.528  -0.953   1.635  1.00  0.00     0.037 C 
HETATM   20  C22 UNL     1      -1.705   0.000   1.597  1.00  0.00     0.024 C 
HETATM   21  C23 UNL     1      -2.658  -0.438   2.630  1.00  0.00     0.013 C 
ENDROOT
BRANCH   1  22
HETATM   22  C2  UNL     1      -3.443  -1.876  -0.100  1.00  0.00     0.228 C 
HETATM   23  N1  UNL     1      -4.760  -1.618   0.357  1.00  0.00    -0.347 N 
HETATM   24  C1  UNL     1      -5.764  -2.377   0.071  1.00  0.00     0.121 C 
ATOM     25  H1  UNL     1      -4.921  -0.795   0.938  1.00  0.00     0.167 HD
HETATM   26  O1  UNL     1      -3.055  -3.068  -0.003  1.00  0.00    -0.273 OA
ENDBRANCH   1  22
BRANCH  16  27
HETATM   27  C13 UNL     1       3.501  -1.663  -0.067  1.00  0.00     0.299 C 
BRANCH  27  28
HETATM   28  C14 UNL     1       4.534  -2.113  -1.067  1.00  0.00     0.208 C 
BRANCH  28  29
HETATM   29  O6  UNL     1       5.835  -2.056  -0.742  1.00  0.00    -0.325 OA
BRANCH  29  30
HETATM   30  C15 UNL     1       6.747  -1.151  -0.416  1.00  0.00     0.210 C 
HETATM   31  S1  UNL     1       8.342  -1.414  -0.871  1.00  0.00    -0.033 SA
BRANCH  30  32
HETATM   32  N4  UNL     1       6.523   0.045   0.291  1.00  0.00    -0.357 N 
ATOM     33  H4  UNL     1       5.589   0.297   0.613  1.00  0.00     0.162 HD
BRANCH  32  34
HETATM   34  C16 UNL     1       7.674   0.921   0.552  1.00  0.00     0.084 A 
HETATM   35  C17 UNL     1       8.422   1.435  -0.655  1.00  0.00     0.027 A 
HETATM   36  C18 UNL     1       7.567   2.347   0.178  1.00  0.00     0.027 A 
ENDBRANCH  32  34
ENDBRANCH  30  32
ENDBRANCH  29  30
ENDBRANCH  28  29
ENDBRANCH  27  28
ENDBRANCH  16  27
TORSDOF 7
