REMARK  1 active torsions:
REMARK  status: ('A' for Active; 'I' for Inactive)
REMARK    1  A    between atoms: C3_4  and  C4_5 
ROOT
HETATM    1  C4  UNL     1       0.533   1.004  -0.288  1.00  0.00     0.156 C 
HETATM    2  N2  UNL     1       0.522   2.086  -1.174  1.00  0.00    -0.346 N 
ATOM      3  H2  UNL     1       0.751   1.905  -2.151  1.00  0.00     0.163 HD
HETATM    4  C5  UNL     1       0.246   3.277  -0.840  1.00  0.00     0.221 A 
HETATM    5  N3  UNL     1      -0.037   4.656  -0.624  1.00  0.00    -0.257 N 
ATOM      6  H3  UNL     1       0.033   5.644  -0.867  1.00  0.00     0.191 HD
HETATM    7  N4  UNL     1      -0.510   3.542   0.226  1.00  0.00    -0.184 N 
HETATM    8  C6  UNL     1      -1.241   2.909   1.273  1.00  0.00     0.280 C 
HETATM    9  O1  UNL     1      -0.835   2.986   2.450  1.00  0.00    -0.265 OA
HETATM   10  C7  UNL     1      -2.502   2.143   1.097  1.00  0.00     0.045 A 
HETATM   11  C8  UNL     1      -3.603   2.928   1.567  1.00  0.00     0.018 A 
HETATM   12  C9  UNL     1      -4.900   2.618   1.291  1.00  0.00     0.001 A 
HETATM   13  C10 UNL     1      -5.142   1.503   0.528  1.00  0.00     0.001 A 
HETATM   14  C11 UNL     1      -4.095   0.743   0.084  1.00  0.00     0.013 A 
HETATM   15  C12 UNL     1      -2.733   1.024   0.361  1.00  0.00    -0.007 A 
HETATM   16  C13 UNL     1      -1.783  -0.088   0.048  1.00  0.00     0.012 A 
HETATM   17  C14 UNL     1      -0.491  -0.046  -0.307  1.00  0.00    -0.002 A 
HETATM   18  C15 UNL     1      -0.107  -1.391  -0.566  1.00  0.00     0.107 A 
HETATM   19  N5  UNL     1      -1.122  -2.217  -0.362  1.00  0.00    -0.331 N 
HETATM   20  C16 UNL     1      -1.189  -3.581  -0.441  1.00  0.00     0.096 A 
HETATM   21  C17 UNL     1      -2.347  -4.237  -0.121  1.00  0.00     0.018 A 
HETATM   22  C18 UNL     1      -3.440  -3.524   0.282  1.00  0.00     0.004 A 
HETATM   23  C19 UNL     1      -3.341  -2.149   0.350  1.00  0.00     0.031 A 
HETATM   24  C20 UNL     1      -2.171  -1.475   0.020  1.00  0.00     0.050 A 
ENDROOT
BRANCH   1  25
HETATM   25  C3  UNL     1       1.963   0.451  -0.464  1.00  0.00    -0.003 A 
HETATM   26  C2  UNL     1       2.793   0.608  -1.547  1.00  0.00     0.101 A 
HETATM   27  N1  UNL     1       3.967  -0.032  -1.324  1.00  0.00    -0.360 N 
HETATM   28  C1  UNL     1       5.083  -0.080  -2.251  1.00  0.00     0.155 C 
HETATM   29  C26 UNL     1       3.923  -0.610  -0.107  1.00  0.00     0.044 A 
HETATM   30  C21 UNL     1       2.673  -0.311   0.433  1.00  0.00     0.001 A 
HETATM   31  C25 UNL     1       4.839  -1.363   0.585  1.00  0.00     0.030 A 
HETATM   32  C22 UNL     1       2.379  -0.794   1.688  1.00  0.00     0.014 A 
HETATM   33  C23 UNL     1       3.304  -1.549   2.374  1.00  0.00     0.001 A 
HETATM   34  C24 UNL     1       4.545  -1.847   1.840  1.00  0.00     0.002 A 
ENDBRANCH   1  25
TORSDOF 1
