REMARK  18 active torsions:
REMARK  status: ('A' for Active; 'I' for Inactive)
REMARK    1  A    between atoms: C2_2  and  C5_5 
REMARK    2  A    between atoms: C5_5  and  C6_6 
REMARK    3  A    between atoms: C7_7  and  C8_8 
REMARK    4  A    between atoms: C8_8  and  C10_10 
REMARK    5  A    between atoms: C8_8  and  C19_27 
REMARK    6  A    between atoms: C10_10  and  C11_11 
REMARK    7  A    between atoms: C11_11  and  C12_12 
REMARK    8  A    between atoms: C12_12  and  C13_13 
REMARK    9  A    between atoms: C12_12  and  N1_16 
REMARK   10  A    between atoms: C13_13  and  O1_14 
REMARK   11  A    between atoms: N1_16  and  C14_18 
REMARK   12  A    between atoms: C14_18  and  C15_19 
REMARK   13  A    between atoms: C15_19  and  C16_20 
REMARK   14  A    between atoms: C19_27  and  C20_28 
REMARK   15  A    between atoms: C20_28  and  C21_29 
REMARK   16  A    between atoms: C27_35  and  O2_36 
REMARK   17  A    between atoms: C28_38  and  O3_39 
REMARK   18  A    between atoms: C38_50  and  O4_51 
ROOT
HETATM    1  C8  UNL     1       1.396   2.059   0.816  1.00  0.00     0.020 C 
HETATM    2  C9  UNL     1       0.817   2.590   2.104  1.00  0.00     0.029 C 
ENDROOT
BRANCH   1   3
HETATM    3  C7  UNL     1       2.142   3.129   0.131  1.00  0.00    -0.097 C 
HETATM    4  C6  UNL     1       2.763   3.987  -0.442  1.00  0.00    -0.105 C 
BRANCH   4   5
HETATM    5  C5  UNL     1       3.524   5.000  -1.149  1.00  0.00     0.102 C 
BRANCH   5   6
HETATM    6  C2  UNL     1       2.750   6.316  -1.087  1.00  0.00    -0.041 C 
HETATM    7  C1  UNL     1       3.463   7.423  -1.796  1.00  0.00     0.015 C 
HETATM    8  C3  UNL     1       2.525   6.708   0.353  1.00  0.00     0.015 C 
HETATM    9  C4  UNL     1       1.398   6.044  -1.721  1.00  0.00     0.015 C 
ENDBRANCH   5   6
ENDBRANCH   4   5
ENDBRANCH   1   3
BRANCH   1  10
HETATM   10  C10 UNL     1       2.393   0.960   1.185  1.00  0.00     0.024 C 
BRANCH  10  11
HETATM   11  C11 UNL     1       3.053   0.397  -0.023  1.00  0.00     0.028 C 
BRANCH  11  12
HETATM   12  C12 UNL     1       4.081  -0.701   0.289  1.00  0.00     0.100 C 
BRANCH  12  13
HETATM   13  C13 UNL     1       5.180  -0.186   1.151  1.00  0.00     0.188 C 
BRANCH  13  14
HETATM   14  O1  UNL     1       6.094  -1.124   1.589  1.00  0.00    -0.399 OA
ATOM     15  H1  UNL     1       6.795  -0.795   2.139  1.00  0.00     0.209 HD
ENDBRANCH  13  14
ENDBRANCH  12  13
BRANCH  12  16
HETATM   16  N1  UNL     1       4.555  -1.284  -0.904  1.00  0.00    -0.415 N 
ATOM     17  H1  UNL     1       4.198  -0.955  -1.801  1.00  0.00     0.153 HD
BRANCH  16  18
HETATM   18  C14 UNL     1       5.511  -2.310  -0.875  1.00  0.00     0.120 C 
BRANCH  18  19
HETATM   19  C15 UNL     1       4.972  -3.611  -0.263  1.00  0.00     0.077 C 
BRANCH  19  20
HETATM   20  C16 UNL     1       6.078  -4.631  -0.279  1.00  0.00     0.027 A 
HETATM   21  C17 UNL     1       6.995  -4.828   0.727  1.00  0.00     0.114 A 
HETATM   22  N2  UNL     1       7.814  -5.814   0.345  1.00  0.00    -0.360 N 
HETATM   23  C18 UNL     1       7.435  -6.230  -0.858  1.00  0.00     0.180 A 
ATOM     24  H2  UNL     1       8.596  -6.183   0.885  1.00  0.00     0.166 HD
HETATM   25  N3  UNL     1       6.366  -5.503  -1.244  1.00  0.00    -0.355 N 
ATOM     26  H3  UNL     1       5.863  -5.604  -2.126  1.00  0.00     0.166 HD
ENDBRANCH  19  20
ENDBRANCH  18  19
ENDBRANCH  16  18
ENDBRANCH  12  16
ENDBRANCH  11  12
ENDBRANCH  10  11
ENDBRANCH   1  10
BRANCH   1  27
HETATM   27  C19 UNL     1       0.352   1.560  -0.149  1.00  0.00     0.022 C 
BRANCH  27  28
HETATM   28  C20 UNL     1      -0.437   0.480   0.495  1.00  0.00     0.007 C 
BRANCH  28  29
HETATM   29  C21 UNL     1      -1.520  -0.073  -0.436  1.00  0.00    -0.009 C 
HETATM   30  C22 UNL     1      -0.913  -0.653  -1.689  1.00  0.00     0.005 C 
HETATM   31  C23 UNL     1      -1.573  -2.002  -1.887  1.00  0.00     0.006 C 
HETATM   32  C24 UNL     1      -1.950  -2.407  -0.503  1.00  0.00    -0.001 C 
HETATM   33  C25 UNL     1      -2.253  -1.127   0.283  1.00  0.00     0.008 C 
HETATM   34  C32 UNL     1      -3.249  -3.217  -0.444  1.00  0.00    -0.039 C 
HETATM   35  C26 UNL     1      -3.715  -0.991   0.397  1.00  0.00     0.023 C 
HETATM   36  C27 UNL     1      -4.188  -1.126   1.839  1.00  0.00     0.159 C 
HETATM   37  C31 UNL     1      -4.248  -2.137  -0.462  1.00  0.00     0.008 C 
HETATM   38  C38 UNL     1      -4.334   0.257  -0.152  1.00  0.00     0.138 C 
HETATM   39  C28 UNL     1      -5.682  -1.231   1.947  1.00  0.00     0.152 C 
HETATM   40  C29 UNL     1      -6.240  -1.236   0.543  1.00  0.00     0.028 C 
HETATM   41  C30 UNL     1      -5.646  -2.481  -0.131  1.00  0.00     0.014 C 
HETATM   42  C35 UNL     1      -5.852   0.028  -0.177  1.00  0.00    -0.015 C 
HETATM   43  C36 UNL     1      -6.376  -0.017  -1.595  1.00  0.00     0.018 C 
HETATM   44  C37 UNL     1      -6.570   1.165   0.520  1.00  0.00     0.018 C 
HETATM   45  C33 UNL     1      -3.195  -4.045   0.794  1.00  0.00     0.015 C 
HETATM   46  C34 UNL     1      -3.382  -4.122  -1.649  1.00  0.00     0.015 C 
BRANCH  36  47
HETATM   47  O2  UNL     1      -3.784   0.053   2.498  1.00  0.00    -0.392 OA
ATOM     48  H2  UNL     1      -4.079  -0.031   3.397  1.00  0.00     0.210 HD
ENDBRANCH  36  47
BRANCH  39  49
HETATM   49  O3  UNL     1      -6.255  -0.293   2.763  1.00  0.00    -0.393 OA
ATOM     50  H3  UNL     1      -7.200  -0.359   2.831  1.00  0.00     0.210 HD
ENDBRANCH  39  49
BRANCH  38  51
HETATM   51  O4  UNL     1      -4.096   1.397   0.562  1.00  0.00    -0.394 OA
ATOM     52  H4  UNL     1      -4.489   2.189   0.214  1.00  0.00     0.210 HD
ENDBRANCH  38  51
ENDBRANCH  28  29
ENDBRANCH  27  28
ENDBRANCH   1  27
TORSDOF 18
