REMARK  5 active torsions:
REMARK  status: ('A' for Active; 'I' for Inactive)
REMARK    1  A    between atoms: C2_2  and  C4_5 
REMARK    2  A    between atoms: C7_8  and  N1_9 
REMARK    3  A    between atoms: C9_11  and  O1_12 
REMARK    4  A    between atoms: N2_14  and  C10_15 
REMARK    5  A    between atoms: C10_15  and  C11_16 
ROOT
HETATM    1  N1  UNL     1       0.463   1.015  -0.349  1.00  0.00    -0.295 N 
HETATM    2  C8  UNL     1       0.118   2.295  -0.556  1.00  0.00     0.155 A 
HETATM    3  C9  UNL     1      -1.219   2.432  -0.757  1.00  0.00     0.160 A 
HETATM    4  N2  UNL     1      -1.738   1.163  -0.670  1.00  0.00    -0.303 N 
HETATM    5  C16 UNL     1      -0.718   0.328  -0.426  1.00  0.00     0.187 A 
HETATM    6  S1  UNL     1      -0.838  -1.283  -0.277  1.00  0.00    -0.040 SA
ENDROOT
BRANCH   1   7
HETATM    7  C7  UNL     1       1.753   0.469  -0.102  1.00  0.00     0.043 A 
HETATM    8  C6  UNL     1       2.594   0.946   0.882  1.00  0.00     0.031 A 
HETATM    9  C5  UNL     1       3.848   0.385   1.091  1.00  0.00     0.013 A 
HETATM   10  C4  UNL     1       4.317  -0.670   0.334  1.00  0.00    -0.014 A 
HETATM   11  C18 UNL     1       3.453  -1.136  -0.651  1.00  0.00     0.044 A 
HETATM   12  C17 UNL     1       2.228  -0.585  -0.853  1.00  0.00     0.054 A 
HETATM   13 CL2  UNL     1       4.083  -2.473  -1.586  1.00  0.00    -0.084 Cl
BRANCH  10  14
HETATM   14  C2  UNL     1       5.626  -1.203   0.606  1.00  0.00     0.058 C 
HETATM   15  C1  UNL     1       6.479  -1.061  -0.640  1.00  0.00     0.037 C 
HETATM   16  C3  UNL     1       5.746  -2.593   1.093  1.00  0.00     0.037 C 
HETATM   17 CL1  UNL     1       6.413  -0.164   1.840  1.00  0.00    -0.115 Cl
ENDBRANCH  10  14
ENDBRANCH   1   7
BRANCH   3  18
HETATM   18  O1  UNL     1      -1.960   3.595  -1.005  1.00  0.00    -0.345 OA
ATOM     19  H1  UNL     1      -2.895   3.691  -1.146  1.00  0.00     0.219 HD
ENDBRANCH   3  18
BRANCH   4  20
HETATM   20  C10 UNL     1      -3.145   0.921  -0.867  1.00  0.00     0.138 C 
BRANCH  20  21
HETATM   21  C11 UNL     1      -3.963   1.127   0.349  1.00  0.00     0.007 C 
HETATM   22  C12 UNL     1      -3.679   0.299   1.542  1.00  0.00     0.025 C 
HETATM   23  C13 UNL     1      -4.301  -1.030   1.462  1.00  0.00     0.114 C 
HETATM   24  N3  UNL     1      -4.851  -1.430   0.218  1.00  0.00    -0.421 N 
HETATM   25  C14 UNL     1      -5.603  -0.453  -0.489  1.00  0.00     0.114 C 
ATOM     26  H3  UNL     1      -4.714  -2.371  -0.151  1.00  0.00     0.153 HD
HETATM   27  C15 UNL     1      -5.459   0.941   0.045  1.00  0.00     0.025 C 
ENDBRANCH  20  21
ENDBRANCH   4  20
TORSDOF 5
