REMARK  4 active torsions:
REMARK  status: ('A' for Active; 'I' for Inactive)
REMARK    1  A    between atoms: C3_3  and  O1_4 
REMARK    2  A    between atoms: C6_8  and  C7_9 
REMARK    3  A    between atoms: C9_11  and  N1_12 
REMARK    4  A    between atoms: C13_23  and  C14_24 
ROOT
HETATM    1  C1  UNL     1      -3.955  -2.051   0.744  1.00  0.00     0.018 C 
HETATM    2  C2  UNL     1      -2.673  -1.981   0.771  1.00  0.00    -0.042 C 
HETATM    3  C3  UNL     1      -1.654  -2.838   0.159  1.00  0.00     0.148 C 
HETATM    4  C4  UNL     1      -0.377  -2.001   0.001  1.00  0.00     0.043 C 
HETATM    5  C5  UNL     1      -0.676  -0.611  -0.529  1.00  0.00     0.029 C 
HETATM    6  C6  UNL     1       0.457   0.106  -1.096  1.00  0.00     0.225 C 
HETATM    7  N2  UNL     1       0.632   1.411  -0.307  1.00  0.00    -0.062 N 
ATOM      8  H21 UNL     1       1.468   1.934  -0.569  1.00  0.00     0.278 HD
ATOM      9  H22 UNL     1       0.879   1.262   0.672  1.00  0.00     0.278 HD
HETATM   10  C13 UNL     1      -0.580   2.153  -0.481  1.00  0.00     0.186 C 
HETATM   11  C16 UNL     1      -1.534   1.494   0.548  1.00  0.00     0.039 C 
HETATM   12  C17 UNL     1      -1.705   0.073   0.266  1.00  0.00     0.017 C 
HETATM   13  C18 UNL     1      -2.063  -0.753   1.487  1.00  0.00     0.117 C 
HETATM   14 CL3  UNL     1      -3.287  -0.006   2.489  1.00  0.00    -0.120 Cl
ENDROOT
BRANCH   6  15
HETATM   15  C7  UNL     1       1.834  -0.446  -0.873  1.00  0.00    -0.003 A 
HETATM   16  C8  UNL     1       2.389  -0.701   0.352  1.00  0.00     0.048 A 
HETATM   17  C9  UNL     1       3.724  -1.027   0.525  1.00  0.00     0.125 A 
HETATM   18  C10 UNL     1       4.551  -1.112  -0.562  1.00  0.00     0.068 A 
HETATM   19 CL1  UNL     1       6.249  -1.543  -0.365  1.00  0.00    -0.082 Cl
HETATM   20  C11 UNL     1       4.053  -0.863  -1.811  1.00  0.00     0.051 A 
HETATM   21  C12 UNL     1       2.724  -0.535  -1.960  1.00  0.00     0.044 A 
HETATM   22 CL2  UNL     1       2.075  -0.258  -3.552  1.00  0.00    -0.084 Cl
BRANCH  17  23
HETATM   23  N1  UNL     1       4.291  -1.191   1.831  1.00  0.00    -0.114 N 
HETATM   24  O2  UNL     1       3.610  -1.505   2.820  1.00  0.00    -0.532 OA
HETATM   25  O3  UNL     1       5.649  -0.976   2.017  1.00  0.00    -0.532 OA
ENDBRANCH  17  23
ENDBRANCH   6  15
BRANCH  10  26
HETATM   26  C14 UNL     1      -0.356   3.574   0.008  1.00  0.00     0.028 C 
HETATM   27  C15 UNL     1      -1.542   4.472  -0.172  1.00  0.00     0.007 C 
ENDBRANCH  10  26
BRANCH   3  28
HETATM   28  O1  UNL     1      -2.067  -3.371  -1.068  1.00  0.00    -0.391 OA
ATOM     29  H1  UNL     1      -1.406  -3.927  -1.465  1.00  0.00     0.210 HD
ENDBRANCH   3  28
TORSDOF 4
