REMARK  15 active torsions:
REMARK  status: ('A' for Active; 'I' for Inactive)
REMARK    1  A    between atoms: C3_4  and  O2_5 
REMARK    2  A    between atoms: O2_5  and  C4_6 
REMARK    3  A    between atoms: C5_7  and  O3_8 
REMARK    4  A    between atoms: C6_10  and  O4_11 
REMARK    5  A    between atoms: C7_13  and  O5_14 
REMARK    6  A    between atoms: C8_16  and  C9_17 
REMARK    7  A    between atoms: C9_17  and  C10_18 
REMARK    8  A    between atoms: C11_21  and  O8_22 
REMARK    9  A    between atoms: C12_24  and  O9_25 
REMARK   10  A    between atoms: C13_27  and  N1_29 
REMARK   11  A    between atoms: N1_29  and  C15_31 
REMARK   12  A    between atoms: C15_31  and  C16_32 
REMARK   13  A    between atoms: C16_32  and  C17_33 
REMARK   14  A    between atoms: C17_33  and  C18_34 
REMARK   15  A    between atoms: C18_34  and  C19_35 
ROOT
HETATM    1  C1  UNL     1       0.967   0.387   1.659  1.00  0.00     0.042 C 
HETATM    2  C2  UNL     1       0.136  -0.612   0.940  1.00  0.00     0.151 C 
HETATM    3  O1  UNL     1       0.889  -1.598   0.276  1.00  0.00    -0.351 OA
HETATM    4  C3  UNL     1       1.514  -0.879  -0.780  1.00  0.00     0.292 C 
HETATM    5  C12 UNL     1       0.509   0.106  -1.243  1.00  0.00     0.203 C 
HETATM    6  C13 UNL     1      -0.661  -0.004  -0.223  1.00  0.00     0.082 C 
HETATM    7  C14 UNL     1      -1.113   1.368   0.073  1.00  0.00     0.044 C 
ENDROOT
BRANCH   4   8
HETATM    8  O2  UNL     1       2.680  -0.408  -0.237  1.00  0.00    -0.348 OA
BRANCH   8   9
HETATM    9  C4  UNL     1       3.844  -0.901  -0.887  1.00  0.00     0.185 C 
HETATM   10  C5  UNL     1       4.460  -1.966  -0.031  1.00  0.00     0.180 C 
HETATM   11  C6  UNL     1       5.797  -1.629   0.558  1.00  0.00     0.178 C 
HETATM   12  C7  UNL     1       6.652  -1.151  -0.589  1.00  0.00     0.156 C 
HETATM   13  C8  UNL     1       6.113   0.202  -1.000  1.00  0.00     0.058 C 
HETATM   14  C11 UNL     1       4.680   0.241  -1.279  1.00  0.00     0.157 C 
BRANCH  10  15
HETATM   15  O3  UNL     1       3.637  -2.381   1.012  1.00  0.00    -0.390 OA
ATOM     16  H3  UNL     1       4.027  -3.056   1.555  1.00  0.00     0.210 HD
ENDBRANCH  10  15
BRANCH  11  17
HETATM   17  O4  UNL     1       6.327  -2.843   1.048  1.00  0.00    -0.390 OA
ATOM     18  H4  UNL     1       7.174  -2.629   1.421  1.00  0.00     0.210 HD
ENDBRANCH  11  17
BRANCH  12  19
HETATM   19  O5  UNL     1       7.937  -0.959  -0.111  1.00  0.00    -0.392 OA
ATOM     20  H5  UNL     1       8.476  -0.658  -0.833  1.00  0.00     0.210 HD
ENDBRANCH  12  19
BRANCH  13  21
HETATM   21  C9  UNL     1       6.659   1.187  -0.010  1.00  0.00     0.123 C 
BRANCH  21  22
HETATM   22  C10 UNL     1       6.282   2.593  -0.217  1.00  0.00     0.173 C 
HETATM   23  O6  UNL     1       5.641   3.241   0.622  1.00  0.00    -0.648 OA
HETATM   24  O7  UNL     1       6.655   3.245  -1.410  1.00  0.00    -0.648 OA
ENDBRANCH  21  22
ENDBRANCH  13  21
BRANCH  14  25
HETATM   25  O8  UNL     1       4.161   1.459  -0.848  1.00  0.00    -0.392 OA
ATOM     26  H8  UNL     1       4.702   2.198  -1.102  1.00  0.00     0.210 HD
ENDBRANCH  14  25
ENDBRANCH   8   9
ENDBRANCH   4   8
BRANCH   5  27
HETATM   27  O9  UNL     1       0.912   1.388  -1.448  1.00  0.00    -0.388 OA
ATOM     28  H9  UNL     1       0.268   2.020  -1.745  1.00  0.00     0.210 HD
ENDBRANCH   5  27
BRANCH   6  29
HETATM   29  N1  UNL     1      -1.564  -0.973  -0.645  1.00  0.00    -0.388 N 
ATOM     30  H1  UNL     1      -1.229  -1.936  -0.660  1.00  0.00     0.159 HD
BRANCH  29  31
HETATM   31  C15 UNL     1      -2.866  -0.764  -1.045  1.00  0.00     0.056 C 
BRANCH  31  32
HETATM   32  C16 UNL     1      -3.872  -0.344   0.001  1.00  0.00     0.044 C 
BRANCH  32  33
HETATM   33  C17 UNL     1      -5.259  -0.183  -0.631  1.00  0.00     0.006 C 
BRANCH  33  34
HETATM   34  C18 UNL     1      -6.192   0.297   0.451  1.00  0.00     0.008 C 
BRANCH  34  35
HETATM   35  C19 UNL     1      -7.571   0.451  -0.139  1.00  0.00    -0.051 C 
HETATM   36  C20 UNL     1      -7.625   1.422  -1.296  1.00  0.00     0.014 C 
HETATM   37  C21 UNL     1      -8.428   1.032   1.000  1.00  0.00     0.014 C 
HETATM   38  C22 UNL     1      -8.143  -0.867  -0.532  1.00  0.00     0.014 C 
ENDBRANCH  34  35
ENDBRANCH  33  34
ENDBRANCH  32  33
ENDBRANCH  31  32
ENDBRANCH  29  31
ENDBRANCH   6  29
TORSDOF 15
