REMARK  15 active torsions:
REMARK  status: ('A' for Active; 'I' for Inactive)
REMARK    1  A    between atoms: C2_2  and  O1_3 
REMARK    2  A    between atoms: O1_3  and  C3_4 
REMARK       I    between atoms: C3_4  and  N1_6 
REMARK    3  A    between atoms: N1_6  and  C4_7 
REMARK    4  A    between atoms: C4_7  and  C5_8 
REMARK    5  A    between atoms: C4_7  and  C6_11 
REMARK    6  A    between atoms: C5_8  and  O3_9 
REMARK    7  A    between atoms: C7_12  and  C8_13 
REMARK    8  A    between atoms: C8_13  and  O4_14 
REMARK    9  A    between atoms: C8_13  and  N2_16 
REMARK   10  A    between atoms: N2_16  and  C10_18 
REMARK   11  A    between atoms: C10_18  and  C11_19 
REMARK   12  A    between atoms: C10_18  and  C17_25 
REMARK   13  A    between atoms: C20_29  and  O6_30 
REMARK   14  A    between atoms: C21_32  and  O7_33 
REMARK   15  A    between atoms: C22_35  and  O8_36 
ROOT
HETATM    1  C10 UNL     1      -1.441  -0.954   0.245  1.00  0.00     0.117 C 
ENDROOT
BRANCH   1   2
HETATM    2  N2  UNL     1      -0.568  -1.310  -0.791  1.00  0.00    -0.382 N 
HETATM    3  C9  UNL     1      -0.771  -1.126  -2.147  1.00  0.00     0.146 C 
BRANCH   2   4
HETATM    4  C8  UNL     1       0.842  -1.221  -0.312  1.00  0.00     0.239 C 
BRANCH   4   5
HETATM    5  C7  UNL     1       1.229   0.202  -0.190  1.00  0.00     0.025 C 
HETATM    6  C6  UNL     1       2.501   0.780   0.049  1.00  0.00     0.014 C 
BRANCH   6   7
HETATM    7  C4  UNL     1       3.368   0.450   1.274  1.00  0.00     0.215 C 
BRANCH   7   8
HETATM    8  N1  UNL     1       4.470   1.273   1.278  1.00  0.00    -0.379 NA
HETATM    9  C3  UNL     1       5.592   2.114   1.284  1.00  0.00     0.435 C 
HETATM   10  O2  UNL     1       5.787   3.060   2.144  1.00  0.00    -0.221 OA
BRANCH   9  11
HETATM   11  O1  UNL     1       6.599   2.067   0.432  1.00  0.00    -0.293 OA
BRANCH  11  12
HETATM   12  C2  UNL     1       7.598   2.101  -0.330  1.00  0.00     0.177 C 
HETATM   13  C1  UNL     1       8.921   1.870   0.419  1.00  0.00     0.034 C 
ENDBRANCH  11  12
ENDBRANCH   9  11
ENDBRANCH   7   8
BRANCH   7  14
HETATM   14  C5  UNL     1       3.951  -0.984   0.928  1.00  0.00     0.207 C 
BRANCH  14  15
HETATM   15  O3  UNL     1       4.890  -1.310   1.884  1.00  0.00    -0.397 OA
ATOM     16  H3  UNL     1       5.239  -2.169   1.677  1.00  0.00     0.209 HD
ENDBRANCH  14  15
ENDBRANCH   7  14
ENDBRANCH   6   7
ENDBRANCH   4   5
BRANCH   4  17
HETATM   17  O4  UNL     1       1.542  -1.796  -1.399  1.00  0.00    -0.374 OA
ATOM     18  H4  UNL     1       1.294  -2.710  -1.477  1.00  0.00     0.212 HD
ENDBRANCH   4  17
ENDBRANCH   2   4
ENDBRANCH   1   2
BRANCH   1  19
HETATM   19  C11 UNL     1      -2.398  -2.075   0.525  1.00  0.00     0.011 C 
HETATM   20  C12 UNL     1      -3.417  -2.336  -0.523  1.00  0.00     0.007 C 
HETATM   21  C13 UNL     1      -3.852  -3.775  -0.410  1.00  0.00     0.000 C 
HETATM   22  C14 UNL     1      -4.515  -3.983   0.905  1.00  0.00     0.000 C 
HETATM   23  C15 UNL     1      -4.316  -2.898   1.884  1.00  0.00     0.000 C 
HETATM   24  C16 UNL     1      -2.920  -2.283   1.885  1.00  0.00     0.007 C 
ENDBRANCH   1  19
BRANCH   1  25
HETATM   25  C17 UNL     1      -2.170   0.343  -0.020  1.00  0.00     0.176 C 
HETATM   26  O5  UNL     1      -3.063   0.367  -1.047  1.00  0.00    -0.374 OA
HETATM   27  C18 UNL     1      -3.536   1.624  -1.346  1.00  0.00     0.149 C 
HETATM   28  C19 UNL     1      -3.398   1.830  -2.841  1.00  0.00     0.042 C 
HETATM   29  C20 UNL     1      -2.877   2.782  -0.694  1.00  0.00     0.178 C 
HETATM   30  C21 UNL     1      -2.639   2.603   0.786  1.00  0.00     0.180 C 
HETATM   31  C22 UNL     1      -2.648   1.089   1.161  1.00  0.00     0.180 C 
BRANCH  29  32
HETATM   32  O6  UNL     1      -3.718   3.881  -0.855  1.00  0.00    -0.390 OA
ATOM     33  H6  UNL     1      -3.296   4.623  -0.437  1.00  0.00     0.210 HD
ENDBRANCH  29  32
BRANCH  30  34
HETATM   34  O7  UNL     1      -1.357   3.054   1.076  1.00  0.00    -0.390 OA
ATOM     35  H7  UNL     1      -1.207   2.941   2.007  1.00  0.00     0.210 HD
ENDBRANCH  30  34
BRANCH  31  36
HETATM   36  O8  UNL     1      -3.989   0.889   1.504  1.00  0.00    -0.390 OA
ATOM     37  H8  UNL     1      -4.297   1.369   2.264  1.00  0.00     0.210 HD
ENDBRANCH  31  36
ENDBRANCH   1  25
TORSDOF 15
