REMARK  14 active torsions:
REMARK  status: ('A' for Active; 'I' for Inactive)
REMARK    1  A    between atoms: C1_2  and  C2_4 
REMARK    2  A    between atoms: C3_6  and  O4_7 
REMARK    3  A    between atoms: O4_7  and  C4_8 
REMARK    4  A    between atoms: C6_10  and  O5_11 
REMARK    5  A    between atoms: C7_13  and  O6_14 
REMARK    6  A    between atoms: C8_16  and  C9_17 
REMARK    7  A    between atoms: C9_17  and  O7_18 
REMARK    8  A    between atoms: C10_21  and  C11_22 
REMARK    9  A    between atoms: C11_22  and  C12_23 
REMARK   10  A    between atoms: C12_23  and  C13_24 
REMARK   11  A    between atoms: C13_24  and  C14_25 
REMARK   12  A    between atoms: C14_25  and  C15_26 
REMARK   13  A    between atoms: C21_32  and  O9_33 
REMARK   14  A    between atoms: C22_35  and  O10_36 
ROOT
HETATM    1  C2  UNL     1       2.744  -3.864   1.374  1.00  0.00     0.256 C 
HETATM    2  O3  UNL     1       2.428  -2.635   1.794  1.00  0.00    -0.342 OA
HETATM    3  C3  UNL     1       1.537  -1.889   1.054  1.00  0.00     0.270 C 
HETATM    4  C10 UNL     1       0.267  -2.676   1.007  1.00  0.00     0.072 C 
HETATM    5  C21 UNL     1       0.475  -4.018   0.335  1.00  0.00     0.158 C 
HETATM    6  C22 UNL     1       1.902  -4.422   0.284  1.00  0.00     0.187 C 
ENDROOT
BRANCH   3   7
HETATM    7  O4  UNL     1       1.999  -1.611  -0.201  1.00  0.00    -0.331 OA
BRANCH   7   8
HETATM    8  C4  UNL     1       2.222  -0.318  -0.536  1.00  0.00     0.266 C 
HETATM    9  C5  UNL     1       1.613   0.211  -1.782  1.00  0.00     0.095 C 
HETATM   10  C6  UNL     1       1.684   1.745  -1.659  1.00  0.00     0.154 C 
HETATM   11  C7  UNL     1       3.083   2.173  -1.391  1.00  0.00     0.178 C 
HETATM   12  C8  UNL     1       3.926   1.243  -0.609  1.00  0.00     0.179 C 
HETATM   13  O8  UNL     1       3.601  -0.075  -0.642  1.00  0.00    -0.351 OA
BRANCH  10  14
HETATM   14  O5  UNL     1       0.880   2.164  -0.593  1.00  0.00    -0.393 OA
ATOM     15  H5  UNL     1       0.924   3.110  -0.517  1.00  0.00     0.210 HD
ENDBRANCH  10  14
BRANCH  11  16
HETATM   16  O6  UNL     1       3.707   2.357  -2.648  1.00  0.00    -0.390 OA
ATOM     17  H6  UNL     1       4.601   2.630  -2.477  1.00  0.00     0.210 HD
ENDBRANCH  11  16
BRANCH  12  18
HETATM   18  C9  UNL     1       5.402   1.391  -0.988  1.00  0.00     0.198 C 
BRANCH  18  19
HETATM   19  O7  UNL     1       6.234   0.713  -0.124  1.00  0.00    -0.398 OA
ATOM     20  H7  UNL     1       7.150   0.805  -0.359  1.00  0.00     0.209 HD
ENDBRANCH  18  19
ENDBRANCH  12  18
ENDBRANCH   7   8
ENDBRANCH   3   7
BRANCH   4  21
HETATM   21  C11 UNL     1      -0.844  -1.926   0.347  1.00  0.00     0.012 C 
BRANCH  21  22
HETATM   22  C12 UNL     1      -1.176  -0.644   1.066  1.00  0.00     0.001 C 
BRANCH  22  23
HETATM   23  C13 UNL     1      -2.325  -0.003   0.283  1.00  0.00     0.000 C 
BRANCH  23  24
HETATM   24  C14 UNL     1      -2.662   1.292   1.007  1.00  0.00     0.004 C 
BRANCH  24  25
HETATM   25  C15 UNL     1      -3.797   2.003   0.301  1.00  0.00    -0.014 C 
HETATM   26  C16 UNL     1      -5.036   1.169   0.252  1.00  0.00     0.004 C 
HETATM   27  C17 UNL     1      -6.295   1.994   0.119  1.00  0.00     0.000 C 
HETATM   28  C18 UNL     1      -5.940   3.295  -0.553  1.00  0.00     0.000 C 
HETATM   29  C19 UNL     1      -5.129   4.118   0.432  1.00  0.00     0.000 C 
HETATM   30  C20 UNL     1      -4.014   3.316   1.027  1.00  0.00     0.004 C 
ENDBRANCH  24  25
ENDBRANCH  23  24
ENDBRANCH  22  23
ENDBRANCH  21  22
ENDBRANCH   4  21
BRANCH   1  31
HETATM   31  C1  UNL     1       4.178  -3.904   0.857  1.00  0.00     0.206 C 
HETATM   32  O1  UNL     1       4.634  -4.978   0.417  1.00  0.00    -0.646 OA
HETATM   33  O2  UNL     1       4.969  -2.781   0.869  1.00  0.00    -0.646 OA
ENDBRANCH   1  31
BRANCH   5  34
HETATM   34  O9  UNL     1       0.039  -3.849  -0.997  1.00  0.00    -0.392 OA
ATOM     35  H9  UNL     1       0.169  -4.690  -1.418  1.00  0.00     0.210 HD
ENDBRANCH   5  34
BRANCH   6  36
HETATM   36  O10 UNL     1       2.512  -4.242  -0.969  1.00  0.00    -0.390 OA
ATOM     37  H10 UNL     1       1.974  -4.599  -1.666  1.00  0.00     0.210 HD
ENDBRANCH   6  36
TORSDOF 14
