REMARK  8 active torsions:
REMARK  status: ('A' for Active; 'I' for Inactive)
REMARK    1  A    between atoms: C1_2  and  N2_4 
REMARK    2  A    between atoms: N2_4  and  N3_6 
REMARK    3  A    between atoms: C2_8  and  C3_9 
REMARK    4  A    between atoms: C3_9  and  C4_10 
REMARK    5  A    between atoms: C4_10  and  C5_11 
REMARK    6  A    between atoms: C8_14  and  C9_15 
REMARK    7  A    between atoms: C9_15  and  C10_16 
REMARK    8  A    between atoms: C10_16  and  O1_17 
ROOT
HETATM    1  C5  UNL     1      -0.156  -0.793   0.129  1.00  0.00    -0.010 C 
HETATM    2  C6  UNL     1      -1.324  -1.704   0.077  1.00  0.00     0.005 C 
HETATM    3  C7  UNL     1      -2.511  -1.249  -0.665  1.00  0.00     0.005 C 
HETATM    4  C8  UNL     1      -2.847   0.188  -0.641  1.00  0.00    -0.008 C 
HETATM    5  C11 UNL     1      -1.688   1.100  -0.557  1.00  0.00    -0.006 C 
HETATM    6  C12 UNL     1      -1.311   1.721  -1.921  1.00  0.00     0.006 C 
HETATM    7  C13 UNL     1      -0.368   0.516  -2.080  1.00  0.00     0.006 C 
HETATM    8  C14 UNL     1      -0.324   0.493  -0.597  1.00  0.00    -0.006 C 
ENDROOT
BRANCH   1   9
HETATM    9  C4  UNL     1       1.152  -1.493  -0.201  1.00  0.00     0.010 C 
BRANCH   9  10
HETATM   10  C3  UNL     1       2.303  -0.520  -0.128  1.00  0.00     0.046 C 
BRANCH  10  11
HETATM   11  C2  UNL     1       2.419   0.067   1.235  1.00  0.00     0.080 C 
HETATM   12  N3  UNL     1       3.496  -0.044   1.960  1.00  0.00    -0.314 N 
ATOM     13  H3  UNL     1       3.523   0.378   2.888  1.00  0.00     0.185 HD
BRANCH  12  14
HETATM   14  N2  UNL     1       4.611  -0.732   1.485  1.00  0.00    -0.279 N 
ATOM     15  H2  UNL     1       4.731  -1.722   1.701  1.00  0.00     0.189 HD
BRANCH  14  16
HETATM   16  C1  UNL     1       5.571  -0.058   0.706  1.00  0.00     0.199 C 
HETATM   17  N1  UNL     1       5.425   1.306   0.397  1.00  0.00    -0.068 NA
HETATM   18  S1  UNL     1       6.867  -0.867   0.157  1.00  0.00    -0.043 SA
ENDBRANCH  14  16
ENDBRANCH  12  14
ENDBRANCH  10  11
ENDBRANCH   9  10
ENDBRANCH   1   9
BRANCH   4  19
HETATM   19  C9  UNL     1      -3.909   0.561   0.353  1.00  0.00     0.031 C 
BRANCH  19  20
HETATM   20  C10 UNL     1      -3.626   0.266   1.775  1.00  0.00     0.164 C 
BRANCH  20  21
HETATM   21  O1  UNL     1      -2.531   0.867   2.333  1.00  0.00    -0.401 OA
ATOM     22  H1  UNL     1      -2.349   0.678   3.246  1.00  0.00     0.209 HD
ENDBRANCH  20  21
ENDBRANCH  19  20
ENDBRANCH   4  19
TORSDOF 8
