REMARK  4 active torsions:
REMARK  status: ('A' for Active; 'I' for Inactive)
REMARK    1  A    between atoms: C7_7  and  N1_8 
REMARK       I    between atoms: N1_8  and  C9_10 
REMARK    2  A    between atoms: C9_10  and  C10_12 
REMARK    3  A    between atoms: C10_12  and  S1_13 
REMARK    4  A    between atoms: S1_13  and  C11_14 
ROOT
HETATM    1  C1  UNL     1       4.217  -0.427  -2.003  1.00  0.00     0.013 C 
HETATM    2  C2  UNL     1       3.682   0.188  -1.129  1.00  0.00    -0.105 C 
HETATM    3  C3  UNL     1       3.050   0.952  -0.085  1.00  0.00     0.045 A 
HETATM    4  C4  UNL     1       3.134   2.464  -0.310  1.00  0.00     0.032 C 
HETATM    5  C5  UNL     1       3.450   0.534   1.349  1.00  0.00     0.028 A 
HETATM    6  C6  UNL     1       3.854   1.636   2.296  1.00  0.00     0.014 C 
HETATM    7  C7  UNL     1       2.031   0.464   0.835  1.00  0.00     0.112 A 
ENDROOT
BRANCH   7   8
HETATM    8  N1  UNL     1       1.434  -0.832   0.822  1.00  0.00    -0.349 N 
HETATM    9  C8  UNL     1       2.091  -1.990   0.250  1.00  0.00     0.153 C 
HETATM   10  C9  UNL     1       0.145  -1.014   1.390  1.00  0.00     0.229 C 
HETATM   11  O1  UNL     1      -0.353  -2.189   1.352  1.00  0.00    -0.273 OA
BRANCH  10  12
HETATM   12  C10 UNL     1      -0.661   0.049   2.016  1.00  0.00     0.185 C 
BRANCH  12  13
HETATM   13  S1  UNL     1      -1.697   0.890   0.819  1.00  0.00    -0.085 SA
BRANCH  13  14
HETATM   14  C11 UNL     1      -2.970  -0.120   0.139  1.00  0.00     0.147 A 
HETATM   15  N2  UNL     1      -3.126  -1.399   0.514  1.00  0.00    -0.304 N 
HETATM   16  C12 UNL     1      -4.097  -2.156  -0.006  1.00  0.00     0.249 A 
ATOM     17  H2  UNL     1      -2.494  -1.800   1.207  1.00  0.00     0.171 HD
HETATM   18  O2  UNL     1      -4.289  -3.353   0.307  1.00  0.00    -0.268 OA
HETATM   19  C13 UNL     1      -4.946  -1.604  -0.942  1.00  0.00     0.099 A 
HETATM   20  C14 UNL     1      -4.795  -0.303  -1.331  1.00  0.00     0.012 A 
HETATM   21  C15 UNL     1      -5.727   0.262  -2.343  1.00  0.00     0.068 C 
HETATM   22  N3  UNL     1      -3.802   0.408  -0.774  1.00  0.00    -0.341 N 
ATOM     23  H3  UNL     1      -3.675   1.381  -1.053  1.00  0.00     0.167 HD
ENDBRANCH  13  14
ENDBRANCH  12  13
ENDBRANCH  10  12
ENDBRANCH   7   8
TORSDOF 4
