REMARK  3 active torsions:
REMARK  status: ('A' for Active; 'I' for Inactive)
REMARK    1  A    between atoms: C1_2  and  C2_4 
REMARK    2  A    between atoms: N2_12  and  C10_13 
REMARK    3  A    between atoms: C10_13  and  C11_14 
ROOT
HETATM    1  C2  UNL     1      -3.239   0.876   0.045  1.00  0.00     0.083 C 
HETATM    2  C3  UNL     1      -4.525   0.411  -0.582  1.00  0.00     0.014 C 
HETATM    3  C4  UNL     1      -4.429  -0.808  -1.431  1.00  0.00     0.001 C 
HETATM    4  C5  UNL     1      -3.573  -1.915  -0.930  1.00  0.00     0.001 C 
HETATM    5  C6  UNL     1      -2.574  -1.452   0.061  1.00  0.00     0.010 C 
HETATM    6  C7  UNL     1      -2.084  -0.039  -0.101  1.00  0.00    -0.025 C 
HETATM    7  C8  UNL     1      -1.376   0.156  -1.445  1.00  0.00     0.040 C 
HETATM    8  C9  UNL     1      -0.394  -0.952  -1.628  1.00  0.00     0.273 C 
HETATM    9  N2  UNL     1       0.672  -0.801  -0.635  1.00  0.00     0.091 N 
HETATM   10  C16 UNL     1       0.401   0.155   0.364  1.00  0.00     0.273 C 
HETATM   11  C17 UNL     1      -0.997   0.182   0.927  1.00  0.00     0.040 C 
ENDROOT
BRANCH   1  12
HETATM   12  C1  UNL     1      -3.582   1.263   1.435  1.00  0.00     0.236 C 
HETATM   13  N1  UNL     1      -4.394   2.386   1.708  1.00  0.00    -0.062 NA
HETATM   14  O1  UNL     1      -3.150   0.585   2.389  1.00  0.00    -0.276 OA
ENDBRANCH   1  12
BRANCH   9  15
HETATM   15  C10 UNL     1       1.875  -0.477  -1.356  1.00  0.00     0.306 C 
BRANCH  15  16
HETATM   16  C11 UNL     1       3.122  -0.320  -0.575  1.00  0.00     0.173 C 
HETATM   17  C12 UNL     1       4.236   0.067  -1.564  1.00  0.00     0.201 C 
HETATM   18  O2  UNL     1       5.396  -0.625  -1.324  1.00  0.00    -0.388 OA
HETATM   19  C13 UNL     1       5.931  -0.474  -0.071  1.00  0.00     0.169 C 
HETATM   20  C14 UNL     1       5.483   0.763   0.655  1.00  0.00     0.052 C 
HETATM   21  C15 UNL     1       4.122   0.597   1.281  1.00  0.00     0.170 C 
HETATM   22  O3  UNL     1       3.090   0.697   0.355  1.00  0.00    -0.382 OA
ENDBRANCH  15  16
ENDBRANCH   9  15
TORSDOF 3
