REMARK  5 active torsions:
REMARK  status: ('A' for Active; 'I' for Inactive)
REMARK    1  A    between atoms: C2_2  and  O1_3 
REMARK    2  A    between atoms: O1_3  and  C3_4 
REMARK       I    between atoms: C3_4  and  N1_6 
REMARK    3  A    between atoms: N1_6  and  C4_7 
REMARK    4  A    between atoms: N1_6  and  C5_9 
REMARK    5  A    between atoms: C12_16  and  N2_17 
REMARK       I    between atoms: N2_17  and  C13_18 
ROOT
HETATM    1  C5  UNL     1       0.463  -0.440   0.071  1.00  0.00     0.017 C 
HETATM    2  C6  UNL     1       0.052  -1.688   0.792  1.00  0.00     0.034 C 
HETATM    3  C7  UNL     1      -0.470  -2.626  -0.331  1.00  0.00     0.015 C 
HETATM    4  C8  UNL     1      -1.606  -1.905  -1.036  1.00  0.00    -0.012 C 
HETATM    5  C9  UNL     1      -2.723  -1.797  -0.021  1.00  0.00     0.016 C 
HETATM    6  C10 UNL     1      -2.259  -0.847   1.086  1.00  0.00     0.048 C 
HETATM    7  C11 UNL     1      -1.055  -1.409   1.754  1.00  0.00     0.022 C 
HETATM    8  C12 UNL     1      -1.911   0.475   0.399  1.00  0.00     0.080 C 
HETATM    9  C15 UNL     1      -0.675   0.322  -0.451  1.00  0.00     0.093 C 
HETATM   10  C16 UNL     1      -1.189  -0.592  -1.619  1.00  0.00     0.022 C 
ENDROOT
BRANCH   1  11
HETATM   11  N1  UNL     1       1.619   0.160   0.602  1.00  0.00    -0.241 N 
HETATM   12  C3  UNL     1       2.907   0.094  -0.057  1.00  0.00     0.373 C 
HETATM   13  O2  UNL     1       3.876   0.634   0.496  1.00  0.00    -0.237 OA
BRANCH  12  14
HETATM   14  O1  UNL     1       3.126  -0.531  -1.263  1.00  0.00    -0.304 OA
BRANCH  14  15
HETATM   15  C2  UNL     1       4.385  -0.590  -1.889  1.00  0.00     0.176 C 
HETATM   16  C1  UNL     1       4.999   0.745  -2.162  1.00  0.00     0.034 C 
ENDBRANCH  14  15
ENDBRANCH  12  14
BRANCH  11  17
HETATM   17  C4  UNL     1       1.640   0.873   1.802  1.00  0.00     0.364 C 
HETATM   18  O3  UNL     1       2.631   1.425   2.346  1.00  0.00    -0.283 OA
ENDBRANCH  11  17
ENDBRANCH   1  11
BRANCH   8  19
HETATM   19  N2  UNL     1      -2.145   1.623   1.048  1.00  0.00    -0.379 NA
HETATM   20  C13 UNL     1      -2.383   2.789   1.707  1.00  0.00     0.287 C 
HETATM   21  C14 UNL     1      -3.299   3.852   1.072  1.00  0.00     0.135 C 
HETATM   22  O4  UNL     1      -1.955   3.190   2.830  1.00  0.00    -0.258 OA
ENDBRANCH   8  19
TORSDOF 5
