REMARK  4 active torsions:
REMARK  status: ('A' for Active; 'I' for Inactive)
REMARK       I    between atoms: C1_2  and  N1_3 
REMARK    1  A    between atoms: C1_2  and  C8_13 
REMARK    2  A    between atoms: N1_3  and  C2_5 
REMARK    3  A    between atoms: C2_5  and  C3_6 
REMARK    4  A    between atoms: C3_6  and  N2_7 
ROOT
HETATM    1  O1  UNL     1       0.077   1.487  -0.502  1.00  0.00    -0.273 OA
HETATM    2  C1  UNL     1      -0.408   0.331  -0.415  1.00  0.00     0.226 C 
HETATM    3  N1  UNL     1       0.490  -0.766  -0.440  1.00  0.00    -0.359 N 
ATOM      4  H1  UNL     1       0.094  -1.704  -0.378  1.00  0.00     0.162 HD
ENDROOT
BRANCH   2   5
HETATM    5  C8  UNL     1      -1.880   0.148  -0.288  1.00  0.00     0.042 C 
HETATM    6  C9  UNL     1      -2.452  -0.776  -1.315  1.00  0.00     0.024 C 
HETATM    7  C10 UNL     1      -3.941  -0.911  -1.048  1.00  0.00    -0.013 C 
HETATM    8  C11 UNL     1      -4.639   0.431  -1.175  1.00  0.00     0.009 C 
HETATM    9  C15 UNL     1      -4.225  -1.437   0.345  1.00  0.00     0.009 C 
HETATM   10  C12 UNL     1      -4.028   1.394  -0.211  1.00  0.00    -0.013 C 
HETATM   11  C13 UNL     1      -4.206   0.905   1.208  1.00  0.00     0.009 C 
HETATM   12  C17 UNL     1      -2.544   1.495  -0.491  1.00  0.00     0.024 C 
HETATM   13  C14 UNL     1      -3.637  -0.472   1.358  1.00  0.00    -0.013 C 
HETATM   14  C16 UNL     1      -2.149  -0.396   1.086  1.00  0.00     0.024 C 
ENDBRANCH   2   5
BRANCH   3  15
HETATM   15  C2  UNL     1       1.918  -0.651  -0.547  1.00  0.00     0.152 C 
BRANCH  15  16
HETATM   16  C3  UNL     1       2.582   0.079   0.577  1.00  0.00     0.292 C 
BRANCH  16  17
HETATM   17  N2  UNL     1       4.006   0.184   0.459  1.00  0.00     0.091 N 
HETATM   18  C4  UNL     1       4.451   1.046  -0.608  1.00  0.00     0.282 C 
HETATM   19  C5  UNL     1       5.679   1.781  -0.047  1.00  0.00     0.104 C 
HETATM   20  S1  UNL     1       6.890   0.477   0.332  1.00  0.00    -0.166 SA
HETATM   21  C6  UNL     1       6.103  -1.099   0.649  1.00  0.00     0.104 C 
HETATM   22  C7  UNL     1       4.626  -1.107   0.442  1.00  0.00     0.282 C 
ENDBRANCH  16  17
ENDBRANCH  15  16
ENDBRANCH   3  15
TORSDOF 4
