REMARK  9 active torsions:
REMARK  status: ('A' for Active; 'I' for Inactive)
REMARK       I    between atoms: N1_1  and  C1_5 
REMARK       I    between atoms: C1_5  and  N2_6 
REMARK       I    between atoms: C1_5  and  N3_10 
REMARK    1  A    between atoms: N3_10  and  C2_13 
REMARK    2  A    between atoms: C2_13  and  C3_14 
REMARK    3  A    between atoms: C3_14  and  C4_15 
REMARK    4  A    between atoms: C4_15  and  N4_16 
REMARK    5  A    between atoms: C4_15  and  C8_31 
REMARK    6  A    between atoms: N4_16  and  C5_19 
REMARK    7  A    between atoms: C5_19  and  O1_20 
REMARK    8  A    between atoms: C5_19  and  C6_22 
REMARK    9  A    between atoms: N5_24  and  O2_25 
ROOT
HETATM    1  C4  UNL     1       0.314  -0.316  -0.441  1.00  0.00     0.224 C 
ENDROOT
BRANCH   1   2
HETATM    2  C3  UNL     1      -0.522   0.811   0.066  1.00  0.00     0.065 C 
BRANCH   2   3
HETATM    3  C2  UNL     1      -1.936   0.836  -0.455  1.00  0.00     0.239 C 
BRANCH   3   4
HETATM    4  N3  UNL     1      -2.579   1.989   0.168  1.00  0.00    -0.022 N 
HETATM    5  C1  UNL     1      -3.960   2.113  -0.256  1.00  0.00     0.575 C 
HETATM    6  N1  UNL     1      -4.097   2.273  -1.675  1.00  0.00    -0.026 N 
HETATM    7  N2  UNL     1      -4.736   1.001   0.231  1.00  0.00    -0.026 N 
ATOM      8  H13 UNL     1      -3.866   1.412  -2.171  1.00  0.00     0.278 HD
ATOM      9  H12 UNL     1      -5.077   2.355  -1.948  1.00  0.00     0.278 HD
ATOM     10  H11 UNL     1      -3.548   3.060  -2.020  1.00  0.00     0.278 HD
ATOM     11  H23 UNL     1      -5.716   1.083  -0.042  1.00  0.00     0.278 HD
ATOM     12  H22 UNL     1      -4.505   0.140  -0.265  1.00  0.00     0.278 HD
ATOM     13  H21 UNL     1      -4.639   0.887   1.240  1.00  0.00     0.278 HD
ATOM     14  H32 UNL     1      -2.056   2.848  -0.003  1.00  0.00     0.281 HD
ATOM     15  H31 UNL     1      -2.500   1.958   1.184  1.00  0.00     0.281 HD
ENDBRANCH   3   4
ENDBRANCH   2   3
ENDBRANCH   1   2
BRANCH   1  16
HETATM   16  N4  UNL     1       1.683  -0.271   0.049  1.00  0.00    -0.035 N 
ATOM     17  H42 UNL     1       1.703  -0.364   1.065  1.00  0.00     0.281 HD
ATOM     18  H41 UNL     1       2.184  -1.120  -0.212  1.00  0.00     0.281 HD
BRANCH  16  19
HETATM   19  C5  UNL     1       2.411   0.887  -0.362  1.00  0.00     0.373 C 
BRANCH  19  20
HETATM   20  O1  UNL     1       2.460   0.912  -1.756  1.00  0.00    -0.365 OA
ATOM     21  H1  UNL     1       2.944   1.682  -2.029  1.00  0.00     0.212 HD
ENDBRANCH  19  20
BRANCH  19  22
HETATM   22  C6  UNL     1       3.831   0.674   0.084  1.00  0.00     0.102 A 
HETATM   23  C7  UNL     1       4.650   1.584   0.701  1.00  0.00     0.175 A 
HETATM   24  N5  UNL     1       5.812   0.983   0.920  1.00  0.00    -0.158 N 
HETATM   25  N6  UNL     1       5.701  -0.252   0.451  1.00  0.00    -0.216 N 
HETATM   26  N7  UNL     1       4.514  -0.460  -0.058  1.00  0.00    -0.283 N 
ATOM     27  H6  UNL     1       6.445  -0.949   0.483  1.00  0.00     0.211 HD
ATOM     28  H7  UNL     1       4.177  -1.324  -0.482  1.00  0.00     0.188 HD
BRANCH  24  29
HETATM   29  O2  UNL     1       6.942   1.492   1.512  1.00  0.00    -0.267 OA
ATOM     30  H2  UNL     1       7.774   1.062   1.669  1.00  0.00     0.247 HD
ENDBRANCH  24  29
ENDBRANCH  19  22
ENDBRANCH  16  19
ENDBRANCH   1  16
BRANCH   1  31
HETATM   31  C8  UNL     1      -0.191  -1.654   0.026  1.00  0.00    -0.028 A 
HETATM   32  C9  UNL     1       0.299  -2.815  -0.580  1.00  0.00     0.009 A 
HETATM   33  C10 UNL     1      -0.074  -4.067  -0.203  1.00  0.00     0.001 A 
HETATM   34  C11 UNL     1      -0.979  -4.221   0.825  1.00  0.00     0.000 A 
HETATM   35  C12 UNL     1      -1.479  -3.094   1.440  1.00  0.00     0.001 A 
HETATM   36  C13 UNL     1      -1.086  -1.812   1.043  1.00  0.00     0.009 A 
ENDBRANCH   1  31
TORSDOF 9
