REMARK  10 active torsions:
REMARK  status: ('A' for Active; 'I' for Inactive)
REMARK    1  A    between atoms: N1_1  and  C1_5 
REMARK    2  A    between atoms: C3_9  and  N3_10 
REMARK    3  A    between atoms: N3_10  and  C4_12 
REMARK    4  A    between atoms: C6_16  and  C7_17 
REMARK    5  A    between atoms: C7_17  and  N5_18 
REMARK    6  A    between atoms: N5_18  and  C8_21 
REMARK    7  A    between atoms: C8_21  and  C9_22 
REMARK    8  A    between atoms: C9_22  and  C10_23 
REMARK    9  A    between atoms: C10_23  and  C11_24 
REMARK   10  A    between atoms: C11_24  and  N6_25 
REMARK       I    between atoms: N6_25  and  C12_28 
REMARK       I    between atoms: C12_28  and  N7_29 
REMARK       I    between atoms: C12_28  and  N8_33 
ROOT
HETATM    1  C7  UNL     1       0.467  -0.232   0.246  1.00  0.00     0.298 C 
ENDROOT
BRANCH   1   2
HETATM    2  C6  UNL     1      -1.007  -0.068   0.168  1.00  0.00     0.098 A 
HETATM    3  C5  UNL     1      -1.960  -0.899   0.708  1.00  0.00     0.126 A 
HETATM    4  N4  UNL     1      -3.190  -0.420   0.425  1.00  0.00    -0.329 N 
HETATM    5  C4  UNL     1      -2.977   0.686  -0.277  1.00  0.00     0.231 A 
ATOM      6  H4  UNL     1      -4.089  -0.821   0.693  1.00  0.00     0.168 HD
HETATM    7  O1  UNL     1      -1.689   0.904  -0.434  1.00  0.00    -0.281 OA
BRANCH   5   8
HETATM    8  N3  UNL     1      -3.899   1.487  -0.772  1.00  0.00    -0.288 N 
ATOM      9  H3  UNL     1      -3.638   2.320  -1.300  1.00  0.00     0.173 HD
BRANCH   8  10
HETATM   10  C3  UNL     1      -5.285   1.158  -0.550  1.00  0.00     0.222 C 
HETATM   11  N2  UNL     1      -5.825   0.154  -1.150  1.00  0.00    -0.354 N 
HETATM   12  C2  UNL     1      -7.202  -0.258  -0.998  1.00  0.00     0.158 C 
ATOM     13  H2  UNL     1      -5.236  -0.391  -1.780  1.00  0.00     0.163 HD
HETATM   14  C1  UNL     1      -7.579   0.030   0.436  1.00  0.00     0.225 C 
HETATM   15  C13 UNL     1      -7.376   1.529   0.629  1.00  0.00     0.213 C 
HETATM   16  O2  UNL     1      -6.069   1.910   0.308  1.00  0.00    -0.320 OA
BRANCH  14  17
HETATM   17  N1  UNL     1      -8.917  -0.345   0.771  1.00  0.00    -0.071 N 
ATOM     18  H13 UNL     1      -9.582   0.090   0.131  1.00  0.00     0.274 HD
ATOM     19  H12 UNL     1      -9.081  -1.327   0.548  1.00  0.00     0.274 HD
ATOM     20  H11 UNL     1      -9.172  -0.151   1.739  1.00  0.00     0.274 HD
ENDBRANCH  14  17
ENDBRANCH   8  10
ENDBRANCH   5   8
ENDBRANCH   1   2
BRANCH   1  21
HETATM   21  N5  UNL     1       1.168   0.864  -0.363  1.00  0.00    -0.069 N 
ATOM     22  H52 UNL     1       0.834   1.029  -1.313  1.00  0.00     0.277 HD
ATOM     23  H51 UNL     1       0.900   1.751   0.063  1.00  0.00     0.277 HD
BRANCH  21  24
HETATM   24  C8  UNL     1       2.597   0.693  -0.341  1.00  0.00     0.232 C 
BRANCH  24  25
HETATM   25  C9  UNL     1       3.056  -0.402  -1.254  1.00  0.00     0.029 C 
BRANCH  25  26
HETATM   26  C10 UNL     1       4.555  -0.614  -1.244  1.00  0.00     0.029 C 
BRANCH  26  27
HETATM   27  C11 UNL     1       5.074  -0.993   0.103  1.00  0.00     0.237 C 
BRANCH  27  28
HETATM   28  N6  UNL     1       6.495  -1.196   0.044  1.00  0.00    -0.022 N 
HETATM   29  C12 UNL     1       7.195   0.051  -0.173  1.00  0.00     0.575 C 
HETATM   30  N7  UNL     1       6.913   0.966   0.923  1.00  0.00    -0.026 N 
HETATM   31  N8  UNL     1       8.648  -0.190  -0.260  1.00  0.00    -0.026 N 
ATOM     32  H73 UNL     1       5.912   1.105   1.060  1.00  0.00     0.278 HD
ATOM     33  H72 UNL     1       7.129   0.556   1.832  1.00  0.00     0.278 HD
ATOM     34  H71 UNL     1       7.407   1.845   0.770  1.00  0.00     0.278 HD
ATOM     35  H83 UNL     1       9.001  -0.689   0.557  1.00  0.00     0.278 HD
ATOM     36  H82 UNL     1       8.877  -0.885  -0.971  1.00  0.00     0.278 HD
ATOM     37  H81 UNL     1       9.142   0.689  -0.413  1.00  0.00     0.278 HD
ATOM     38  H62 UNL     1       6.839  -1.679   0.874  1.00  0.00     0.281 HD
ATOM     39  H61 UNL     1       6.745  -1.893  -0.658  1.00  0.00     0.281 HD
ENDBRANCH  27  28
ENDBRANCH  26  27
ENDBRANCH  25  26
ENDBRANCH  24  25
ENDBRANCH  21  24
ENDBRANCH   1  21
TORSDOF 10
