REMARK  8 active torsions:
REMARK  status: ('A' for Active; 'I' for Inactive)
REMARK    1  A    between atoms: C2_2  and  C3_3 
REMARK    2  A    between atoms: C3_3  and  C4_4 
REMARK    3  A    between atoms: C4_4  and  C5_5 
REMARK    4  A    between atoms: C7_10  and  C8_11 
REMARK    5  A    between atoms: C12_18  and  C13_19 
REMARK    6  A    between atoms: C13_19  and  C14_20 
REMARK    7  A    between atoms: N4_26  and  C19_28 
REMARK    8  A    between atoms: C25_39  and  O4_40 
ROOT
HETATM    1  C5  UNL     1       3.591   0.497  -1.725  1.00  0.00     0.062 C 
HETATM    2  N1  UNL     1       3.492  -0.842  -1.206  1.00  0.00    -0.325 N 
ATOM      3  H1  UNL     1       4.378  -1.345  -1.246  1.00  0.00     0.169 HD
HETATM    4  C6  UNL     1       2.477  -1.599  -0.669  1.00  0.00     0.245 C 
HETATM    5  O1  UNL     1       2.680  -2.051   0.520  1.00  0.00    -0.271 OA
HETATM    6  C7  UNL     1       1.158  -2.002  -1.227  1.00  0.00     0.180 C 
HETATM    7  N2  UNL     1       0.345  -2.554  -0.150  1.00  0.00    -0.342 N 
ATOM      8  H2  UNL     1       0.633  -3.473   0.187  1.00  0.00     0.163 HD
HETATM    9  C11 UNL     1      -0.765  -2.009   0.483  1.00  0.00     0.269 C 
HETATM   10  O2  UNL     1      -0.745  -1.988   1.739  1.00  0.00    -0.266 OA
HETATM   11  C12 UNL     1      -2.011  -1.432  -0.122  1.00  0.00     0.115 C 
HETATM   12  N3  UNL     1      -2.166  -0.045  -0.059  1.00  0.00    -0.182 N 
HETATM   13  C17 UNL     1      -2.709   0.583  -1.294  1.00  0.00     0.175 C 
HETATM   14  C18 UNL     1      -1.880   0.902   1.000  1.00  0.00     0.683 C 
HETATM   15  N4  UNL     1      -2.866   1.708   1.261  1.00  0.00    -0.222 N 
ATOM     16  H4  UNL     1      -3.696   1.561   0.686  1.00  0.00     0.178 HD
HETATM   17  N5  UNL     1      -0.721   1.065   1.761  1.00  0.00    -0.158 N 
ATOM     18  H5  UNL     1      -0.870   1.000   2.768  1.00  0.00     0.187 HD
HETATM   19  C22 UNL     1       0.638   1.307   1.384  1.00  0.00     0.258 C 
HETATM   20  O3  UNL     1       1.494   0.674   2.075  1.00  0.00    -0.270 OA
HETATM   21  C23 UNL     1       1.150   2.180   0.319  1.00  0.00     0.172 C 
HETATM   22  C24 UNL     1       0.216   3.392   0.095  1.00  0.00     0.042 C 
HETATM   23  N6  UNL     1       1.340   1.550  -0.938  1.00  0.00    -0.356 N 
ATOM     24  H6  UNL     1       0.469   1.168  -1.308  1.00  0.00     0.162 HD
HETATM   25  C25 UNL     1       2.405   1.322  -1.789  1.00  0.00     0.159 C 
ENDROOT
BRANCH  15  26
HETATM   26  C19 UNL     1      -2.985   2.743   2.195  1.00  0.00     0.091 C 
HETATM   27  C20 UNL     1      -3.933   2.469   3.335  1.00  0.00     0.032 C 
HETATM   28  C21 UNL     1      -3.478   3.996   1.459  1.00  0.00     0.032 C 
ENDBRANCH  15  26
BRANCH  11  29
HETATM   29  C13 UNL     1      -3.126  -2.338   0.253  1.00  0.00     0.013 C 
BRANCH  29  30
HETATM   30  C14 UNL     1      -4.514  -2.179  -0.116  1.00  0.00     0.002 C 
HETATM   31  C15 UNL     1      -5.312  -1.009   0.297  1.00  0.00     0.013 C 
HETATM   32  C16 UNL     1      -5.226  -3.396   0.552  1.00  0.00     0.013 C 
ENDBRANCH  29  30
ENDBRANCH  11  29
BRANCH   6  33
HETATM   33  C8  UNL     1       1.374  -3.124  -2.272  1.00  0.00     0.009 C 
HETATM   34  C9  UNL     1       2.015  -4.319  -1.670  1.00  0.00     0.012 C 
HETATM   35  C10 UNL     1       0.091  -3.341  -2.978  1.00  0.00     0.012 C 
ENDBRANCH   6  33
BRANCH  25  36
HETATM   36  O4  UNL     1       2.292   2.022  -2.903  1.00  0.00    -0.345 OA
ATOM     37  H4  UNL     1       1.513   2.564  -2.945  1.00  0.00     0.219 HD
ENDBRANCH  25  36
BRANCH   1  38
HETATM   38  C4  UNL     1       4.869   1.180  -1.268  1.00  0.00     0.062 C 
BRANCH  38  39
HETATM   39  C3  UNL     1       5.019   1.282   0.216  1.00  0.00     0.006 C 
BRANCH  39  40
HETATM   40  C2  UNL     1       6.365   1.985   0.466  1.00  0.00    -0.004 C 
HETATM   41  C1  UNL     1       6.499   2.083   1.984  1.00  0.00     0.005 C 
ENDBRANCH  39  40
ENDBRANCH  38  39
ENDBRANCH   1  38
TORSDOF 8
