REMARK  9 active torsions:
REMARK  status: ('A' for Active; 'I' for Inactive)
REMARK    1  A    between atoms: C2_2  and  C3_4 
REMARK    2  A    between atoms: C3_4  and  C4_5 
REMARK    3  A    between atoms: C6_10  and  C7_11 
REMARK    4  A    between atoms: C7_11  and  C8_12 
REMARK    5  A    between atoms: C11_15  and  C12_16 
REMARK       I    between atoms: C12_16  and  N2_18 
REMARK    6  A    between atoms: N2_18  and  C13_20 
REMARK    7  A    between atoms: C18_28  and  N4_29 
REMARK       I    between atoms: N4_29  and  C19_30 
REMARK    8  A    between atoms: N4_29  and  C23_37 
REMARK       I    between atoms: C19_30  and  N5_32 
REMARK    9  A    between atoms: N5_32  and  C20_34 
ROOT
HETATM    1  C4  UNL     1       1.552   1.392  -0.249  1.00  0.00     0.147 C 
HETATM    2  N1  UNL     1       0.458   2.252   0.208  1.00  0.00    -0.350 N 
ATOM      3  H1  UNL     1       0.751   3.225   0.300  1.00  0.00     0.163 HD
HETATM    4  C5  UNL     1      -0.906   2.075   0.555  1.00  0.00     0.228 C 
HETATM    5  O2  UNL     1      -1.154   2.732   1.649  1.00  0.00    -0.273 OA
HETATM    6  C6  UNL     1      -2.129   1.349   0.034  1.00  0.00     0.134 C 
HETATM    7  C11 UNL     1      -1.934  -0.075   0.377  1.00  0.00     0.093 C 
HETATM    8  N3  UNL     1      -0.772  -0.757  -0.161  1.00  0.00    -0.320 N 
ATOM      9  H3  UNL     1      -1.086  -1.394  -0.893  1.00  0.00     0.169 HD
HETATM   10  C17 UNL     1       0.638  -0.870  -0.050  1.00  0.00     0.271 C 
HETATM   11  O4  UNL     1       1.093  -1.962  -0.487  1.00  0.00    -0.266 OA
HETATM   12  C18 UNL     1       1.621   0.091   0.484  1.00  0.00     0.107 C 
ENDROOT
BRANCH  12  13
HETATM   13  N4  UNL     1       2.903  -0.413   0.826  1.00  0.00    -0.292 N 
HETATM   14  C19 UNL     1       3.907  -0.924  -0.047  1.00  0.00     0.323 C 
HETATM   15  O5  UNL     1       3.758  -1.207  -1.259  1.00  0.00    -0.247 OA
HETATM   16  N5  UNL     1       5.272  -1.188   0.393  1.00  0.00    -0.339 N 
ATOM     17  H5  UNL     1       5.509  -0.983   1.364  1.00  0.00     0.164 HD
BRANCH  16  18
HETATM   18  C20 UNL     1       6.297  -1.715  -0.448  1.00  0.00     0.078 C 
HETATM   19  C21 UNL     1       6.045  -3.116  -0.933  1.00  0.00     0.032 C 
HETATM   20  C22 UNL     1       6.657  -0.889  -1.650  1.00  0.00     0.032 C 
ENDBRANCH  16  18
BRANCH  13  21
HETATM   21  C23 UNL     1       3.210  -0.524   2.275  1.00  0.00     0.086 C 
HETATM   22  C24 UNL     1       2.091  -1.421   2.876  1.00  0.00     0.032 C 
HETATM   23  C25 UNL     1       3.080   0.848   2.871  1.00  0.00     0.032 C 
ENDBRANCH  13  21
ENDBRANCH  12  13
BRANCH   1  24
HETATM   24  C3  UNL     1       1.616   1.403  -1.725  1.00  0.00     0.109 C 
BRANCH  24  25
HETATM   25  C2  UNL     1       1.954   2.782  -2.205  1.00  0.00     0.125 C 
HETATM   26  C1  UNL     1       2.231   3.080  -3.649  1.00  0.00     0.091 C 
HETATM   27  O1  UNL     1       2.030   3.758  -1.463  1.00  0.00    -0.298 OA
ENDBRANCH  24  25
ENDBRANCH   1  24
BRANCH   7  28
HETATM   28  C12 UNL     1      -3.041  -0.999   0.547  1.00  0.00     0.265 C 
HETATM   29  O3  UNL     1      -3.718  -1.115   1.591  1.00  0.00    -0.266 OA
HETATM   30  N2  UNL     1      -3.412  -1.898  -0.534  1.00  0.00    -0.348 N 
ATOM     31  H2  UNL     1      -2.881  -1.860  -1.404  1.00  0.00     0.163 HD
BRANCH  30  32
HETATM   32  C13 UNL     1      -4.500  -2.842  -0.430  1.00  0.00     0.022 C 
HETATM   33  C14 UNL     1      -4.530  -3.599   0.859  1.00  0.00     0.037 C 
HETATM   34  C15 UNL     1      -5.799  -2.301  -0.898  1.00  0.00     0.037 C 
HETATM   35  C16 UNL     1      -4.129  -3.967  -1.466  1.00  0.00     0.037 C 
ENDBRANCH  30  32
ENDBRANCH   7  28
BRANCH   6  36
HETATM   36  C7  UNL     1      -3.281   1.887   0.878  1.00  0.00     0.024 C 
BRANCH  36  37
HETATM   37  C8  UNL     1      -3.599   3.320   0.751  1.00  0.00    -0.022 C 
HETATM   38  C9  UNL     1      -4.098   3.706  -0.657  1.00  0.00     0.009 C 
HETATM   39  C10 UNL     1      -4.603   3.858   1.744  1.00  0.00     0.009 C 
ENDBRANCH  36  37
ENDBRANCH   6  36
TORSDOF 9
