REMARK  8 active torsions:
REMARK  status: ('A' for Active; 'I' for Inactive)
REMARK    1  A    between atoms: C2_2  and  C3_3 
REMARK    2  A    between atoms: C3_3  and  C4_4 
REMARK    3  A    between atoms: C9_15  and  C10_16 
REMARK    4  A    between atoms: C10_16  and  C11_17 
REMARK    5  A    between atoms: C14_20  and  O3_21 
REMARK    6  A    between atoms: C19_32  and  C20_33 
REMARK    7  A    between atoms: C20_33  and  N5_34 
REMARK    8  A    between atoms: C24_38  and  C25_39 
ROOT
HETATM    1  C4  UNL     1      -1.336  -1.563   0.588  1.00  0.00     0.102 C 
HETATM    2  C5  UNL     1      -0.031  -2.232   0.880  1.00  0.00     0.224 C 
HETATM    3  O1  UNL     1       0.253  -2.418   2.101  1.00  0.00    -0.273 OA
HETATM    4  N1  UNL     1       0.885  -2.662  -0.114  1.00  0.00    -0.348 N 
ATOM      5  H1  UNL     1       1.436  -3.500   0.074  1.00  0.00     0.163 HD
HETATM    6  C6  UNL     1       1.084  -1.995  -1.362  1.00  0.00     0.172 C 
HETATM    7  C7  UNL     1       0.347  -2.862  -2.404  1.00  0.00     0.042 C 
HETATM    8  C8  UNL     1       2.486  -1.900  -1.811  1.00  0.00     0.240 C 
HETATM    9  O2  UNL     1       3.022  -3.051  -2.019  1.00  0.00    -0.271 OA
HETATM   10  N2  UNL     1       3.286  -0.783  -2.037  1.00  0.00    -0.347 N 
ATOM     11  H2  UNL     1       3.642  -0.682  -2.987  1.00  0.00     0.163 HD
HETATM   12  C9  UNL     1       3.691   0.280  -1.086  1.00  0.00     0.159 C 
HETATM   13  C14 UNL     1       3.323  -0.073   0.287  1.00  0.00     0.135 C 
HETATM   14  N3  UNL     1       2.464   0.511   1.194  1.00  0.00    -0.355 N 
ATOM     15  H3  UNL     1       2.488   0.061   2.109  1.00  0.00     0.162 HD
HETATM   16  C15 UNL     1       1.553   1.599   1.139  1.00  0.00     0.105 C 
HETATM   17  C16 UNL     1       1.036   2.007  -0.200  1.00  0.00     0.048 C 
HETATM   18  C17 UNL     1       2.269   2.865   1.672  1.00  0.00     0.048 C 
HETATM   19  C18 UNL     1       0.382   1.375   2.052  1.00  0.00     0.245 C 
HETATM   20  O4  UNL     1       0.168   2.240   2.983  1.00  0.00    -0.271 OA
HETATM   21  N4  UNL     1      -0.525   0.305   2.005  1.00  0.00    -0.352 N 
ATOM     22  H4  UNL     1      -0.591  -0.252   2.857  1.00  0.00     0.163 HD
HETATM   23  C19 UNL     1      -1.378  -0.117   0.918  1.00  0.00     0.126 C 
ENDROOT
BRANCH  23  24
HETATM   24  C20 UNL     1      -2.784   0.352   1.313  1.00  0.00     0.298 C 
BRANCH  24  25
HETATM   25  N5  UNL     1      -3.744   0.179   0.296  1.00  0.00     0.095 N 
HETATM   26  C21 UNL     1      -5.105   0.443   0.704  1.00  0.00     0.273 C 
HETATM   27  C22 UNL     1      -5.900   0.358  -0.555  1.00  0.00     0.032 C 
HETATM   28  C23 UNL     1      -4.872   0.615  -1.650  1.00  0.00     0.037 C 
HETATM   29  C24 UNL     1      -3.547   0.855  -0.947  1.00  0.00     0.223 C 
BRANCH  29  30
HETATM   30  C25 UNL     1      -3.265   2.305  -0.909  1.00  0.00     0.031 C 
HETATM   31  C26 UNL     1      -4.287   3.190  -0.288  1.00  0.00     0.007 C 
ENDBRANCH  29  30
ENDBRANCH  24  25
ENDBRANCH  23  24
BRANCH   1  32
HETATM   32  C3  UNL     1      -2.359  -2.430   1.297  1.00  0.00     0.016 C 
BRANCH  32  33
HETATM   33  C2  UNL     1      -2.197  -3.821   0.650  1.00  0.00    -0.004 C 
HETATM   34  C1  UNL     1      -3.145  -4.817   1.228  1.00  0.00     0.005 C 
ENDBRANCH  32  33
ENDBRANCH   1  32
BRANCH  13  35
HETATM   35  O3  UNL     1       3.934  -1.146   0.709  1.00  0.00    -0.348 OA
ATOM     36  H3  UNL     1       3.695  -1.375   1.600  1.00  0.00     0.219 HD
ENDBRANCH  13  35
BRANCH  12  37
HETATM   37  C10 UNL     1       5.155   0.422  -1.302  1.00  0.00     0.037 C 
BRANCH  37  38
HETATM   38  C11 UNL     1       5.970   1.383  -0.594  1.00  0.00    -0.020 C 
HETATM   39  C12 UNL     1       5.606   2.827  -0.737  1.00  0.00     0.009 C 
HETATM   40  C13 UNL     1       6.177   1.066   0.856  1.00  0.00     0.009 C 
ENDBRANCH  37  38
ENDBRANCH  12  37
TORSDOF 8
