REMARK  9 active torsions:
REMARK  status: ('A' for Active; 'I' for Inactive)
REMARK       I    between atoms: N1_5  and  C5_6 
REMARK    1  A    between atoms: C5_6  and  C6_8 
REMARK    2  A    between atoms: C6_8  and  N2_9 
REMARK    3  A    between atoms: C9_15  and  N3_16 
REMARK       I    between atoms: N3_16  and  C10_18 
REMARK    4  A    between atoms: C10_18  and  C11_20 
REMARK    5  A    between atoms: C11_20  and  N4_21 
REMARK    6  A    between atoms: C11_20  and  C22_38 
REMARK       I    between atoms: N4_21  and  C12_23 
REMARK    7  A    between atoms: C12_23  and  C13_25 
REMARK    8  A    between atoms: C17_29  and  C18_30 
REMARK    9  A    between atoms: C18_30  and  N6_34 
ROOT
HETATM    1  N3  UNL     1       1.243  -0.991   0.392  1.00  0.00    -0.355 N 
ATOM      2  H3  UNL     1       1.813  -0.935   1.236  1.00  0.00     0.162 HD
HETATM    3  C10 UNL     1      -0.036  -0.391   0.408  1.00  0.00     0.241 C 
HETATM    4  O2  UNL     1      -0.678  -0.518  -0.697  1.00  0.00    -0.271 OA
ENDROOT
BRANCH   3   5
HETATM    5  C11 UNL     1      -0.686   0.325   1.481  1.00  0.00     0.180 C 
BRANCH   5   6
HETATM    6  N4  UNL     1      -2.012   0.758   1.040  1.00  0.00    -0.347 N 
HETATM    7  C12 UNL     1      -3.172   0.402   1.774  1.00  0.00     0.222 C 
HETATM    8  O3  UNL     1      -3.051  -0.280   2.805  1.00  0.00    -0.273 OA
ATOM      9  H4  UNL     1      -2.103   1.322   0.195  1.00  0.00     0.163 HD
BRANCH   7  10
HETATM   10  C13 UNL     1      -4.499   0.833   1.317  1.00  0.00     0.078 C 
HETATM   11  C14 UNL     1      -5.590   0.526   2.326  1.00  0.00     0.014 C 
HETATM   12  C15 UNL     1      -6.799   1.360   1.879  1.00  0.00     0.002 C 
HETATM   13  C16 UNL     1      -7.254   0.796   0.556  1.00  0.00     0.012 C 
HETATM   14  C17 UNL     1      -6.154   0.727  -0.474  1.00  0.00     0.053 C 
HETATM   15  C21 UNL     1      -4.906   0.057   0.049  1.00  0.00     0.026 C 
BRANCH  14  16
HETATM   16  C18 UNL     1      -6.676   0.074  -1.691  1.00  0.00     0.076 C 
HETATM   17  N5  UNL     1      -6.187  -1.031  -2.121  1.00  0.00    -0.389 N 
ATOM     18  H52 UNL     1      -5.419  -1.478  -1.620  1.00  0.00     0.157 HD
ATOM     19  H51 UNL     1      -6.548  -1.482  -2.962  1.00  0.00     0.157 HD
BRANCH  16  20
HETATM   20  N6  UNL     1      -7.743   0.695  -2.387  1.00  0.00    -0.380 N 
HETATM   21  C19 UNL     1      -7.475   1.798  -3.298  1.00  0.00     0.150 C 
HETATM   22  C20 UNL     1      -9.114   0.278  -2.235  1.00  0.00     0.150 C 
ENDBRANCH  16  20
ENDBRANCH  14  16
ENDBRANCH   7  10
ENDBRANCH   5   6
BRANCH   5  23
HETATM   23  C22 UNL     1       0.037   1.504   2.059  1.00  0.00     0.009 C 
HETATM   24  C23 UNL     1       0.360   2.600   1.111  1.00  0.00     0.012 C 
HETATM   25  C24 UNL     1       1.220   1.103   2.903  1.00  0.00     0.012 C 
ENDBRANCH   5  23
ENDBRANCH   3   5
BRANCH   1  26
HETATM   26  C9  UNL     1       1.793  -1.688  -0.771  1.00  0.00     0.087 C 
HETATM   27  C8  UNL     1       2.168  -3.102  -0.501  1.00  0.00     0.028 C 
HETATM   28  C7  UNL     1       3.579  -3.307  -0.947  1.00  0.00     0.051 C 
HETATM   29  C6  UNL     1       3.882  -2.121  -1.785  1.00  0.00     0.205 C 
HETATM   30  C25 UNL     1       3.022  -1.012  -1.290  1.00  0.00     0.074 C 
BRANCH  29  31
HETATM   31  C5  UNL     1       5.309  -1.789  -1.926  1.00  0.00     0.256 C 
HETATM   32  N1  UNL     1       6.218  -1.438  -0.912  1.00  0.00    -0.350 N 
HETATM   33  C4  UNL     1       5.943  -1.320   0.488  1.00  0.00     0.126 C 
HETATM   34  C26 UNL     1       7.605  -1.175  -1.312  1.00  0.00     0.126 C 
HETATM   35  C3  UNL     1       6.201   0.139   0.889  1.00  0.00     0.024 C 
HETATM   36  C2  UNL     1       7.630   0.444   0.595  1.00  0.00    -0.015 C 
HETATM   37  C1  UNL     1       7.865   1.931   0.875  1.00  0.00     0.010 C 
HETATM   38  C27 UNL     1       7.996   0.207  -0.851  1.00  0.00     0.024 C 
HETATM   39  O1  UNL     1       5.766  -1.830  -3.135  1.00  0.00    -0.271 OA
ENDBRANCH  29  31
BRANCH  29  40
HETATM   40  N2  UNL     1       3.365  -2.446  -3.137  1.00  0.00    -0.061 N 
ATOM     41  H23 UNL     1       3.536  -1.705  -3.817  1.00  0.00     0.275 HD
ATOM     42  H22 UNL     1       3.900  -3.179  -3.602  1.00  0.00     0.275 HD
ATOM     43  H21 UNL     1       2.376  -2.676  -3.039  1.00  0.00     0.275 HD
ENDBRANCH  29  40
ENDBRANCH   1  26
TORSDOF 9
