REMARK  3 active torsions:
REMARK  status: ('A' for Active; 'I' for Inactive)
REMARK    1  A    between atoms: C9_9  and  C10_10 
REMARK    2  A    between atoms: C10_10  and  N1_11 
REMARK    3  A    between atoms: N1_11  and  N2_13 
ROOT
HETATM    1  C10 UNL     1      -0.014  -0.765   1.500  1.00  0.00     0.149 C 
ENDROOT
BRANCH   1   2
HETATM    2  C9  UNL     1      -1.303  -0.610   0.732  1.00  0.00    -0.022 C 
HETATM    3  C8  UNL     1      -1.648  -1.845  -0.034  1.00  0.00     0.015 C 
HETATM    4  C6  UNL     1      -2.907  -1.574  -0.832  1.00  0.00    -0.013 C 
HETATM    5  C5  UNL     1      -4.026  -1.376   0.175  1.00  0.00     0.009 C 
HETATM    6  C7  UNL     1      -2.751  -0.403  -1.752  1.00  0.00     0.014 C 
HETATM    7  C4  UNL     1      -3.719  -0.113   0.947  1.00  0.00    -0.013 C 
HETATM    8  C3  UNL     1      -3.608   1.059   0.011  1.00  0.00     0.014 C 
HETATM    9  C16 UNL     1      -2.430  -0.273   1.687  1.00  0.00     0.015 C 
HETATM   10  C2  UNL     1      -2.459   0.843  -0.921  1.00  0.00    -0.043 C 
HETATM   11  C1  UNL     1      -2.230   2.043  -1.819  1.00  0.00     0.015 C 
HETATM   12  C17 UNL     1      -1.151   0.573  -0.198  1.00  0.00     0.020 C 
ENDBRANCH   1   2
BRANCH   1  13
HETATM   13  N1  UNL     1       1.089  -1.046   0.615  1.00  0.00    -0.334 N 
ATOM     14  H1  UNL     1       0.938  -1.119  -0.391  1.00  0.00     0.180 HD
BRANCH  13  15
HETATM   15  N2  UNL     1       2.356  -1.215   1.149  1.00  0.00    -0.294 N 
HETATM   16  C11 UNL     1       3.354  -0.529   0.737  1.00  0.00     0.091 C 
HETATM   17  C12 UNL     1       4.683  -0.766   1.357  1.00  0.00     0.077 C 
HETATM   18  N3  UNL     1       3.183   0.423  -0.284  1.00  0.00    -0.379 N 
HETATM   19  C13 UNL     1       5.680  -0.079   0.412  1.00  0.00     0.009 C 
HETATM   20  C14 UNL     1       5.272   1.378   0.415  1.00  0.00     0.020 C 
HETATM   21  C15 UNL     1       4.001   1.614  -0.327  1.00  0.00     0.121 C 
ATOM     22  H3  UNL     1       2.474   0.271  -1.002  1.00  0.00     0.160 HD
ATOM     23  H2  UNL     1       2.497  -1.903   1.889  1.00  0.00     0.188 HD
ENDBRANCH  13  15
ENDBRANCH   1  13
TORSDOF 3
