REMARK  9 active torsions:
REMARK  status: ('A' for Active; 'I' for Inactive)
REMARK    1  A    between atoms: O1_1  and  C1_3 
REMARK    2  A    between atoms: C1_3  and  C2_4 
REMARK    3  A    between atoms: C2_4  and  C3_5 
REMARK    4  A    between atoms: C2_4  and  C15_25 
REMARK    5  A    between atoms: C4_6  and  C5_7 
REMARK    6  A    between atoms: C5_7  and  C6_8 
REMARK    7  A    between atoms: C6_8  and  C7_9 
REMARK    8  A    between atoms: C11_14  and  O2_15 
REMARK    9  A    between atoms: C13_19  and  O3_20 
ROOT
HETATM    1  C7  UNL     1       1.036  -0.055   0.009  1.00  0.00     0.011 A 
HETATM    2  C8  UNL     1       1.856  -0.933   0.653  1.00  0.00     0.040 A 
HETATM    3  C9  UNL     1       3.160  -0.500   0.388  1.00  0.00     0.015 A 
HETATM    4  C10 UNL     1       4.371  -0.985   0.766  1.00  0.00     0.058 A 
HETATM    5 BR1  UNL     1       4.511  -2.535   1.863  1.00  0.00    -0.047 Br
HETATM    6  C11 UNL     1       5.503  -0.325   0.335  1.00  0.00     0.104 A 
HETATM    7  C12 UNL     1       5.371   0.813  -0.471  1.00  0.00     0.081 A 
HETATM    8 BR2  UNL     1       6.974   1.688  -1.039  1.00  0.00    -0.045 Br
HETATM    9  C13 UNL     1       4.133   1.293  -0.847  1.00  0.00     0.113 A 
HETATM   10  C14 UNL     1       3.016   0.632  -0.415  1.00  0.00     0.079 A 
HETATM   11  N1  UNL     1       1.719   0.891  -0.637  1.00  0.00    -0.357 N 
ATOM     12  H1  UNL     1       1.333   1.657  -1.189  1.00  0.00     0.166 HD
ENDROOT
BRANCH   1  13
HETATM   13  C6  UNL     1      -0.474  -0.152   0.032  1.00  0.00     0.061 C 
BRANCH  13  14
HETATM   14  C5  UNL     1      -0.912   0.634   1.205  1.00  0.00     0.033 C 
BRANCH  14  15
HETATM   15  C4  UNL     1      -2.299   0.759   1.562  1.00  0.00    -0.030 C 
HETATM   16  C3  UNL     1      -3.378   0.307   1.078  1.00  0.00    -0.023 C 
BRANCH  16  17
HETATM   17  C2  UNL     1      -3.629  -0.546  -0.069  1.00  0.00     0.045 C 
BRANCH  17  18
HETATM   18  C1  UNL     1      -4.613   0.194  -1.018  1.00  0.00     0.173 C 
BRANCH  18  19
HETATM   19  O1  UNL     1      -5.805   0.457  -0.359  1.00  0.00    -0.400 OA
ATOM     20  H1  UNL     1      -6.406   0.909  -0.939  1.00  0.00     0.209 HD
ENDBRANCH  18  19
ENDBRANCH  17  18
BRANCH  17  21
HETATM   21  C15 UNL     1      -4.330  -1.819   0.428  1.00  0.00     0.125 C 
HETATM   22 CL1  UNL     1      -4.733  -2.831  -0.954  1.00  0.00    -0.130 Cl
ENDBRANCH  17  21
ENDBRANCH  16  17
ENDBRANCH  14  15
ENDBRANCH  13  14
ENDBRANCH   1  13
BRANCH   9  23
HETATM   23  O3  UNL     1       4.071   2.434  -1.653  1.00  0.00    -0.357 OA
ATOM     24  H3  UNL     1       3.219   2.764  -1.912  1.00  0.00     0.217 HD
ENDBRANCH   9  23
BRANCH   6  25
HETATM   25  O2  UNL     1       6.750  -0.773   0.689  1.00  0.00    -0.358 OA
ATOM     26  H2  UNL     1       7.530  -0.318   0.392  1.00  0.00     0.217 HD
ENDBRANCH   6  25
TORSDOF 9
