REMARK  7 active torsions:
REMARK  status: ('A' for Active; 'I' for Inactive)
REMARK       I    between atoms: C1_2  and  N1_3 
REMARK       I    between atoms: C1_2  and  N2_13 
REMARK    1  A    between atoms: N1_3  and  C2_5 
REMARK    2  A    between atoms: C5_8  and  O2_9 
REMARK    3  A    between atoms: N2_13  and  C8_15 
REMARK    4  A    between atoms: C12_19  and  C13_20 
REMARK    5  A    between atoms: C13_20  and  N3_21 
REMARK    6  A    between atoms: N3_21  and  C14_23 
REMARK    7  A    between atoms: C14_23  and  C15_24 
ROOT
HETATM    1  C8  UNL     1      -0.368  -1.456  -0.203  1.00  0.00     0.086 C 
HETATM    2  C9  UNL     1      -0.066  -0.832  -1.568  1.00  0.00     0.025 C 
HETATM    3  C10 UNL     1       0.925  -1.648  -2.274  1.00  0.00     0.003 C 
HETATM    4  C11 UNL     1       2.222  -1.847  -1.520  1.00  0.00     0.010 C 
HETATM    5  C12 UNL     1       2.197  -1.496  -0.091  1.00  0.00     0.025 C 
HETATM    6  C21 UNL     1       0.824  -1.785   0.538  1.00  0.00     0.035 C 
ENDROOT
BRANCH   1   7
HETATM    7  N2  UNL     1      -1.179  -0.448   0.480  1.00  0.00    -0.339 N 
HETATM    8  C1  UNL     1      -2.598  -0.467   0.307  1.00  0.00     0.316 C 
HETATM    9  O1  UNL     1      -3.090  -1.374  -0.413  1.00  0.00    -0.247 OA
HETATM   10  N1  UNL     1      -3.414   0.484   0.900  1.00  0.00    -0.339 N 
ATOM     11  H1  UNL     1      -2.944   1.171   1.489  1.00  0.00     0.164 HD
ATOM     12  H2  UNL     1      -0.739   0.258   1.071  1.00  0.00     0.164 HD
BRANCH  10  13
HETATM   13  C2  UNL     1      -4.858   0.624   0.787  1.00  0.00     0.086 C 
HETATM   14  C3  UNL     1      -5.504  -0.497   0.072  1.00  0.00     0.028 C 
HETATM   15  C4  UNL     1      -7.015  -0.458   0.356  1.00  0.00     0.034 C 
HETATM   16  C5  UNL     1      -7.469   0.920   0.676  1.00  0.00     0.118 C 
HETATM   17  C6  UNL     1      -6.718   1.991  -0.027  1.00  0.00     0.034 C 
HETATM   18  C7  UNL     1      -5.219   1.948   0.198  1.00  0.00     0.028 C 
BRANCH  16  19
HETATM   19  O2  UNL     1      -8.811   1.010   0.244  1.00  0.00    -0.396 OA
ATOM     20  H2  UNL     1      -9.101   1.891   0.449  1.00  0.00     0.210 HD
ENDBRANCH  16  19
ENDBRANCH  10  13
ENDBRANCH   1   7
BRANCH   5  21
HETATM   21  C13 UNL     1       2.601  -0.166   0.371  1.00  0.00     0.060 C 
BRANCH  21  22
HETATM   22  N3  UNL     1       3.845   0.391   0.055  1.00  0.00    -0.398 N 
ATOM     23  H3  UNL     1       3.905   1.272  -0.455  1.00  0.00     0.158 HD
BRANCH  22  24
HETATM   24  C14 UNL     1       5.047  -0.307   0.466  1.00  0.00     0.159 C 
BRANCH  24  25
HETATM   25  C15 UNL     1       6.239   0.486   0.409  1.00  0.00    -0.017 A 
HETATM   26  C16 UNL     1       6.972   0.691   1.608  1.00  0.00     0.012 A 
HETATM   27  C17 UNL     1       8.193   1.339   1.647  1.00  0.00     0.026 A 
HETATM   28  C18 UNL     1       8.722   1.814   0.475  1.00  0.00     0.057 A 
HETATM   29 CL1  UNL     1      10.263   2.632   0.450  1.00  0.00    -0.082 Cl
HETATM   30  C19 UNL     1       8.046   1.635  -0.709  1.00  0.00     0.078 A 
HETATM   31 CL2  UNL     1       8.665   2.234  -2.230  1.00  0.00    -0.081 Cl
HETATM   32  C20 UNL     1       6.804   0.970  -0.716  1.00  0.00     0.065 A 
HETATM   33 CL3  UNL     1       6.032   0.811  -2.307  1.00  0.00    -0.082 Cl
ENDBRANCH  24  25
ENDBRANCH  22  24
ENDBRANCH  21  22
ENDBRANCH   5  21
TORSDOF 7
