REMARK  3 active torsions:
REMARK  status: ('A' for Active; 'I' for Inactive)
REMARK       I    between atoms: C2_5  and  N4_7 
REMARK    1  A    between atoms: N4_7  and  N5_9 
REMARK       I    between atoms: N5_9  and  C3_11 
REMARK       I    between atoms: C3_11  and  N6_12 
REMARK    2  A    between atoms: N7_14  and  N8_16 
REMARK       I    between atoms: N11_21  and  C5_23 
REMARK    3  A    between atoms: C5_23  and  C6_25 
ROOT
HETATM    1  N1  UNL     1      -3.745   5.949   0.628  1.00  0.00    -0.172 NA
HETATM    2  C1  UNL     1      -3.001   5.086   0.926  1.00  0.00     0.184 C 
HETATM    3  N2  UNL     1      -2.110   4.063   1.259  1.00  0.00    -0.266 N 
ATOM      4  H2  UNL     1      -1.813   3.934   2.226  1.00  0.00     0.180 HD
HETATM    5  C2  UNL     1      -1.672   3.293   0.345  1.00  0.00     0.216 C 
HETATM    6  N3  UNL     1      -2.077   3.466  -0.992  1.00  0.00    -0.061 NA
HETATM    7  N4  UNL     1      -0.772   2.259   0.677  1.00  0.00    -0.259 N 
ATOM      8  H4  UNL     1      -0.231   2.306   1.541  1.00  0.00     0.190 HD
ENDROOT
BRANCH   7   9
HETATM    9  N5  UNL     1      -0.627   1.172  -0.184  1.00  0.00    -0.128 N 
HETATM   10  C3  UNL     1       0.414   0.218  -0.031  1.00  0.00     0.715 C 
HETATM   11  N6  UNL     1       0.361  -0.706   1.046  1.00  0.00    -0.116 N 
HETATM   12  N11 UNL     1       1.372   0.238  -0.894  1.00  0.00    -0.157 N 
HETATM   13  N7  UNL     1      -0.337  -1.769   1.001  1.00  0.00    -0.226 N 
ATOM     14  H6  UNL     1       0.903  -0.510   1.888  1.00  0.00     0.207 HD
ATOM     15  H7  UNL     1      -0.357  -2.415   1.790  1.00  0.00     0.209 HD
HETATM   16  C5  UNL     1       2.454  -0.657  -0.843  1.00  0.00     0.240 C 
ATOM     17  H11 UNL     1       1.343   0.930  -1.643  1.00  0.00     0.187 HD
HETATM   18  O1  UNL     1       2.457  -1.637  -1.661  1.00  0.00    -0.272 OA
ATOM     19  H5  UNL     1      -1.291   1.058  -0.950  1.00  0.00     0.205 HD
BRANCH  13  20
HETATM   20  N8  UNL     1      -1.067  -2.026  -0.142  1.00  0.00    -0.261 N 
HETATM   21  C4  UNL     1      -2.257  -2.482  -0.132  1.00  0.00     0.216 C 
HETATM   22  N9  UNL     1      -2.899  -2.702  -1.378  1.00  0.00    -0.065 NA
HETATM   23  N10 UNL     1      -2.893  -2.751   1.103  1.00  0.00    -0.065 NA
ATOM     24  H8  UNL     1      -0.630  -1.841  -1.045  1.00  0.00     0.190 HD
ENDBRANCH  13  20
BRANCH  16  25
HETATM   25  C6  UNL     1       3.589  -0.556   0.084  1.00  0.00     0.079 A 
HETATM   26  C7  UNL     1       4.070  -1.895   0.681  1.00  0.00     0.015 A 
HETATM   27  C8  UNL     1       4.919  -1.108  -0.259  1.00  0.00     0.015 A 
ENDBRANCH  16  25
ENDBRANCH   7   9
TORSDOF 3
