REMARK  3 active torsions:
REMARK  status: ('A' for Active; 'I' for Inactive)
REMARK       I    between atoms: C1_4  and  N2_5 
REMARK       I    between atoms: C1_4  and  N4_10 
REMARK    1  A    between atoms: N2_5  and  N3_7 
REMARK    2  A    between atoms: N4_10  and  S1_12 
REMARK    3  A    between atoms: S1_12  and  N5_15 
REMARK       I    between atoms: N6_18  and  C4_19 
ROOT
HETATM    1  S1  UNL     1       1.304  -1.432   1.171  1.00  0.00     0.342 S 
HETATM    2  O1  UNL     1       1.373  -0.504   2.366  1.00  0.00    -0.181 OA
HETATM    3  O2  UNL     1       1.196  -2.850   1.691  1.00  0.00    -0.181 OA
ENDROOT
BRANCH   1   4
HETATM    4  N4  UNL     1       2.705  -1.309   0.183  1.00  0.00    -0.098 N 
HETATM    5  C1  UNL     1       3.386  -0.074   0.104  1.00  0.00     0.700 C 
HETATM    6  N1  UNL     1       3.875   0.458   1.169  1.00  0.00    -0.233 N 
HETATM    7  N2  UNL     1       3.541   0.594  -1.145  1.00  0.00    -0.138 N 
ATOM      8  H12 UNL     1       4.367   1.350   1.112  1.00  0.00     0.174 HD
ATOM      9  H11 UNL     1       3.764  -0.020   2.063  1.00  0.00     0.174 HD
ATOM     10  H2  UNL     1       2.736   0.770  -1.746  1.00  0.00     0.205 HD
ATOM     11  H4  UNL     1       3.041  -2.118  -0.340  1.00  0.00     0.199 HD
BRANCH   7  12
HETATM   12  N3  UNL     1       4.822   1.002  -1.527  1.00  0.00    -0.331 N 
ATOM     13  H32 UNL     1       5.617   0.818  -0.915  1.00  0.00     0.177 HD
ATOM     14  H31 UNL     1       4.933   1.480  -2.421  1.00  0.00     0.177 HD
ENDBRANCH   7  12
ENDBRANCH   1   4
BRANCH   1  15
HETATM   15  N5  UNL     1      -0.128  -1.057   0.294  1.00  0.00    -0.249 N 
HETATM   16  C2  UNL     1      -0.156   0.249  -0.208  1.00  0.00     0.102 C 
HETATM   17  C3  UNL     1      -1.301   1.112   0.229  1.00  0.00     0.171 C 
HETATM   18  N6  UNL     1      -2.507   0.359   0.035  1.00  0.00    -0.346 N 
HETATM   19  C4  UNL     1      -3.604   0.937  -0.628  1.00  0.00     0.184 C 
HETATM   20  C5  UNL     1      -2.589  -0.973   0.517  1.00  0.00     0.171 C 
HETATM   21  N7  UNL     1      -4.822   0.761  -0.243  1.00  0.00    -0.374 N 
HETATM   22  N8  UNL     1      -3.401   1.752  -1.772  1.00  0.00    -0.064 NA
ATOM     23  H72 UNL     1      -4.968   0.175   0.579  1.00  0.00     0.158 HD
ATOM     24  H71 UNL     1      -5.618   1.180  -0.724  1.00  0.00     0.158 HD
HETATM   25  C6  UNL     1      -1.292  -1.647   0.780  1.00  0.00     0.102 C 
ENDBRANCH   1  15
TORSDOF 3
