REMARK  6 active torsions:
REMARK  status: ('A' for Active; 'I' for Inactive)
REMARK    1  A    between atoms: O1_1  and  C1_3 
REMARK    2  A    between atoms: C1_3  and  C2_4 
REMARK    3  A    between atoms: C2_4  and  C3_5 
REMARK    4  A    between atoms: C3_5  and  C4_6 
REMARK    5  A    between atoms: C4_6  and  N1_7 
REMARK    6  A    between atoms: N1_7  and  C5_10 
ROOT
HETATM    1  C5  UNL     1      -0.608  -0.517  -0.166  1.00  0.00     0.216 C 
HETATM    2  C6  UNL     1      -0.674   0.687  -0.967  1.00  0.00     0.004 C 
HETATM    3  C7  UNL     1      -1.575   1.643  -1.024  1.00  0.00    -0.007 C 
HETATM    4  C8  UNL     1      -2.824   1.789  -0.260  1.00  0.00     0.109 C 
HETATM    5  C9  UNL     1      -3.933   1.106  -1.074  1.00  0.00     0.027 C 
HETATM    6  C10 UNL     1      -3.655  -0.362  -0.792  1.00  0.00     0.024 C 
HETATM    7  C11 UNL     1      -3.030  -0.327   0.522  1.00  0.00     0.095 C 
HETATM    8  C12 UNL     1      -1.683  -0.886   0.737  1.00  0.00     0.066 C 
HETATM    9  C13 UNL     1      -1.451  -0.217   2.113  1.00  0.00     0.202 C 
HETATM   10  O2  UNL     1      -1.738   1.112   1.703  1.00  0.00    -0.302 OA
HETATM   11  N2  UNL     1      -2.852   1.036   0.981  1.00  0.00    -0.184 NA
ENDROOT
BRANCH   1  12
HETATM   12  N1  UNL     1       0.656  -0.519   0.560  1.00  0.00    -0.067 N 
ATOM     13  H12 UNL     1       0.658  -1.235   1.286  1.00  0.00     0.277 HD
ATOM     14  H11 UNL     1       0.741   0.312   1.145  1.00  0.00     0.277 HD
BRANCH  12  15
HETATM   15  C4  UNL     1       1.816  -0.661  -0.314  1.00  0.00     0.233 C 
BRANCH  15  16
HETATM   16  C3  UNL     1       2.962  -0.975   0.641  1.00  0.00     0.029 C 
BRANCH  16  17
HETATM   17  C2  UNL     1       4.259  -1.241  -0.044  1.00  0.00     0.028 C 
BRANCH  17  18
HETATM   18  C1  UNL     1       4.801  -0.114  -0.865  1.00  0.00     0.164 C 
BRANCH  18  19
HETATM   19  O1  UNL     1       5.008   0.960  -0.013  1.00  0.00    -0.401 OA
ATOM     20  H1  UNL     1       5.352   1.676  -0.534  1.00  0.00     0.209 HD
ENDBRANCH  18  19
ENDBRANCH  17  18
ENDBRANCH  16  17
ENDBRANCH  15  16
ENDBRANCH  12  15
ENDBRANCH   1  12
TORSDOF 6
