REMARK  5 active torsions:
REMARK  status: ('A' for Active; 'I' for Inactive)
REMARK    1  A    between atoms: O1_1  and  N1_3 
REMARK    2  A    between atoms: C6_13  and  C7_14 
REMARK    3  A    between atoms: C7_14  and  C8_15 
REMARK    4  A    between atoms: C8_15  and  C9_16 
REMARK    5  A    between atoms: C9_16  and  N3_17 
ROOT
HETATM    1  N1  UNL     1      -2.930  -0.310   0.961  1.00  0.00    -0.162 NA
HETATM    2  C1  UNL     1      -4.137  -0.956   0.543  1.00  0.00     0.288 C 
HETATM    3  O2  UNL     1      -3.976  -1.435  -0.728  1.00  0.00    -0.373 OA
HETATM    4  C2  UNL     1      -2.657  -1.217  -1.114  1.00  0.00     0.199 C 
HETATM    5  C3  UNL     1      -2.283  -0.028  -0.300  1.00  0.00     0.091 C 
HETATM    6  C4  UNL     1      -2.765   1.272  -0.846  1.00  0.00     0.262 C 
HETATM    7  N2  UNL     1      -2.008   2.244  -0.099  1.00  0.00    -0.073 N 
ATOM      8  H21 UNL     1      -2.517   2.611   0.705  1.00  0.00     0.277 HD
ATOM      9  H22 UNL     1      -1.893   3.126  -0.598  1.00  0.00     0.277 HD
HETATM   10  C5  UNL     1      -0.750   1.634   0.262  1.00  0.00     0.239 C 
HETATM   11  C6  UNL     1      -0.804   0.195  -0.172  1.00  0.00     0.040 C 
ENDROOT
BRANCH  11  12
HETATM   12  C7  UNL     1      -0.145  -0.740   0.792  1.00  0.00     0.010 C 
BRANCH  12  13
HETATM   13  C8  UNL     1       1.327  -0.468   0.877  1.00  0.00     0.021 C 
BRANCH  13  14
HETATM   14  C9  UNL     1       2.017  -0.639  -0.461  1.00  0.00     0.128 C 
BRANCH  14  15
HETATM   15  N3  UNL     1       3.448  -0.368  -0.334  1.00  0.00    -0.366 N 
HETATM   16  C10 UNL     1       4.410  -1.281  -0.036  1.00  0.00     0.090 A 
HETATM   17  C11 UNL     1       5.643  -0.691   0.004  1.00  0.00     0.019 A 
HETATM   18  C12 UNL     1       5.448   0.650  -0.281  1.00  0.00     0.019 A 
HETATM   19  C13 UNL     1       4.091   0.797  -0.480  1.00  0.00     0.090 A 
ENDBRANCH  14  15
ENDBRANCH  13  14
ENDBRANCH  12  13
ENDBRANCH  11  12
BRANCH   1  20
HETATM   20  O1  UNL     1      -3.205   0.800   1.673  1.00  0.00    -0.310 OA
ATOM     21  H1  UNL     1      -2.404   1.229   1.950  1.00  0.00     0.237 HD
ENDBRANCH   1  20
TORSDOF 5
