REMARK  4 active torsions:
REMARK  status: ('A' for Active; 'I' for Inactive)
REMARK    1  A    between atoms: C2_2  and  C4_10 
REMARK    2  A    between atoms: N1_3  and  N2_5 
REMARK    3  A    between atoms: C7_13  and  N5_14 
REMARK    4  A    between atoms: N5_14  and  C9_16 
ROOT
HETATM    1  C9  UNL     1       3.729  -0.012  -0.521  1.00  0.00     0.189 C 
HETATM    2  C10 UNL     1       4.665   0.209   0.655  1.00  0.00     0.048 C 
HETATM    3  C11 UNL     1       3.202   1.289  -0.892  1.00  0.00     0.084 C 
HETATM    4  N6  UNL     1       2.802   2.345  -1.194  1.00  0.00    -0.195 NA
ENDROOT
BRANCH   1   5
HETATM    5  N5  UNL     1       2.739  -1.004  -0.252  1.00  0.00    -0.349 N 
HETATM    6  C8  UNL     1       3.166  -2.364   0.060  1.00  0.00     0.153 C 
BRANCH   5   7
HETATM    7  C7  UNL     1       1.337  -0.749  -0.268  1.00  0.00     0.147 A 
HETATM    8  C6  UNL     1       0.367  -1.692  -0.013  1.00  0.00     0.059 A 
HETATM    9  C5  UNL     1      -0.866  -1.072  -0.120  1.00  0.00     0.043 A 
HETATM   10  C4  UNL     1      -0.598   0.234  -0.439  1.00  0.00     0.101 A 
HETATM   11  O1  UNL     1       0.717   0.367  -0.512  1.00  0.00    -0.292 OA
BRANCH  10  12
HETATM   12  C2  UNL     1      -1.592   1.277  -0.654  1.00  0.00     0.056 C 
HETATM   13  C1  UNL     1      -1.014   2.643  -0.998  1.00  0.00     0.072 C 
HETATM   14  N1  UNL     1      -2.850   1.152  -0.582  1.00  0.00    -0.300 N 
ATOM     15  H1  UNL     1      -3.362   2.014  -0.769  1.00  0.00     0.186 HD
BRANCH  14  16
HETATM   16  N2  UNL     1      -3.646   0.092  -0.304  1.00  0.00    -0.276 N 
HETATM   17  C3  UNL     1      -4.694   0.074   0.421  1.00  0.00     0.215 C 
HETATM   18  N3  UNL     1      -5.128   1.289   1.039  1.00  0.00    -0.065 NA
HETATM   19  N4  UNL     1      -5.430  -1.118   0.624  1.00  0.00    -0.065 NA
ATOM     20  H2  UNL     1      -3.375  -0.797  -0.725  1.00  0.00     0.189 HD
ENDBRANCH  14  16
ENDBRANCH  10  12
ENDBRANCH   5   7
ENDBRANCH   1   5
TORSDOF 4
