REMARK  6 active torsions:
REMARK  status: ('A' for Active; 'I' for Inactive)
REMARK    1  A    between atoms: C2_2  and  C3_3 
REMARK    2  A    between atoms: C3_3  and  O1_4 
REMARK    3  A    between atoms: C3_3  and  C4_6 
REMARK    4  A    between atoms: C4_6  and  N1_7 
REMARK    5  A    between atoms: C11_14  and  C12_15 
REMARK    6  A    between atoms: N3_17  and  O2_19 
ROOT
HETATM    1  N1  UNL     1      -0.145   0.209   0.235  1.00  0.00    -0.380 N 
HETATM    2  C5  UNL     1      -0.628  -0.458   1.373  1.00  0.00     0.059 C 
HETATM    3  C6  UNL     1      -0.882  -1.932   1.178  1.00  0.00     0.044 C 
HETATM    4  C7  UNL     1      -1.564  -2.290  -0.096  1.00  0.00     0.005 C 
HETATM    5  C8  UNL     1      -2.835  -1.557  -0.373  1.00  0.00     0.000 C 
HETATM    6  C9  UNL     1      -2.501  -0.395  -1.320  1.00  0.00     0.002 C 
HETATM    7  C10 UNL     1      -2.417   0.840  -0.442  1.00  0.00     0.033 C 
HETATM    8  C11 UNL     1      -0.972   1.244  -0.327  1.00  0.00     0.150 C 
ENDROOT
BRANCH   1   9
HETATM    9  C4  UNL     1       1.221   0.544   0.160  1.00  0.00     0.154 C 
BRANCH   9  10
HETATM   10  C3  UNL     1       2.149  -0.680   0.037  1.00  0.00     0.135 C 
BRANCH  10  11
HETATM   11  C2  UNL     1       3.528  -0.044  -0.208  1.00  0.00     0.029 C 
HETATM   12  C1  UNL     1       4.573  -1.108  -0.437  1.00  0.00     0.007 C 
ENDBRANCH  10  11
BRANCH  10  13
HETATM   13  O1  UNL     1       1.862  -1.414  -1.112  1.00  0.00    -0.394 OA
ATOM     14  H1  UNL     1       1.010  -1.807  -0.961  1.00  0.00     0.210 HD
ENDBRANCH  10  13
ENDBRANCH   9  10
ENDBRANCH   1   9
BRANCH   8  15
HETATM   15  C12 UNL     1      -0.777   2.587   0.223  1.00  0.00     0.136 C 
HETATM   16  N2  UNL     1       0.489   3.253   0.125  1.00  0.00    -0.083 NA
HETATM   17  N3  UNL     1      -1.673   3.253   0.809  1.00  0.00    -0.257 N 
ATOM     18  H3  UNL     1      -1.358   4.169   1.129  1.00  0.00     0.195 HD
BRANCH  17  19
HETATM   19  O2  UNL     1      -2.952   2.997   1.094  1.00  0.00    -0.289 OA
ATOM     20  H2  UNL     1      -3.627   3.499   1.536  1.00  0.00     0.244 HD
ENDBRANCH  17  19
ENDBRANCH   8  15
TORSDOF 6
