REMARK  9 active torsions:
REMARK  status: ('A' for Active; 'I' for Inactive)
REMARK    1  A    between atoms: C1_2  and  C2_4 
REMARK    2  A    between atoms: C2_4  and  C3_5 
REMARK       I    between atoms: C3_5  and  N1_7 
REMARK    3  A    between atoms: N1_7  and  C4_9 
REMARK    4  A    between atoms: C4_9  and  C5_10 
REMARK    5  A    between atoms: C5_10  and  C6_11 
REMARK    6  A    between atoms: C7_14  and  C8_15 
REMARK    7  A    between atoms: C11_18  and  S1_19 
REMARK    8  A    between atoms: S1_19  and  C12_20 
REMARK    9  A    between atoms: N4_28  and  C15_29 
ROOT
HETATM    1  C6  UNL     1       0.683  -1.078  -1.323  1.00  0.00     0.101 A 
HETATM    2  N2  UNL     1       0.868   0.245  -1.396  1.00  0.00    -0.329 N 
ATOM      3  H2  UNL     1       0.240   0.897  -1.867  1.00  0.00     0.168 HD
HETATM    4  C7  UNL     1       2.008   0.594  -0.755  1.00  0.00     0.131 A 
HETATM    5  N3  UNL     1       2.522  -0.549  -0.285  1.00  0.00    -0.281 N 
ATOM      6  H3  UNL     1       3.387  -0.628   0.249  1.00  0.00     0.189 HD
HETATM    7  N4  UNL     1       1.738  -1.561  -0.618  1.00  0.00    -0.274 N 
ENDROOT
BRANCH   1   8
HETATM    8  C5  UNL     1      -0.425  -1.895  -1.878  1.00  0.00     0.098 C 
BRANCH   8   9
HETATM    9  C4  UNL     1      -1.564  -2.043  -0.912  1.00  0.00     0.130 C 
BRANCH   9  10
HETATM   10  N1  UNL     1      -2.151  -0.795  -0.533  1.00  0.00    -0.360 N 
HETATM   11  C3  UNL     1      -3.237  -0.739   0.375  1.00  0.00     0.237 C 
HETATM   12  O3  UNL     1      -3.679  -1.838   0.845  1.00  0.00    -0.272 OA
ATOM     13  H1  UNL     1      -1.781   0.071  -0.924  1.00  0.00     0.162 HD
BRANCH  11  14
HETATM   14  C2  UNL     1      -3.863   0.556   0.783  1.00  0.00     0.129 C 
HETATM   15  C21 UNL     1      -4.996   0.241   1.733  1.00  0.00     0.030 C 
HETATM   16  C22 UNL     1      -5.976   1.394   1.820  1.00  0.00     0.002 C 
HETATM   17  C23 UNL     1      -6.709   1.569   0.495  1.00  0.00     0.000 C 
HETATM   18  C24 UNL     1      -5.880   0.974  -0.636  1.00  0.00     0.002 C 
HETATM   19  C25 UNL     1      -4.403   1.297  -0.426  1.00  0.00     0.030 C 
BRANCH  14  20
HETATM   20  C1  UNL     1      -2.825   1.358   1.457  1.00  0.00     0.191 C 
HETATM   21  O1  UNL     1      -3.031   1.702   2.667  1.00  0.00    -0.647 OA
HETATM   22  O2  UNL     1      -1.645   1.759   0.865  1.00  0.00    -0.647 OA
ENDBRANCH  14  20
ENDBRANCH  11  14
ENDBRANCH   9  10
ENDBRANCH   8   9
ENDBRANCH   1   8
BRANCH   7  23
HETATM   23  C15 UNL     1       1.962  -2.952  -0.287  1.00  0.00     0.109 C 
HETATM   24  C16 UNL     1       2.824  -3.615  -1.341  1.00  0.00     0.027 C 
HETATM   25  C17 UNL     1       3.975  -4.309  -0.668  1.00  0.00     0.002 C 
HETATM   26  C18 UNL     1       3.439  -5.319   0.313  1.00  0.00     0.000 C 
HETATM   27  C19 UNL     1       2.670  -4.577   1.384  1.00  0.00     0.002 C 
HETATM   28  C20 UNL     1       2.580  -3.097   1.097  1.00  0.00     0.027 C 
ENDBRANCH   7  23
BRANCH   4  29
HETATM   29  C8  UNL     1       2.536   1.953  -0.626  1.00  0.00     0.009 A 
HETATM   30  C9  UNL     1       1.844   3.010  -1.192  1.00  0.00     0.016 A 
HETATM   31  C10 UNL     1       2.274   4.304  -1.112  1.00  0.00     0.019 A 
HETATM   32  C11 UNL     1       3.462   4.583  -0.432  1.00  0.00     0.009 A 
HETATM   33  C13 UNL     1       4.154   3.537   0.133  1.00  0.00     0.019 A 
HETATM   34  C14 UNL     1       3.690   2.220   0.035  1.00  0.00     0.016 A 
BRANCH  32  35
HETATM   35  S1  UNL     1       4.018   6.269  -0.335  1.00  0.00    -0.016 SA
BRANCH  35  36
HETATM   36  C12 UNL     1       5.554   6.392   0.613  1.00  0.00     0.448 C 
HETATM   37  F1  UNL     1       6.551   5.724  -0.099  1.00  0.00    -0.160 F 
HETATM   38  F2  UNL     1       5.374   5.875   1.863  1.00  0.00    -0.160 F 
HETATM   39  F3  UNL     1       5.883   7.737   0.749  1.00  0.00    -0.160 F 
ENDBRANCH  35  36
ENDBRANCH  32  35
ENDBRANCH   4  29
TORSDOF 9
