REMARK  8 active torsions:
REMARK  status: ('A' for Active; 'I' for Inactive)
REMARK    1  A    between atoms: C2_2  and  C3_3 
REMARK    2  A    between atoms: C3_3  and  C4_4 
REMARK    3  A    between atoms: C3_3  and  N1_6 
REMARK    4  A    between atoms: N1_6  and  C6_8 
REMARK    5  A    between atoms: C7_11  and  S1_12 
REMARK    6  A    between atoms: C17_27  and  O1_28 
REMARK    7  A    between atoms: N4_32  and  C21_33 
REMARK    8  A    between atoms: C21_33  and  C22_34 
ROOT
HETATM    1  C6  UNL     1      -1.194  -0.020   0.048  1.00  0.00     0.120 A 
HETATM    2  N2  UNL     1       0.027  -0.512   0.274  1.00  0.00    -0.322 N 
ATOM      3  H2  UNL     1       0.176  -1.521   0.296  1.00  0.00     0.169 HD
HETATM    4  C7  UNL     1       1.069   0.336   0.475  1.00  0.00     0.151 A 
HETATM    5  N3  UNL     1       0.885   1.661   0.449  1.00  0.00    -0.322 N 
ATOM      6  H3  UNL     1       1.681   2.280   0.602  1.00  0.00     0.169 HD
HETATM    7  C15 UNL     1      -0.330   2.190   0.225  1.00  0.00     0.127 A 
HETATM    8  C16 UNL     1      -1.406   1.369   0.018  1.00  0.00     0.087 A 
HETATM    9  C17 UNL     1      -2.515   2.162  -0.185  1.00  0.00     0.108 A 
HETATM   10  C19 UNL     1      -2.108   3.491  -0.100  1.00  0.00     0.044 A 
HETATM   11  C20 UNL     1      -2.961   4.716  -0.252  1.00  0.00     0.071 C 
HETATM   12  N4  UNL     1      -0.787   3.476   0.148  1.00  0.00    -0.324 N 
ENDROOT
BRANCH   4  13
HETATM   13  S1  UNL     1       2.671  -0.334   0.771  1.00  0.00    -0.064 SA
HETATM   14  C8  UNL     1       3.612  -0.589  -0.741  1.00  0.00     0.129 A 
HETATM   15  C9  UNL     1       4.944  -1.157  -0.358  1.00  0.00    -0.005 A 
HETATM   16  C10 UNL     1       5.906  -1.467  -1.307  1.00  0.00     0.044 A 
HETATM   17  C14 UNL     1       5.283  -1.402   0.964  1.00  0.00     0.039 A 
HETATM   18 CL1  UNL     1       5.521  -1.174  -2.991  1.00  0.00    -0.084 Cl
HETATM   19  C11 UNL     1       7.138  -1.991  -0.973  1.00  0.00     0.048 A 
HETATM   20  C12 UNL     1       7.447  -2.224   0.359  1.00  0.00     0.037 A 
HETATM   21 CL2  UNL     1       9.006  -2.889   0.813  1.00  0.00    -0.084 Cl
HETATM   22  C13 UNL     1       6.508  -1.925   1.321  1.00  0.00     0.048 A 
HETATM   23 CL3  UNL     1       4.055  -1.005   2.162  1.00  0.00    -0.113 Cl
ENDBRANCH   4  13
BRANCH   1  24
HETATM   24  N1  UNL     1      -2.185  -0.786  -0.143  1.00  0.00    -0.371 N 
ATOM     25  H1  UNL     1      -3.085  -0.335  -0.309  1.00  0.00     0.161 HD
BRANCH  24  26
HETATM   26  C3  UNL     1      -2.175  -2.225  -0.150  1.00  0.00     0.082 C 
BRANCH  26  27
HETATM   27  C2  UNL     1      -2.296  -2.683   1.263  1.00  0.00     0.021 C 
HETATM   28  C1  UNL     1      -2.249  -4.146   1.520  1.00  0.00     0.007 C 
ENDBRANCH  26  27
BRANCH  26  29
HETATM   29  C4  UNL     1      -3.231  -2.693  -1.095  1.00  0.00     0.021 C 
HETATM   30  C5  UNL     1      -3.361  -4.159  -1.301  1.00  0.00     0.007 C 
ENDBRANCH  26  29
ENDBRANCH  24  26
ENDBRANCH   1  24
BRANCH  12  31
HETATM   31  C21 UNL     1       0.108   4.603   0.323  1.00  0.00     0.243 C 
BRANCH  31  32
HETATM   32  C22 UNL     1       0.209   5.034   1.719  1.00  0.00     0.191 C 
HETATM   33  O2  UNL     1      -0.444   4.437   2.606  1.00  0.00    -0.647 OA
HETATM   34  O3  UNL     1       1.026   6.101   2.049  1.00  0.00    -0.647 OA
ENDBRANCH  31  32
ENDBRANCH  12  31
BRANCH   9  35
HETATM   35  O1  UNL     1      -3.804   1.727  -0.430  1.00  0.00    -0.353 OA
HETATM   36  C18 UNL     1      -4.343   1.481  -1.692  1.00  0.00     0.210 C 
ENDBRANCH   9  35
TORSDOF 8
