REMARK  13 active torsions:
REMARK  status: ('A' for Active; 'I' for Inactive)
REMARK    1  A    between atoms: C5_5  and  C6_6 
REMARK    2  A    between atoms: C8_9  and  O2_10 
REMARK    3  A    between atoms: C14_17  and  C15_18 
REMARK    4  A    between atoms: C16_19  and  C17_20 
REMARK    5  A    between atoms: C17_20  and  C18_21 
REMARK    6  A    between atoms: C18_21  and  C19_22 
REMARK    7  A    between atoms: C21_24  and  C22_25 
REMARK    8  A    between atoms: C22_25  and  O4_27 
REMARK    9  A    between atoms: O4_27  and  C23_28 
REMARK   10  A    between atoms: C23_28  and  C24_29 
REMARK   11  A    between atoms: C24_29  and  C25_30 
REMARK   12  A    between atoms: C25_30  and  C26_31 
REMARK   13  A    between atoms: C26_31  and  C27_32 
ROOT
HETATM    1  C18 UNL     1       1.236  -0.214   1.539  1.00  0.00     0.017 C 
ENDROOT
BRANCH   1   2
HETATM    2  C17 UNL     1      -0.014  -0.099   1.387  1.00  0.00     0.001 C 
BRANCH   2   3
HETATM    3  C16 UNL     1      -0.809   1.082   1.181  1.00  0.00    -0.004 C 
HETATM    4  C15 UNL     1      -2.142   1.103   1.064  1.00  0.00    -0.021 C 
BRANCH   4   5
HETATM    5  C14 UNL     1      -3.007  -0.057   1.125  1.00  0.00     0.016 C 
HETATM    6  C2  UNL     1      -3.690  -0.200  -0.220  1.00  0.00    -0.033 C 
HETATM    7  C1  UNL     1      -2.855   0.486  -1.293  1.00  0.00     0.016 C 
HETATM    8  C3  UNL     1      -3.837  -1.665  -0.567  1.00  0.00     0.011 C 
HETATM    9  C10 UNL     1      -5.071   0.354  -0.276  1.00  0.00     0.003 C 
HETATM   10  C4  UNL     1      -5.300  -1.954  -0.694  1.00  0.00     0.010 C 
HETATM   11  C5  UNL     1      -6.039  -0.795  -0.081  1.00  0.00     0.025 C 
HETATM   12  C11 UNL     1      -5.340   1.470   0.676  1.00  0.00     0.006 C 
HETATM   13  C12 UNL     1      -4.989   1.167   2.095  1.00  0.00     0.001 C 
HETATM   14  C13 UNL     1      -4.015   0.050   2.263  1.00  0.00     0.009 C 
BRANCH  11  15
HETATM   15  C6  UNL     1      -7.282  -0.449  -0.850  1.00  0.00    -0.026 A 
HETATM   16  C7  UNL     1      -8.552  -0.343  -0.370  1.00  0.00     0.152 A 
HETATM   17  O1  UNL     1      -9.361  -0.021  -1.369  1.00  0.00    -0.300 OA
HETATM   18  C8  UNL     1      -8.671   0.086  -2.470  1.00  0.00     0.183 A 
HETATM   19  C9  UNL     1      -7.345  -0.174  -2.206  1.00  0.00     0.073 A 
BRANCH  18  20
HETATM   20  O2  UNL     1      -9.189   0.412  -3.719  1.00  0.00    -0.341 OA
ATOM     21  H2  UNL     1      -8.686   0.490  -4.521  1.00  0.00     0.220 HD
ENDBRANCH  18  20
ENDBRANCH  11  15
ENDBRANCH   4   5
ENDBRANCH   2   3
ENDBRANCH   1   2
BRANCH   1  22
HETATM   22  C19 UNL     1       2.349   0.679   1.592  1.00  0.00     0.036 A 
HETATM   23  C20 UNL     1       3.599   0.220   1.084  1.00  0.00     0.054 A 
HETATM   24  C21 UNL     1       4.759   0.924   1.175  1.00  0.00     0.124 A 
HETATM   25  N1  UNL     1       4.699   2.114   1.781  1.00  0.00    -0.292 N 
HETATM   26  N2  UNL     1       3.566   2.584   2.271  1.00  0.00    -0.265 N 
ATOM     27  H1  UNL     1       5.548   2.672   1.867  1.00  0.00     0.187 HD
HETATM   28  C28 UNL     1       2.380   1.898   2.196  1.00  0.00     0.270 A 
ATOM     29  H2  UNL     1       3.573   3.497   2.725  1.00  0.00     0.190 HD
HETATM   30  O5  UNL     1       1.385   2.482   2.728  1.00  0.00    -0.266 OA
BRANCH  24  31
HETATM   31  C22 UNL     1       6.055   0.435   0.642  1.00  0.00     0.311 C 
HETATM   32  O3  UNL     1       7.021   1.213   0.813  1.00  0.00    -0.258 OA
BRANCH  31  33
HETATM   33  O4  UNL     1       6.247  -0.697   0.035  1.00  0.00    -0.316 OA
BRANCH  33  34
HETATM   34  C23 UNL     1       7.045  -1.580  -0.586  1.00  0.00     0.183 C 
BRANCH  34  35
HETATM   35  C24 UNL     1       7.738  -1.220  -1.826  1.00  0.00     0.054 C 
BRANCH  35  36
HETATM   36  C25 UNL     1       8.783  -0.216  -1.844  1.00  0.00    -0.020 C 
BRANCH  36  37
HETATM   37  C26 UNL     1      10.084  -0.486  -1.264  1.00  0.00     0.084 C 
BRANCH  37  38
HETATM   38  C27 UNL     1      10.438  -0.852   0.089  1.00  0.00     0.407 C 
HETATM   39  F1  UNL     1      10.050   0.044   1.034  1.00  0.00    -0.167 F 
HETATM   40  F2  UNL     1      10.287  -2.149   0.502  1.00  0.00    -0.167 F 
HETATM   41  F3  UNL     1      11.920  -0.775   0.089  1.00  0.00    -0.167 F 
ENDBRANCH  37  38
ENDBRANCH  36  37
ENDBRANCH  35  36
ENDBRANCH  34  35
ENDBRANCH  33  34
ENDBRANCH  31  33
ENDBRANCH  24  31
ENDBRANCH   1  22
TORSDOF 13
