REMARK  20 active torsions:
REMARK  status: ('A' for Active; 'I' for Inactive)
REMARK    1  A    between atoms: O1_2  and  C2_3 
REMARK    2  A    between atoms: C2_3  and  C3_5 
REMARK    3  A    between atoms: C5_8  and  C6_9 
REMARK    4  A    between atoms: C6_9  and  O4_10 
REMARK    5  A    between atoms: C6_9  and  C9_14 
REMARK    6  A    between atoms: O4_10  and  C7_11 
REMARK    7  A    between atoms: C13_18  and  C14_19 
REMARK    8  A    between atoms: C14_19  and  C15_21 
REMARK    9  A    between atoms: C16_24  and  O9_25 
REMARK   10  A    between atoms: C18_28  and  O10_29 
REMARK   11  A    between atoms: O10_29  and  C19_30 
REMARK   12  A    between atoms: C19_30  and  C20_32 
REMARK   13  A    between atoms: C20_32  and  O12_33 
REMARK   14  A    between atoms: C20_32  and  C21_35 
REMARK   15  A    between atoms: C21_35  and  O13_36 
REMARK   16  A    between atoms: C21_35  and  O14_38 
REMARK   17  A    between atoms: C23_40  and  O15_41 
REMARK   18  A    between atoms: O15_41  and  C24_42 
REMARK   19  A    between atoms: C26_45  and  O17_46 
REMARK   20  A    between atoms: C26_45  and  C27_48 
ROOT
HETATM    1  C9  UNL     1       0.511   0.456  -0.549  1.00  0.00     0.055 C 
HETATM    2  C10 UNL     1      -0.160   1.590   0.196  1.00  0.00     0.008 C 
HETATM    3  C11 UNL     1       0.022   2.909  -0.459  1.00  0.00     0.042 C 
HETATM    4  C12 UNL     1      -1.321   3.516  -0.680  1.00  0.00    -0.047 C 
HETATM    5  C13 UNL     1      -1.486   4.759  -1.002  1.00  0.00     0.067 C 
HETATM    6  C16 UNL     1      -2.324   2.473  -0.465  1.00  0.00     0.154 C 
HETATM    7  C17 UNL     1      -1.639   1.282   0.189  1.00  0.00     0.056 C 
HETATM    8  C18 UNL     1      -1.790   0.010  -0.573  1.00  0.00     0.169 C 
HETATM    9  C23 UNL     1      -0.424  -0.671  -0.356  1.00  0.00     0.169 C 
ENDROOT
BRANCH   1  10
HETATM   10  C6  UNL     1       1.921   0.220  -0.101  1.00  0.00     0.172 C 
BRANCH  10  11
HETATM   11  C5  UNL     1       2.610  -0.880  -0.804  1.00  0.00     0.208 C 
HETATM   12  O3  UNL     1       2.635  -0.762  -2.228  1.00  0.00    -0.350 OA
HETATM   13  C4  UNL     1       3.588  -1.721  -2.612  1.00  0.00     0.152 C 
HETATM   14  C3  UNL     1       4.484  -1.862  -1.672  1.00  0.00     0.086 C 
HETATM   15  C26 UNL     1       4.109  -0.923  -0.579  1.00  0.00     0.210 C 
BRANCH  14  16
HETATM   16  C2  UNL     1       5.632  -2.735  -1.651  1.00  0.00     0.294 C 
HETATM   17  O2  UNL     1       5.918  -3.518  -2.613  1.00  0.00    -0.259 OA
BRANCH  16  18
HETATM   18  O1  UNL     1       6.500  -2.770  -0.566  1.00  0.00    -0.323 OA
HETATM   19  C1  UNL     1       7.619  -3.637  -0.570  1.00  0.00     0.213 C 
ENDBRANCH  16  18
ENDBRANCH  14  16
BRANCH  15  20
HETATM   20  O17 UNL     1       4.477  -1.397   0.655  1.00  0.00    -0.372 OA
ATOM     21  H17 UNL     1       4.238  -0.798   1.352  1.00  0.00     0.211 HD
ENDBRANCH  15  20
BRANCH  15  22
HETATM   22  C27 UNL     1       4.778   0.356  -0.947  1.00  0.00     0.217 C 
HETATM   23  O18 UNL     1       4.497   0.874  -2.041  1.00  0.00    -0.645 OA
HETATM   24  O19 UNL     1       5.681   0.937  -0.091  1.00  0.00    -0.645 OA
ENDBRANCH  15  22
ENDBRANCH  10  11
BRANCH  10  25
HETATM   25  O4  UNL     1       1.959  -0.042   1.288  1.00  0.00    -0.313 OA
BRANCH  25  26
HETATM   26  C7  UNL     1       2.533   0.740   2.247  1.00  0.00     0.255 C 
HETATM   27  C8  UNL     1       2.538   0.398   3.701  1.00  0.00     0.126 C 
HETATM   28  O5  UNL     1       3.088   1.801   1.914  1.00  0.00    -0.266 OA
ENDBRANCH  25  26
ENDBRANCH  10  25
ENDBRANCH   1  10
BRANCH   9  29
HETATM   29  O15 UNL     1      -0.432  -1.168   0.949  1.00  0.00    -0.313 OA
BRANCH  29  30
HETATM   30  C24 UNL     1      -0.403  -2.518   1.246  1.00  0.00     0.255 C 
HETATM   31  C25 UNL     1      -0.414  -2.959   2.659  1.00  0.00     0.126 C 
HETATM   32  O16 UNL     1      -0.368  -3.318   0.275  1.00  0.00    -0.266 OA
ENDBRANCH  29  30
ENDBRANCH   9  29
BRANCH   8  33
HETATM   33  O10 UNL     1      -2.742  -0.872  -0.075  1.00  0.00    -0.311 OA
BRANCH  33  34
HETATM   34  C19 UNL     1      -3.699  -1.489  -0.873  1.00  0.00     0.293 C 
HETATM   35  O11 UNL     1      -3.651  -1.197  -2.085  1.00  0.00    -0.262 OA
BRANCH  34  36
HETATM   36  C20 UNL     1      -4.710  -2.421  -0.368  1.00  0.00     0.272 C 
BRANCH  36  37
HETATM   37  O12 UNL     1      -5.498  -2.848  -1.433  1.00  0.00    -0.381 OA
ATOM     38  H12 UNL     1      -6.154  -3.452  -1.105  1.00  0.00     0.210 HD
ENDBRANCH  36  37
BRANCH  36  39
HETATM   39  C21 UNL     1      -5.629  -1.655   0.569  1.00  0.00     0.294 C 
BRANCH  39  40
HETATM   40  O13 UNL     1      -6.181  -0.572  -0.110  1.00  0.00    -0.368 OA
ATOM     41  H13 UNL     1      -6.756  -0.093   0.476  1.00  0.00     0.212 HD
ENDBRANCH  39  40
BRANCH  39  42
HETATM   42  O14 UNL     1      -4.879  -1.251   1.647  1.00  0.00    -0.363 OA
HETATM   43  C22 UNL     1      -5.398  -1.841   2.797  1.00  0.00     0.204 C 
ENDBRANCH  39  42
ENDBRANCH  36  39
ENDBRANCH  34  36
ENDBRANCH  33  34
ENDBRANCH   8  33
BRANCH   6  44
HETATM   44  O9  UNL     1      -2.843   2.114  -1.714  1.00  0.00    -0.391 OA
ATOM     45  H9  UNL     1      -3.494   1.437  -1.574  1.00  0.00     0.210 HD
ENDBRANCH   6  44
BRANCH   5  46
HETATM   46  C14 UNL     1      -2.791   5.345  -1.216  1.00  0.00     0.248 C 
HETATM   47  O6  UNL     1      -3.830   4.689  -1.104  1.00  0.00    -0.281 OA
BRANCH  46  48
HETATM   48  C15 UNL     1      -2.868   6.774  -1.579  1.00  0.00     0.251 C 
HETATM   49  O7  UNL     1      -1.842   7.470  -1.702  1.00  0.00    -0.642 OA
HETATM   50  O8  UNL     1      -4.110   7.320  -1.779  1.00  0.00    -0.642 OA
ENDBRANCH  46  48
ENDBRANCH   5  46
TORSDOF 20
