REMARK  8 active torsions:
REMARK  status: ('A' for Active; 'I' for Inactive)
REMARK    1  A    between atoms: O1_2  and  C2_3 
REMARK    2  A    between atoms: C2_3  and  C3_5 
REMARK    3  A    between atoms: C3_5  and  C4_6 
REMARK    4  A    between atoms: C4_6  and  C6_8 
REMARK    5  A    between atoms: C7_10  and  C8_11 
REMARK    6  A    between atoms: C11_14  and  S2_15 
REMARK    7  A    between atoms: C14_22  and  C15_23 
REMARK    8  A    between atoms: C18_27  and  O6_28 
ROOT
HETATM    1  C6  UNL     1       1.511  -0.191  -0.174  1.00  0.00     0.081 C 
HETATM    2  S1  UNL     1       0.118  -0.110  -1.326  1.00  0.00    -0.149 SA
HETATM    3  C7  UNL     1      -1.177  -1.183  -0.692  1.00  0.00     0.108 C 
HETATM    4  C14 UNL     1      -0.873  -1.980   0.505  1.00  0.00     0.077 C 
HETATM    5  C17 UNL     1       0.479  -1.987   1.061  1.00  0.00     0.046 C 
HETATM    6  C18 UNL     1       1.628  -1.649   0.155  1.00  0.00     0.133 C 
ENDROOT
BRANCH   3   7
HETATM    7  C8  UNL     1      -2.381  -0.324  -0.502  1.00  0.00     0.023 A 
HETATM    8  C9  UNL     1      -2.348   0.636   0.487  1.00  0.00     0.027 A 
HETATM    9  C10 UNL     1      -3.396   1.483   0.753  1.00  0.00     0.027 A 
HETATM   10  C11 UNL     1      -4.533   1.373  -0.002  1.00  0.00     0.074 A 
HETATM   11  C13 UNL     1      -4.560   0.411  -0.990  1.00  0.00     0.111 A 
HETATM   12  N1  UNL     1      -3.504  -0.419  -1.232  1.00  0.00    -0.367 N 
ATOM     13  H1  UNL     1      -3.568  -1.117  -1.973  1.00  0.00     0.165 HD
BRANCH  10  14
HETATM   14  S2  UNL     1      -5.931   2.395   0.244  1.00  0.00     0.173 S 
HETATM   15  C12 UNL     1      -5.719   3.847  -0.792  1.00  0.00     0.167 C 
HETATM   16  O3  UNL     1      -5.975   2.788   1.687  1.00  0.00    -0.223 OA
HETATM   17  O4  UNL     1      -7.151   1.644  -0.185  1.00  0.00    -0.223 OA
ENDBRANCH  10  14
ENDBRANCH   3   7
BRANCH   4  18
HETATM   18  C15 UNL     1      -1.320  -3.388   0.299  1.00  0.00     0.128 C 
HETATM   19  C16 UNL     1      -1.134  -4.414   1.355  1.00  0.00     0.091 C 
HETATM   20  O5  UNL     1      -1.845  -3.708  -0.747  1.00  0.00    -0.298 OA
ENDBRANCH   4  18
BRANCH   1  21
HETATM   21  C4  UNL     1       2.757   0.421  -0.748  1.00  0.00     0.007 C 
HETATM   22  C5  UNL     1       3.186  -0.156  -2.054  1.00  0.00     0.011 C 
BRANCH  21  23
HETATM   23  C3  UNL     1       3.903   0.341   0.235  1.00  0.00     0.116 C 
BRANCH  23  24
HETATM   24  C2  UNL     1       5.077   1.107  -0.268  1.00  0.00     0.258 C 
HETATM   25  O2  UNL     1       5.771   0.663  -1.226  1.00  0.00    -0.265 OA
BRANCH  24  26
HETATM   26  O1  UNL     1       5.413   2.306   0.308  1.00  0.00    -0.326 OA
HETATM   27  C1  UNL     1       6.517   3.056  -0.145  1.00  0.00     0.213 C 
ENDBRANCH  24  26
ENDBRANCH  23  24
ENDBRANCH  21  23
ENDBRANCH   1  21
BRANCH   6  28
HETATM   28  O6  UNL     1       1.661  -2.455  -0.979  1.00  0.00    -0.394 OA
ATOM     29  H6  UNL     1       1.735  -3.379  -0.771  1.00  0.00     0.210 HD
ENDBRANCH   6  28
TORSDOF 8
