REMARK  9 active torsions:
REMARK  status: ('A' for Active; 'I' for Inactive)
REMARK    1  A    between atoms: C3_3  and  C5_5 
REMARK    2  A    between atoms: C5_5  and  O2_7 
REMARK    3  A    between atoms: O2_7  and  C6_8 
REMARK    4  A    between atoms: C8_10  and  C9_11 
REMARK    5  A    between atoms: C9_11  and  O3_12 
REMARK    6  A    between atoms: C9_11  and  C10_14 
REMARK    7  A    between atoms: C10_14  and  O4_15 
REMARK    8  A    between atoms: O4_15  and  C11_16 
REMARK    9  A    between atoms: C14_20  and  C16_22 
ROOT
HETATM    1  C6  UNL     1      -0.861  -0.093  -0.911  1.00  0.00     0.172 C 
HETATM    2  C7  UNL     1       0.322   0.774  -1.008  1.00  0.00     0.043 C 
HETATM    3  C8  UNL     1       1.593   0.330  -0.345  1.00  0.00     0.022 C 
HETATM    4  C13 UNL     1       1.432  -0.706   0.693  1.00  0.00     0.053 C 
HETATM    5  C14 UNL     1       1.427  -2.127   0.099  1.00  0.00     0.118 C 
HETATM    6  C15 UNL     1       0.854  -3.056   1.135  1.00  0.00     0.054 C 
HETATM    7  O7  UNL     1       1.007  -2.207  -1.145  1.00  0.00    -0.364 OA
HETATM    8  C18 UNL     1      -0.170  -2.403  -1.646  1.00  0.00     0.163 C 
HETATM    9  C19 UNL     1      -1.254  -3.153  -0.964  1.00  0.00     0.038 C 
HETATM   10  C20 UNL     1      -2.354  -3.037  -2.041  1.00  0.00     0.038 C 
HETATM   11  C21 UNL     1      -2.347  -1.564  -2.298  1.00  0.00     0.163 A 
HETATM   12  O8  UNL     1      -1.512  -0.961  -3.204  1.00  0.00    -0.364 OA
HETATM   13  C22 UNL     1      -0.929  -1.115  -2.002  1.00  0.00     0.140 A 
ENDROOT
BRANCH   3  14
HETATM   14  C9  UNL     1       2.331   1.540   0.239  1.00  0.00     0.146 C 
BRANCH  14  15
HETATM   15  O3  UNL     1       2.574   2.423  -0.877  1.00  0.00    -0.393 OA
ATOM     16  H3  UNL     1       3.031   3.173  -0.515  1.00  0.00     0.210 HD
ENDBRANCH  14  15
BRANCH  14  17
HETATM   17  C10 UNL     1       3.723   1.218   0.710  1.00  0.00     0.210 C 
BRANCH  17  18
HETATM   18  O4  UNL     1       4.447   2.379   1.071  1.00  0.00    -0.319 OA
BRANCH  18  19
HETATM   19  C11 UNL     1       4.087   3.224   2.089  1.00  0.00     0.254 C 
HETATM   20  C12 UNL     1       4.883   4.449   2.433  1.00  0.00     0.126 C 
HETATM   21  O5  UNL     1       3.060   2.975   2.760  1.00  0.00    -0.266 OA
ENDBRANCH  18  19
ENDBRANCH  17  18
ENDBRANCH  14  17
ENDBRANCH   3  14
BRANCH   1  22
HETATM   22  O2  UNL     1      -2.088   0.628  -0.858  1.00  0.00    -0.309 OA
BRANCH  22  23
HETATM   23  C5  UNL     1      -2.993   0.571   0.156  1.00  0.00     0.289 C 
HETATM   24  O1  UNL     1      -2.769  -0.161   1.135  1.00  0.00    -0.260 OA
BRANCH  23  25
HETATM   25  C3  UNL     1      -4.210   1.392   0.037  1.00  0.00     0.009 C 
HETATM   26  C2  UNL     1      -5.131   1.392   0.970  1.00  0.00    -0.018 C 
HETATM   27  C1  UNL     1      -6.348   2.215   0.851  1.00  0.00     0.036 C 
HETATM   28  C4  UNL     1      -4.430   2.256  -1.159  1.00  0.00     0.054 C 
ENDBRANCH  23  25
ENDBRANCH  22  23
ENDBRANCH   1  22
BRANCH   5  29
HETATM   29  C16 UNL     1       2.904  -2.497   0.047  1.00  0.00     0.157 C 
HETATM   30  C17 UNL     1       3.612  -2.857  -1.184  1.00  0.00     0.094 C 
HETATM   31  O6  UNL     1       3.481  -2.478   1.115  1.00  0.00    -0.295 OA
ENDBRANCH   5  29
TORSDOF 9
