REMARK  7 active torsions:
REMARK  status: ('A' for Active; 'I' for Inactive)
REMARK    1  A    between atoms: C2_2  and  C4_4 
REMARK    2  A    between atoms: C4_4  and  N1_5 
REMARK    3  A    between atoms: N2_10  and  C8_12 
REMARK    4  A    between atoms: N3_15  and  C11_16 
REMARK    5  A    between atoms: C11_16  and  C12_17 
REMARK    6  A    between atoms: C12_17  and  C13_18 
REMARK    7  A    between atoms: C13_18  and  N4_19 
ROOT
HETATM    1  N1  UNL     1       3.759   0.684   0.876  1.00  0.00    -0.343 N 
HETATM    2  C5  UNL     1       3.925  -0.544   0.304  1.00  0.00     0.112 A 
HETATM    3  C6  UNL     1       2.711  -1.184   0.217  1.00  0.00     0.043 A 
HETATM    4  S1  UNL     1       2.100  -2.680  -0.348  1.00  0.00    -0.052 SA
HETATM    5  C7  UNL     1       0.425  -2.846  -0.150  1.00  0.00     0.150 A 
HETATM    6  N2  UNL     1      -0.263  -3.906  -0.501  1.00  0.00    -0.366 N 
ATOM      7  H2  UNL     1      -1.272  -3.951  -0.358  1.00  0.00     0.162 HD
HETATM    8  N3  UNL     1      -0.187  -1.765   0.428  1.00  0.00    -0.290 N 
HETATM    9  C19 UNL     1       0.419  -0.661   0.822  1.00  0.00     0.264 A 
HETATM   10  O1  UNL     1      -0.303   0.251   1.352  1.00  0.00    -0.267 OA
HETATM   11  C20 UNL     1       1.763  -0.353   0.740  1.00  0.00     0.092 A 
HETATM   12  C21 UNL     1       2.454   0.802   1.141  1.00  0.00     0.135 A 
HETATM   13  N6  UNL     1       1.889   1.963   1.768  1.00  0.00    -0.081 NA
ENDROOT
BRANCH   8  14
HETATM   14  C11 UNL     1      -1.640  -1.948   0.611  1.00  0.00     0.163 C 
BRANCH  14  15
HETATM   15  C12 UNL     1      -2.466  -1.653  -0.570  1.00  0.00     0.010 C 
BRANCH  15  16
HETATM   16  C13 UNL     1      -2.534  -0.315  -1.157  1.00  0.00     0.088 C 
BRANCH  16  17
HETATM   17  N4  UNL     1      -3.059   0.758  -0.448  1.00  0.00    -0.367 N 
HETATM   18  C14 UNL     1      -3.106   2.023  -1.044  1.00  0.00     0.082 C 
HETATM   19  C15 UNL     1      -3.474   3.087  -0.038  1.00  0.00     0.161 C 
HETATM   20  N5  UNL     1      -4.771   2.811   0.482  1.00  0.00    -0.411 N 
HETATM   21  C16 UNL     1      -5.836   3.549  -0.124  1.00  0.00     0.143 C 
HETATM   22  C17 UNL     1      -5.092   1.443   0.689  1.00  0.00     0.137 C 
HETATM   23  C18 UNL     1      -3.908   0.509   0.656  1.00  0.00     0.146 C 
ENDBRANCH  16  17
ENDBRANCH  15  16
ENDBRANCH  14  15
ENDBRANCH   8  14
BRANCH   6  24
HETATM   24  C8  UNL     1       0.465  -5.018  -1.103  1.00  0.00     0.075 C 
HETATM   25  C9  UNL     1       1.502  -5.576  -0.187  1.00  0.00     0.032 C 
HETATM   26  C10 UNL     1      -0.458  -6.106  -1.550  1.00  0.00     0.032 C 
ENDBRANCH   6  24
BRANCH   1  27
HETATM   27  C4  UNL     1       4.833   1.618   1.097  1.00  0.00     0.133 C 
BRANCH  27  28
HETATM   28  C2  UNL     1       5.134   2.487  -0.068  1.00  0.00    -0.004 C 
HETATM   29  C1  UNL     1       6.296   3.412   0.331  1.00  0.00     0.011 C 
HETATM   30  C3  UNL     1       3.990   3.400  -0.420  1.00  0.00     0.011 C 
ENDBRANCH  27  28
ENDBRANCH   1  27
TORSDOF 7
