REMARK  5 active torsions:
REMARK  status: ('A' for Active; 'I' for Inactive)
REMARK    1  A    between atoms: C1_2  and  C2_4 
REMARK    2  A    between atoms: C5_8  and  S1_9 
REMARK    3  A    between atoms: S1_9  and  C6_10 
REMARK    4  A    between atoms: C16_20  and  C17_21 
REMARK    5  A    between atoms: N4_23  and  O2_25 
ROOT
HETATM    1  C2  UNL     1       4.018   1.510   0.421  1.00  0.00     0.070 A 
HETATM    2  C3  UNL     1       3.165   1.557   1.496  1.00  0.00     0.047 A 
HETATM    3  C4  UNL     1       2.158   0.609   1.673  1.00  0.00     0.065 A 
HETATM    4  N2  UNL     1       1.377   0.753   2.875  1.00  0.00    -0.101 NA
HETATM    5  C5  UNL     1       1.986  -0.412   0.767  1.00  0.00     0.042 A 
HETATM    6  C16 UNL     1       2.832  -0.494  -0.321  1.00  0.00     0.065 A 
HETATM    7  C18 UNL     1       3.824   0.480  -0.458  1.00  0.00     0.146 A 
HETATM    8  F1  UNL     1       4.667   0.426  -1.526  1.00  0.00    -0.204 F 
ENDROOT
BRANCH   5   9
HETATM    9  S1  UNL     1       0.689  -1.559   0.988  1.00  0.00    -0.122 SA
BRANCH   9  10
HETATM   10  C6  UNL     1      -0.948  -1.147   0.421  1.00  0.00     0.052 C 
HETATM   11  C7  UNL     1      -1.684  -0.109   1.252  1.00  0.00     0.015 C 
HETATM   12  C8  UNL     1      -1.624   1.284   0.790  1.00  0.00     0.001 C 
HETATM   13  C9  UNL     1      -2.859   1.870   0.161  1.00  0.00     0.000 C 
HETATM   14  C10 UNL     1      -4.153   1.270   0.508  1.00  0.00     0.000 C 
HETATM   15  C11 UNL     1      -4.746   0.195  -0.283  1.00  0.00     0.000 C 
HETATM   16  C12 UNL     1      -4.062  -0.327  -1.497  1.00  0.00     0.000 C 
HETATM   17  C13 UNL     1      -3.489  -1.712  -1.287  1.00  0.00     0.000 C 
HETATM   18  C14 UNL     1      -2.066  -1.863  -1.724  1.00  0.00     0.001 C 
HETATM   19  C15 UNL     1      -1.116  -0.907  -1.038  1.00  0.00     0.015 C 
ENDBRANCH   9  10
ENDBRANCH   5   9
BRANCH   6  20
HETATM   20  C17 UNL     1       2.881  -1.615  -1.240  1.00  0.00     0.150 C 
HETATM   21  N3  UNL     1       3.757  -1.603  -2.348  1.00  0.00    -0.080 NA
HETATM   22  N4  UNL     1       2.144  -2.645  -1.089  1.00  0.00    -0.254 N 
ATOM     23  H4  UNL     1       1.505  -2.667  -0.294  1.00  0.00     0.195 HD
BRANCH  22  24
HETATM   24  O2  UNL     1       2.161  -3.721  -1.931  1.00  0.00    -0.288 OA
ATOM     25  H2  UNL     1       1.612  -4.488  -1.819  1.00  0.00     0.244 HD
ENDBRANCH  22  24
ENDBRANCH   6  20
BRANCH   1  26
HETATM   26  C1  UNL     1       5.046   2.515   0.274  1.00  0.00     0.268 C 
HETATM   27  N1  UNL     1       5.966   2.529  -0.816  1.00  0.00    -0.057 NA
HETATM   28  O1  UNL     1       5.163   3.434   1.126  1.00  0.00    -0.271 OA
ENDBRANCH   1  26
TORSDOF 5
