REMARK  6 active torsions:
REMARK  status: ('A' for Active; 'I' for Inactive)
REMARK    1  A    between atoms: C2_2  and  C4_4 
REMARK    2  A    between atoms: N3_9  and  C5_10 
REMARK    3  A    between atoms: C5_10  and  C8_13 
REMARK    4  A    between atoms: C8_13  and  N4_14 
REMARK    5  A    between atoms: C16_22  and  C17_23 
REMARK    6  A    between atoms: C17_23  and  N5_26 
ROOT
HETATM    1  C4  UNL     1      -2.204   1.570  -1.297  1.00  0.00     0.057 A 
HETATM    2  N1  UNL     1      -1.539   2.728  -1.617  1.00  0.00    -0.288 N 
ATOM      3  H1  UNL     1      -1.906   3.515  -2.151  1.00  0.00     0.188 HD
HETATM    4  N2  UNL     1      -0.351   2.623  -1.106  1.00  0.00    -0.239 N 
ATOM      5  H2  UNL     1       0.372   3.338  -1.183  1.00  0.00     0.208 HD
HETATM    6  N3  UNL     1      -0.192   1.439  -0.455  1.00  0.00    -0.263 N 
HETATM    7  C16 UNL     1      -1.329   0.752  -0.555  1.00  0.00     0.093 A 
ENDROOT
BRANCH   6   8
HETATM    8  C5  UNL     1       1.046   1.073   0.200  1.00  0.00     0.079 C 
HETATM    9  C6  UNL     1       0.988   0.975   1.669  1.00  0.00     0.046 C 
HETATM   10  C7  UNL     1       1.831   2.480   0.160  1.00  0.00     0.046 C 
BRANCH   8  11
HETATM   11  C8  UNL     1       1.986   0.309  -0.614  1.00  0.00     0.091 C 
BRANCH  11  12
HETATM   12  N4  UNL     1       3.233  -0.146  -0.289  1.00  0.00    -0.382 N 
HETATM   13  C9  UNL     1       3.915  -0.851  -1.389  1.00  0.00     0.080 C 
HETATM   14  C10 UNL     1       3.390  -0.441  -2.737  1.00  0.00     0.032 C 
HETATM   15  C11 UNL     1       5.371  -0.540  -1.304  1.00  0.00     0.025 C 
HETATM   16  C12 UNL     1       5.981  -0.740   0.038  1.00  0.00     0.004 C 
HETATM   17  C13 UNL     1       5.135  -0.334   1.189  1.00  0.00     0.025 C 
HETATM   18  C14 UNL     1       3.678  -0.737   0.894  1.00  0.00     0.080 C 
HETATM   19  C15 UNL     1       3.647  -2.276   0.847  1.00  0.00     0.032 C 
ENDBRANCH  11  12
ENDBRANCH   8  11
ENDBRANCH   6   8
BRANCH   7  20
HETATM   20  C17 UNL     1      -1.784  -0.546  -0.161  1.00  0.00     0.198 C 
HETATM   21  C18 UNL     1      -2.255  -1.259  -1.459  1.00  0.00     0.056 C 
HETATM   22  C19 UNL     1      -0.999  -1.592   0.460  1.00  0.00     0.056 C 
BRANCH  20  23
HETATM   23  N5  UNL     1      -2.998  -0.490   0.669  1.00  0.00     0.107 N 
HETATM   24  C20 UNL     1      -2.739  -0.115   2.019  1.00  0.00     0.300 C 
HETATM   25  C21 UNL     1      -4.054   0.123   2.729  1.00  0.00     0.198 C 
HETATM   26  O1  UNL     1      -4.961  -0.902   2.646  1.00  0.00    -0.388 OA
HETATM   27  C22 UNL     1      -4.387  -1.973   2.029  1.00  0.00     0.198 C 
HETATM   28  C23 UNL     1      -3.861  -1.581   0.626  1.00  0.00     0.300 C 
ENDBRANCH  20  23
ENDBRANCH   7  20
BRANCH   1  29
HETATM   29  C2  UNL     1      -3.619   1.480  -1.698  1.00  0.00     0.031 C 
HETATM   30  C1  UNL     1      -3.914   2.421  -2.886  1.00  0.00     0.016 C 
HETATM   31  C3  UNL     1      -4.507   2.121  -0.590  1.00  0.00     0.016 C 
ENDBRANCH   1  29
TORSDOF 6
