REMARK  7 active torsions:
REMARK  status: ('A' for Active; 'I' for Inactive)
REMARK    1  A    between atoms: C2_2  and  C3_3 
REMARK    2  A    between atoms: C3_3  and  O1_4 
REMARK    3  A    between atoms: C3_3  and  O2_6 
REMARK    4  A    between atoms: O2_6  and  C4_7 
REMARK    5  A    between atoms: C12_18  and  C14_20 
REMARK    6  A    between atoms: C14_20  and  C15_21 
REMARK    7  A    between atoms: C15_21  and  C16_22 
ROOT
HETATM    1  C4  UNL     1       2.632   1.124   0.642  1.00  0.00     0.210 C 
HETATM    2  C5  UNL     1       3.910   0.721  -0.106  1.00  0.00     0.158 C 
HETATM    3  O3  UNL     1       5.021   0.718   0.319  1.00  0.00    -0.295 OA
HETATM    4  C6  UNL     1       3.470   0.333  -1.468  1.00  0.00     0.105 C 
HETATM    5  C7  UNL     1       1.946   0.117  -1.380  1.00  0.00     0.082 C 
HETATM    6  C8  UNL     1       1.687  -1.131  -2.131  1.00  0.00    -0.008 C 
HETATM    7  C9  UNL     1       1.803  -1.079  -3.474  1.00  0.00    -0.003 C 
HETATM    8  C10 UNL     1       2.169   0.138  -4.201  1.00  0.00     0.206 C 
HETATM    9  O4  UNL     1       1.748   1.306  -3.481  1.00  0.00    -0.317 OA
HETATM   10  C11 UNL     1       1.339   1.201  -2.143  1.00  0.00     0.273 C 
HETATM   11  O5  UNL     1       0.503   2.057  -1.785  1.00  0.00    -0.264 OA
HETATM   12  C12 UNL     1       1.726   0.053   0.053  1.00  0.00     0.010 C 
HETATM   13  C13 UNL     1       2.434  -1.251   0.527  1.00  0.00     0.020 C 
ENDROOT
BRANCH  12  14
HETATM   14  C14 UNL     1       0.395   0.010   0.659  1.00  0.00     0.014 C 
BRANCH  14  15
HETATM   15  C15 UNL     1      -0.557  -1.025   0.130  1.00  0.00     0.010 C 
BRANCH  15  16
HETATM   16  C16 UNL     1      -1.869  -1.021   0.842  1.00  0.00     0.021 C 
HETATM   17  C17 UNL     1      -2.668   0.212   0.763  1.00  0.00    -0.084 C 
HETATM   18  C18 UNL     1      -2.648   1.069  -0.218  1.00  0.00     0.014 C 
HETATM   19  C19 UNL     1      -3.595   0.450   1.936  1.00  0.00     0.034 C 
HETATM   20  C20 UNL     1      -3.956  -0.977   2.388  1.00  0.00     0.005 C 
HETATM   21  C21 UNL     1      -4.115  -1.847   1.146  1.00  0.00     0.010 C 
HETATM   22  C22 UNL     1      -2.720  -2.252   0.626  1.00  0.00    -0.040 C 
HETATM   23  C23 UNL     1      -2.273  -3.428   1.469  1.00  0.00     0.015 C 
HETATM   24  C24 UNL     1      -2.892  -2.653  -0.798  1.00  0.00     0.015 C 
ENDBRANCH  15  16
ENDBRANCH  14  15
ENDBRANCH  12  14
BRANCH   1  25
HETATM   25  O2  UNL     1       2.404   2.420   0.273  1.00  0.00    -0.317 OA
BRANCH  25  26
HETATM   26  C3  UNL     1       2.386   3.550   1.037  1.00  0.00     0.177 C 
BRANCH  26  27
HETATM   27  C2  UNL     1       2.149   4.911   0.613  1.00  0.00     0.053 C 
HETATM   28  C1  UNL     1       2.165   5.904   1.461  1.00  0.00     0.016 C 
ENDBRANCH  26  27
BRANCH  26  29
HETATM   29  O1  UNL     1       2.618   3.333   2.310  1.00  0.00    -0.341 OA
ATOM     30  H1  UNL     1       2.774   2.438   2.589  1.00  0.00     0.220 HD
ENDBRANCH  26  29
ENDBRANCH  25  26
ENDBRANCH   1  25
TORSDOF 7
