REMARK  6 active torsions:
REMARK  status: ('A' for Active; 'I' for Inactive)
REMARK    1  A    between atoms: C5_5  and  O1_6 
REMARK    2  A    between atoms: O1_6  and  C6_7 
REMARK    3  A    between atoms: C8_10  and  O3_11 
REMARK    4  A    between atoms: O3_11  and  C9_12 
REMARK    5  A    between atoms: C9_12  and  C10_14 
REMARK    6  A    between atoms: C10_14  and  O5_15 
ROOT
HETATM    1  C1  UNL     1      -4.975  -2.831   0.592  1.00  0.00     0.014 C 
HETATM    2  C2  UNL     1      -4.590  -1.560   0.595  1.00  0.00    -0.089 C 
HETATM    3  C3  UNL     1      -3.600  -1.124   1.595  1.00  0.00     0.036 C 
HETATM    4  C4  UNL     1      -2.186  -1.525   1.225  1.00  0.00     0.042 C 
HETATM    5  C5  UNL     1      -1.224  -0.359   1.330  1.00  0.00     0.188 C 
HETATM    6  C8  UNL     1      -0.706   0.052  -0.056  1.00  0.00     0.299 C 
HETATM    7  O6  UNL     1      -1.665   0.848  -0.616  1.00  0.00    -0.347 OA
HETATM    8  C17 UNL     1      -2.177   0.454  -1.816  1.00  0.00     0.065 A 
HETATM    9  C18 UNL     1      -1.376  -0.433  -2.750  1.00  0.00     0.046 C 
HETATM   10  C19 UNL     1      -2.923   1.588  -2.552  1.00  0.00     0.045 A 
HETATM   11  C20 UNL     1      -3.626   0.425  -1.962  1.00  0.00     0.023 A 
HETATM   12  C21 UNL     1      -4.439   0.560  -0.716  1.00  0.00     0.012 C 
HETATM   13  C22 UNL     1      -5.207  -0.688  -0.427  1.00  0.00     0.034 C 
ENDROOT
BRANCH   6  14
HETATM   14  O3  UNL     1       0.556   0.682   0.077  1.00  0.00    -0.285 OA
BRANCH  14  15
HETATM   15  C9  UNL     1       1.745   0.181  -0.367  1.00  0.00     0.296 C 
HETATM   16  O4  UNL     1       1.752  -0.925  -0.942  1.00  0.00    -0.262 OA
BRANCH  15  17
HETATM   17  C10 UNL     1       3.041   0.947  -0.169  1.00  0.00     0.147 C 
HETATM   18  C12 UNL     1       3.569   1.270  -1.540  1.00  0.00     0.049 C 
HETATM   19  C13 UNL     1       4.346   0.129  -2.149  1.00  0.00     0.004 C 
HETATM   20  C14 UNL     1       5.395  -0.405  -1.197  1.00  0.00     0.000 C 
HETATM   21  C15 UNL     1       4.650  -1.001  -0.026  1.00  0.00     0.004 C 
HETATM   22  C16 UNL     1       3.925   0.116   0.683  1.00  0.00     0.049 C 
BRANCH  17  23
HETATM   23  O5  UNL     1       2.695   2.109   0.467  1.00  0.00    -0.375 OA
HETATM   24  C11 UNL     1       3.666   3.011   0.752  1.00  0.00     0.203 C 
ENDBRANCH  17  23
ENDBRANCH  15  17
ENDBRANCH  14  15
ENDBRANCH   6  14
BRANCH   5  25
HETATM   25  O1  UNL     1      -0.151  -0.619   2.205  1.00  0.00    -0.311 OA
BRANCH  25  26
HETATM   26  C6  UNL     1       0.062   0.087   3.371  1.00  0.00     0.255 C 
HETATM   27  C7  UNL     1       1.204  -0.232   4.247  1.00  0.00     0.126 C 
HETATM   28  O2  UNL     1      -0.736   1.003   3.668  1.00  0.00    -0.266 OA
ENDBRANCH  25  26
ENDBRANCH   5  25
TORSDOF 6
