REMARK  5 active torsions:
REMARK  status: ('A' for Active; 'I' for Inactive)
REMARK    1  A    between atoms: C2_2  and  C3_3 
REMARK    2  A    between atoms: C3_3  and  C4_4 
REMARK    3  A    between atoms: C4_4  and  N1_5 
REMARK    4  A    between atoms: C8_11  and  C10_14 
REMARK    5  A    between atoms: C13_17  and  S1_18 
ROOT
HETATM    1  N1  UNL     1      -2.338   0.098   0.602  1.00  0.00    -0.291 N 
HETATM    2  C5  UNL     1      -1.354  -0.895   0.984  1.00  0.00     0.330 C 
HETATM    3  O1  UNL     1      -1.591  -1.577   2.035  1.00  0.00    -0.246 OA
HETATM    4  N2  UNL     1      -0.160  -1.168   0.290  1.00  0.00    -0.296 N 
HETATM    5  C6  UNL     1       0.738  -2.228   0.760  1.00  0.00     0.162 C 
HETATM    6  C7  UNL     1       0.248  -0.507  -0.890  1.00  0.00     0.103 C 
HETATM    7  C8  UNL     1       1.412  -0.202  -1.309  1.00  0.00     0.089 C 
HETATM    8  C9  UNL     1       1.460   0.495  -2.621  1.00  0.00     0.103 C 
HETATM    9  N3  UNL     1       1.477   1.029  -3.645  1.00  0.00    -0.191 NA
HETATM   10  S2  UNL     1      -1.233   0.017  -1.879  1.00  0.00    -0.050 SA
HETATM   11  C17 UNL     1      -2.155   0.907  -0.540  1.00  0.00     0.114 C 
HETATM   12  C18 UNL     1      -2.442   2.136  -0.740  1.00  0.00     0.158 C 
HETATM   13  C19 UNL     1      -3.034   3.119   0.112  1.00  0.00     0.113 C 
HETATM   14  N4  UNL     1      -3.499   3.942   0.785  1.00  0.00    -0.191 NA
HETATM   15  C20 UNL     1      -2.134   2.633  -2.096  1.00  0.00     0.113 C 
HETATM   16  N5  UNL     1      -1.907   3.003  -3.158  1.00  0.00    -0.191 NA
ENDROOT
BRANCH   7  17
HETATM   17  C10 UNL     1       2.718  -0.334  -0.729  1.00  0.00    -0.013 A 
HETATM   18  C11 UNL     1       2.964   0.089   0.534  1.00  0.00     0.014 A 
HETATM   19  C12 UNL     1       4.211  -0.040   1.093  1.00  0.00     0.019 A 
HETATM   20  C13 UNL     1       5.248  -0.600   0.392  1.00  0.00    -0.000 A 
HETATM   21  C15 UNL     1       5.011  -1.034  -0.893  1.00  0.00     0.019 A 
HETATM   22  C16 UNL     1       3.733  -0.897  -1.453  1.00  0.00     0.014 A 
BRANCH  20  23
HETATM   23  S1  UNL     1       6.873  -0.758   1.146  1.00  0.00    -0.134 SA
HETATM   24  C14 UNL     1       7.869   0.720   0.813  1.00  0.00     0.095 C 
ENDBRANCH  20  23
ENDBRANCH   7  17
BRANCH   1  25
HETATM   25  C4  UNL     1      -3.503   0.204   1.406  1.00  0.00     0.134 C 
BRANCH  25  26
HETATM   26  C3  UNL     1      -4.597  -0.755   1.036  1.00  0.00     0.020 C 
BRANCH  26  27
HETATM   27  C2  UNL     1      -5.194  -0.665  -0.302  1.00  0.00    -0.003 C 
HETATM   28  C1  UNL     1      -5.900   0.615  -0.598  1.00  0.00     0.005 C 
ENDBRANCH  26  27
ENDBRANCH  25  26
ENDBRANCH   1  25
TORSDOF 5
