REMARK  7 active torsions:
REMARK  status: ('A' for Active; 'I' for Inactive)
REMARK    1  A    between atoms: C2_2  and  N1_3 
REMARK    2  A    between atoms: C3_4  and  O1_5 
REMARK    3  A    between atoms: O1_5  and  C4_6 
REMARK    4  A    between atoms: C4_6  and  C5_8 
REMARK    5  A    between atoms: C8_13  and  C9_14 
REMARK    6  A    between atoms: C9_14  and  C10_15 
REMARK    7  A    between atoms: C10_15  and  O4_17 
ROOT
HETATM    1  C4  UNL     1       0.405   1.297   0.356  1.00  0.00     0.303 C 
HETATM    2  O2  UNL     1       0.256   2.421   0.963  1.00  0.00    -0.259 OA
ENDROOT
BRANCH   1   3
HETATM    3  O1  UNL     1      -0.690   0.878  -0.340  1.00  0.00    -0.290 OA
BRANCH   3   4
HETATM    4  C3  UNL     1      -1.907   1.597  -0.412  1.00  0.00     0.239 C 
HETATM    5  N1  UNL     1      -3.042   0.972   0.094  1.00  0.00    -0.369 N 
HETATM    6  C14 UNL     1      -3.797   0.229  -0.794  1.00  0.00     0.079 C 
HETATM    7  S2  UNL     1      -3.506   1.097  -2.387  1.00  0.00    -0.134 SA
HETATM    8  C15 UNL     1      -3.387  -1.205  -1.010  1.00  0.00     0.042 C 
HETATM    9  C18 UNL     1      -5.261   0.124  -0.597  1.00  0.00     0.042 C 
HETATM   10  C13 UNL     1      -2.130   2.145  -1.796  1.00  0.00     0.130 C 
HETATM   11  C16 UNL     1      -4.251  -1.991  -0.067  1.00  0.00     0.003 C 
HETATM   12  C17 UNL     1      -5.509  -1.168   0.146  1.00  0.00     0.003 C 
BRANCH   5  13
HETATM   13  C2  UNL     1      -3.653   1.609   1.206  1.00  0.00     0.116 C 
HETATM   14  C1  UNL     1      -4.280   2.936   0.877  1.00  0.00     0.026 C 
ENDBRANCH   5  13
ENDBRANCH   3   4
ENDBRANCH   1   3
BRANCH   1  15
HETATM   15  C5  UNL     1       1.684   0.621   0.477  1.00  0.00     0.098 A 
HETATM   16  C6  UNL     1       1.935  -0.523  -0.098  1.00  0.00     0.028 A 
HETATM   17  C7  UNL     1       0.828  -1.142  -0.915  1.00  0.00     0.070 C 
HETATM   18  N2  UNL     1       3.170  -1.183   0.005  1.00  0.00    -0.364 N 
HETATM   19  C8  UNL     1       4.216  -0.867   0.610  1.00  0.00     0.005 A 
ATOM     20  H2  UNL     1       3.222  -2.069  -0.498  1.00  0.00     0.165 HD
HETATM   21  C12 UNL     1       4.421   0.337   1.397  1.00  0.00     0.132 A 
HETATM   22  S1  UNL     1       2.967   1.369   1.452  1.00  0.00    -0.116 SA
BRANCH  19  23
HETATM   23  C9  UNL     1       5.364  -1.813   0.510  1.00  0.00     0.164 C 
BRANCH  23  24
HETATM   24  C10 UNL     1       6.540  -1.277  -0.180  1.00  0.00     0.263 C 
HETATM   25  O3  UNL     1       6.621  -0.147  -0.706  1.00  0.00    -0.265 OA
BRANCH  24  26
HETATM   26  O4  UNL     1       7.665  -2.083  -0.262  1.00  0.00    -0.326 OA
HETATM   27  C11 UNL     1       8.855  -1.707  -0.887  1.00  0.00     0.213 C 
ENDBRANCH  24  26
ENDBRANCH  23  24
ENDBRANCH  19  23
ENDBRANCH   1  15
TORSDOF 7
