REMARK  2 active torsions:
REMARK  status: ('A' for Active; 'I' for Inactive)
REMARK    1  A    between atoms: C5_5  and  O1_7 
REMARK    2  A    between atoms: C8_11  and  O2_13 
ROOT
HETATM    1  C1  UNL     1       2.245  -1.824  -0.555  1.00  0.00     0.011 C 
HETATM    2  C2  UNL     1       1.766  -1.032   0.595  1.00  0.00     0.003 C 
HETATM    3  C3  UNL     1       2.431   0.327   0.564  1.00  0.00     0.009 C 
HETATM    4  C4  UNL     1       1.748   1.322  -0.290  1.00  0.00     0.040 C 
HETATM    5  C5  UNL     1       0.257   1.420  -0.090  1.00  0.00     0.076 C 
HETATM    6  C6  UNL     1      -0.238   2.384  -1.180  1.00  0.00     0.047 C 
HETATM    7  C7  UNL     1      -0.332   0.066  -0.238  1.00  0.00     0.098 C 
HETATM    8 BR1  UNL     1      -0.105  -0.601  -2.004  1.00  0.00    -0.077 Br
HETATM    9  C8  UNL     1      -1.780  -0.046   0.148  1.00  0.00     0.089 C 
HETATM   10  C9  UNL     1      -2.732   0.229  -0.968  1.00  0.00     0.049 C 
HETATM   11  C10 UNL     1      -1.912  -1.533   0.492  1.00  0.00     0.095 C 
HETATM   12 BR2  UNL     1      -3.034  -1.800   2.031  1.00  0.00    -0.088 Br
HETATM   13  C11 UNL     1      -0.529  -2.073   0.670  1.00  0.00     0.042 C 
HETATM   14  C12 UNL     1       0.319  -0.858   0.758  1.00  0.00     0.046 C 
HETATM   15 BR3  UNL     1       0.049  -0.166   2.575  1.00  0.00    -0.083 Br
ENDROOT
BRANCH   5  16
HETATM   16  O1  UNL     1      -0.064   2.050   1.113  1.00  0.00    -0.388 OA
ATOM     17  H1  UNL     1      -1.004   2.112   1.239  1.00  0.00     0.210 HD
ENDBRANCH   5  16
BRANCH   9  18
HETATM   18  O2  UNL     1      -2.122   0.654   1.274  1.00  0.00    -0.387 OA
ATOM     19  H2  UNL     1      -3.037   0.583   1.518  1.00  0.00     0.210 HD
ENDBRANCH   9  18
TORSDOF 2
