REMARK  1 active torsions:
REMARK  status: ('A' for Active; 'I' for Inactive)
REMARK    1  A    between atoms: C5_5  and  O1_6 
ROOT
HETATM    1  C1  UNL     1      -0.428  -2.605   0.182  1.00  0.00     0.017 C 
HETATM    2  C2  UNL     1       0.111  -1.164   0.104  1.00  0.00    -0.018 C 
HETATM    3  C3  UNL     1       1.173  -1.186  -0.936  1.00  0.00     0.014 C 
HETATM    4  C4  UNL     1       2.004   0.045  -1.025  1.00  0.00     0.041 C 
HETATM    5  C5  UNL     1       1.582   1.024   0.047  1.00  0.00     0.087 C 
HETATM    6  C6  UNL     1       0.386   1.780  -0.384  1.00  0.00     0.053 C 
HETATM    7  C7  UNL     1      -0.909   1.103  -0.363  1.00  0.00     0.001 A 
HETATM    8  C8  UNL     1      -2.088   2.019   0.001  1.00  0.00     0.019 C 
HETATM    9  C9  UNL     1      -1.268   0.177  -1.533  1.00  0.00     0.189 A 
HETATM   10  F1  UNL     1      -2.562   0.118  -1.971  1.00  0.00    -0.248 F 
HETATM   11  C10 UNL     1      -1.045  -0.291  -0.138  1.00  0.00     0.006 A 
HETATM   12  C11 UNL     1      -2.284  -0.732   0.663  1.00  0.00     0.020 C 
HETATM   13  C12 UNL     1       1.486   0.393   1.391  1.00  0.00     0.120 C 
HETATM   14 BR1  UNL     1       0.749   1.651   2.653  1.00  0.00    -0.068 Br
HETATM   15 BR2  UNL     1       3.310   0.006   1.978  1.00  0.00    -0.068 Br
HETATM   16  C13 UNL     1       0.724  -0.879   1.445  1.00  0.00     0.100 C 
HETATM   17 BR3  UNL     1       1.858  -2.396   1.910  1.00  0.00    -0.088 Br
ENDROOT
BRANCH   5  18
HETATM   18  O1  UNL     1       2.647   1.958   0.128  1.00  0.00    -0.387 OA
ATOM     19  H1  UNL     1       2.382   2.573   0.802  1.00  0.00     0.210 HD
ENDBRANCH   5  18
TORSDOF 1
