REMARK  4 active torsions:
REMARK  status: ('A' for Active; 'I' for Inactive)
REMARK    1  A    between atoms: C5_6  and  O1_7 
REMARK    2  A    between atoms: C5_6  and  C6_9 
REMARK    3  A    between atoms: C7_11  and  O2_12 
REMARK    4  A    between atoms: C8_14  and  C10_18 
ROOT
HETATM    1  C1  UNL     1       2.483  -1.235  -0.319  1.00  0.00     0.033 C 
HETATM    2  C2  UNL     1       1.228  -0.446  -0.702  1.00  0.00     0.045 C 
HETATM    3 CL1  UNL     1       0.813  -1.125  -2.316  1.00  0.00    -0.119 Cl
HETATM    4  C3  UNL     1       1.690   0.988  -0.801  1.00  0.00     0.029 C 
HETATM    5  C4  UNL     1       0.662   1.814  -0.086  1.00  0.00     0.042 C 
HETATM    6  C5  UNL     1      -0.211   0.911   0.708  1.00  0.00     0.090 C 
HETATM    7  C10 UNL     1       0.118  -0.528   0.269  1.00  0.00     0.031 C 
HETATM    8  C11 UNL     1       0.377  -1.416   1.449  1.00  0.00     0.022 C 
ENDROOT
BRANCH   7   9
HETATM    9  C8  UNL     1      -1.233  -0.863  -0.336  1.00  0.00     0.072 C 
HETATM   10  C7  UNL     1      -1.591   0.408  -1.130  1.00  0.00     0.163 C 
HETATM   11  C6  UNL     1      -1.652   1.009   0.287  1.00  0.00     0.092 C 
HETATM   12 BR1  UNL     1      -2.623   2.550   0.557  1.00  0.00    -0.078 Br
HETATM   13  C9  UNL     1      -2.291  -0.348   0.592  1.00  0.00     0.105 C 
HETATM   14 BR3  UNL     1      -2.466  -0.880   2.352  1.00  0.00    -0.087 Br
HETATM   15 BR2  UNL     1      -1.459  -2.501  -1.185  1.00  0.00    -0.080 Br
BRANCH  10  16
HETATM   16  O2  UNL     1      -2.798   0.341  -1.785  1.00  0.00    -0.392 OA
ATOM     17  H2  UNL     1      -2.760  -0.030  -2.659  1.00  0.00     0.210 HD
ENDBRANCH  10  16
ENDBRANCH   7   9
BRANCH   6  18
HETATM   18  O1  UNL     1      -0.073   1.082   2.063  1.00  0.00    -0.387 OA
ATOM     19  H1  UNL     1      -0.631   0.505   2.571  1.00  0.00     0.210 HD
ENDBRANCH   6  18
TORSDOF 4
