REMARK  1 active torsions:
REMARK  status: ('A' for Active; 'I' for Inactive)
REMARK    1  A    between atoms: C12_17  and  O1_18 
ROOT
HETATM    1  C1  UNL     1      -2.183  -1.890   1.585  1.00  0.00     0.012 C 
HETATM    2  C2  UNL     1      -1.562  -1.453   0.276  1.00  0.00     0.008 C 
HETATM    3  C3  UNL     1      -2.592  -1.545  -0.788  1.00  0.00     0.094 C 
HETATM    4 BR1  UNL     1      -1.973  -2.541  -2.347  1.00  0.00    -0.089 Br
HETATM    5  C4  UNL     1      -3.068  -0.227  -1.289  1.00  0.00     0.218 C 
HETATM    6  N1  UNL     1      -1.928   0.547  -1.741  1.00  0.00    -0.058 N 
ATOM      7  H11 UNL     1      -2.032   1.270  -2.453  1.00  0.00     0.278 HD
ATOM      8  H12 UNL     1      -1.196   0.122  -2.310  1.00  0.00     0.278 HD
HETATM    9  C5  UNL     1      -1.691   0.893  -0.355  1.00  0.00     0.148 C 
HETATM   10  C6  UNL     1      -1.404   2.338  -0.167  1.00  0.00     0.041 C 
HETATM   11  C7  UNL     1      -0.277   2.607   0.802  1.00  0.00     0.003 C 
HETATM   12  C8  UNL     1       0.965   2.256   0.059  1.00  0.00     0.011 C 
HETATM   13  C9  UNL     1       1.497   0.875   0.374  1.00  0.00     0.064 C 
HETATM   14  C10 UNL     1       2.779   0.823  -0.419  1.00  0.00     0.180 C 
HETATM   15  F1  UNL     1       3.371   2.072  -0.373  1.00  0.00    -0.249 F 
HETATM   16  C11 UNL     1       3.801  -0.138   0.051  1.00  0.00     0.073 C 
HETATM   17  C12 UNL     1       3.352  -1.539  -0.366  1.00  0.00     0.143 C 
HETATM   18  C13 UNL     1       2.295  -1.962   0.588  1.00  0.00     0.004 C 
HETATM   19  C14 UNL     1       1.098  -1.415   0.767  1.00  0.00     0.015 C 
HETATM   20  C15 UNL     1       0.549  -0.214   0.015  1.00  0.00     0.134 C 
HETATM   21  F2  UNL     1       0.652  -0.510  -1.333  1.00  0.00    -0.238 F 
HETATM   22  C16 UNL     1      -0.870  -0.083   0.384  1.00  0.00     0.072 C 
HETATM   23  C17 UNL     1      -3.170   0.688  -0.112  1.00  0.00     0.126 C 
HETATM   24 BR2  UNL     1      -4.285   2.193  -0.586  1.00  0.00    -0.086 Br
ENDROOT
BRANCH  17  25
HETATM   25  O1  UNL     1       4.440  -2.403  -0.352  1.00  0.00    -0.392 OA
ATOM     26  H1  UNL     1       4.161  -3.273  -0.611  1.00  0.00     0.210 HD
ENDBRANCH  17  25
TORSDOF 1
