REMARK  7 active torsions:
REMARK  status: ('A' for Active; 'I' for Inactive)
REMARK    1  A    between atoms: C3_11  and  N4_12 
REMARK    2  A    between atoms: N4_12  and  C4_14 
REMARK    3  A    between atoms: C4_14  and  C5_15 
REMARK    4  A    between atoms: C5_15  and  C6_16 
REMARK    5  A    between atoms: C6_16  and  S2_17 
REMARK    6  A    between atoms: S2_17  and  C7_18 
REMARK    7  A    between atoms: C10_27  and  N8_28 
ROOT
HETATM    1  N1  UNL     1       4.377  -2.997   0.029  1.00  0.00    -0.195 NA
HETATM    2  C1  UNL     1       4.783  -1.914   0.106  1.00  0.00     0.093 C 
HETATM    3  C2  UNL     1       5.286  -0.532   0.183  1.00  0.00     0.269 C 
HETATM    4  N2  UNL     1       6.273  -0.341  -0.828  1.00  0.00    -0.278 N 
ATOM      5  H2  UNL     1       6.944  -0.999  -1.226  1.00  0.00     0.175 HD
HETATM    6  S1  UNL     1       5.999   1.354  -1.189  1.00  0.00     0.321 S 
HETATM    7  O1  UNL     1       6.858   2.224  -0.319  1.00  0.00    -0.182 OA
HETATM    8  O2  UNL     1       6.176   1.616  -2.641  1.00  0.00    -0.182 OA
HETATM    9  N3  UNL     1       4.348   1.412  -0.690  1.00  0.00    -0.254 N 
ATOM     10  H3  UNL     1       3.666   2.138  -0.909  1.00  0.00     0.181 HD
HETATM   11  C3  UNL     1       4.152   0.360   0.010  1.00  0.00     0.126 C 
ENDROOT
BRANCH  11  12
HETATM   12  N4  UNL     1       2.857   0.082   0.597  1.00  0.00    -0.377 N 
ATOM     13  H4  UNL     1       2.774  -0.017   1.609  1.00  0.00     0.160 HD
BRANCH  12  14
HETATM   14  C4  UNL     1       1.679  -0.057  -0.234  1.00  0.00     0.121 C 
BRANCH  14  15
HETATM   15  C5  UNL     1       0.453  -0.344   0.575  1.00  0.00     0.030 C 
BRANCH  15  16
HETATM   16  C6  UNL     1       0.153   0.756   1.573  1.00  0.00     0.084 C 
BRANCH  16  17
HETATM   17  S2  UNL     1      -1.320   0.399   2.540  1.00  0.00    -0.094 SA
BRANCH  17  18
HETATM   18  C7  UNL     1      -2.788   0.397   1.529  1.00  0.00     0.146 A 
HETATM   19  N5  UNL     1      -3.562   1.466   1.282  1.00  0.00    -0.321 N 
HETATM   20  C8  UNL     1      -4.594   1.098   0.474  1.00  0.00     0.139 A 
ATOM     21  H5  UNL     1      -3.402   2.406   1.643  1.00  0.00     0.169 HD
HETATM   22  N6  UNL     1      -5.636   1.753  -0.069  1.00  0.00    -0.337 N 
HETATM   23  C11 UNL     1      -4.441  -0.245   0.220  1.00  0.00     0.123 A 
HETATM   24  C9  UNL     1      -6.504   1.093  -0.843  1.00  0.00     0.183 A 
ATOM     25  H6  UNL     1      -5.763   2.749   0.109  1.00  0.00     0.168 HD
HETATM   26  N7  UNL     1      -6.394  -0.206  -1.115  1.00  0.00    -0.337 N 
HETATM   27  C10 UNL     1      -5.360  -0.883  -0.584  1.00  0.00     0.131 A 
ATOM     28  H7  UNL     1      -7.076  -0.675  -1.711  1.00  0.00     0.168 HD
HETATM   29  N9  UNL     1      -3.329  -0.645   0.878  1.00  0.00    -0.331 N 
ATOM     30  H9  UNL     1      -2.958  -1.595   0.879  1.00  0.00     0.168 HD
BRANCH  27  31
HETATM   31  N8  UNL     1      -5.242  -2.161  -0.845  1.00  0.00    -0.383 N 
ATOM     32  H82 UNL     1      -5.922  -2.633  -1.440  1.00  0.00     0.157 HD
ATOM     33  H81 UNL     1      -4.458  -2.674  -0.442  1.00  0.00     0.157 HD
ENDBRANCH  27  31
ENDBRANCH  17  18
ENDBRANCH  16  17
ENDBRANCH  15  16
ENDBRANCH  14  15
ENDBRANCH  12  14
ENDBRANCH  11  12
TORSDOF 7
