REMARK  1 active torsions:
REMARK  status: ('A' for Active; 'I' for Inactive)
REMARK    1  A    between atoms: C11_16  and  O1_18 
ROOT
HETATM    1  C1  UNL     1       2.795  -2.847  -1.661  1.00  0.00     0.043 C 
HETATM    2  C2  UNL     1       3.078  -1.532  -1.043  1.00  0.00    -0.079 C 
HETATM    3  C3  UNL     1       4.249  -0.786  -1.574  1.00  0.00     0.043 C 
HETATM    4  C4  UNL     1       2.400  -0.993  -0.033  1.00  0.00    -0.017 C 
HETATM    5  C5  UNL     1       2.796   0.319   0.470  1.00  0.00     0.237 C 
HETATM    6  N1  UNL     1       1.982   1.470   0.316  1.00  0.00     0.031 N 
HETATM    7  C6  UNL     1       2.904   2.594   0.711  1.00  0.00     0.308 C 
HETATM    8  C7  UNL     1       1.523   1.831  -0.969  1.00  0.00     0.271 C 
HETATM    9  C8  UNL     1       0.076   2.061  -1.194  1.00  0.00     0.046 C 
HETATM   10  C9  UNL     1      -0.792   2.279  -0.001  1.00  0.00     0.120 C 
HETATM   11  C10 UNL     1       0.019   2.477   1.233  1.00  0.00     0.347 C 
HETATM   12  F1  UNL     1       0.646   3.746   1.124  1.00  0.00    -0.181 F 
HETATM   13  F2  UNL     1      -0.688   2.599   2.400  1.00  0.00    -0.181 F 
HETATM   14  N2  UNL     1       1.034   1.484   1.338  1.00  0.00    -0.182 N 
ATOM     15  H2  UNL     1       1.066   0.823   2.114  1.00  0.00     0.194 HD
HETATM   16  C11 UNL     1      -2.013   1.410   0.105  1.00  0.00     0.086 C 
HETATM   17  C12 UNL     1      -2.426   1.083  -1.330  1.00  0.00     0.048 C 
HETATM   18  C13 UNL     1      -2.086   0.356   1.088  1.00  0.00     0.146 C 
HETATM   19 CL1  UNL     1      -3.307   0.723   2.394  1.00  0.00    -0.117 Cl
HETATM   20  C14 UNL     1      -2.319  -1.064   0.775  1.00  0.00    -0.057 C 
HETATM   21  C15 UNL     1      -3.487  -1.593   0.533  1.00  0.00    -0.084 C 
HETATM   22  C16 UNL     1      -3.573  -3.056   0.219  1.00  0.00     0.043 C 
HETATM   23  C17 UNL     1      -4.766  -0.874   0.619  1.00  0.00     0.043 C 
HETATM   24  C18 UNL     1      -1.152  -2.031   0.852  1.00  0.00     0.037 C 
HETATM   25  C19 UNL     1      -0.017  -1.760  -0.050  1.00  0.00     0.025 C 
HETATM   26  C20 UNL     1       1.335  -1.842   0.556  1.00  0.00     0.092 C 
HETATM   27 BR1  UNL     1       1.320  -1.648   2.505  1.00  0.00    -0.086 Br
ENDROOT
BRANCH  16  28
HETATM   28  O1  UNL     1      -3.050   2.371   0.455  1.00  0.00    -0.388 OA
ATOM     29  H1  UNL     1      -3.822   1.822   0.522  1.00  0.00     0.210 HD
ENDBRANCH  16  28
TORSDOF 1
