REMARK  0 active torsions:
REMARK  status: ('A' for Active; 'I' for Inactive)
ROOT
HETATM    1  C1  UNL     1      -1.478   4.054   0.213  1.00  0.00     0.153 C 
HETATM    2  N1  UNL     1      -0.997   2.671   0.473  1.00  0.00    -0.347 N 
HETATM    3  C2  UNL     1       0.376   2.567   0.630  1.00  0.00     0.292 C 
HETATM    4  O1  UNL     1       1.015   3.579   1.067  1.00  0.00    -0.267 OA
HETATM    5  C3  UNL     1       1.261   1.390   0.349  1.00  0.00     0.326 C 
HETATM    6  F1  UNL     1       1.269   0.741   1.510  1.00  0.00    -0.195 F 
HETATM    7  F2  UNL     1       0.921   0.986  -0.860  1.00  0.00    -0.195 F 
HETATM    8  C4  UNL     1       2.687   1.717   0.215  1.00  0.00     0.129 C 
HETATM    9  C5  UNL     1       3.673   0.706  -0.113  1.00  0.00    -0.040 A 
HETATM   10  C6  UNL     1       4.933   1.360   0.082  1.00  0.00     0.033 A 
HETATM   11  C7  UNL     1       6.136   0.772  -0.171  1.00  0.00     0.056 A 
HETATM   12 CL1  UNL     1       7.669   1.626   0.098  1.00  0.00    -0.083 Cl
HETATM   13  C8  UNL     1       6.137  -0.508  -0.636  1.00  0.00     0.056 A 
HETATM   14 CL2  UNL     1       7.674  -1.310  -0.980  1.00  0.00    -0.083 Cl
HETATM   15  C9  UNL     1       4.955  -1.139  -0.825  1.00  0.00     0.037 A 
HETATM   16  C10 UNL     1       3.665  -0.590  -0.579  1.00  0.00    -0.028 A 
HETATM   17  C11 UNL     1       2.616  -1.546  -0.891  1.00  0.00     0.008 C 
HETATM   18  C12 UNL     1       1.772  -2.354  -0.286  1.00  0.00    -0.024 C 
HETATM   19  C13 UNL     1       1.485  -2.690   1.111  1.00  0.00     0.047 C 
HETATM   20  C14 UNL     1       0.039  -2.733   1.510  1.00  0.00     0.142 C 
HETATM   21  N2  UNL     1      -0.892  -3.009   0.463  1.00  0.00    -0.226 N 
ATOM     22  H2  UNL     1      -0.768  -3.943   0.073  1.00  0.00     0.177 HD
HETATM   23  C15 UNL     1      -1.923  -2.317  -0.153  1.00  0.00     0.669 C 
HETATM   24  N3  UNL     1      -2.016  -2.543  -1.464  1.00  0.00    -0.235 N 
ATOM     25  H31 UNL     1      -2.775  -2.034  -1.917  1.00  0.00     0.174 HD
ATOM     26  H32 UNL     1      -1.286  -3.193  -1.755  1.00  0.00     0.174 HD
HETATM   27  N4  UNL     1      -2.931  -1.420   0.248  1.00  0.00    -0.218 N 
HETATM   28  C16 UNL     1      -4.034  -1.502  -0.720  1.00  0.00     0.141 C 
HETATM   29  C17 UNL     1      -4.143  -0.326  -1.607  1.00  0.00     0.020 C 
HETATM   30  C18 UNL     1      -3.949   1.019  -1.010  1.00  0.00     0.004 C 
HETATM   31  C19 UNL     1      -2.478   1.418  -0.926  1.00  0.00     0.025 C 
HETATM   32  C20 UNL     1      -2.085   1.737   0.512  1.00  0.00     0.088 C 
HETATM   33  C21 UNL     1      -1.840   0.514   1.264  1.00  0.00     0.045 C 
HETATM   34  C22 UNL     1      -2.896  -0.538   1.404  1.00  0.00     0.143 C 
ENDROOT
TORSDOF 0
