REMARK  2 active torsions:
REMARK  status: ('A' for Active; 'I' for Inactive)
REMARK    1  A    between atoms: C20_21  and  O1_22 
REMARK    2  A    between atoms: C20_21  and  C21_24 
ROOT
HETATM    1  C1  UNL     1      -4.881   1.712   0.110  1.00  0.00     0.013 C 
HETATM    2  C2  UNL     1      -4.166   0.742   0.095  1.00  0.00    -0.108 C 
HETATM    3  C3  UNL     1      -3.306  -0.465   0.071  1.00  0.00     0.019 C 
HETATM    4  C4  UNL     1      -4.109  -1.559   0.743  1.00  0.00     0.029 C 
HETATM    5  C5  UNL     1      -3.156  -0.834  -1.393  1.00  0.00     0.022 C 
HETATM    6  C6  UNL     1      -2.350   0.290  -2.022  1.00  0.00     0.007 C 
HETATM    7  C7  UNL     1      -0.944   0.284  -1.491  1.00  0.00    -0.010 C 
HETATM    8  C8  UNL     1      -0.386   1.657  -1.288  1.00  0.00     0.006 C 
HETATM    9  C9  UNL     1       1.121   1.499  -1.192  1.00  0.00     0.014 C 
HETATM   10  C10 UNL     1       1.568   0.338  -0.376  1.00  0.00     0.015 C 
HETATM   11  C11 UNL     1       2.792   0.705   0.400  1.00  0.00     0.030 C 
HETATM   12  C12 UNL     1       2.673   1.023   1.819  1.00  0.00     0.025 C 
HETATM   13  C13 UNL     1       1.604   0.289   2.572  1.00  0.00     0.059 C 
HETATM   14 BR1  UNL     1       1.431   0.998   4.351  1.00  0.00    -0.091 Br
HETATM   15  C14 UNL     1       0.314   0.572   1.782  1.00  0.00     0.021 C 
HETATM   16  C15 UNL     1       0.477  -0.236   0.499  1.00  0.00     0.004 C 
HETATM   17  C16 UNL     1      -0.800  -0.476  -0.215  1.00  0.00    -0.004 C 
HETATM   18  C17 UNL     1      -1.985  -0.215   0.724  1.00  0.00     0.027 C 
HETATM   19  C18 UNL     1       3.368  -0.639   0.168  1.00  0.00    -0.041 C 
HETATM   20  C19 UNL     1       4.298  -1.402   0.702  1.00  0.00     0.018 C 
HETATM   21  C20 UNL     1       2.385  -0.735  -0.979  1.00  0.00     0.187 C 
ENDROOT
BRANCH  21  22
HETATM   22  O1  UNL     1       1.829  -2.031  -0.915  1.00  0.00    -0.376 OA
ATOM     23  H1  UNL     1       2.354  -2.721  -1.303  1.00  0.00     0.211 HD
ENDBRANCH  21  22
BRANCH  21  24
HETATM   24  C21 UNL     1       3.127  -0.573  -2.238  1.00  0.00     0.423 C 
HETATM   25  F1  UNL     1       3.774  -1.808  -2.461  1.00  0.00    -0.167 F 
HETATM   26  F2  UNL     1       4.149   0.355  -2.221  1.00  0.00    -0.167 F 
HETATM   27  F3  UNL     1       2.340  -0.438  -3.380  1.00  0.00    -0.167 F 
ENDBRANCH  21  24
TORSDOF 2
