REMARK  1 active torsions:
REMARK  status: ('A' for Active; 'I' for Inactive)
REMARK    1  A    between atoms: C7_9  and  O1_10 
ROOT
HETATM    1  C1  UNL     1       4.595   1.526   1.490  1.00  0.00     0.015 C 
HETATM    2  C2  UNL     1       3.859   0.858   0.806  1.00  0.00    -0.072 C 
HETATM    3  C3  UNL     1       2.944   0.030  -0.014  1.00  0.00     0.178 C 
HETATM    4  F1  UNL     1       3.659  -0.329  -1.162  1.00  0.00    -0.228 F 
HETATM    5  C4  UNL     1       2.645  -1.201   0.741  1.00  0.00     0.060 C 
HETATM    6  C5  UNL     1       1.441  -1.970   0.265  1.00  0.00     0.028 C 
HETATM    7  C6  UNL     1       0.271  -0.964   0.314  1.00  0.00     0.051 C 
HETATM    8 BR1  UNL     1       0.376  -0.236   2.101  1.00  0.00    -0.082 Br
HETATM    9  C7  UNL     1      -0.965  -1.716   0.042  1.00  0.00     0.156 C 
HETATM   10  C8  UNL     1      -2.244  -1.144   0.523  1.00  0.00     0.116 C 
HETATM   11 CL1  UNL     1      -2.332  -1.072   2.318  1.00  0.00    -0.122 Cl
HETATM   12  C9  UNL     1      -2.682   0.127  -0.099  1.00  0.00     0.003 C 
HETATM   13  C10 UNL     1      -3.752   0.740   0.813  1.00  0.00     0.011 C 
HETATM   14  C11 UNL     1      -1.620   1.174  -0.275  1.00  0.00     0.010 C 
HETATM   15  C12 UNL     1      -0.574   0.790  -1.276  1.00  0.00    -0.011 C 
HETATM   16  C13 UNL     1      -0.134   2.008  -2.048  1.00  0.00     0.010 C 
HETATM   17  C14 UNL     1       0.593   0.043  -0.759  1.00  0.00     0.030 C 
HETATM   18  C15 UNL     1       1.788   0.887  -0.389  1.00  0.00     0.116 C 
HETATM   19 BR2  UNL     1       1.452   2.223   0.921  1.00  0.00    -0.086 Br
ENDROOT
BRANCH   9  20
HETATM   20  O1  UNL     1      -0.832  -2.997   0.627  1.00  0.00    -0.392 OA
ATOM     21  H1  UNL     1      -1.630  -3.482   0.451  1.00  0.00     0.210 HD
ENDBRANCH   9  20
TORSDOF 1
