REMARK  8 active torsions:
REMARK  status: ('A' for Active; 'I' for Inactive)
REMARK    1  A    between atoms: C2_3  and  O1_4 
REMARK    2  A    between atoms: N5_15  and  C6_16 
REMARK    3  A    between atoms: C6_16  and  C7_17 
REMARK    4  A    between atoms: C7_17  and  C8_18 
REMARK    5  A    between atoms: C8_18  and  N6_19 
REMARK    6  A    between atoms: C11_24  and  N8_25 
REMARK    7  A    between atoms: C12_30  and  N10_31 
REMARK    8  A    between atoms: N10_31  and  N11_33 
ROOT
HETATM    1  N1  UNL     1       0.120  -1.395   2.293  1.00  0.00    -0.190 NA
HETATM    2  C1  UNL     1      -0.939  -1.279   1.837  1.00  0.00     0.148 C 
HETATM    3  C2  UNL     1      -2.291  -1.114   1.262  1.00  0.00     0.340 C 
HETATM    4  O2  UNL     1      -2.970  -0.157   1.941  1.00  0.00    -0.315 OA
HETATM    5  C3  UNL     1      -3.176   1.033   1.313  1.00  0.00     0.213 C 
HETATM    6  C4  UNL     1      -4.254   1.859   1.965  1.00  0.00     0.175 C 
HETATM    7  N2  UNL     1      -4.982   2.405   0.842  1.00  0.00    -0.137 NA
HETATM    8  N3  UNL     1      -4.798   1.530  -0.233  1.00  0.00    -0.290 N 
ATOM      9  H3  UNL     1      -5.373   1.514  -1.075  1.00  0.00     0.183 HD
HETATM   10  C5  UNL     1      -3.799   0.747  -0.010  1.00  0.00     0.134 C 
HETATM   11  N4  UNL     1      -3.203  -0.303  -0.760  1.00  0.00    -0.300 N 
ATOM     12  H4  UNL     1      -3.525  -0.548  -1.696  1.00  0.00     0.182 HD
HETATM   13  N5  UNL     1      -2.152  -0.978  -0.140  1.00  0.00    -0.158 NA
ENDROOT
BRANCH   3  14
HETATM   14  O1  UNL     1      -2.939  -2.349   1.506  1.00  0.00    -0.340 OA
ATOM     15  H1  UNL     1      -3.808  -2.243   1.137  1.00  0.00     0.215 HD
ENDBRANCH   3  14
BRANCH  13  16
HETATM   16  C6  UNL     1      -0.899  -0.414  -0.579  1.00  0.00     0.122 C 
BRANCH  16  17
HETATM   17  C7  UNL     1      -0.938  -0.349  -2.081  1.00  0.00     0.037 C 
BRANCH  17  18
HETATM   18  C8  UNL     1       0.301   0.247  -2.689  1.00  0.00     0.133 C 
BRANCH  18  19
HETATM   19  N6  UNL     1       1.483  -0.495  -2.337  1.00  0.00    -0.327 N 
HETATM   20  C9  UNL     1       1.943  -1.584  -2.979  1.00  0.00     0.185 A 
HETATM   21  N7  UNL     1       3.054  -2.033  -2.376  1.00  0.00    -0.346 N 
HETATM   22  C10 UNL     1       3.291  -1.202  -1.332  1.00  0.00     0.123 A 
ATOM     23  H7  UNL     1       3.612  -2.842  -2.650  1.00  0.00     0.167 HD
HETATM   24  C11 UNL     1       4.284  -1.174  -0.380  1.00  0.00     0.145 A 
HETATM   25  C13 UNL     1       2.314  -0.229  -1.291  1.00  0.00     0.155 A 
HETATM   26  N9  UNL     1       4.312  -0.237   0.560  1.00  0.00    -0.173 N 
HETATM   27  C12 UNL     1       3.340   0.691   0.560  1.00  0.00     0.699 A 
ATOM     28  H9  UNL     1       5.051  -0.222   1.263  1.00  0.00     0.186 HD
HETATM   29  N12 UNL     1       2.367   0.694  -0.342  1.00  0.00    -0.172 N 
ATOM     30  H12 UNL     1       1.649   1.418  -0.304  1.00  0.00     0.186 HD
BRANCH  24  31
HETATM   31  N8  UNL     1       5.201  -2.080  -0.410  1.00  0.00    -0.383 N 
ATOM     32  H82 UNL     1       5.179  -2.800  -1.132  1.00  0.00     0.157 HD
ATOM     33  H81 UNL     1       5.937  -2.059   0.296  1.00  0.00     0.157 HD
ENDBRANCH  24  31
BRANCH  27  34
HETATM   34  N10 UNL     1       3.392   1.598   1.492  1.00  0.00    -0.138 N 
ATOM     35  H10 UNL     1       2.671   2.319   1.524  1.00  0.00     0.205 HD
BRANCH  34  36
HETATM   36  N11 UNL     1       4.405   1.609   2.445  1.00  0.00    -0.331 N 
ATOM     37 2H11 UNL     1       5.118   0.881   2.398  1.00  0.00     0.177 HD
ATOM     38 1H11 UNL     1       4.446   2.320   3.175  1.00  0.00     0.177 HD
ENDBRANCH  34  36
ENDBRANCH  27  34
ENDBRANCH  18  19
ENDBRANCH  17  18
ENDBRANCH  16  17
ENDBRANCH  13  16
TORSDOF 8
