REMARK  6 active torsions:
REMARK  status: ('A' for Active; 'I' for Inactive)
REMARK    1  A    between atoms: C2_2  and  C3_4 
REMARK    2  A    between atoms: C3_4  and  C4_5 
REMARK    3  A    between atoms: C4_5  and  N2_6 
REMARK    4  A    between atoms: C4_5  and  C6_11 
REMARK       I    between atoms: N2_6  and  C5_8 
REMARK    5  A    between atoms: C6_11  and  N4_12 
REMARK    6  A    between atoms: C6_11  and  C7_16 
REMARK       I    between atoms: C7_16  and  N5_18 
ROOT
HETATM    1  C6  UNL     1      -0.864  -1.252   0.475  1.00  0.00     0.297 C 
ENDROOT
BRANCH   1   2
HETATM    2  C4  UNL     1      -1.728  -0.192  -0.161  1.00  0.00     0.130 C 
BRANCH   2   3
HETATM    3  C3  UNL     1      -3.071  -0.125   0.490  1.00  0.00     0.081 C 
BRANCH   3   4
HETATM    4  C2  UNL     1      -3.794  -1.399   0.461  1.00  0.00     0.017 C 
HETATM    5  C1  UNL     1      -4.147  -1.975   1.593  1.00  0.00     0.035 C 
HETATM    6  N1  UNL     1      -4.132  -2.040  -0.757  1.00  0.00    -0.108 NA
ENDBRANCH   3   4
ENDBRANCH   2   3
BRANCH   2   7
HETATM    7  N2  UNL     1      -1.093   1.091  -0.087  1.00  0.00    -0.338 N 
HETATM    8  C5  UNL     1      -0.732   1.852  -1.225  1.00  0.00     0.329 C 
HETATM    9  N3  UNL     1      -0.106   3.117  -1.103  1.00  0.00    -0.040 NA
HETATM   10  O1  UNL     1      -0.977   1.384  -2.365  1.00  0.00    -0.251 OA
ATOM     11  H2  UNL     1      -0.890   1.477   0.835  1.00  0.00     0.164 HD
ENDBRANCH   2   7
ENDBRANCH   1   2
BRANCH   1  12
HETATM   12  N4  UNL     1      -0.667  -0.969   1.880  1.00  0.00    -0.064 N 
ATOM     13  H43 UNL     1      -0.290  -0.033   2.029  1.00  0.00     0.275 HD
ATOM     14  H42 UNL     1      -1.553  -0.856   2.372  1.00  0.00     0.275 HD
ATOM     15  H41 UNL     1      -0.083  -1.686   2.310  1.00  0.00     0.275 HD
ENDBRANCH   1  12
BRANCH   1  16
HETATM   16  C7  UNL     1       0.458  -1.330  -0.189  1.00  0.00     0.256 C 
HETATM   17  O2  UNL     1       0.503  -1.569  -1.419  1.00  0.00    -0.271 OA
HETATM   18  N5  UNL     1       1.684  -1.149   0.495  1.00  0.00    -0.302 N 
HETATM   19  C8  UNL     1       2.646  -0.423   0.051  1.00  0.00     0.201 C 
ATOM     20  H5  UNL     1       1.810  -1.621   1.390  1.00  0.00     0.171 HD
HETATM   21  N6  UNL     1       2.754   0.340  -1.145  1.00  0.00    -0.366 N 
HETATM   22  S1  UNL     1       4.193  -0.163   0.862  1.00  0.00     0.208 S 
HETATM   23  C9  UNL     1       3.604   1.500  -0.964  1.00  0.00     0.137 C 
ATOM     24  H6  UNL     1       2.291   0.100  -2.021  1.00  0.00     0.161 HD
HETATM   25  C10 UNL     1       4.881   1.035  -0.297  1.00  0.00     0.168 C 
HETATM   26  O3  UNL     1       5.005  -1.410   0.882  1.00  0.00    -0.220 OA
HETATM   27  O4  UNL     1       3.989   0.438   2.198  1.00  0.00    -0.220 OA
ENDBRANCH   1  16
TORSDOF 6
