REMARK  6 active torsions:
REMARK  status: ('A' for Active; 'I' for Inactive)
REMARK    1  A    between atoms: C2_2  and  C3_3 
REMARK    2  A    between atoms: C4_4  and  C5_5 
REMARK    3  A    between atoms: C6_6  and  C7_7 
REMARK    4  A    between atoms: C8_12  and  C9_13 
REMARK    5  A    between atoms: N4_15  and  N5_17 
REMARK    6  A    between atoms: C11_22  and  C12_23 
ROOT
HETATM    1  C5  UNL     1       1.828  -0.688   0.022  1.00  0.00     0.047 A 
HETATM    2  C6  UNL     1       1.008   0.040   0.800  1.00  0.00     0.112 A 
HETATM    3  N2  UNL     1      -0.354  -0.075   0.697  1.00  0.00    -0.348 N 
ATOM      4  H2  UNL     1      -0.943   0.499   1.301  1.00  0.00     0.166 HD
HETATM    5  C8  UNL     1      -0.954  -0.933  -0.187  1.00  0.00     0.095 A 
HETATM    6  C11 UNL     1      -0.165  -1.702  -1.005  1.00  0.00     0.110 A 
HETATM    7  C13 UNL     1       1.227  -1.565  -0.880  1.00  0.00     0.202 A 
HETATM    8  O3  UNL     1       1.946  -2.270  -1.620  1.00  0.00    -0.286 OA
ENDROOT
BRANCH   5   9
HETATM    9  C9  UNL     1      -2.383  -1.152  -0.093  1.00  0.00     0.159 C 
HETATM   10  N3  UNL     1      -2.975  -2.408  -0.586  1.00  0.00    -0.079 NA
HETATM   11  N4  UNL     1      -3.217  -0.424   0.478  1.00  0.00    -0.284 N 
ATOM     12  H4  UNL     1      -4.162  -0.801   0.401  1.00  0.00     0.188 HD
BRANCH  11  13
HETATM   13  N5  UNL     1      -3.196   0.709   1.157  1.00  0.00    -0.275 N 
HETATM   14  C10 UNL     1      -3.977   1.717   0.867  1.00  0.00     0.215 C 
HETATM   15  N6  UNL     1      -3.847   2.867   1.678  1.00  0.00    -0.065 NA
HETATM   16  N7  UNL     1      -4.900   1.650  -0.203  1.00  0.00    -0.065 NA
ATOM     17  H5  UNL     1      -2.546   0.801   1.937  1.00  0.00     0.189 HD
ENDBRANCH  11  13
ENDBRANCH   5   9
BRANCH   6  18
HETATM   18  C12 UNL     1      -0.619  -2.518  -2.117  1.00  0.00     0.271 C 
HETATM   19  N8  UNL     1       0.094  -3.718  -2.378  1.00  0.00    -0.057 NA
HETATM   20  O2  UNL     1      -1.574  -2.224  -2.830  1.00  0.00    -0.271 OA
ENDBRANCH   6  18
BRANCH   2  21
HETATM   21  C7  UNL     1       1.472   0.812   1.953  1.00  0.00     0.282 C 
HETATM   22  N1  UNL     1       2.662   0.464   2.609  1.00  0.00    -0.056 NA
HETATM   23  O1  UNL     1       0.793   1.772   2.347  1.00  0.00    -0.269 OA
ENDBRANCH   2  21
BRANCH   1  24
HETATM   24  C4  UNL     1       3.268  -0.511  -0.142  1.00  0.00     0.018 C 
HETATM   25  C3  UNL     1       3.923   0.561  -0.343  1.00  0.00     0.000 C 
BRANCH  25  26
HETATM   26  C2  UNL     1       3.441   1.925  -0.487  1.00  0.00    -0.010 C 
HETATM   27  C1  UNL     1       4.283   2.930  -0.679  1.00  0.00     0.011 C 
ENDBRANCH  25  26
ENDBRANCH   1  24
TORSDOF 6
