REMARK  5 active torsions:
REMARK  status: ('A' for Active; 'I' for Inactive)
REMARK    1  A    between atoms: C5_9  and  C6_10 
REMARK    2  A    between atoms: C5_9  and  N6_23 
REMARK    3  A    between atoms: N3_11  and  N4_13 
REMARK       I    between atoms: N4_13  and  C7_15 
REMARK    4  A    between atoms: C7_15  and  C8_17 
REMARK    5  A    between atoms: C8_17  and  N5_18 
ROOT
HETATM    1  C1  UNL     1      -2.391  -0.917   1.854  1.00  0.00     0.151 C 
HETATM    2  N1  UNL     1      -3.095  -0.104   0.954  1.00  0.00    -0.364 N 
HETATM    3  C2  UNL     1      -4.414   0.249   1.271  1.00  0.00     0.088 C 
HETATM    4  C3  UNL     1      -5.168   0.960   0.184  1.00  0.00     0.276 C 
HETATM    5  N2  UNL     1      -4.360   1.899  -0.551  1.00  0.00    -0.066 N 
ATOM      6  H21 UNL     1      -4.827   2.802  -0.627  1.00  0.00     0.277 HD
ATOM      7  H22 UNL     1      -4.319   1.651  -1.539  1.00  0.00     0.277 HD
HETATM    8  C4  UNL     1      -3.033   2.047   0.002  1.00  0.00     0.292 C 
HETATM    9  C5  UNL     1      -2.410   0.633  -0.024  1.00  0.00     0.166 C 
ENDROOT
BRANCH   9  10
HETATM   10  C6  UNL     1      -0.981   0.869   0.328  1.00  0.00     0.135 C 
HETATM   11  N3  UNL     1      -0.105   0.313  -0.424  1.00  0.00    -0.309 N 
ATOM     12  H3  UNL     1      -0.450  -0.248  -1.203  1.00  0.00     0.185 HD
BRANCH  11  13
HETATM   13  N4  UNL     1       1.281   0.406  -0.273  1.00  0.00    -0.269 N 
HETATM   14  C7  UNL     1       1.975   0.140   0.905  1.00  0.00     0.264 C 
HETATM   15  O1  UNL     1       1.286  -0.211   1.914  1.00  0.00    -0.270 OA
ATOM     16  H4  UNL     1       1.826   0.690  -1.087  1.00  0.00     0.190 HD
BRANCH  14  17
HETATM   17  C8  UNL     1       3.420   0.247   1.016  1.00  0.00     0.376 C 
BRANCH  17  18
HETATM   18  N5  UNL     1       4.133   0.625  -0.173  1.00  0.00     0.097 N 
HETATM   19  C9  UNL     1       5.536   0.763   0.234  1.00  0.00     0.273 C 
HETATM   20  C10 UNL     1       6.137  -0.611   0.063  1.00  0.00     0.032 C 
HETATM   21  C11 UNL     1       5.484  -1.055  -1.219  1.00  0.00     0.032 C 
HETATM   22  C12 UNL     1       4.136  -0.434  -1.168  1.00  0.00     0.273 C 
ENDBRANCH  17  18
ENDBRANCH  14  17
ENDBRANCH  11  13
ENDBRANCH   9  10
BRANCH   9  23
HETATM   23  N6  UNL     1      -2.533   0.197  -1.365  1.00  0.00    -0.334 N 
HETATM   24  C13 UNL     1      -2.652  -0.953  -1.863  1.00  0.00     0.199 C 
HETATM   25  N7  UNL     1      -2.693  -2.160  -1.112  1.00  0.00    -0.067 NA
HETATM   26  N8  UNL     1      -2.753  -1.075  -3.267  1.00  0.00    -0.067 NA
ATOM     27  H6  UNL     1      -2.523   0.951  -2.052  1.00  0.00     0.164 HD
ENDBRANCH   9  23
TORSDOF 5
