REMARK  6 active torsions:
REMARK  status: ('A' for Active; 'I' for Inactive)
REMARK    1  A    between atoms: C2_2  and  N1_3 
REMARK    2  A    between atoms: C2_2  and  C3_7 
REMARK       I    between atoms: C3_7  and  N2_9 
REMARK    3  A    between atoms: N2_9  and  C4_11 
REMARK    4  A    between atoms: C4_11  and  C5_12 
REMARK       I    between atoms: C5_12  and  N3_14 
REMARK    5  A    between atoms: N3_14  and  C6_16 
REMARK    6  A    between atoms: C6_16  and  C7_17 
ROOT
HETATM    1  C5  UNL     1      -0.076   0.252   1.367  1.00  0.00     0.248 C 
HETATM    2  O2  UNL     1      -0.395   1.241   2.090  1.00  0.00    -0.271 OA
HETATM    3  N3  UNL     1      -1.028  -0.432   0.576  1.00  0.00    -0.325 N 
ATOM      4  H3  UNL     1      -0.718  -1.252   0.054  1.00  0.00     0.165 HD
ENDROOT
BRANCH   1   5
HETATM    5  C4  UNL     1       1.383  -0.146   1.422  1.00  0.00     0.114 A 
HETATM    6  C12 UNL     1       2.013  -0.184   2.736  1.00  0.00     0.044 A 
HETATM    7  C13 UNL     1       1.603  -1.501   2.072  1.00  0.00     0.044 A 
BRANCH   5   8
HETATM    8  N2  UNL     1       2.037  -0.028   0.142  1.00  0.00    -0.341 N 
HETATM    9  C3  UNL     1       3.395  -0.308  -0.122  1.00  0.00     0.248 C 
HETATM   10  O1  UNL     1       4.139  -0.726   0.810  1.00  0.00    -0.271 OA
ATOM     11  H2  UNL     1       1.467   0.286  -0.643  1.00  0.00     0.163 HD
BRANCH   9  12
HETATM   12  C2  UNL     1       3.998  -0.123  -1.463  1.00  0.00     0.270 C 
HETATM   13  C1  UNL     1       4.259   1.398  -1.598  1.00  0.00     0.050 C 
BRANCH  12  14
HETATM   14  N1  UNL     1       5.315  -0.774  -1.529  1.00  0.00    -0.067 N 
ATOM     15  H13 UNL     1       5.848  -0.527  -2.363  1.00  0.00     0.275 HD
ATOM     16  H12 UNL     1       5.980  -0.414  -0.844  1.00  0.00     0.275 HD
ATOM     17  H11 UNL     1       5.143  -1.775  -1.440  1.00  0.00     0.275 HD
ENDBRANCH  12  14
ENDBRANCH   9  12
ENDBRANCH   5   8
ENDBRANCH   1   5
BRANCH   3  18
HETATM   18  C6  UNL     1      -2.428  -0.034   0.463  1.00  0.00     0.189 C 
HETATM   19  C8  UNL     1      -2.599   1.132  -0.428  1.00  0.00     0.064 C 
HETATM   20  C9  UNL     1      -3.460   0.877  -1.627  1.00  0.00     0.014 C 
HETATM   21  C10 UNL     1      -3.280  -0.439  -2.302  1.00  0.00     0.103 C 
HETATM   22  C11 UNL     1      -3.325  -1.541  -1.294  1.00  0.00     0.219 C 
HETATM   23  O4  UNL     1      -3.482  -2.742  -1.698  1.00  0.00    -0.274 OA
HETATM   24  N5  UNL     1      -3.190  -1.222   0.053  1.00  0.00    -0.327 N 
ATOM     25  H5  UNL     1      -3.622  -1.816   0.760  1.00  0.00     0.165 HD
BRANCH  18  26
HETATM   26  C7  UNL     1      -2.923   0.232   1.840  1.00  0.00     0.280 C 
HETATM   27  N4  UNL     1      -3.912   1.272   2.075  1.00  0.00    -0.058 NA
HETATM   28  O3  UNL     1      -2.535  -0.394   2.834  1.00  0.00    -0.272 OA
ENDBRANCH  18  26
ENDBRANCH   3  18
TORSDOF 6
