REMARK  11 active torsions:
REMARK  status: ('A' for Active; 'I' for Inactive)
REMARK    1  A    between atoms: N1_2  and  C2_5 
REMARK    2  A    between atoms: C2_5  and  C3_6 
REMARK    3  A    between atoms: C2_5  and  C19_32 
REMARK       I    between atoms: C3_6  and  N2_8 
REMARK    4  A    between atoms: N2_8  and  C4_10 
REMARK    5  A    between atoms: C5_11  and  O2_12 
REMARK    6  A    between atoms: O2_12  and  C6_13 
REMARK    7  A    between atoms: C6_13  and  O4_15 
REMARK    8  A    between atoms: O4_15  and  C7_16 
REMARK    9  A    between atoms: C7_16  and  C8_17 
REMARK   10  A    between atoms: C16_26  and  O6_27 
REMARK   11  A    between atoms: C17_29  and  O7_30 
ROOT
HETATM    1  C4  UNL     1      -0.814   1.530  -1.264  1.00  0.00     0.171 C 
HETATM    2  C5  UNL     1       0.353   0.857  -1.905  1.00  0.00     0.297 C 
HETATM    3  O5  UNL     1       0.849   1.644  -2.953  1.00  0.00    -0.351 OA
HETATM    4  C14 UNL     1       1.073   2.954  -2.627  1.00  0.00     0.152 C 
HETATM    5  C15 UNL     1       0.179   3.895  -3.435  1.00  0.00     0.042 C 
HETATM    6  C16 UNL     1       0.910   3.296  -1.172  1.00  0.00     0.178 C 
HETATM    7  C17 UNL     1      -0.439   2.881  -0.698  1.00  0.00     0.179 C 
ENDROOT
BRANCH   1   8
HETATM    8  N2  UNL     1      -1.457   0.745  -0.222  1.00  0.00    -0.347 N 
HETATM    9  C3  UNL     1      -2.825   0.385  -0.274  1.00  0.00     0.249 C 
HETATM   10  O1  UNL     1      -3.460   0.796  -1.294  1.00  0.00    -0.271 OA
ATOM     11  H2  UNL     1      -0.901   0.442   0.577  1.00  0.00     0.163 HD
BRANCH   9  12
HETATM   12  C2  UNL     1      -3.433  -0.403   0.790  1.00  0.00     0.279 C 
BRANCH  12  13
HETATM   13  N1  UNL     1      -4.892  -0.550   0.524  1.00  0.00    -0.066 N 
HETATM   14  C1  UNL     1      -5.132  -1.268  -0.707  1.00  0.00     0.267 C 
ATOM     15  H12 UNL     1      -5.366   0.353   0.529  1.00  0.00     0.277 HD
ATOM     16  H11 UNL     1      -5.374  -0.985   1.311  1.00  0.00     0.277 HD
ENDBRANCH  12  13
BRANCH  12  17
HETATM   17  C19 UNL     1      -2.927  -1.777   1.011  1.00  0.00     0.017 C 
HETATM   18  C20 UNL     1      -1.487  -1.952   1.308  1.00  0.00     0.012 C 
HETATM   19  C21 UNL     1      -3.694  -2.384   2.198  1.00  0.00     0.012 C 
ENDBRANCH  12  17
ENDBRANCH   9  12
ENDBRANCH   1   8
BRANCH   2  20
HETATM   20  O2  UNL     1       1.383   0.483  -1.050  1.00  0.00    -0.264 OA
BRANCH  20  21
HETATM   21  C6  UNL     1       1.770  -0.843  -0.958  1.00  0.00     0.409 C 
HETATM   22  O3  UNL     1       1.208  -1.742  -1.638  1.00  0.00    -0.229 OA
BRANCH  21  23
HETATM   23  O4  UNL     1       2.790  -1.250  -0.118  1.00  0.00    -0.293 OA
BRANCH  23  24
HETATM   24  C7  UNL     1       3.182  -2.628  -0.030  1.00  0.00     0.219 C 
BRANCH  24  25
HETATM   25  C8  UNL     1       4.293  -2.766   0.945  1.00  0.00    -0.034 A 
HETATM   26  C9  UNL     1       3.956  -2.973   2.286  1.00  0.00     0.009 A 
HETATM   27  C10 UNL     1       4.941  -3.109   3.231  1.00  0.00     0.001 A 
HETATM   28  C11 UNL     1       6.273  -3.040   2.848  1.00  0.00     0.000 A 
HETATM   29  C12 UNL     1       6.635  -2.838   1.540  1.00  0.00     0.001 A 
HETATM   30  C13 UNL     1       5.623  -2.704   0.609  1.00  0.00     0.009 A 
ENDBRANCH  24  25
ENDBRANCH  23  24
ENDBRANCH  21  23
ENDBRANCH  20  21
ENDBRANCH   2  20
BRANCH   7  31
HETATM   31  O7  UNL     1      -1.370   3.860  -1.062  1.00  0.00    -0.386 OA
HETATM   32  C18 UNL     1      -1.981   4.434   0.033  1.00  0.00     0.202 C 
ENDBRANCH   7  31
BRANCH   6  33
HETATM   33  O6  UNL     1       1.069   4.679  -1.007  1.00  0.00    -0.390 OA
ATOM     34  H6  UNL     1       0.966   4.895  -0.088  1.00  0.00     0.210 HD
ENDBRANCH   6  33
TORSDOF 11
