REMARK  11 active torsions:
REMARK  status: ('A' for Active; 'I' for Inactive)
REMARK    1  A    between atoms: C3_4  and  O2_5 
REMARK    2  A    between atoms: O2_5  and  C4_6 
REMARK    3  A    between atoms: C7_9  and  C9_11 
REMARK    4  A    between atoms: C10_12  and  C11_13 
REMARK    5  A    between atoms: C12_14  and  C13_15 
REMARK    6  A    between atoms: C14_16  and  C15_17 
REMARK    7  A    between atoms: C15_17  and  C17_19 
REMARK    8  A    between atoms: C18_23  and  O6_24 
REMARK    9  A    between atoms: C18_23  and  C19_26 
REMARK   10  A    between atoms: C19_26  and  O7_27 
REMARK   11  A    between atoms: C21_30  and  O8_31 
ROOT
HETATM    1  C4  UNL     1      -2.446  -1.162  -0.162  1.00  0.00     0.202 C 
HETATM    2  C5  UNL     1      -1.693   0.108   0.019  1.00  0.00     0.055 C 
HETATM    3  C6  UNL     1      -1.828   1.031  -1.140  1.00  0.00     0.016 C 
HETATM    4  C7  UNL     1      -0.289  -0.348   0.293  1.00  0.00     0.085 C 
HETATM    5  C8  UNL     1       0.387   0.540   1.345  1.00  0.00     0.051 C 
HETATM    6  O5  UNL     1      -0.362  -1.652   0.757  1.00  0.00    -0.336 OA
HETATM    7  C18 UNL     1      -1.451  -2.249   0.133  1.00  0.00     0.212 C 
ENDROOT
BRANCH   4   8
HETATM    8  C9  UNL     1       0.582  -0.336  -0.892  1.00  0.00     0.011 C 
HETATM    9  C10 UNL     1       1.885  -0.214  -0.727  1.00  0.00    -0.001 C 
BRANCH   9  10
HETATM   10  C11 UNL     1       2.740  -0.202  -1.889  1.00  0.00    -0.000 C 
HETATM   11  C12 UNL     1       4.017  -0.087  -1.821  1.00  0.00    -0.000 C 
BRANCH  11  12
HETATM   12  C13 UNL     1       4.752   0.042  -0.589  1.00  0.00    -0.003 C 
HETATM   13  C14 UNL     1       6.081   0.159  -0.559  1.00  0.00    -0.012 C 
BRANCH  13  14
HETATM   14  C15 UNL     1       6.751   0.287   0.750  1.00  0.00     0.105 C 
HETATM   15  C16 UNL     1       7.533   1.587   0.729  1.00  0.00     0.025 C 
BRANCH  14  16
HETATM   16  C17 UNL     1       7.693  -0.857   0.893  1.00  0.00     0.180 C 
HETATM   17  O3  UNL     1       7.552  -1.661   1.839  1.00  0.00    -0.647 OA
HETATM   18  O4  UNL     1       8.725  -1.057   0.001  1.00  0.00    -0.647 OA
ENDBRANCH  14  16
ENDBRANCH  13  14
ENDBRANCH  11  12
ENDBRANCH   9  10
ENDBRANCH   4   8
BRANCH   1  19
HETATM   19  O2  UNL     1      -3.576  -1.210   0.684  1.00  0.00    -0.319 OA
BRANCH  19  20
HETATM   20  C3  UNL     1      -4.531  -0.223   0.530  1.00  0.00     0.184 C 
HETATM   21  O1  UNL     1      -4.687   0.849   1.380  1.00  0.00    -0.299 OA
HETATM   22  C2  UNL     1      -5.383   2.026   1.048  1.00  0.00     0.267 C 
HETATM   23  C1  UNL     1      -4.512   3.262   1.135  1.00  0.00     0.071 C 
HETATM   24  O9  UNL     1      -5.950   1.997  -0.209  1.00  0.00    -0.328 OA
HETATM   25  C21 UNL     1      -6.365   0.768  -0.631  1.00  0.00     0.289 C 
HETATM   26  C20 UNL     1      -5.357  -0.306  -0.501  1.00  0.00     0.096 C 
BRANCH  25  27
HETATM   27  O8  UNL     1      -7.529   0.414   0.070  1.00  0.00    -0.368 OA
ATOM     28  H8  UNL     1      -8.177   1.104  -0.014  1.00  0.00     0.213 HD
ENDBRANCH  25  27
ENDBRANCH  19  20
ENDBRANCH   1  19
BRANCH   7  29
HETATM   29  O6  UNL     1      -0.976  -2.850  -1.032  1.00  0.00    -0.362 OA
ATOM     30  H6  UNL     1      -0.347  -3.537  -0.846  1.00  0.00     0.213 HD
ENDBRANCH   7  29
BRANCH   7  31
HETATM   31  C19 UNL     1      -1.989  -3.308   1.050  1.00  0.00     0.235 C 
BRANCH  31  32
HETATM   32  O7  UNL     1      -3.094  -3.967   0.504  1.00  0.00    -0.395 OA
ATOM     33  H7  UNL     1      -3.435  -4.637   1.085  1.00  0.00     0.209 HD
ENDBRANCH  31  32
ENDBRANCH   7  31
TORSDOF 11
