REMARK  1 active torsions:
REMARK  status: ('A' for Active; 'I' for Inactive)
REMARK    1  A    between atoms: O1_2  and  C2_3 
ROOT
HETATM    1  C2  UNL     1       2.891  -1.307   0.402  1.00  0.00     0.070 A 
HETATM    2  C3  UNL     1       3.967  -0.452   0.338  1.00  0.00     0.063 A 
HETATM    3  C4  UNL     1       3.751   0.891   0.125  1.00  0.00     0.064 A 
HETATM    4 CL1  UNL     1       5.131   1.963   0.045  1.00  0.00    -0.082 Cl
HETATM    5  C5  UNL     1       2.458   1.319  -0.014  1.00  0.00     0.065 A 
HETATM    6  N1  UNL     1       2.248   2.610  -0.263  1.00  0.00    -0.358 N 
ATOM      7  H1  UNL     1       3.058   3.228  -0.309  1.00  0.00     0.166 HD
HETATM    8  C6  UNL     1       1.037   3.145  -0.456  1.00  0.00     0.006 A 
HETATM    9  C7  UNL     1       0.913   4.600  -0.730  1.00  0.00     0.068 C 
HETATM   10  C8  UNL     1      -0.048   2.302  -0.388  1.00  0.00     0.039 A 
HETATM   11  C9  UNL     1       0.078   0.920  -0.127  1.00  0.00     0.005 A 
HETATM   12  C10 UNL     1      -1.156   0.181  -0.118  1.00  0.00     0.044 A 
HETATM   13  C11 UNL     1      -1.564  -0.884   0.624  1.00  0.00     0.044 A 
HETATM   14  C12 UNL     1      -2.891  -1.187   0.378  1.00  0.00    -0.004 A 
HETATM   15  C13 UNL     1      -3.696  -2.153   0.885  1.00  0.00     0.033 A 
HETATM   16  C14 UNL     1      -5.022  -2.251   0.467  1.00  0.00     0.013 A 
HETATM   17 BR1  UNL     1      -6.120  -3.620   1.200  1.00  0.00    -0.051 Br
HETATM   18  C15 UNL     1      -5.458  -1.340  -0.460  1.00  0.00     0.045 A 
HETATM   19  C16 UNL     1      -4.623  -0.364  -0.962  1.00  0.00     0.062 A 
HETATM   20 CL2  UNL     1      -5.199   0.788  -2.144  1.00  0.00    -0.082 Cl
HETATM   21  C17 UNL     1      -3.303  -0.264  -0.549  1.00  0.00     0.065 A 
HETATM   22  N2  UNL     1      -2.278   0.530  -0.830  1.00  0.00    -0.353 N 
ATOM     23  H2  UNL     1      -2.318   1.304  -1.493  1.00  0.00     0.166 HD
HETATM   24  C18 UNL     1       1.346   0.464   0.051  1.00  0.00     0.007 A 
HETATM   25  C19 UNL     1       1.578  -0.855   0.258  1.00  0.00     0.051 A 
ENDROOT
BRANCH   1  26
HETATM   26  O1  UNL     1       3.085  -2.655   0.614  1.00  0.00    -0.356 OA
HETATM   27  C1  UNL     1       4.390  -3.143   0.763  1.00  0.00     0.210 C 
ENDBRANCH   1  26
TORSDOF 1
