REMARK  10 active torsions:
REMARK  status: ('A' for Active; 'I' for Inactive)
REMARK    1  A    between atoms: N1_2  and  C2_5 
REMARK    2  A    between atoms: C2_5  and  C4_7 
REMARK       I    between atoms: C4_7  and  N2_9 
REMARK    3  A    between atoms: N2_9  and  C5_11 
REMARK    4  A    between atoms: C5_11  and  C6_12 
REMARK    5  A    between atoms: C5_11  and  C13_19 
REMARK    6  A    between atoms: C6_12  and  C7_13 
REMARK       I    between atoms: C13_19  and  N3_21 
REMARK    7  A    between atoms: N3_21  and  C14_23 
REMARK    8  A    between atoms: C14_23  and  C15_24 
REMARK    9  A    between atoms: C14_23  and  C20_29 
REMARK   10  A    between atoms: C15_24  and  C16_25 
ROOT
HETATM    1  C5  UNL     1      -0.457   0.449   0.616  1.00  0.00     0.177 C 
ENDROOT
BRANCH   1   2
HETATM    2  N2  UNL     1      -1.254   1.596   0.987  1.00  0.00    -0.346 N 
HETATM    3  C4  UNL     1      -1.693   2.577   0.076  1.00  0.00     0.248 C 
HETATM    4  O1  UNL     1      -1.392   2.473  -1.128  1.00  0.00    -0.271 OA
ATOM      5  H2  UNL     1      -1.514   1.702   1.968  1.00  0.00     0.163 HD
BRANCH   3   6
HETATM    6  C2  UNL     1      -2.502   3.726   0.520  1.00  0.00     0.272 C 
HETATM    7  C3  UNL     1      -3.778   3.249   1.156  1.00  0.00     0.050 C 
BRANCH   6   8
HETATM    8  N1  UNL     1      -2.851   4.611  -0.575  1.00  0.00    -0.067 N 
HETATM    9  C1  UNL     1      -3.603   3.881  -1.574  1.00  0.00     0.267 C 
ATOM     10  H12 UNL     1      -2.032   5.072  -0.972  1.00  0.00     0.277 HD
ATOM     11  H11 UNL     1      -3.347   5.442  -0.253  1.00  0.00     0.277 HD
ENDBRANCH   6   8
ENDBRANCH   3   6
ENDBRANCH   1   2
BRANCH   1  12
HETATM   12  C6  UNL     1      -1.176  -0.522  -0.267  1.00  0.00     0.039 C 
BRANCH  12  13
HETATM   13  C7  UNL     1      -2.413  -1.077   0.385  1.00  0.00    -0.012 C 
HETATM   14  C8  UNL     1      -3.120  -2.053  -0.532  1.00  0.00     0.005 C 
HETATM   15  C9  UNL     1      -4.483  -2.321   0.095  1.00  0.00     0.000 C 
HETATM   16  C10 UNL     1      -4.232  -3.141   1.338  1.00  0.00     0.000 C 
HETATM   17  C11 UNL     1      -2.807  -3.102   1.782  1.00  0.00     0.000 C 
HETATM   18  C12 UNL     1      -2.165  -1.746   1.696  1.00  0.00     0.005 C 
ENDBRANCH  12  13
ENDBRANCH   1  12
BRANCH   1  19
HETATM   19  C13 UNL     1       0.867   0.814   0.054  1.00  0.00     0.241 C 
HETATM   20  O2  UNL     1       1.232   2.005  -0.061  1.00  0.00    -0.271 OA
HETATM   21  N3  UNL     1       1.739  -0.209  -0.362  1.00  0.00    -0.345 N 
ATOM     22  H3  UNL     1       1.467  -1.189  -0.280  1.00  0.00     0.163 HD
BRANCH  21  23
HETATM   23  C14 UNL     1       3.063   0.163  -0.923  1.00  0.00     0.186 C 
BRANCH  23  24
HETATM   24  C15 UNL     1       4.051  -0.457   0.018  1.00  0.00     0.041 C 
BRANCH  24  25
HETATM   25  C16 UNL     1       5.493  -0.258  -0.275  1.00  0.00    -0.012 C 
HETATM   26  C17 UNL     1       6.305  -0.950   0.838  1.00  0.00     0.005 C 
HETATM   27  C18 UNL     1       7.104  -1.738  -0.162  1.00  0.00     0.001 C 
HETATM   28  C19 UNL     1       6.145  -1.271  -1.221  1.00  0.00     0.005 C 
ENDBRANCH  24  25
ENDBRANCH  23  24
BRANCH  23  29
HETATM   29  C20 UNL     1       3.117  -0.328  -2.308  1.00  0.00     0.196 C 
HETATM   30  O3  UNL     1       2.165  -1.024  -2.792  1.00  0.00    -0.646 OA
HETATM   31  O4  UNL     1       4.165  -0.078  -3.163  1.00  0.00    -0.646 OA
ENDBRANCH  23  29
ENDBRANCH  21  23
ENDBRANCH   1  19
TORSDOF 10
