REMARK  9 active torsions:
REMARK  status: ('A' for Active; 'I' for Inactive)
REMARK    1  A    between atoms: C3_4  and  N2_5 
REMARK    2  A    between atoms: N2_5  and  N3_7 
REMARK    3  A    between atoms: C4_12  and  O1_13 
REMARK    4  A    between atoms: C5_15  and  O2_16 
REMARK    5  A    between atoms: C6_18  and  O3_19 
REMARK    6  A    between atoms: O3_19  and  C7_20 
REMARK    7  A    between atoms: C10_23  and  O4_24 
REMARK    8  A    between atoms: C10_23  and  C11_26 
REMARK    9  A    between atoms: C11_26  and  N5_27 
ROOT
HETATM    1  C1  UNL     1       4.320   1.284  -3.371  1.00  0.00     0.221 C 
HETATM    2  N1  UNL     1       3.565   1.390  -2.492  1.00  0.00    -0.461 NA
HETATM    3  C2  UNL     1       2.647   1.534  -1.438  1.00  0.00     0.219 C 
HETATM    4  C3  UNL     1       3.292   2.056  -0.176  1.00  0.00     0.170 C 
HETATM    5  C4  UNL     1       4.011   0.834   0.333  1.00  0.00     0.176 C 
HETATM    6  C5  UNL     1       3.028  -0.286   0.083  1.00  0.00     0.181 C 
HETATM    7  C6  UNL     1       2.114   0.183  -1.022  1.00  0.00     0.191 C 
ENDROOT
BRANCH   4   8
HETATM    8  N2  UNL     1       2.260   2.512   0.701  1.00  0.00    -0.312 N 
ATOM      9  H2  UNL     1       1.461   3.001   0.298  1.00  0.00     0.182 HD
BRANCH   8  10
HETATM   10  N3  UNL     1       2.290   2.341   1.935  1.00  0.00    -0.253 N 
HETATM   11  N4  UNL     1       2.670   2.465   3.095  1.00  0.00    -0.331 N 
ATOM     12  H42 UNL     1       3.438   3.114   2.921  1.00  0.00     0.178 HD
ATOM     13  H41 UNL     1       2.695   2.325   4.105  1.00  0.00     0.178 HD
ATOM     14  H3  UNL     1       1.512   1.692   2.057  1.00  0.00     0.207 HD
ENDBRANCH   8  10
ENDBRANCH   4   8
BRANCH   7  15
HETATM   15  O3  UNL     1       0.828   0.252  -0.513  1.00  0.00    -0.375 OA
BRANCH  15  16
HETATM   16  C7  UNL     1      -0.094  -0.484  -1.231  1.00  0.00     0.125 C 
HETATM   17  C8  UNL     1      -1.186   0.321  -1.840  1.00  0.00     0.035 C 
HETATM   18  C9  UNL     1      -2.500  -0.357  -1.478  1.00  0.00     0.042 C 
HETATM   19  C10 UNL     1      -2.179  -1.276  -0.322  1.00  0.00     0.086 C 
HETATM   20  C14 UNL     1      -0.707  -1.605  -0.454  1.00  0.00     0.071 C 
BRANCH  19  21
HETATM   21  O4  UNL     1      -2.953  -2.429  -0.339  1.00  0.00    -0.388 OA
ATOM     22  H4  UNL     1      -2.751  -3.007   0.388  1.00  0.00     0.210 HD
ENDBRANCH  19  21
BRANCH  19  23
HETATM   23  C11 UNL     1      -2.374  -0.569   0.997  1.00  0.00     0.308 C 
BRANCH  23  24
HETATM   24  N5  UNL     1      -3.742  -0.174   1.247  1.00  0.00     0.082 N 
HETATM   25  C12 UNL     1      -3.741   0.525   2.540  1.00  0.00     0.309 C 
HETATM   26  C13 UNL     1      -4.617  -1.326   1.411  1.00  0.00     0.309 C 
ENDBRANCH  23  24
ENDBRANCH  19  23
ENDBRANCH  15  16
ENDBRANCH   7  15
BRANCH   5  27
HETATM   27  O1  UNL     1       5.193   0.639  -0.349  1.00  0.00    -0.391 OA
ATOM     28  H1  UNL     1       5.646  -0.132  -0.028  1.00  0.00     0.210 HD
ENDBRANCH   5  27
BRANCH   6  29
HETATM   29  O2  UNL     1       3.705  -1.455  -0.214  1.00  0.00    -0.390 OA
ATOM     30  H2  UNL     1       3.087  -2.159  -0.371  1.00  0.00     0.210 HD
ENDBRANCH   6  29
TORSDOF 9
