REMARK  8 active torsions:
REMARK  status: ('A' for Active; 'I' for Inactive)
REMARK    1  A    between atoms: N1_2  and  S1_4 
REMARK    2  A    between atoms: S1_4  and  O3_7 
REMARK    3  A    between atoms: O3_7  and  C2_8 
REMARK    4  A    between atoms: C2_8  and  C3_9 
REMARK    5  A    between atoms: C4_11  and  O5_12 
REMARK    6  A    between atoms: O5_12  and  C5_13 
REMARK    7  A    between atoms: C12_20  and  O6_21 
REMARK    8  A    between atoms: C13_23  and  O7_24 
ROOT
HETATM    1  C3  UNL     1       1.419   0.201   0.570  1.00  0.00     0.181 C 
HETATM    2  O4  UNL     1       0.553   0.623   1.499  1.00  0.00    -0.348 OA
HETATM    3  C4  UNL     1      -0.583   1.122   0.802  1.00  0.00     0.292 C 
HETATM    4  C12 UNL     1       0.126   1.890  -0.303  1.00  0.00     0.204 C 
HETATM    5  C13 UNL     1       0.994   0.712  -0.798  1.00  0.00     0.182 C 
ENDROOT
BRANCH   1   6
HETATM    6  C2  UNL     1       2.863   0.617   0.734  1.00  0.00     0.226 C 
BRANCH   6   7
HETATM    7  O3  UNL     1       3.374   0.081   1.915  1.00  0.00    -0.257 OA
BRANCH   7   8
HETATM    8  S1  UNL     1       4.805  -0.740   1.632  1.00  0.00     0.357 S 
HETATM    9  O1  UNL     1       4.481  -2.161   2.169  1.00  0.00    -0.176 OA
HETATM   10  O2  UNL     1       5.994  -0.269   2.310  1.00  0.00    -0.176 OA
BRANCH   8  11
HETATM   11  N1  UNL     1       5.068  -0.980  -0.067  1.00  0.00    -0.301 N 
HETATM   12  C1  UNL     1       6.400  -0.566  -0.447  1.00  0.00     0.161 C 
ATOM     13  H1  UNL     1       4.375  -1.362  -0.711  1.00  0.00     0.173 HD
ENDBRANCH   8  11
ENDBRANCH   7   8
ENDBRANCH   6   7
ENDBRANCH   1   6
BRANCH   5  14
HETATM   14  O7  UNL     1       2.036   1.101  -1.590  1.00  0.00    -0.390 OA
ATOM     15  H7  UNL     1       1.771   1.420  -2.444  1.00  0.00     0.210 HD
ENDBRANCH   5  14
BRANCH   3  16
HETATM   16  O5  UNL     1      -1.201   0.063   0.191  1.00  0.00    -0.353 OA
BRANCH  16  17
HETATM   17  C5  UNL     1      -2.439  -0.265   0.680  1.00  0.00     0.129 C 
HETATM   18  C6  UNL     1      -2.848  -1.617   0.151  1.00  0.00     0.037 C 
HETATM   19  C7  UNL     1      -3.924  -1.400  -0.886  1.00  0.00    -0.012 C 
HETATM   20  C8  UNL     1      -5.210  -1.084  -0.170  1.00  0.00     0.005 C 
HETATM   21  C11 UNL     1      -3.541   0.007  -1.367  1.00  0.00     0.012 C 
HETATM   22  C9  UNL     1      -4.830   0.203   0.565  1.00  0.00     0.007 C 
HETATM   23  C10 UNL     1      -3.512   0.626   0.007  1.00  0.00     0.015 C 
ENDBRANCH  16  17
ENDBRANCH   3  16
BRANCH   4  24
HETATM   24  O6  UNL     1      -0.738   2.333  -1.271  1.00  0.00    -0.388 OA
ATOM     25  H6  UNL     1      -0.295   2.813  -1.961  1.00  0.00     0.210 HD
ENDBRANCH   4  24
TORSDOF 8
