REMARK  7 active torsions:
REMARK  status: ('A' for Active; 'I' for Inactive)
REMARK    1  A    between atoms: C2_2  and  C3_3 
REMARK    2  A    between atoms: C2_2  and  C6_13 
REMARK    3  A    between atoms: C4_4  and  C5_5 
REMARK    4  A    between atoms: C5_5  and  O1_6 
REMARK    5  A    between atoms: O1_6  and  S1_7 
REMARK    6  A    between atoms: S1_7  and  N1_8 
REMARK    7  A    between atoms: C7_14  and  O4_15 
ROOT
HETATM    1  C6  UNL     1      -0.462  -0.825   0.395  1.00  0.00     0.053 C 
HETATM    2  C7  UNL     1       0.000   0.433   1.051  1.00  0.00     0.128 C 
HETATM    3  C8  UNL     1      -0.554   1.580   0.228  1.00  0.00     0.067 C 
HETATM    4  C9  UNL     1      -1.676   1.024  -0.600  1.00  0.00     0.157 C 
HETATM    5  O5  UNL     1      -2.924   1.490  -0.226  1.00  0.00    -0.348 OA
HETATM    6  C10 UNL     1      -3.670   0.415   0.202  1.00  0.00     0.158 C 
HETATM    7  C11 UNL     1      -4.463   0.827   1.426  1.00  0.00     0.078 C 
HETATM    8  C12 UNL     1      -4.663  -0.007  -0.863  1.00  0.00     0.078 C 
HETATM    9  O6  UNL     1      -2.790  -0.619   0.487  1.00  0.00    -0.348 OA
HETATM   10  C13 UNL     1      -1.699  -0.454  -0.370  1.00  0.00     0.161 C 
ENDROOT
BRANCH   1  11
HETATM   11  C2  UNL     1       0.627  -1.390  -0.493  1.00  0.00     0.013 C 
HETATM   12  C1  UNL     1       0.174  -2.672  -1.170  1.00  0.00     0.015 C 
BRANCH  11  13
HETATM   13  C3  UNL     1       1.036  -0.474  -1.557  1.00  0.00    -0.024 C 
HETATM   14  C4  UNL     1       2.244  -0.023  -1.696  1.00  0.00    -0.003 C 
BRANCH  14  15
HETATM   15  C5  UNL     1       3.406  -0.327  -0.850  1.00  0.00     0.219 C 
BRANCH  15  16
HETATM   16  O1  UNL     1       3.880   0.867  -0.295  1.00  0.00    -0.256 OA
BRANCH  16  17
HETATM   17  S1  UNL     1       5.216   0.527   0.679  1.00  0.00     0.355 S 
HETATM   18  O2  UNL     1       6.469   0.547  -0.151  1.00  0.00    -0.176 OA
HETATM   19  O3  UNL     1       5.097  -0.861   1.286  1.00  0.00    -0.176 OA
BRANCH  17  20
HETATM   20  N1  UNL     1       5.377   1.727   1.922  1.00  0.00    -0.306 N 
ATOM     21  H12 UNL     1       4.745   2.520   2.035  1.00  0.00     0.171 HD
ATOM     22  H11 UNL     1       6.184   1.522   2.511  1.00  0.00     0.171 HD
ENDBRANCH  17  20
ENDBRANCH  16  17
ENDBRANCH  15  16
ENDBRANCH  14  15
ENDBRANCH  11  13
ENDBRANCH   1  11
BRANCH   2  23
HETATM   23  O4  UNL     1      -0.555   0.449   2.348  1.00  0.00    -0.395 OA
ATOM     24  H4  UNL     1      -0.261   1.250   2.766  1.00  0.00     0.210 HD
ENDBRANCH   2  23
TORSDOF 7
