REMARK  10 active torsions:
REMARK  status: ('A' for Active; 'I' for Inactive)
REMARK    1  A    between atoms: O1_2  and  C2_3 
REMARK    2  A    between atoms: C5_6  and  O2_7 
REMARK    3  A    between atoms: C6_9  and  N1_10 
REMARK    4  A    between atoms: N1_10  and  C8_12 
REMARK    5  A    between atoms: C8_12  and  O3_13 
REMARK    6  A    between atoms: O3_13  and  C9_14 
REMARK    7  A    between atoms: C9_14  and  C10_15 
REMARK    8  A    between atoms: C10_15  and  O4_16 
REMARK    9  A    between atoms: C15_23  and  C16_24 
REMARK   10  A    between atoms: C16_24  and  O5_25 
ROOT
HETATM    1  C2  UNL     1      -3.662  -0.532  -0.176  1.00  0.00     0.158 C 
HETATM    2  C3  UNL     1      -2.453  -1.442  -0.186  1.00  0.00     0.073 C 
HETATM    3  C4  UNL     1      -1.275  -0.608   0.264  1.00  0.00     0.256 C 
HETATM    4  C5  UNL     1      -0.169  -0.840  -0.723  1.00  0.00     0.185 C 
HETATM    5  C6  UNL     1       1.185  -0.387  -0.272  1.00  0.00     0.255 C 
HETATM    6  C11 UNL     1       1.491   1.038  -0.503  1.00  0.00     0.038 C 
HETATM    7  C12 UNL     1       0.305   1.953  -0.595  1.00  0.00     0.004 C 
HETATM    8  C13 UNL     1      -0.098   2.414   0.790  1.00  0.00     0.030 C 
HETATM    9  C14 UNL     1      -1.141   1.472   1.408  1.00  0.00     0.273 C 
HETATM   10  N2  UNL     1      -1.729   0.748   0.339  1.00  0.00     0.105 N 
HETATM   11  C15 UNL     1      -3.125   0.816   0.162  1.00  0.00     0.275 C 
ENDROOT
BRANCH   5  12
HETATM   12  N1  UNL     1       2.157  -1.278  -0.870  1.00  0.00     0.114 N 
HETATM   13  C7  UNL     1       2.139  -1.211  -2.318  1.00  0.00     0.313 C 
BRANCH  12  14
HETATM   14  C8  UNL     1       3.523  -1.009  -0.466  1.00  0.00     0.440 C 
BRANCH  14  15
HETATM   15  O3  UNL     1       3.722  -1.115   0.870  1.00  0.00    -0.360 OA
BRANCH  15  16
HETATM   16  C9  UNL     1       4.958  -0.938   1.370  1.00  0.00     0.196 C 
BRANCH  16  17
HETATM   17  C10 UNL     1       5.646   0.365   1.160  1.00  0.00     0.190 C 
BRANCH  17  18
HETATM   18  O4  UNL     1       5.878   0.753  -0.127  1.00  0.00    -0.399 OA
ATOM     19  H4  UNL     1       6.317   1.585  -0.261  1.00  0.00     0.209 HD
ENDBRANCH  17  18
ENDBRANCH  16  17
ENDBRANCH  15  16
ENDBRANCH  14  15
ENDBRANCH  12  14
ENDBRANCH   5  12
BRANCH   4  20
HETATM   20  O2  UNL     1      -0.104  -2.243  -0.898  1.00  0.00    -0.391 OA
ATOM     21  H2  UNL     1       0.596  -2.390  -1.523  1.00  0.00     0.210 HD
ENDBRANCH   4  20
BRANCH   1  22
HETATM   22  O1  UNL     1      -4.550  -1.059   0.729  1.00  0.00    -0.388 OA
HETATM   23  C1  UNL     1      -5.694  -1.495   0.084  1.00  0.00     0.202 C 
ENDBRANCH   1  22
BRANCH  11  24
HETATM   24  C16 UNL     1      -3.882   1.471   1.270  1.00  0.00     0.202 C 
BRANCH  24  25
HETATM   25  O5  UNL     1      -5.245   1.478   0.983  1.00  0.00    -0.399 OA
ATOM     26  H5  UNL     1      -5.727   1.895   1.688  1.00  0.00     0.209 HD
ENDBRANCH  24  25
ENDBRANCH  11  24
TORSDOF 10
