REMARK  9 active torsions:
REMARK  status: ('A' for Active; 'I' for Inactive)
REMARK    1  A    between atoms: N1_1  and  C1_4 
REMARK    2  A    between atoms: C2_9  and  N4_10 
REMARK    3  A    between atoms: N4_10  and  N5_12 
REMARK    4  A    between atoms: C3_15  and  C4_16 
REMARK    5  A    between atoms: C4_16  and  N6_17 
REMARK    6  A    between atoms: N6_17  and  C5_20 
REMARK    7  A    between atoms: C5_20  and  C6_21 
REMARK    8  A    between atoms: C6_21  and  O1_22 
REMARK    9  A    between atoms: O1_22  and  C7_23 
ROOT
HETATM    1  N6  UNL     1      -0.285  -1.646  -0.322  1.00  0.00    -0.070 N 
ATOM      2  H61 UNL     1      -0.553  -2.420   0.286  1.00  0.00     0.277 HD
ATOM      3  H62 UNL     1       0.171  -1.049   0.368  1.00  0.00     0.277 HD
ENDROOT
BRANCH   1   4
HETATM    4  C4  UNL     1      -1.435  -1.005  -0.884  1.00  0.00     0.272 C 
BRANCH   4   5
HETATM    5  C3  UNL     1      -2.425  -0.550   0.150  1.00  0.00     0.227 C 
HETATM    6  C2  UNL     1      -3.561   0.142  -0.513  1.00  0.00     0.142 C 
HETATM    7  N3  UNL     1      -4.452   0.874   0.316  1.00  0.00    -0.283 N 
HETATM    8  N2  UNL     1      -4.000   1.357   1.542  1.00  0.00    -0.264 N 
ATOM      9  H3  UNL     1      -5.412   1.044   0.017  1.00  0.00     0.188 HD
HETATM   10  C1  UNL     1      -2.660   1.104   1.931  1.00  0.00     0.232 C 
ATOM     11  H2  UNL     1      -4.624   1.885   2.151  1.00  0.00     0.190 HD
HETATM   12  O2  UNL     1      -1.862   0.380   1.057  1.00  0.00    -0.306 OA
BRANCH   6  13
HETATM   13  N4  UNL     1      -3.734   0.079  -1.809  1.00  0.00    -0.292 N 
ATOM     14  H4  UNL     1      -3.081  -0.454  -2.384  1.00  0.00     0.187 HD
BRANCH  13  15
HETATM   15  N5  UNL     1      -4.801   0.734  -2.403  1.00  0.00    -0.344 N 
ATOM     16  H52 UNL     1      -5.445   1.263  -1.814  1.00  0.00     0.176 HD
ATOM     17  H51 UNL     1      -4.936   0.685  -3.413  1.00  0.00     0.176 HD
ENDBRANCH  13  15
ENDBRANCH   6  13
BRANCH  10  18
HETATM   18  N1  UNL     1      -2.187   1.538   3.076  1.00  0.00    -0.364 N 
ATOM     19  H12 UNL     1      -2.774   2.070   3.719  1.00  0.00     0.159 HD
ATOM     20  H11 UNL     1      -1.223   1.356   3.356  1.00  0.00     0.159 HD
ENDBRANCH  10  18
ENDBRANCH   4   5
ENDBRANCH   1   4
BRANCH   1  21
HETATM   21  C5  UNL     1       0.640  -2.074  -1.332  1.00  0.00     0.259 C 
BRANCH  21  22
HETATM   22  C6  UNL     1       1.266  -0.863  -1.999  1.00  0.00     0.205 C 
BRANCH  22  23
HETATM   23  O1  UNL     1       1.965  -0.035  -1.127  1.00  0.00    -0.332 OA
BRANCH  23  24
HETATM   24  C7  UNL     1       3.041  -0.333  -0.354  1.00  0.00     0.174 A 
HETATM   25  N7  UNL     1       3.611  -1.547  -0.326  1.00  0.00    -0.331 N 
HETATM   26  C8  UNL     1       4.683  -1.823   0.452  1.00  0.00     0.184 A 
ATOM     27  H7  UNL     1       3.223  -2.287  -0.911  1.00  0.00     0.168 HD
HETATM   28  N8  UNL     1       5.232  -0.869   1.246  1.00  0.00    -0.337 N 
HETATM   29  C9  UNL     1       4.698   0.364   1.255  1.00  0.00     0.138 A 
ATOM     30  H8  UNL     1       6.040  -1.085   1.829  1.00  0.00     0.168 HD
HETATM   31  N9  UNL     1       5.057   1.464   1.947  1.00  0.00    -0.337 N 
HETATM   32  C11 UNL     1       3.595   0.637   0.451  1.00  0.00     0.129 A 
HETATM   33  C10 UNL     1       4.185   2.410   1.576  1.00  0.00     0.182 A 
ATOM     34  H9  UNL     1       5.827   1.556   2.610  1.00  0.00     0.168 HD
HETATM   35  N10 UNL     1       3.308   1.932   0.685  1.00  0.00    -0.346 N 
ATOM     36  H10 UNL     1       2.549   2.460   0.255  1.00  0.00     0.167 HD
ENDBRANCH  23  24
ENDBRANCH  22  23
ENDBRANCH  21  22
ENDBRANCH   1  21
TORSDOF 9
