REMARK  8 active torsions:
REMARK  status: ('A' for Active; 'I' for Inactive)
REMARK    1  A    between atoms: C2_3  and  N2_4 
REMARK    2  A    between atoms: N2_4  and  S1_6 
REMARK    3  A    between atoms: S1_6  and  N3_9 
REMARK    4  A    between atoms: N3_9  and  C3_11 
REMARK    5  A    between atoms: C6_19  and  N6_20 
REMARK    6  A    between atoms: N8_26  and  C8_27 
REMARK    7  A    between atoms: C8_27  and  C9_28 
REMARK    8  A    between atoms: C9_28  and  O4_29 
ROOT
HETATM    1  N1  UNL     1       5.677  -0.947   2.191  1.00  0.00    -0.196 NA
HETATM    2  C1  UNL     1       4.929  -0.545   1.396  1.00  0.00     0.079 C 
HETATM    3  C2  UNL     1       3.974  -0.030   0.415  1.00  0.00     0.257 C 
ENDROOT
BRANCH   3   4
HETATM    4  N2  UNL     1       3.813  -0.918  -0.697  1.00  0.00    -0.289 N 
ATOM      5  H2  UNL     1       4.310  -1.804  -0.784  1.00  0.00     0.174 HD
BRANCH   4   6
HETATM    6  S1  UNL     1       2.706  -0.345  -1.863  1.00  0.00     0.333 S 
HETATM    7  O1  UNL     1       3.144  -0.814  -3.244  1.00  0.00    -0.182 OA
HETATM    8  O2  UNL     1       2.765   1.175  -1.850  1.00  0.00    -0.182 OA
BRANCH   6   9
HETATM    9  N3  UNL     1       1.096  -0.872  -1.567  1.00  0.00    -0.099 N 
ATOM     10  H3  UNL     1       0.782  -1.779  -1.912  1.00  0.00     0.199 HD
BRANCH   9  11
HETATM   11  C3  UNL     1       0.209  -0.042  -0.843  1.00  0.00     0.697 A 
HETATM   12  N4  UNL     1       0.498   1.170  -0.339  1.00  0.00    -0.181 N 
HETATM   13  C4  UNL     1      -0.566   1.666   0.282  1.00  0.00     0.162 A 
ATOM     14  H4  UNL     1       1.400   1.639  -0.421  1.00  0.00     0.184 HD
HETATM   15  C5  UNL     1      -0.853   2.831   0.963  1.00  0.00     0.290 A 
HETATM   16  C7  UNL     1      -1.565   0.695   0.147  1.00  0.00     0.172 A 
HETATM   17  O3  UNL     1       0.077   3.684   1.063  1.00  0.00    -0.265 OA
HETATM   18  N5  UNL     1      -2.054   3.023   1.480  1.00  0.00    -0.154 N 
HETATM   19  C6  UNL     1      -3.005   2.084   1.344  1.00  0.00     0.680 A 
ATOM     20  H5  UNL     1      -2.259   3.886   1.983  1.00  0.00     0.187 HD
HETATM   21  N7  UNL     1      -2.773   0.922   0.683  1.00  0.00    -0.174 N 
ATOM     22  H7  UNL     1      -3.513   0.225   0.594  1.00  0.00     0.186 HD
HETATM   23  N8  UNL     1      -1.071  -0.338  -0.542  1.00  0.00    -0.162 N 
BRANCH  19  24
HETATM   24  N6  UNL     1      -4.157   2.297   1.853  1.00  0.00    -0.234 N 
ATOM     25  H62 UNL     1      -4.331   3.171   2.350  1.00  0.00     0.174 HD
ATOM     26  H61 UNL     1      -4.879   1.584   1.750  1.00  0.00     0.174 HD
ENDBRANCH  19  24
BRANCH  23  27
HETATM   27  C8  UNL     1      -1.751  -1.550  -0.909  1.00  0.00     0.175 C 
BRANCH  27  28
HETATM   28  C9  UNL     1      -1.615  -2.638   0.126  1.00  0.00     0.185 C 
BRANCH  28  29
HETATM   29  O4  UNL     1      -2.328  -3.749  -0.375  1.00  0.00    -0.399 OA
ATOM     30  H4  UNL     1      -2.242  -4.435   0.277  1.00  0.00     0.209 HD
ENDBRANCH  28  29
ENDBRANCH  27  28
ENDBRANCH  23  27
ENDBRANCH   9  11
ENDBRANCH   6   9
ENDBRANCH   4   6
ENDBRANCH   3   4
TORSDOF 8
