REMARK  7 active torsions:
REMARK  status: ('A' for Active; 'I' for Inactive)
REMARK    1  A    between atoms: C2_2  and  N1_3 
REMARK    2  A    between atoms: C2_2  and  C8_16 
REMARK    3  A    between atoms: N1_3  and  C3_5 
REMARK    4  A    between atoms: C3_5  and  O1_6 
REMARK    5  A    between atoms: C3_5  and  N2_8 
REMARK       I    between atoms: C8_16  and  N4_18 
REMARK    6  A    between atoms: N4_18  and  N5_20 
REMARK    7  A    between atoms: N5_20  and  C9_22 
ROOT
HETATM    1  N1  UNL     1       0.080  -0.189   0.111  1.00  0.00    -0.344 N 
ATOM      2  H1  UNL     1       0.139  -0.320   1.121  1.00  0.00     0.164 HD
ENDROOT
BRANCH   1   3
HETATM    3  C2  UNL     1      -1.205  -0.243  -0.545  1.00  0.00     0.174 C 
HETATM    4  C1  UNL     1      -1.397  -1.689  -1.068  1.00  0.00     0.042 C 
BRANCH   3   5
HETATM    5  C8  UNL     1      -2.323   0.048   0.361  1.00  0.00     0.258 C 
HETATM    6  O2  UNL     1      -2.104  -0.273   1.599  1.00  0.00    -0.269 OA
HETATM    7  N4  UNL     1      -3.564   0.630  -0.006  1.00  0.00    -0.266 N 
ATOM      8  H4  UNL     1      -3.707   0.877  -0.985  1.00  0.00     0.190 HD
BRANCH   7   9
HETATM    9  N5  UNL     1      -4.597   0.883   0.890  1.00  0.00    -0.276 N 
ATOM     10  H5  UNL     1      -4.374   1.278   1.804  1.00  0.00     0.189 HD
BRANCH   9  11
HETATM   11  C9  UNL     1      -5.959   0.607   0.569  1.00  0.00     0.199 C 
HETATM   12  N6  UNL     1      -6.330   0.048  -0.698  1.00  0.00    -0.068 NA
HETATM   13  S1  UNL     1      -7.132   0.929   1.648  1.00  0.00    -0.043 SA
ENDBRANCH   9  11
ENDBRANCH   7   9
ENDBRANCH   3   5
ENDBRANCH   1   3
BRANCH   1  14
HETATM   14  C3  UNL     1       1.245   0.042  -0.630  1.00  0.00     0.215 C 
BRANCH  14  15
HETATM   15  O1  UNL     1       1.132   0.169  -1.924  1.00  0.00    -0.333 OA
ATOM     16  H1  UNL     1       1.923   0.326  -2.427  1.00  0.00     0.220 HD
ENDBRANCH  14  15
BRANCH  14  17
HETATM   17  N2  UNL     1       2.567   0.153  -0.129  1.00  0.00    -0.344 N 
HETATM   18  C4  UNL     1       3.654   0.312  -1.066  1.00  0.00     0.154 C 
HETATM   19  C5  UNL     1       4.911   0.658  -0.314  1.00  0.00     0.252 C 
HETATM   20  N3  UNL     1       5.052  -0.317   0.757  1.00  0.00    -0.072 N 
HETATM   21  C6  UNL     1       4.110   0.029   1.801  1.00  0.00     0.252 C 
ATOM     22  H32 UNL     1       4.947  -1.278   0.433  1.00  0.00     0.277 HD
ATOM     23  H31 UNL     1       6.010  -0.393   1.099  1.00  0.00     0.277 HD
HETATM   24  C7  UNL     1       2.708   0.121   1.319  1.00  0.00     0.154 C 
ENDBRANCH  14  17
ENDBRANCH   1  14
TORSDOF 7
