REMARK  4 active torsions:
REMARK  status: ('A' for Active; 'I' for Inactive)
REMARK       I    between atoms: N1_2  and  C2_4 
REMARK       I    between atoms: C2_4  and  N2_5 
REMARK       I    between atoms: C2_4  and  N5_11 
REMARK    1  A    between atoms: N2_5  and  N3_7 
REMARK       I    between atoms: N3_7  and  C3_8 
REMARK    2  A    between atoms: N5_11  and  N6_13 
REMARK       I    between atoms: N6_13  and  C4_15 
REMARK    3  A    between atoms: C4_15  and  C5_17 
REMARK    4  A    between atoms: C5_17  and  N7_18 
ROOT
HETATM    1  C1  UNL     1       2.273  -3.297  -0.187  1.00  0.00     0.121 C 
HETATM    2  N1  UNL     1       1.855  -2.076  -0.590  1.00  0.00    -0.345 N 
ATOM      3  H1  UNL     1       1.065  -2.229  -1.216  1.00  0.00     0.167 HD
HETATM    4  C2  UNL     1       2.017  -0.897  -0.525  1.00  0.00     0.223 C 
HETATM    5  N2  UNL     1       3.015  -0.173   0.238  1.00  0.00    -0.198 N 
ATOM      6  H2  UNL     1       2.842  -0.092   1.240  1.00  0.00     0.205 HD
HETATM    7  N5  UNL     1       1.125  -0.005  -1.248  1.00  0.00    -0.266 N 
ATOM      8  H5  UNL     1       1.421   0.544  -2.055  1.00  0.00     0.190 HD
ENDROOT
BRANCH   7   9
HETATM    9  N6  UNL     1      -0.175   0.031  -0.737  1.00  0.00    -0.263 N 
HETATM   10  C4  UNL     1      -0.475   0.995   0.262  1.00  0.00     0.275 C 
HETATM   11  O2  UNL     1       0.429   1.795   0.644  1.00  0.00    -0.265 OA
ATOM     12  H6  UNL     1      -0.888  -0.617  -1.072  1.00  0.00     0.190 HD
BRANCH  10  13
HETATM   13  C5  UNL     1      -1.817   1.111   0.887  1.00  0.00     0.162 C 
BRANCH  13  14
HETATM   14  N7  UNL     1      -2.726   0.199   0.334  1.00  0.00    -0.385 N 
HETATM   15  C6  UNL     1      -3.192   0.415  -0.992  1.00  0.00     0.122 C 
HETATM   16  C7  UNL     1      -4.515   1.163  -0.723  1.00  0.00     0.021 C 
HETATM   17  C8  UNL     1      -5.051   0.388   0.468  1.00  0.00     0.021 C 
HETATM   18  C9  UNL     1      -3.821  -0.235   1.126  1.00  0.00     0.122 C 
ENDBRANCH  13  14
ENDBRANCH  10  13
ENDBRANCH   7   9
BRANCH   5  19
HETATM   19  N3  UNL     1       4.118   0.393  -0.208  1.00  0.00    -0.265 NA
HETATM   20  C3  UNL     1       5.249   0.982  -0.674  1.00  0.00     0.424 C 
HETATM   21  N4  UNL     1       6.539   0.593  -0.086  1.00  0.00    -0.024 NA
HETATM   22  O1  UNL     1       5.373   1.858  -1.588  1.00  0.00    -0.232 OA
ENDBRANCH   5  19
TORSDOF 4
