REMARK  9 active torsions:
REMARK  status: ('A' for Active; 'I' for Inactive)
REMARK    1  A    between atoms: C2_2  and  C3_3 
REMARK    2  A    between atoms: C3_3  and  S1_4 
REMARK    3  A    between atoms: S1_4  and  C4_5 
REMARK    4  A    between atoms: C5_8  and  N2_9 
REMARK    5  A    between atoms: N2_9  and  C6_11 
REMARK    6  A    between atoms: C9_15  and  N3_16 
REMARK    7  A    between atoms: C15_22  and  C16_23 
REMARK    8  A    between atoms: C18_27  and  O1_28 
REMARK    9  A    between atoms: O1_28  and  C19_29 
ROOT
HETATM    1  C4  UNL     1      -2.336   1.256   0.367  1.00  0.00     0.162 A 
HETATM    2  N1  UNL     1      -1.136   0.657   0.344  1.00  0.00    -0.170 N 
ATOM      3  H1  UNL     1      -0.292   1.222   0.440  1.00  0.00     0.186 HD
HETATM    4  C5  UNL     1      -1.027  -0.662   0.198  1.00  0.00     0.687 A 
HETATM    5  N4  UNL     1      -2.154  -1.384   0.073  1.00  0.00    -0.154 N 
ATOM      6  H4  UNL     1      -2.082  -2.395  -0.039  1.00  0.00     0.188 HD
HETATM    7  C18 UNL     1      -3.370  -0.818   0.091  1.00  0.00     0.245 A 
HETATM    8  N5  UNL     1      -3.462   0.519   0.240  1.00  0.00    -0.301 N 
ATOM      9  H5  UNL     1      -4.376   0.972   0.257  1.00  0.00     0.171 HD
ENDROOT
BRANCH   4  10
HETATM   10  N2  UNL     1       0.091  -1.297   0.167  1.00  0.00    -0.191 N 
ATOM     11  H2  UNL     1       0.025  -2.308   0.049  1.00  0.00     0.184 HD
BRANCH  10  12
HETATM   12  C6  UNL     1       1.373  -0.785   0.273  1.00  0.00     0.057 A 
HETATM   13  C7  UNL     1       1.774  -0.102   1.396  1.00  0.00     0.056 A 
HETATM   14  C8  UNL     1       3.080   0.401   1.468  1.00  0.00     0.062 A 
HETATM   15 CL1  UNL     1       3.553   1.262   2.907  1.00  0.00    -0.082 Cl
HETATM   16  C9  UNL     1       3.982   0.226   0.426  1.00  0.00     0.052 A 
HETATM   17  C14 UNL     1       3.545  -0.475  -0.706  1.00  0.00     0.040 A 
HETATM   18  C15 UNL     1       2.255  -0.965  -0.762  1.00  0.00    -0.029 A 
BRANCH  16  19
HETATM   19  N3  UNL     1       5.311   0.730   0.481  1.00  0.00    -0.379 N 
HETATM   20  C10 UNL     1       6.381   0.440   1.419  1.00  0.00     0.123 C 
HETATM   21  C11 UNL     1       7.531   0.153   0.447  1.00  0.00     0.021 C 
HETATM   22  C12 UNL     1       7.305   1.195  -0.637  1.00  0.00     0.021 C 
HETATM   23  C13 UNL     1       5.879   1.690  -0.452  1.00  0.00     0.123 C 
ENDBRANCH  16  19
BRANCH  18  24
HETATM   24  C16 UNL     1       1.816  -1.692  -1.950  1.00  0.00     0.036 C 
HETATM   25  C17 UNL     1       0.936  -0.787  -2.771  1.00  0.00     0.010 C 
ENDBRANCH  18  24
ENDBRANCH  10  12
ENDBRANCH   4  10
BRANCH   1  26
HETATM   26  S1  UNL     1      -2.461   3.048   0.565  1.00  0.00    -0.093 SA
BRANCH  26  27
HETATM   27  C3  UNL     1      -4.205   3.519   0.550  1.00  0.00     0.082 C 
BRANCH  27  28
HETATM   28  C2  UNL     1      -4.365   5.005   0.712  1.00  0.00     0.006 C 
HETATM   29  C1  UNL     1      -5.843   5.346   0.693  1.00  0.00     0.006 C 
ENDBRANCH  27  28
ENDBRANCH  26  27
ENDBRANCH   1  26
BRANCH   7  30
HETATM   30  O1  UNL     1      -4.533  -1.591  -0.040  1.00  0.00    -0.275 OA
BRANCH  30  31
HETATM   31  C19 UNL     1      -4.394  -2.964  -0.192  1.00  0.00     0.122 A 
HETATM   32  C20 UNL     1      -4.278  -3.555  -1.421  1.00  0.00     0.071 A 
HETATM   33 CL2  UNL     1      -4.305  -2.551  -2.850  1.00  0.00    -0.081 Cl
HETATM   34  C21 UNL     1      -4.139  -4.932  -1.560  1.00  0.00     0.050 A 
HETATM   35  C22 UNL     1      -4.119  -5.707  -0.439  1.00  0.00     0.037 A 
HETATM   36 CL3  UNL     1      -3.943  -7.440  -0.626  1.00  0.00    -0.084 Cl
HETATM   37  C23 UNL     1      -4.235  -5.117   0.799  1.00  0.00     0.050 A 
HETATM   38  C24 UNL     1      -4.375  -3.740   0.948  1.00  0.00     0.071 A 
HETATM   39 CL4  UNL     1      -4.522  -2.992   2.508  1.00  0.00    -0.081 Cl
ENDBRANCH  30  31
ENDBRANCH   7  30
TORSDOF 9
