REMARK  9 active torsions:
REMARK  status: ('A' for Active; 'I' for Inactive)
REMARK    1  A    between atoms: C2_2  and  C3_3 
REMARK    2  A    between atoms: C3_3  and  C4_4 
REMARK    3  A    between atoms: C4_4  and  N1_5 
REMARK    4  A    between atoms: N1_5  and  C5_6 
REMARK    5  A    between atoms: N1_5  and  C8_9 
REMARK    6  A    between atoms: C5_6  and  C6_7 
REMARK    7  A    between atoms: C9_12  and  C10_13 
REMARK    8  A    between atoms: C11_17  and  C12_18 
REMARK    9  A    between atoms: C18_30  and  C19_31 
ROOT
HETATM    1  C12 UNL     1       0.491  -0.375   0.433  1.00  0.00     0.156 A 
HETATM    2  N3  UNL     1       1.063   0.330  -0.596  1.00  0.00    -0.172 N 
ATOM      3  H3  UNL     1       0.568   0.875  -1.302  1.00  0.00     0.186 HD
HETATM    4  C13 UNL     1       2.395   0.172  -0.505  1.00  0.00     0.702 A 
HETATM    5  N4  UNL     1       2.620  -0.617   0.560  1.00  0.00    -0.088 N 
HETATM    6  N5  UNL     1       1.470  -0.944   1.127  1.00  0.00    -0.263 N 
ATOM      7  H5  UNL     1       1.355  -1.531   1.953  1.00  0.00     0.190 HD
HETATM    8  C14 UNL     1       3.962  -0.977   0.857  1.00  0.00     0.065 C 
HETATM    9  C15 UNL     1       4.432  -1.104   2.077  1.00  0.00     0.084 C 
HETATM   10 BR1  UNL     1       3.304  -0.804   3.576  1.00  0.00    -0.061 Br
HETATM   11  C16 UNL     1       4.849  -1.205  -0.348  1.00  0.00     0.062 C 
HETATM   12  C17 UNL     1       6.204  -1.652   0.077  1.00  0.00     0.019 C 
HETATM   13  C18 UNL     1       4.838   0.047  -1.199  1.00  0.00     0.142 C 
HETATM   14  N6  UNL     1       3.520   0.642  -1.246  1.00  0.00    -0.215 N 
ATOM     15  H6  UNL     1       3.386   1.453  -1.850  1.00  0.00     0.178 HD
ENDROOT
BRANCH   1  16
HETATM   16  C11 UNL     1      -0.961  -0.499   0.635  1.00  0.00     0.086 A 
HETATM   17  C9  UNL     1      -1.724  -1.075   1.598  1.00  0.00     0.139 A 
HETATM   18  N2  UNL     1      -3.012  -1.055   1.447  1.00  0.00    -0.332 N 
HETATM   19  C8  UNL     1      -3.559  -0.487   0.383  1.00  0.00     0.148 A 
ATOM     20  H2  UNL     1      -3.610  -1.481   2.155  1.00  0.00     0.168 HD
HETATM   21  S1  UNL     1      -2.183   0.060  -0.470  1.00  0.00    -0.048 SA
BRANCH  17  22
HETATM   22  C10 UNL     1      -1.101  -1.704   2.837  1.00  0.00     0.434 C 
HETATM   23  F1  UNL     1      -0.418  -0.752   3.534  1.00  0.00    -0.165 F 
HETATM   24  F2  UNL     1      -2.105  -2.153   3.708  1.00  0.00    -0.165 F 
HETATM   25  F3  UNL     1      -0.382  -2.831   2.523  1.00  0.00    -0.165 F 
ENDBRANCH  17  22
BRANCH  19  26
HETATM   26  N1  UNL     1      -4.951  -0.403   0.051  1.00  0.00    -0.361 N 
BRANCH  26  27
HETATM   27  C4  UNL     1      -5.797   0.573   0.642  1.00  0.00     0.125 C 
BRANCH  27  28
HETATM   28  C3  UNL     1      -6.304   1.642  -0.281  1.00  0.00     0.019 C 
BRANCH  28  29
HETATM   29  C2  UNL     1      -5.240   2.482  -0.900  1.00  0.00    -0.003 C 
HETATM   30  C1  UNL     1      -4.413   3.239   0.120  1.00  0.00     0.005 C 
ENDBRANCH  28  29
ENDBRANCH  27  28
ENDBRANCH  26  27
BRANCH  26  31
HETATM   31  C5  UNL     1      -5.461  -1.354  -0.903  1.00  0.00     0.124 C 
BRANCH  31  32
HETATM   32  C6  UNL     1      -6.389  -2.315  -0.190  1.00  0.00     0.015 C 
HETATM   33  C7  UNL     1      -6.921  -3.319  -1.194  1.00  0.00     0.006 C 
ENDBRANCH  31  32
ENDBRANCH  26  31
ENDBRANCH  19  26
ENDBRANCH   1  16
BRANCH  13  34
HETATM   34  C19 UNL     1       5.877   0.980  -0.671  1.00  0.00    -0.034 A 
HETATM   35  C20 UNL     1       7.135   1.042  -1.230  1.00  0.00     0.009 A 
HETATM   36  C21 UNL     1       8.112   1.901  -0.746  1.00  0.00     0.001 A 
HETATM   37  C22 UNL     1       7.822   2.722   0.330  1.00  0.00     0.000 A 
HETATM   38  C23 UNL     1       6.569   2.672   0.901  1.00  0.00     0.001 A 
HETATM   39  C24 UNL     1       5.605   1.811   0.407  1.00  0.00     0.009 A 
ENDBRANCH  13  34
TORSDOF 9
