REMARK  10 active torsions:
REMARK  status: ('A' for Active; 'I' for Inactive)
REMARK    1  A    between atoms: N1_1  and  C1_4 
REMARK    2  A    between atoms: C2_7  and  C3_8 
REMARK    3  A    between atoms: C3_8  and  O1_9 
REMARK    4  A    between atoms: C3_8  and  O2_11 
REMARK    5  A    between atoms: C4_13  and  C5_14 
REMARK    6  A    between atoms: C5_14  and  C6_16 
REMARK    7  A    between atoms: C6_16  and  O4_17 
REMARK    8  A    between atoms: C6_16  and  C7_19 
REMARK    9  A    between atoms: C7_19  and  N3_20 
REMARK   10  A    between atoms: C8_23  and  N5_24 
ROOT
HETATM    1  C5  UNL     1      -0.857   1.139   0.781  1.00  0.00     0.209 C 
HETATM    2  O3  UNL     1      -1.131   2.319   0.983  1.00  0.00    -0.288 OA
ENDROOT
BRANCH   1   3
HETATM    3  C4  UNL     1      -1.841   0.158   0.379  1.00  0.00     0.125 A 
HETATM    4  C2  UNL     1      -3.143   0.485   0.175  1.00  0.00     0.112 A 
HETATM    5  N2  UNL     1      -3.991  -0.531  -0.238  1.00  0.00    -0.187 N 
HETATM    6  C1  UNL     1      -3.541  -1.770  -0.421  1.00  0.00     0.690 A 
ATOM      7  H2  UNL     1      -4.976  -0.326  -0.404  1.00  0.00     0.184 HD
HETATM    8  N10 UNL     1      -2.248  -2.091  -0.216  1.00  0.00    -0.132 N 
HETATM    9  N9  UNL     1      -1.454  -1.133   0.171  1.00  0.00    -0.281 N 
ATOM     10  H10 UNL     1      -1.906  -3.042  -0.358  1.00  0.00     0.205 HD
ATOM     11  H9  UNL     1      -0.474  -1.365   0.330  1.00  0.00     0.187 HD
BRANCH   4  12
HETATM   12  C3  UNL     1      -3.767   1.812   0.396  1.00  0.00     0.308 C 
BRANCH  12  13
HETATM   13  O1  UNL     1      -5.029   1.532   1.008  1.00  0.00    -0.366 OA
ATOM     14  H1  UNL     1      -5.429   2.382   1.150  1.00  0.00     0.213 HD
ENDBRANCH  12  13
BRANCH  12  15
HETATM   15  O2  UNL     1      -3.959   2.454  -0.824  1.00  0.00    -0.366 OA
ATOM     16  H2  UNL     1      -4.359   3.304  -0.682  1.00  0.00     0.213 HD
ENDBRANCH  12  15
ENDBRANCH   4  12
BRANCH   6  17
HETATM   17  N1  UNL     1      -4.351  -2.702  -0.806  1.00  0.00    -0.233 N 
ATOM     18  H12 UNL     1      -5.329  -2.459  -0.961  1.00  0.00     0.174 HD
ATOM     19  H11 UNL     1      -4.006  -3.652  -0.946  1.00  0.00     0.174 HD
ENDBRANCH   6  17
ENDBRANCH   1   3
BRANCH   1  20
HETATM   20  C6  UNL     1       0.587   0.760   0.980  1.00  0.00     0.214 C 
BRANCH  20  21
HETATM   21  O4  UNL     1       1.237   1.862   1.576  1.00  0.00    -0.386 OA
ATOM     22  H4  UNL     1       2.148   1.623   1.702  1.00  0.00     0.210 HD
ENDBRANCH  20  21
BRANCH  20  23
HETATM   23  C7  UNL     1       1.164   0.575  -0.411  1.00  0.00     0.191 C 
BRANCH  23  24
HETATM   24  N3  UNL     1       2.580   0.202  -0.335  1.00  0.00    -0.269 N 
HETATM   25  N4  UNL     1       3.634   0.965  -0.315  1.00  0.00    -0.280 N 
HETATM   26  C8  UNL     1       4.768   0.247  -0.240  1.00  0.00     0.146 A 
ATOM     27  H4  UNL     1       3.603   1.984  -0.352  1.00  0.00     0.189 HD
HETATM   28  C9  UNL     1       4.389  -1.076  -0.210  1.00  0.00     0.138 A 
HETATM   29  N6  UNL     1       4.804  -2.368  -0.146  1.00  0.00    -0.277 N 
HETATM   30  C10 UNL     1       3.000  -1.082  -0.271  1.00  0.00     0.167 A 
HETATM   31  N7  UNL     1       3.725  -3.141  -0.167  1.00  0.00    -0.020 NA
ATOM     32  H6  UNL     1       5.771  -2.687  -0.092  1.00  0.00     0.184 HD
HETATM   33  N8  UNL     1       2.635  -2.378  -0.242  1.00  0.00    -0.266 N 
ATOM     34  H8  UNL     1       1.675  -2.722  -0.273  1.00  0.00     0.186 HD
BRANCH  26  35
HETATM   35  N5  UNL     1       6.001   0.670  -0.200  1.00  0.00    -0.382 N 
ATOM     36  H52 UNL     1       6.282   1.650  -0.222  1.00  0.00     0.157 HD
ATOM     37  H51 UNL     1       6.861   0.125  -0.143  1.00  0.00     0.157 HD
ENDBRANCH  26  35
ENDBRANCH  23  24
ENDBRANCH  20  23
ENDBRANCH   1  20
TORSDOF 10
