REMARK  10 active torsions:
REMARK  status: ('A' for Active; 'I' for Inactive)
REMARK    1  A    between atoms: N1_1  and  C1_4 
REMARK    2  A    between atoms: C2_7  and  N3_8 
REMARK    3  A    between atoms: N3_8  and  C3_10 
REMARK    4  A    between atoms: C3_10  and  C4_11 
REMARK    5  A    between atoms: C4_11  and  N4_12 
REMARK    6  A    between atoms: N4_12  and  N5_14 
REMARK    7  A    between atoms: C6_19  and  N8_20 
REMARK    8  A    between atoms: C7_25  and  N10_26 
REMARK    9  A    between atoms: C9_28  and  N11_29 
REMARK   10  A    between atoms: C10_36  and  N13_37 
ROOT
HETATM    1  C1  UNL     1       0.421   1.069  -1.759  1.00  0.00     0.692 A 
HETATM    2  N2  UNL     1       1.530   0.608  -1.114  1.00  0.00    -0.022 N 
ATOM      3  H2  UNL     1       2.463   0.897  -1.409  1.00  0.00     0.203 HD
HETATM    4  C2  UNL     1       1.367  -0.238  -0.077  1.00  0.00     0.715 A 
HETATM    5  N7  UNL     1       0.118  -0.614   0.305  1.00  0.00     0.042 N 
HETATM    6  C6  UNL     1      -0.298  -1.431   1.286  1.00  0.00     0.700 A 
HETATM    7  N9  UNL     1      -1.639  -1.488   1.266  1.00  0.00    -0.172 N 
ATOM      8  H9  UNL     1      -2.212  -2.038   1.907  1.00  0.00     0.186 HD
HETATM    9  C7  UNL     1      -2.123  -0.700   0.260  1.00  0.00     0.169 A 
HETATM   10  C11 UNL     1      -0.989  -0.169  -0.320  1.00  0.00     0.206 A 
HETATM   11  N14 UNL     1      -0.806   0.686  -1.367  1.00  0.00    -0.171 N 
ATOM     12  H14 UNL     1      -1.621   1.044  -1.865  1.00  0.00     0.186 HD
ENDROOT
BRANCH   9  13
HETATM   13  N10 UNL     1      -3.477  -0.491  -0.095  1.00  0.00    -0.310 N 
HETATM   14  C8  UNL     1      -4.437  -1.539  -0.347  1.00  0.00     0.191 C 
HETATM   15  C9  UNL     1      -5.680  -0.952   0.265  1.00  0.00     0.402 C 
HETATM   16  N12 UNL     1      -5.460   0.474   0.368  1.00  0.00     0.002 N 
HETATM   17  C10 UNL     1      -4.194   0.743  -0.274  1.00  0.00     0.489 C 
ATOM     18 2H12 UNL     1      -6.229   1.029  -0.008  1.00  0.00     0.284 HD
ATOM     19 1H12 UNL     1      -5.508   0.822   1.326  1.00  0.00     0.284 HD
BRANCH  15  20
HETATM   20  N11 UNL     1      -6.819  -1.161  -0.604  1.00  0.00    -0.048 N 
ATOM     21 3H11 UNL     1      -6.651  -0.800  -1.543  1.00  0.00     0.276 HD
ATOM     22 2H11 UNL     1      -6.941  -2.146  -0.840  1.00  0.00     0.276 HD
ATOM     23 1H11 UNL     1      -7.662  -0.763  -0.189  1.00  0.00     0.276 HD
ENDBRANCH  15  20
BRANCH  17  24
HETATM   24  N13 UNL     1      -3.514   1.872   0.330  1.00  0.00    -0.032 N 
ATOM     25 3H13 UNL     1      -3.321   1.699   1.317  1.00  0.00     0.279 HD
ATOM     26 2H13 UNL     1      -2.557   1.950  -0.013  1.00  0.00     0.279 HD
ATOM     27 1H13 UNL     1      -4.022   2.747   0.203  1.00  0.00     0.279 HD
ENDBRANCH  17  24
ENDBRANCH   9  13
BRANCH   6  28
HETATM   28  N8  UNL     1       0.501  -2.038   2.092  1.00  0.00    -0.233 N 
ATOM     29  H82 UNL     1       1.520  -1.995   2.107  1.00  0.00     0.174 HD
ATOM     30  H81 UNL     1       0.185  -2.659   2.837  1.00  0.00     0.174 HD
ENDBRANCH   6  28
BRANCH   4  31
HETATM   31  N3  UNL     1       2.372  -0.690   0.554  1.00  0.00    -0.223 N 
ATOM     32  H3  UNL     1       2.170  -1.325   1.327  1.00  0.00     0.177 HD
BRANCH  31  33
HETATM   33  C3  UNL     1       3.749  -0.414   0.309  1.00  0.00     0.159 C 
BRANCH  33  34
HETATM   34  C4  UNL     1       4.163   0.921   0.920  1.00  0.00     0.159 C 
BRANCH  34  35
HETATM   35  N4  UNL     1       5.564   1.187   0.668  1.00  0.00    -0.334 N 
ATOM     36  H4  UNL     1       5.821   2.022   0.142  1.00  0.00     0.180 HD
BRANCH  35  37
HETATM   37  N5  UNL     1       6.560   0.349   1.116  1.00  0.00    -0.303 N 
HETATM   38  C5  UNL     1       7.503  -0.099   0.392  1.00  0.00     0.206 C 
HETATM   39  N6  UNL     1       7.662   0.202  -0.984  1.00  0.00    -0.095 NA
ATOM     40  H5  UNL     1       6.540   0.069   2.096  1.00  0.00     0.186 HD
ENDBRANCH  35  37
ENDBRANCH  34  35
ENDBRANCH  33  34
ENDBRANCH  31  33
ENDBRANCH   4  31
BRANCH   1  41
HETATM   41  N1  UNL     1       0.598   1.872  -2.742  1.00  0.00    -0.234 N 
ATOM     42  H12 UNL     1       1.529   2.163  -3.040  1.00  0.00     0.174 HD
ATOM     43  H11 UNL     1      -0.232   2.217  -3.225  1.00  0.00     0.174 HD
ENDBRANCH   1  41
TORSDOF 10
