REMARK  11 active torsions:
REMARK  status: ('A' for Active; 'I' for Inactive)
REMARK    1  A    between atoms: C3_6  and  C4_7 
REMARK    2  A    between atoms: C4_7  and  N3_8 
REMARK    3  A    between atoms: C4_7  and  C6_13 
REMARK       I    between atoms: N3_8  and  C5_10 
REMARK    4  A    between atoms: C6_13  and  O2_14 
REMARK    5  A    between atoms: C6_13  and  O3_16 
REMARK    6  A    between atoms: C7_18  and  C8_19 
REMARK    7  A    between atoms: C8_19  and  N5_20 
REMARK    8  A    between atoms: C8_19  and  N6_23 
REMARK    9  A    between atoms: N6_23  and  N7_25 
REMARK   10  A    between atoms: N7_25  and  C9_27 
REMARK   11  A    between atoms: C9_27  and  C10_31 
ROOT
HETATM    1  C8  UNL     1       0.365   0.306   0.522  1.00  0.00     0.143 C 
ENDROOT
BRANCH   1   2
HETATM    2  C7  UNL     1      -0.395  -0.703  -0.169  1.00  0.00     0.105 A 
HETATM    3  N1  UNL     1      -0.031  -2.001  -0.346  1.00  0.00    -0.343 N 
HETATM    4  C1  UNL     1       1.132  -2.688   0.111  1.00  0.00     0.157 C 
HETATM    5  C2  UNL     1      -0.996  -2.584  -1.066  1.00  0.00     0.183 A 
HETATM    6  N2  UNL     1      -1.947  -1.720  -1.348  1.00  0.00    -0.352 N 
HETATM    7  C3  UNL     1      -1.616  -0.504  -0.800  1.00  0.00     0.069 A 
ATOM      8  H2  UNL     1      -2.791  -1.920  -1.885  1.00  0.00     0.166 HD
BRANCH   7   9
HETATM    9  C4  UNL     1      -2.516   0.627  -0.926  1.00  0.00     0.193 C 
BRANCH   9  10
HETATM   10  N3  UNL     1      -3.278   0.745   0.333  1.00  0.00    -0.330 N 
HETATM   11  C5  UNL     1      -3.649   1.942   0.941  1.00  0.00     0.329 C 
HETATM   12  N4  UNL     1      -4.372   1.957   2.139  1.00  0.00    -0.040 NA
HETATM   13  O1  UNL     1      -3.341   3.048   0.423  1.00  0.00    -0.251 OA
ATOM     14  H3  UNL     1      -3.555  -0.121   0.795  1.00  0.00     0.164 HD
ENDBRANCH   9  10
BRANCH   9  15
HETATM   15  C6  UNL     1      -3.562   0.316  -2.023  1.00  0.00     0.282 C 
BRANCH  15  16
HETATM   16  O2  UNL     1      -4.474   1.364  -2.089  1.00  0.00    -0.369 OA
ATOM     17  H2  UNL     1      -5.116   1.173  -2.763  1.00  0.00     0.212 HD
ENDBRANCH  15  16
BRANCH  15  18
HETATM   18  O3  UNL     1      -4.198  -0.880  -1.825  1.00  0.00    -0.369 OA
ATOM     19  H3  UNL     1      -4.840  -1.071  -2.499  1.00  0.00     0.212 HD
ENDBRANCH  15  18
ENDBRANCH   9  15
ENDBRANCH   7   9
ENDBRANCH   1   2
BRANCH   1  20
HETATM   20  N5  UNL     1       0.079   1.506   0.643  1.00  0.00    -0.383 N 
ATOM     21  H52 UNL     1      -0.796   1.746   0.178  1.00  0.00     0.157 HD
ATOM     22  H51 UNL     1       0.617   2.221   1.133  1.00  0.00     0.157 HD
ENDBRANCH   1  20
BRANCH   1  23
HETATM   23  N6  UNL     1       1.612  -0.036   1.185  1.00  0.00    -0.282 N 
ATOM     24  H6  UNL     1       1.629  -0.816   1.842  1.00  0.00     0.188 HD
BRANCH  23  25
HETATM   25  N7  UNL     1       2.779   0.673   0.945  1.00  0.00    -0.281 N 
ATOM     26  H7  UNL     1       3.059   1.370   1.635  1.00  0.00     0.188 HD
BRANCH  25  27
HETATM   27  C9  UNL     1       3.610   0.499  -0.189  1.00  0.00     0.160 C 
HETATM   28  N8  UNL     1       3.116   0.542  -1.379  1.00  0.00    -0.381 N 
ATOM     29  H82 UNL     1       2.115   0.703  -1.495  1.00  0.00     0.157 HD
ATOM     30  H81 UNL     1       3.714   0.417  -2.196  1.00  0.00     0.157 HD
BRANCH  27  31
HETATM   31  C10 UNL     1       5.027   0.271  -0.025  1.00  0.00     0.177 A 
HETATM   32  N9  UNL     1       5.900   0.094  -1.027  1.00  0.00    -0.267 N 
HETATM   33  N10 UNL     1       7.124  -0.092  -0.521  1.00  0.00    -0.007 NA
ATOM     34  H9  UNL     1       5.667   0.100  -2.020  1.00  0.00     0.185 HD
HETATM   35  N11 UNL     1       7.039  -0.035   0.799  1.00  0.00    -0.007 NA
HETATM   36  N12 UNL     1       5.762   0.186   1.102  1.00  0.00    -0.267 N 
ATOM     37  H12 UNL     1       5.393   0.278   2.049  1.00  0.00     0.185 HD
ENDBRANCH  27  31
ENDBRANCH  25  27
ENDBRANCH  23  25
ENDBRANCH   1  23
TORSDOF 11
