REMARK  7 active torsions:
REMARK  status: ('A' for Active; 'I' for Inactive)
REMARK    1  A    between atoms: C4_6  and  N2_7 
REMARK    2  A    between atoms: N2_7  and  C5_9 
REMARK    3  A    between atoms: C6_12  and  C7_13 
REMARK    4  A    between atoms: C7_13  and  O1_14 
REMARK    5  A    between atoms: C7_13  and  C8_16 
REMARK    6  A    between atoms: C8_16  and  N4_17 
REMARK    7  A    between atoms: C8_16  and  N5_21 
REMARK       I    between atoms: N5_21  and  C9_23 
REMARK       I    between atoms: C9_23  and  N6_24 
REMARK       I    between atoms: C9_23  and  N7_28 
ROOT
HETATM    1  C5  UNL     1       0.355  -2.823  -0.512  1.00  0.00     0.294 A 
HETATM    2  N3  UNL     1      -0.550  -2.356   0.471  1.00  0.00    -0.348 N 
ATOM      3  H3  UNL     1      -0.493  -2.617   1.455  1.00  0.00     0.163 HD
HETATM    4  C6  UNL     1      -1.451  -1.569  -0.001  1.00  0.00     0.115 A 
HETATM    5  N8  UNL     1      -1.241  -1.393  -1.387  1.00  0.00    -0.311 N 
ATOM      6  H8  UNL     1      -1.808  -0.820  -2.012  1.00  0.00     0.170 HD
HETATM    7  C10 UNL     1      -0.101  -2.154  -1.757  1.00  0.00     0.266 A 
HETATM    8  O2  UNL     1       0.437  -2.264  -2.880  1.00  0.00    -0.269 OA
ENDROOT
BRANCH   4   9
HETATM    9  C7  UNL     1      -2.554  -0.916   0.799  1.00  0.00     0.235 C 
BRANCH   9  10
HETATM   10  O1  UNL     1      -2.438  -1.357   2.152  1.00  0.00    -0.384 OA
ATOM     11  H1  UNL     1      -3.131  -0.946   2.655  1.00  0.00     0.210 HD
ENDBRANCH   9  10
BRANCH   9  12
HETATM   12  C8  UNL     1      -2.446   0.560   0.875  1.00  0.00     0.316 C 
BRANCH  12  13
HETATM   13  N4  UNL     1      -1.155   0.971   1.449  1.00  0.00    -0.056 N 
ATOM     14  H43 UNL     1      -0.993   0.536   2.357  1.00  0.00     0.276 HD
ATOM     15  H42 UNL     1      -0.371   0.564   0.939  1.00  0.00     0.276 HD
ATOM     16  H41 UNL     1      -1.081   1.987   1.501  1.00  0.00     0.276 HD
ENDBRANCH  12  13
BRANCH  12  17
HETATM   17  N5  UNL     1      -2.815   1.335  -0.242  1.00  0.00    -0.345 N 
HETATM   18  C9  UNL     1      -4.161   1.319  -0.680  1.00  0.00     0.477 C 
HETATM   19  N6  UNL     1      -5.119   1.704   0.335  1.00  0.00    -0.033 N 
HETATM   20  N7  UNL     1      -4.572   0.146  -1.383  1.00  0.00    -0.033 N 
ATOM     21  H63 UNL     1      -5.008   1.127   1.168  1.00  0.00     0.278 HD
ATOM     22  H62 UNL     1      -4.881   2.617   0.723  1.00  0.00     0.278 HD
ATOM     23  H61 UNL     1      -6.089   1.692   0.019  1.00  0.00     0.278 HD
ATOM     24  H73 UNL     1      -3.948  -0.023  -2.172  1.00  0.00     0.278 HD
ATOM     25  H72 UNL     1      -4.380  -0.682  -0.819  1.00  0.00     0.278 HD
ATOM     26  H71 UNL     1      -5.542   0.134  -1.699  1.00  0.00     0.278 HD
ATOM     27  H5  UNL     1      -2.120   1.901  -0.729  1.00  0.00     0.159 HD
ENDBRANCH  12  17
ENDBRANCH   9  12
ENDBRANCH   4   9
BRANCH   1  28
HETATM   28  N2  UNL     1       1.742  -2.697  -0.267  1.00  0.00    -0.196 N 
ATOM     29  H2  UNL     1       2.259  -3.569  -0.157  1.00  0.00     0.180 HD
BRANCH  28  30
HETATM   30  C4  UNL     1       2.502  -1.503  -0.155  1.00  0.00     0.680 A 
HETATM   31  N1  UNL     1       2.028  -0.346   0.125  1.00  0.00    -0.200 N 
HETATM   32  C2  UNL     1       2.720   0.884   0.252  1.00  0.00     0.115 A 
ATOM     33  H1  UNL     1       1.020  -0.305   0.276  1.00  0.00     0.180 HD
HETATM   34  C1  UNL     1       2.590   1.467   1.652  1.00  0.00     0.063 C 
HETATM   35  C3  UNL     1       2.250   1.932  -0.748  1.00  0.00     0.063 C 
HETATM   36  N11 UNL     1       4.123   0.719   0.018  1.00  0.00    -0.338 N 
HETATM   37  C11 UNL     1       4.675  -0.528  -0.289  1.00  0.00     0.204 A 
ATOM     38  H11 UNL     1       4.735   1.533   0.077  1.00  0.00     0.164 HD
HETATM   39  N9  UNL     1       3.930  -1.565  -0.372  1.00  0.00    -0.164 N 
HETATM   40  N10 UNL     1       6.068  -0.607  -0.504  1.00  0.00    -0.063 NA
ATOM     41  H9  UNL     1       4.357  -2.463  -0.598  1.00  0.00     0.187 HD
ENDBRANCH  28  30
ENDBRANCH   1  28
TORSDOF 7
