REMARK  9 active torsions:
REMARK  status: ('A' for Active; 'I' for Inactive)
REMARK    1  A    between atoms: N1_1  and  C1_4 
REMARK    2  A    between atoms: C2_7  and  C3_8 
REMARK    3  A    between atoms: C3_8  and  O1_9 
REMARK    4  A    between atoms: C3_8  and  C4_11 
REMARK    5  A    between atoms: C4_11  and  C5_12 
REMARK    6  A    between atoms: C5_12  and  O2_13 
REMARK    7  A    between atoms: C5_12  and  N3_15 
REMARK    8  A    between atoms: C7_22  and  C8_23 
REMARK    9  A    between atoms: C10_30  and  N9_31 
ROOT
HETATM    1  C1  UNL     1      -1.006   2.474   0.670  1.00  0.00     0.676 A 
HETATM    2  N2  UNL     1       0.137   2.173   0.043  1.00  0.00    -0.193 N 
ATOM      3  H2  UNL     1       0.622   2.908  -0.471  1.00  0.00     0.184 HD
HETATM    4  C2  UNL     1       0.671   0.939   0.064  1.00  0.00     0.057 A 
HETATM    5  C6  UNL     1       0.011  -0.048   0.760  1.00  0.00     0.062 A 
HETATM    6  C7  UNL     1      -1.187   0.227   1.429  1.00  0.00     0.095 A 
HETATM    7  N11 UNL     1      -1.626   1.487   1.341  1.00  0.00    -0.188 N 
ATOM      8  H11 UNL     1      -2.497   1.717   1.819  1.00  0.00     0.184 HD
ENDROOT
BRANCH   4   9
HETATM    9  C3  UNL     1       1.935   0.614  -0.633  1.00  0.00     0.172 C 
BRANCH   9  10
HETATM   10  O1  UNL     1       2.832   1.643  -0.353  1.00  0.00    -0.389 OA
ATOM     11  H1  UNL     1       3.644   1.434  -0.801  1.00  0.00     0.210 HD
ENDBRANCH   9  10
BRANCH   9  12
HETATM   12  C4  UNL     1       1.737   0.480  -2.133  1.00  0.00     0.094 C 
BRANCH  12  13
HETATM   13  C5  UNL     1       3.107   0.148  -2.718  1.00  0.00     0.261 C 
BRANCH  13  14
HETATM   14  O2  UNL     1       3.523  -1.040  -2.142  1.00  0.00    -0.374 OA
ATOM     15  H2  UNL     1       4.376  -1.247  -2.506  1.00  0.00     0.212 HD
ENDBRANCH  13  14
BRANCH  13  16
HETATM   16  N3  UNL     1       2.997   0.038  -4.159  1.00  0.00    -0.171 N 
HETATM   17  N4  UNL     1       2.859  -0.946  -5.058  1.00  0.00     0.017 NA
HETATM   18  N5  UNL     1       2.854  -0.072  -6.052  1.00  0.00    -0.209 N 
HETATM   19  N6  UNL     1       2.989   0.892  -5.171  1.00  0.00    -0.212 N 
ATOM     20  H5  UNL     1       2.778  -0.125  -7.068  1.00  0.00     0.207 HD
ATOM     21  H6  UNL     1       3.060   1.907  -5.240  1.00  0.00     0.211 HD
ENDBRANCH  13  16
ENDBRANCH  12  13
ENDBRANCH   9  12
ENDBRANCH   4   9
BRANCH   1  22
HETATM   22  N1  UNL     1      -1.509   3.685   0.636  1.00  0.00    -0.234 N 
ATOM     23  H12 UNL     1      -1.039   4.434   0.127  1.00  0.00     0.174 HD
ATOM     24  H11 UNL     1      -2.380   3.914   1.114  1.00  0.00     0.174 HD
ENDBRANCH   1  22
BRANCH   6  25
HETATM   25  C8  UNL     1      -1.875  -0.838   2.164  1.00  0.00     0.152 A 
HETATM   26  N7  UNL     1      -1.356  -2.092   2.201  1.00  0.00    -0.292 N 
HETATM   27  C9  UNL     1      -1.976  -3.075   2.870  1.00  0.00     0.340 A 
ATOM     28  H7  UNL     1      -0.482  -2.289   1.713  1.00  0.00     0.172 HD
HETATM   29  O3  UNL     1      -1.505  -4.241   2.911  1.00  0.00    -0.246 OA
HETATM   30  N8  UNL     1      -3.138  -2.830   3.526  1.00  0.00    -0.141 N 
HETATM   31  C10 UNL     1      -3.677  -1.602   3.509  1.00  0.00     0.681 A 
ATOM     32  H8  UNL     1      -3.603  -3.582   4.034  1.00  0.00     0.189 HD
HETATM   33  N10 UNL     1      -3.023  -0.642   2.825  1.00  0.00    -0.174 N 
ATOM     34  H10 UNL     1      -3.429   0.294   2.810  1.00  0.00     0.186 HD
BRANCH  31  35
HETATM   35  N9  UNL     1      -4.783  -1.377   4.135  1.00  0.00    -0.234 N 
ATOM     36  H92 UNL     1      -5.278  -2.103   4.653  1.00  0.00     0.174 HD
ATOM     37  H91 UNL     1      -5.193  -0.443   4.122  1.00  0.00     0.174 HD
ENDBRANCH  31  35
ENDBRANCH   6  25
TORSDOF 9
