REMARK  1 active torsions:
REMARK  status: ('A' for Active; 'I' for Inactive)
REMARK    1  A    between atoms: N1_1  and  C1_5 
ROOT
HETATM    1  C1  UNL     1       1.247  -0.169  -0.435  1.00  0.00     0.217 C 
HETATM    2  C2  UNL     1       0.635  -1.236   0.424  1.00  0.00     0.036 C 
HETATM    3  C3  UNL     1      -0.544  -1.807  -0.284  1.00  0.00     0.002 C 
HETATM    4  C4  UNL     1      -1.825  -1.112  -0.123  1.00  0.00     0.000 C 
HETATM    5  C5  UNL     1      -1.815   0.181   0.611  1.00  0.00     0.000 C 
HETATM    6  C6  UNL     1      -1.191   1.232  -0.293  1.00  0.00     0.003 C 
HETATM    7  C7  UNL     1      -0.005   1.890   0.304  1.00  0.00     0.039 C 
HETATM    8  C8  UNL     1       1.278   1.181   0.187  1.00  0.00     0.200 C 
HETATM    9  F1  UNL     1       2.163   1.964  -0.569  1.00  0.00    -0.247 F 
ENDROOT
BRANCH   1  10
HETATM   10  N1  UNL     1       2.655  -0.537  -0.679  1.00  0.00    -0.072 N 
ATOM     11  H13 UNL     1       3.177  -0.699   0.183  1.00  0.00     0.274 HD
ATOM     12  H12 UNL     1       2.757  -1.471  -1.076  1.00  0.00     0.274 HD
ATOM     13  H11 UNL     1       3.071   0.188  -1.263  1.00  0.00     0.274 HD
ENDBRANCH   1  10
TORSDOF 1
