REMARK  2 active torsions:
REMARK  status: ('A' for Active; 'I' for Inactive)
REMARK    1  A    between atoms: C4_4  and  C5_5 
REMARK    2  A    between atoms: N3_13  and  C9_15 
ROOT
HETATM    1  C5  UNL     1      -1.838  -0.666   0.251  1.00  0.00    -0.026 C 
HETATM    2  C6  UNL     1      -2.327  -2.034   0.054  1.00  0.00     0.051 C 
HETATM    3  C7  UNL     1      -0.514  -0.453   0.318  1.00  0.00     0.098 C 
HETATM    4  N1  UNL     1       0.231   0.725   0.498  1.00  0.00    -0.291 N 
ATOM      5  H1  UNL     1      -0.219   1.601   0.765  1.00  0.00     0.187 HD
HETATM    6  N2  UNL     1       1.575   0.652   0.303  1.00  0.00    -0.279 N 
ATOM      7  H2  UNL     1       2.175   1.469   0.418  1.00  0.00     0.189 HD
HETATM    8  C8  UNL     1       2.101  -0.599  -0.064  1.00  0.00     0.161 C 
HETATM    9  N3  UNL     1       3.256  -0.915  -0.477  1.00  0.00    -0.365 N 
ATOM     10  H3  UNL     1       3.456  -1.891  -0.697  1.00  0.00     0.162 HD
HETATM   11  S1  UNL     1       0.755  -1.741   0.175  1.00  0.00    -0.033 SA
ENDROOT
BRANCH   1  12
HETATM   12  C4  UNL     1      -2.731   0.459   0.377  1.00  0.00     0.011 C 
HETATM   13  C2  UNL     1      -4.012   0.551   0.352  1.00  0.00    -0.087 C 
HETATM   14  C1  UNL     1      -4.634   1.917   0.519  1.00  0.00     0.043 C 
HETATM   15  C3  UNL     1      -4.950  -0.552   0.172  1.00  0.00     0.043 C 
ENDBRANCH   1  12
BRANCH   9  16
HETATM   16  C9  UNL     1       4.302   0.077  -0.645  1.00  0.00     0.075 C 
HETATM   17  C10 UNL     1       5.203  -0.263  -1.814  1.00  0.00     0.032 C 
HETATM   18  C11 UNL     1       5.075   0.304   0.625  1.00  0.00     0.032 C 
ENDBRANCH   9  16
TORSDOF 2
