REMARK  3 active torsions:
REMARK  status: ('A' for Active; 'I' for Inactive)
REMARK    1  A    between atoms: N1_1  and  C1_4 
REMARK    2  A    between atoms: C6_12  and  C7_13 
REMARK    3  A    between atoms: C7_13  and  C8_14 
ROOT
HETATM    1  C1  UNL     1       4.025  -0.010  -0.999  1.00  0.00     0.092 A 
HETATM    2  S1  UNL     1       4.314  -1.594  -0.437  1.00  0.00     0.004 SA
HETATM    3  N2  UNL     1       2.892  -1.834   0.428  1.00  0.00    -0.328 N 
ATOM      4  H2  UNL     1       2.609  -2.662   0.953  1.00  0.00     0.174 HD
HETATM    5  C2  UNL     1       2.217  -0.688   0.269  1.00  0.00     0.029 A 
HETATM    6  C3  UNL     1       2.788   0.272  -0.468  1.00  0.00     0.000 A 
HETATM    7  C4  UNL     1       1.877   1.495  -0.514  1.00  0.00     0.044 C 
HETATM    8  C5  UNL     1       1.152   1.276   0.816  1.00  0.00     0.015 C 
HETATM    9  C6  UNL     1       0.842  -0.168   0.742  1.00  0.00     0.037 C 
ENDROOT
BRANCH   9  10
HETATM   10  C7  UNL     1      -0.108  -0.660  -0.264  1.00  0.00     0.015 C 
BRANCH  10  11
HETATM   11  C8  UNL     1      -1.530  -0.445  -0.214  1.00  0.00    -0.014 C 
HETATM   12  C9  UNL     1      -2.077   0.959  -0.217  1.00  0.00     0.005 C 
HETATM   13  C10 UNL     1      -3.603   0.701  -0.111  1.00  0.00     0.000 C 
HETATM   14  C11 UNL     1      -3.730  -0.637   0.578  1.00  0.00     0.000 C 
HETATM   15  C12 UNL     1      -2.329  -1.131   0.872  1.00  0.00     0.005 C 
ENDBRANCH  10  11
ENDBRANCH   9  10
BRANCH   1  16
HETATM   16  N1  UNL     1       4.782   0.764  -1.752  1.00  0.00    -0.392 N 
ATOM     17  H12 UNL     1       5.699   0.555  -2.146  1.00  0.00     0.156 HD
ATOM     18  H11 UNL     1       4.609   1.711  -2.088  1.00  0.00     0.156 HD
ENDBRANCH   1  16
TORSDOF 3
