REMARK  8 active torsions:
REMARK  status: ('A' for Active; 'I' for Inactive)
REMARK    1  A    between atoms: C3_3  and  N1_4 
REMARK    2  A    between atoms: C3_3  and  C9_12 
REMARK       I    between atoms: N1_4  and  C4_6 
REMARK    3  A    between atoms: C4_6  and  C5_8 
REMARK    4  A    between atoms: C9_12  and  C12_15 
REMARK    5  A    between atoms: C12_15  and  N2_16 
REMARK    6  A    between atoms: N2_16  and  C13_19 
REMARK    7  A    between atoms: C13_19  and  C15_21 
REMARK    8  A    between atoms: C15_21  and  C16_22 
ROOT
HETATM    1  C1  UNL     1       3.305   1.887   3.022  1.00  0.00     0.099 C 
HETATM    2  C2  UNL     1       3.398   1.541   1.853  1.00  0.00    -0.162 C 
HETATM    3  C3  UNL     1       3.530   1.143   0.454  1.00  0.00     0.160 C 
ENDROOT
BRANCH   3   4
HETATM    4  N1  UNL     1       4.846   0.595   0.264  1.00  0.00    -0.346 N 
HETATM    5  C4  UNL     1       5.792   1.152  -0.642  1.00  0.00     0.222 C 
HETATM    6  O1  UNL     1       5.444   2.163  -1.295  1.00  0.00    -0.273 OA
ATOM      7  H1  UNL     1       5.113  -0.229   0.802  1.00  0.00     0.163 HD
BRANCH   5   8
HETATM    8  C5  UNL     1       7.151   0.617  -0.862  1.00  0.00     0.078 C 
HETATM    9  C6  UNL     1       8.027   0.527   0.370  1.00  0.00     0.014 C 
HETATM   10  C7  UNL     1       8.461  -0.852  -0.146  1.00  0.00     0.002 C 
HETATM   11  C8  UNL     1       7.143  -0.892  -0.916  1.00  0.00     0.014 C 
ENDBRANCH   5   8
ENDBRANCH   3   4
BRANCH   3  12
HETATM   12  C9  UNL     1       2.437   0.157   0.142  1.00  0.00     0.007 C 
HETATM   13  C10 UNL     1       2.546  -1.049   1.014  1.00  0.00     0.019 C 
HETATM   14  C11 UNL     1       2.467  -0.177  -1.330  1.00  0.00     0.019 C 
BRANCH  12  15
HETATM   15  C12 UNL     1       1.061   0.777   0.428  1.00  0.00     0.244 C 
BRANCH  15  16
HETATM   16  N2  UNL     1       0.006  -0.123   0.142  1.00  0.00    -0.070 N 
ATOM     17  H22 UNL     1       0.067  -0.459  -0.819  1.00  0.00     0.277 HD
ATOM     18  H21 UNL     1       0.138  -1.005   0.638  1.00  0.00     0.277 HD
BRANCH  16  19
HETATM   19  C13 UNL     1      -1.343   0.441   0.419  1.00  0.00     0.182 C 
HETATM   20  C14 UNL     1      -1.463   0.671   1.902  1.00  0.00     0.040 C 
BRANCH  19  21
HETATM   21  C15 UNL     1      -2.289  -0.610  -0.030  1.00  0.00     0.042 C 
BRANCH  21  22
HETATM   22  C16 UNL     1      -3.745  -0.383   0.023  1.00  0.00    -0.037 C 
HETATM   23  C17 UNL     1      -4.356  -1.700  -0.530  1.00  0.00     0.014 C 
HETATM   24  C18 UNL     1      -5.837  -1.624  -0.673  1.00  0.00    -0.013 C 
HETATM   25  C19 UNL     1      -6.423  -1.337   0.700  1.00  0.00     0.009 C 
HETATM   26  C23 UNL     1      -6.239  -0.564  -1.649  1.00  0.00     0.009 C 
HETATM   27  C20 UNL     1      -5.919   0.010   1.108  1.00  0.00    -0.013 C 
HETATM   28  C21 UNL     1      -6.233   1.101   0.114  1.00  0.00     0.009 C 
HETATM   29  C25 UNL     1      -4.399  -0.105   1.315  1.00  0.00     0.014 C 
HETATM   30  C22 UNL     1      -5.617   0.748  -1.208  1.00  0.00    -0.013 C 
HETATM   31  C24 UNL     1      -4.136   0.653  -1.049  1.00  0.00     0.014 C 
ENDBRANCH  21  22
ENDBRANCH  19  21
ENDBRANCH  16  19
ENDBRANCH  15  16
ENDBRANCH  12  15
ENDBRANCH   3  12
TORSDOF 8
