REMARK  10 active torsions:
REMARK  status: ('A' for Active; 'I' for Inactive)
REMARK    1  A    between atoms: C2_2  and  C3_3 
REMARK    2  A    between atoms: C3_3  and  C4_4 
REMARK    3  A    between atoms: C4_4  and  N1_5 
REMARK    4  A    between atoms: N1_5  and  C5_7 
REMARK    5  A    between atoms: C5_7  and  C6_8 
REMARK    6  A    between atoms: C6_8  and  C7_9 
REMARK    7  A    between atoms: C7_9  and  N2_10 
REMARK    8  A    between atoms: N2_10  and  C8_11 
REMARK    9  A    between atoms: N2_10  and  C10_16 
REMARK   10  A    between atoms: C8_11  and  N3_13 
ROOT
HETATM    1  N2  UNL     1       0.666  -1.357  -0.282  1.00  0.00    -0.353 N 
ENDROOT
BRANCH   1   2
HETATM    2  C7  UNL     1       1.538  -0.554  -1.121  1.00  0.00     0.131 C 
BRANCH   2   3
HETATM    3  C6  UNL     1       2.374   0.435  -0.358  1.00  0.00     0.064 C 
BRANCH   3   4
HETATM    4  C5  UNL     1       3.333  -0.164   0.626  1.00  0.00     0.057 C 
BRANCH   4   5
HETATM    5  N1  UNL     1       4.378  -0.944   0.117  1.00  0.00    -0.402 N 
ATOM      6  H1  UNL     1       4.371  -1.957   0.240  1.00  0.00     0.158 HD
BRANCH   5   7
HETATM    7  C4  UNL     1       5.446  -0.315  -0.570  1.00  0.00     0.118 C 
BRANCH   7   8
HETATM    8  C3  UNL     1       6.324   0.494   0.396  1.00  0.00     0.019 C 
BRANCH   8   9
HETATM    9  C2  UNL     1       7.432   1.126  -0.395  1.00  0.00    -0.003 C 
HETATM   10  C1  UNL     1       8.358   1.935   0.509  1.00  0.00     0.005 C 
ENDBRANCH   8   9
ENDBRANCH   7   8
ENDBRANCH   5   7
ENDBRANCH   4   5
ENDBRANCH   3   4
ENDBRANCH   2   3
ENDBRANCH   1   2
BRANCH   1  11
HETATM   11  C8  UNL     1       0.868  -2.752  -0.165  1.00  0.00     0.169 C 
HETATM   12  S1  UNL     1       2.028  -3.398  -1.190  1.00  0.00    -0.041 SA
BRANCH  11  13
HETATM   13  N3  UNL     1       0.152  -3.639   0.669  1.00  0.00    -0.371 N 
HETATM   14  C9  UNL     1       0.513  -5.061   0.635  1.00  0.00     0.148 C 
ATOM     15  H3  UNL     1      -0.594  -3.301   1.277  1.00  0.00     0.161 HD
ENDBRANCH  11  13
ENDBRANCH   1  11
BRANCH   1  16
HETATM   16  C10 UNL     1      -0.474  -0.783   0.406  1.00  0.00     0.087 C 
HETATM   17  C11 UNL     1      -1.787  -1.485   0.016  1.00  0.00     0.031 C 
HETATM   18  C12 UNL     1      -2.706  -0.445  -0.554  1.00  0.00     0.001 C 
HETATM   19  C13 UNL     1      -4.110  -0.556   0.055  1.00  0.00    -0.005 C 
HETATM   20  C20 UNL     1      -2.165   0.792   0.108  1.00  0.00    -0.034 C 
HETATM   21  C14 UNL     1      -5.126  -0.462  -1.041  1.00  0.00     0.006 C 
HETATM   22  C22 UNL     1      -4.228   0.657   0.982  1.00  0.00    -0.005 C 
HETATM   23  C15 UNL     1      -6.075   0.712  -0.820  1.00  0.00     0.005 C 
HETATM   24  C16 UNL     1      -5.303   2.034  -0.818  1.00  0.00    -0.014 C 
HETATM   25  C17 UNL     1      -6.293   3.079  -0.323  1.00  0.00     0.010 C 
HETATM   26  C18 UNL     1      -4.209   1.953   0.198  1.00  0.00    -0.006 C 
HETATM   27  C19 UNL     1      -2.808   2.032  -0.406  1.00  0.00     0.015 C 
HETATM   28  C21 UNL     1      -2.785   0.676   1.505  1.00  0.00     0.015 C 
HETATM   29  C23 UNL     1      -0.707   0.677   0.108  1.00  0.00     0.035 C 
ENDBRANCH   1  16
TORSDOF 10
