REMARK  9 active torsions:
REMARK  status: ('A' for Active; 'I' for Inactive)
REMARK    1  A    between atoms: C3_3  and  C4_4 
REMARK    2  A    between atoms: C4_4  and  C5_5 
REMARK    3  A    between atoms: C4_4  and  C9_10 
REMARK    4  A    between atoms: C5_5  and  O1_7 
REMARK    5  A    between atoms: O1_7  and  C7_8 
REMARK    6  A    between atoms: C12_14  and  C13_15 
REMARK    7  A    between atoms: C19_22  and  O3_23 
REMARK    8  A    between atoms: C19_22  and  C20_25 
REMARK    9  A    between atoms: C22_27  and  O4_28 
ROOT
HETATM    1  C1  UNL     1      -4.960  -0.493  -3.000  1.00  0.00     0.112 C 
HETATM    2  C2  UNL     1      -3.954  -0.247  -1.940  1.00  0.00    -0.111 C 
HETATM    3  C3  UNL     1      -3.145  -0.026  -1.078  1.00  0.00    -0.097 C 
ENDROOT
BRANCH   3   4
HETATM    4  C4  UNL     1      -2.163   0.310  -0.010  1.00  0.00     0.125 C 
BRANCH   4   5
HETATM    5  C5  UNL     1      -2.894   0.311   1.319  1.00  0.00     0.135 C 
HETATM    6  C6  UNL     1      -3.576  -0.989   1.605  1.00  0.00     0.041 C 
BRANCH   5   7
HETATM    7  O1  UNL     1      -3.868   1.327   1.218  1.00  0.00    -0.385 OA
BRANCH   7   8
HETATM    8  C7  UNL     1      -3.556   2.374   2.084  1.00  0.00     0.163 C 
HETATM    9  C8  UNL     1      -4.522   3.511   1.913  1.00  0.00     0.033 C 
ENDBRANCH   7   8
ENDBRANCH   5   7
ENDBRANCH   4   5
BRANCH   4  10
HETATM   10  C9  UNL     1      -0.904  -0.345  -0.137  1.00  0.00     0.179 C 
HETATM   11  O2  UNL     1       0.029   0.111   0.910  1.00  0.00    -0.341 OA
HETATM   12  C10 UNL     1       1.343   0.097   0.411  1.00  0.00     0.079 A 
HETATM   13  C11 UNL     1       2.254   1.087   0.686  1.00  0.00     0.050 A 
HETATM   14  C18 UNL     1       1.626  -1.013  -0.422  1.00  0.00     0.013 A 
HETATM   15  C12 UNL     1       3.546   1.068   0.139  1.00  0.00    -0.015 A 
HETATM   16  C16 UNL     1       3.832   0.006  -0.667  1.00  0.00     0.022 A 
HETATM   17 BR1  UNL     1       5.601  -0.202  -1.406  1.00  0.00    -0.050 Br
HETATM   18  C17 UNL     1       2.885  -0.993  -0.926  1.00  0.00     0.033 A 
HETATM   19  C19 UNL     1       0.682  -2.081  -0.666  1.00  0.00     0.115 C 
HETATM   20  C22 UNL     1      -0.736  -1.834  -0.080  1.00  0.00     0.188 C 
BRANCH  15  21
HETATM   21  C13 UNL     1       4.432   2.237   0.244  1.00  0.00    -0.076 C 
HETATM   22  C14 UNL     1       5.133   2.462   1.537  1.00  0.00     0.044 C 
HETATM   23  C15 UNL     1       5.222   2.628  -0.955  1.00  0.00     0.044 C 
ENDBRANCH  15  21
BRANCH  19  24
HETATM   24  O3  UNL     1       0.426  -2.051  -2.081  1.00  0.00    -0.382 OA
ATOM     25  H3  UNL     1      -0.194  -2.753  -2.241  1.00  0.00     0.211 HD
ENDBRANCH  19  24
BRANCH  19  26
HETATM   26  C20 UNL     1       1.083  -3.470  -0.331  1.00  0.00     0.041 C 
HETATM   27  C21 UNL     1       2.250  -4.077  -1.047  1.00  0.00     0.009 C 
ENDBRANCH  19  26
BRANCH  20  28
HETATM   28  O4  UNL     1      -1.603  -2.541  -0.876  1.00  0.00    -0.390 OA
ATOM     29  H4  UNL     1      -1.497  -3.484  -0.840  1.00  0.00     0.210 HD
ENDBRANCH  20  28
ENDBRANCH   4  10
ENDBRANCH   3   4
TORSDOF 9
