REMARK  6 active torsions:
REMARK  status: ('A' for Active; 'I' for Inactive)
REMARK    1  A    between atoms: C5_7  and  O1_8 
REMARK    2  A    between atoms: C9_14  and  C10_15 
REMARK    3  A    between atoms: C12_17  and  O2_18 
REMARK    4  A    between atoms: O2_18  and  C13_19 
REMARK    5  A    between atoms: C13_19  and  C14_20 
REMARK    6  A    between atoms: C14_20  and  N2_21 
ROOT
HETATM    1  C10 UNL     1       2.765  -0.413  -0.923  1.00  0.00     0.047 A 
HETATM    2  C11 UNL     1       1.734  -0.694  -0.066  1.00  0.00     0.067 A 
HETATM    3  C12 UNL     1       0.392  -0.747  -0.500  1.00  0.00     0.072 A 
HETATM    4  C20 UNL     1       0.139  -0.507  -1.828  1.00  0.00     0.053 A 
HETATM    5  C21 UNL     1       1.195  -0.227  -2.668  1.00  0.00     0.091 A 
HETATM    6  N4  UNL     1       2.436  -0.190  -2.202  1.00  0.00    -0.365 N 
ATOM      7  H4  UNL     1       3.187   0.022  -2.859  1.00  0.00     0.165 HD
ENDROOT
BRANCH   1   8
HETATM    8  C9  UNL     1       4.138  -0.369  -0.438  1.00  0.00     0.025 A 
HETATM    9  C2  UNL     1       5.052  -1.395  -0.348  1.00  0.00     0.019 A 
HETATM   10  C1  UNL     1       4.822  -2.832  -0.740  1.00  0.00     0.069 C 
HETATM   11  N1  UNL     1       6.180  -0.864   0.156  1.00  0.00    -0.358 N 
HETATM   12  C3  UNL     1       6.059   0.443   0.399  1.00  0.00     0.046 A 
ATOM     13  H1  UNL     1       7.031  -1.399   0.332  1.00  0.00     0.166 HD
HETATM   14  C4  UNL     1       6.910   1.427   0.907  1.00  0.00     0.068 A 
HETATM   15  C8  UNL     1       4.768   0.765   0.026  1.00  0.00     0.006 A 
HETATM   16  C5  UNL     1       6.484   2.730   1.045  1.00  0.00     0.085 A 
HETATM   17  C6  UNL     1       5.199   3.064   0.675  1.00  0.00     0.045 A 
HETATM   18 BR1  UNL     1       4.521   4.840   0.828  1.00  0.00    -0.048 Br
HETATM   19  C7  UNL     1       4.348   2.092   0.171  1.00  0.00     0.036 A 
BRANCH  16  20
HETATM   20  O1  UNL     1       7.307   3.734   1.547  1.00  0.00    -0.359 OA
ATOM     21  H1  UNL     1       7.013   4.632   1.642  1.00  0.00     0.217 HD
ENDBRANCH  16  20
ENDBRANCH   1   8
BRANCH   3  22
HETATM   22  O2  UNL     1      -0.595  -1.031   0.380  1.00  0.00    -0.349 OA
BRANCH  22  23
HETATM   23  C13 UNL     1      -1.952  -1.134   0.320  1.00  0.00     0.206 C 
BRANCH  23  24
HETATM   24  C14 UNL     1      -2.655   0.136  -0.012  1.00  0.00     0.299 C 
BRANCH  24  25
HETATM   25  N2  UNL     1      -4.096  -0.016  -0.077  1.00  0.00     0.093 N 
HETATM   26  C15 UNL     1      -4.706  -0.285   1.190  1.00  0.00     0.302 C 
HETATM   27  C16 UNL     1      -6.204  -0.383   0.998  1.00  0.00     0.302 C 
HETATM   28  N3  UNL     1      -6.631  -0.057  -0.329  1.00  0.00     0.087 N 
HETATM   29  C17 UNL     1      -6.696   1.375  -0.515  1.00  0.00     0.310 C 
HETATM   30  C18 UNL     1      -5.943  -0.738  -1.381  1.00  0.00     0.302 C 
HETATM   31  C19 UNL     1      -4.502  -1.055  -1.007  1.00  0.00     0.302 C 
ENDBRANCH  24  25
ENDBRANCH  23  24
ENDBRANCH  22  23
ENDBRANCH   3  22
TORSDOF 6
