REMARK  7 active torsions:
REMARK  status: ('A' for Active; 'I' for Inactive)
REMARK    1  A    between atoms: C2_2  and  C3_3 
REMARK    2  A    between atoms: C6_6  and  N1_7 
REMARK    3  A    between atoms: N1_7  and  C7_9 
REMARK    4  A    between atoms: C8_12  and  N3_13 
REMARK    5  A    between atoms: N3_13  and  C9_15 
REMARK    6  A    between atoms: C10_18  and  C11_19 
REMARK    7  A    between atoms: C18_31  and  O1_32 
ROOT
HETATM    1  C7  UNL     1       0.459  -2.754  -0.263  1.00  0.00     0.684 A 
HETATM    2  N2  UNL     1      -0.047  -1.655  -0.815  1.00  0.00    -0.174 N 
ATOM      3  H2  UNL     1       0.449  -0.771  -0.704  1.00  0.00     0.186 HD
HETATM    4  C8  UNL     1      -1.198  -1.676  -1.518  1.00  0.00     0.155 A 
HETATM    5  C16 UNL     1      -1.889  -2.868  -1.682  1.00  0.00     0.072 A 
HETATM    6 BR1  UNL     1      -3.493  -2.837  -2.674  1.00  0.00    -0.046 Br
HETATM    7  C17 UNL     1      -1.359  -3.998  -1.108  1.00  0.00     0.129 A 
HETATM    8  N6  UNL     1      -0.210  -3.910  -0.421  1.00  0.00    -0.200 N 
ATOM      9  H6  UNL     1       0.173  -4.757  -0.000  1.00  0.00     0.183 HD
ENDROOT
BRANCH   4  10
HETATM   10  N3  UNL     1      -1.667  -0.477  -2.068  1.00  0.00    -0.174 N 
ATOM     11  H3  UNL     1      -1.341  -0.206  -2.996  1.00  0.00     0.186 HD
BRANCH  10  12
HETATM   12  C9  UNL     1      -2.505   0.312  -1.444  1.00  0.00     0.684 A 
HETATM   13  N4  UNL     1      -2.971   0.014  -0.222  1.00  0.00    -0.195 N 
HETATM   14  C10 UNL     1      -3.832   0.810   0.435  1.00  0.00     0.028 A 
ATOM     15  H4  UNL     1      -2.660  -0.849   0.225  1.00  0.00     0.184 HD
HETATM   16  C13 UNL     1      -4.241   1.961  -0.170  1.00  0.00     0.050 A 
HETATM   17  C14 UNL     1      -3.785   2.310  -1.434  1.00  0.00     0.024 A 
HETATM   18  C15 UNL     1      -4.223   3.566  -2.112  1.00  0.00     0.068 C 
HETATM   19  N5  UNL     1      -2.927   1.454  -2.016  1.00  0.00    -0.196 N 
ATOM     20  H5  UNL     1      -2.576   1.684  -2.946  1.00  0.00     0.184 HD
BRANCH  14  21
HETATM   21  C11 UNL     1      -4.267   0.367   1.775  1.00  0.00     0.053 C 
HETATM   22  C12 UNL     1      -5.234   1.340   2.414  1.00  0.00     0.011 C 
ENDBRANCH  14  21
ENDBRANCH  10  12
ENDBRANCH   4  10
BRANCH   1  23
HETATM   23  N1  UNL     1       1.560  -2.748   0.412  1.00  0.00    -0.189 N 
ATOM     24  H1  UNL     1       1.915  -3.613   0.820  1.00  0.00     0.184 HD
BRANCH  23  25
HETATM   25  C6  UNL     1       2.279  -1.526   0.586  1.00  0.00     0.082 A 
HETATM   26  C5  UNL     1       1.689  -0.387   1.098  1.00  0.00     0.033 A 
HETATM   27  C4  UNL     1       2.458   0.742   1.230  1.00  0.00     0.009 A 
HETATM   28  C3  UNL     1       3.787   0.781   0.874  1.00  0.00    -0.056 A 
HETATM   29  C20 UNL     1       4.368  -0.357   0.365  1.00  0.00     0.046 A 
HETATM   30  C18 UNL     1       3.620  -1.517   0.217  1.00  0.00     0.096 A 
BRANCH  28  31
HETATM   31  C2  UNL     1       4.564   2.058   1.049  1.00  0.00     0.034 C 
HETATM   32  C1  UNL     1       5.165   2.026   2.441  1.00  0.00     0.010 C 
ENDBRANCH  28  31
BRANCH  30  33
HETATM   33  O1  UNL     1       4.194  -2.677  -0.296  1.00  0.00    -0.354 OA
HETATM   34  C19 UNL     1       5.560  -2.654  -0.668  1.00  0.00     0.210 C 
ENDBRANCH  30  33
ENDBRANCH  23  25
ENDBRANCH   1  23
TORSDOF 7
