REMARK  8 active torsions:
REMARK  status: ('A' for Active; 'I' for Inactive)
REMARK    1  A    between atoms: C3_3  and  C4_4 
REMARK    2  A    between atoms: C5_5  and  C6_6 
REMARK    3  A    between atoms: C6_6  and  N1_7 
REMARK    4  A    between atoms: N1_7  and  C7_10 
REMARK    5  A    between atoms: C7_10  and  C8_11 
REMARK    6  A    between atoms: C8_11  and  O1_12 
REMARK    7  A    between atoms: C12_21  and  N4_22 
REMARK    8  A    between atoms: N4_22  and  C13_24 
ROOT
HETATM    1  C1  UNL     1       0.468  -1.607   2.659  1.00  0.00     0.112 C 
HETATM    2  C2  UNL     1       0.482  -0.963   1.363  1.00  0.00    -0.105 C 
HETATM    3  C3  UNL     1       0.486  -0.469   0.265  1.00  0.00    -0.065 C 
ENDROOT
BRANCH   3   4
HETATM    4  C4  UNL     1       0.448   0.086  -1.105  1.00  0.00     0.049 A 
HETATM    5  C5  UNL     1       1.585   0.407  -1.728  1.00  0.00     0.030 A 
HETATM    6  S1  UNL     1       1.046   0.949  -3.280  1.00  0.00    -0.073 SA
HETATM    7  C10 UNL     1      -0.634   0.741  -3.056  1.00  0.00     0.091 A 
HETATM    8  N2  UNL     1      -1.722   1.038  -3.848  1.00  0.00    -0.346 N 
HETATM    9  C20 UNL     1      -0.721   0.259  -1.783  1.00  0.00     0.062 A 
HETATM   10  C11 UNL     1      -2.971   0.866  -3.377  1.00  0.00     0.182 A 
ATOM     11  H2  UNL     1      -1.580   1.390  -4.795  1.00  0.00     0.167 HD
HETATM   12  N3  UNL     1      -3.068   0.412  -2.135  1.00  0.00    -0.338 N 
HETATM   13  C12 UNL     1      -2.051   0.099  -1.314  1.00  0.00     0.121 A 
ATOM     14  H3  UNL     1      -4.010   0.288  -1.765  1.00  0.00     0.168 HD
BRANCH   5  15
HETATM   15  C6  UNL     1       3.048   0.370  -1.402  1.00  0.00     0.280 C 
BRANCH  15  16
HETATM   16  N1  UNL     1       3.318   1.250  -0.294  1.00  0.00    -0.069 N 
ATOM     17  H12 UNL     1       2.698   2.060  -0.325  1.00  0.00     0.277 HD
ATOM     18  H11 UNL     1       3.008   0.825   0.580  1.00  0.00     0.277 HD
BRANCH  16  19
HETATM   19  C7  UNL     1       4.646   1.660  -0.189  1.00  0.00     0.258 C 
BRANCH  19  20
HETATM   20  C8  UNL     1       5.795   0.765   0.048  1.00  0.00     0.194 C 
BRANCH  20  21
HETATM   21  O1  UNL     1       5.809  -0.002   1.179  1.00  0.00    -0.394 OA
HETATM   22  C9  UNL     1       6.990  -0.714   1.314  1.00  0.00     0.201 C 
ENDBRANCH  20  21
ENDBRANCH  19  20
ENDBRANCH  16  19
ENDBRANCH  15  16
ENDBRANCH   5  15
BRANCH  13  23
HETATM   23  N4  UNL     1      -2.258  -0.105  -0.052  1.00  0.00    -0.341 N 
ATOM     24  H4  UNL     1      -1.496  -0.357   0.577  1.00  0.00     0.167 HD
BRANCH  23  25
HETATM   25  C13 UNL     1      -3.580   0.035   0.416  1.00  0.00     0.039 A 
HETATM   26  C14 UNL     1      -4.113   1.329   0.572  1.00  0.00     0.031 A 
HETATM   27  C15 UNL     1      -5.381   1.552   1.011  1.00  0.00     0.021 A 
HETATM   28  C16 UNL     1      -6.203   0.492   1.325  1.00  0.00     0.011 A 
HETATM   29 BR1  UNL     1      -8.013   0.757   1.936  1.00  0.00    -0.051 Br
HETATM   30  C17 UNL     1      -5.699  -0.793   1.179  1.00  0.00     0.028 A 
HETATM   31  C18 UNL     1      -4.382  -1.014   0.721  1.00  0.00    -0.034 A 
HETATM   32  C19 UNL     1      -3.935  -2.405   0.593  1.00  0.00     0.050 C 
ENDBRANCH  23  25
ENDBRANCH  13  23
ENDBRANCH   3   4
TORSDOF 8
