REMARK  6 active torsions:
REMARK  status: ('A' for Active; 'I' for Inactive)
REMARK    1  A    between atoms: O1_2  and  C2_3 
REMARK    2  A    between atoms: C5_7  and  C6_8 
REMARK    3  A    between atoms: C14_19  and  C15_20 
REMARK    4  A    between atoms: C15_20  and  C16_21 
REMARK    5  A    between atoms: C16_21  and  O3_22 
REMARK    6  A    between atoms: C20_28  and  O4_29 
ROOT
HETATM    1  C6  UNL     1      -0.705   0.530   0.495  1.00  0.00     0.022 C 
HETATM    2  C7  UNL     1       0.065  -0.301  -0.130  1.00  0.00    -0.030 C 
HETATM    3  C8  UNL     1      -0.362  -1.233  -1.210  1.00  0.00     0.041 C 
HETATM    4  C9  UNL     1       0.759  -1.716  -2.058  1.00  0.00     0.009 C 
HETATM    5  C10 UNL     1       1.893  -0.730  -2.097  1.00  0.00     0.043 C 
HETATM    6  C11 UNL     1       2.432  -0.565  -0.741  1.00  0.00    -0.009 A 
HETATM    7  C12 UNL     1       1.492  -0.327   0.265  1.00  0.00     0.049 A 
HETATM    8  N1  UNL     1       1.893  -0.145   1.526  1.00  0.00    -0.322 N 
ATOM      9  H1  UNL     1       1.196   0.029   2.250  1.00  0.00     0.169 HD
HETATM   10  C13 UNL     1       3.191  -0.186   1.862  1.00  0.00     0.253 A 
HETATM   11  O2  UNL     1       3.616  -0.020   3.037  1.00  0.00    -0.268 OA
HETATM   12  C14 UNL     1       4.144  -0.426   0.863  1.00  0.00     0.033 A 
HETATM   13  C17 UNL     1       3.776  -0.620  -0.462  1.00  0.00     0.065 A 
HETATM   14  C18 UNL     1       4.739  -0.865  -1.495  1.00  0.00     0.101 C 
HETATM   15  N2  UNL     1       5.507  -1.047  -2.310  1.00  0.00    -0.191 NA
ENDROOT
BRANCH  12  16
HETATM   16  C15 UNL     1       5.587  -0.485   1.165  1.00  0.00     0.072 C 
BRANCH  16  17
HETATM   17  C16 UNL     1       6.176   0.899   1.357  1.00  0.00     0.169 C 
BRANCH  17  18
HETATM   18  O3  UNL     1       7.543   0.816   1.641  1.00  0.00    -0.401 OA
ATOM     19  H3  UNL     1       7.912   1.683   1.761  1.00  0.00     0.209 HD
ENDBRANCH  17  18
ENDBRANCH  16  17
ENDBRANCH  12  16
BRANCH   1  20
HETATM   20  C5  UNL     1      -2.141   0.686   0.226  1.00  0.00    -0.015 A 
HETATM   21  C4  UNL     1      -2.553   1.444  -0.842  1.00  0.00     0.024 A 
HETATM   22  C3  UNL     1      -3.911   1.556  -1.104  1.00  0.00     0.059 A 
HETATM   23 BR1  UNL     1      -1.269   2.371  -1.925  1.00  0.00    -0.050 Br
HETATM   24  C2  UNL     1      -4.831   0.924  -0.313  1.00  0.00     0.102 A 
HETATM   25  C20 UNL     1      -4.431   0.143   0.787  1.00  0.00     0.102 A 
HETATM   26  C19 UNL     1      -3.083   0.050   1.022  1.00  0.00     0.052 A 
BRANCH  24  27
HETATM   27  O1  UNL     1      -6.196   0.977  -0.494  1.00  0.00    -0.353 OA
HETATM   28  C1  UNL     1      -6.794   1.696  -1.522  1.00  0.00     0.210 C 
ENDBRANCH  24  27
BRANCH  25  29
HETATM   29  O4  UNL     1      -5.378  -0.492   1.578  1.00  0.00    -0.353 OA
HETATM   30  C21 UNL     1      -4.919  -1.266   2.663  1.00  0.00     0.210 C 
ENDBRANCH  25  29
ENDBRANCH   1  20
TORSDOF 6
