REMARK  10 active torsions:
REMARK  status: ('A' for Active; 'I' for Inactive)
REMARK    1  A    between atoms: N1_1  and  C1_5 
REMARK    2  A    between atoms: C1_5  and  C2_6 
REMARK    3  A    between atoms: C2_6  and  N2_7 
REMARK    4  A    between atoms: N2_7  and  C3_9 
REMARK    5  A    between atoms: C6_14  and  N4_15 
REMARK    6  A    between atoms: N4_15  and  C7_17 
REMARK    7  A    between atoms: C7_17  and  C8_18 
REMARK       I    between atoms: C8_18  and  N5_20 
REMARK    8  A    between atoms: N5_20  and  C9_22 
REMARK    9  A    between atoms: C9_22  and  C10_23 
REMARK   10  A    between atoms: C10_23  and  C11_24 
ROOT
HETATM    1  C3  UNL     1       4.333   1.116   0.142  1.00  0.00     0.679 A 
HETATM    2  N3  UNL     1       4.149  -0.026   0.808  1.00  0.00    -0.202 N 
ATOM      3  H3  UNL     1       4.916  -0.697   0.859  1.00  0.00     0.183 HD
HETATM    4  C4  UNL     1       2.973  -0.324   1.420  1.00  0.00     0.110 A 
HETATM    5  C5  UNL     1       1.967   0.610   1.325  1.00  0.00     0.066 A 
HETATM    6  C6  UNL     1       2.126   1.797   0.645  1.00  0.00     0.118 A 
HETATM    7  N6  UNL     1       3.318   2.029   0.061  1.00  0.00    -0.177 N 
ATOM      8  H6  UNL     1       3.466   2.900  -0.450  1.00  0.00     0.185 HD
ENDROOT
BRANCH   6   9
HETATM    9  N4  UNL     1       1.167   2.648   0.575  1.00  0.00    -0.367 N 
ATOM     10  H4  UNL     1       1.320   3.518   0.064  1.00  0.00     0.161 HD
BRANCH   9  11
HETATM   11  C7  UNL     1      -0.112   2.423   1.188  1.00  0.00     0.224 C 
BRANCH  11  12
HETATM   12  C8  UNL     1      -0.953   1.476   0.413  1.00  0.00     0.235 C 
HETATM   13  O1  UNL     1      -0.544   0.958  -0.654  1.00  0.00    -0.272 OA
HETATM   14  N5  UNL     1      -2.249   1.140   0.874  1.00  0.00    -0.359 N 
ATOM     15  H5  UNL     1      -2.591   1.556   1.740  1.00  0.00     0.162 HD
BRANCH  14  16
HETATM   16  C9  UNL     1      -3.101   0.223   0.149  1.00  0.00     0.127 C 
BRANCH  16  17
HETATM   17  C10 UNL     1      -4.412   0.039   0.846  1.00  0.00     0.058 C 
BRANCH  17  18
HETATM   18  C11 UNL     1      -5.229  -0.903   0.061  1.00  0.00    -0.057 A 
HETATM   19  C12 UNL     1      -5.140  -2.250   0.328  1.00  0.00     0.007 A 
HETATM   20  C13 UNL     1      -5.862  -3.193  -0.352  1.00  0.00     0.001 A 
HETATM   21  C14 UNL     1      -6.721  -2.797  -1.350  1.00  0.00     0.000 A 
HETATM   22  C15 UNL     1      -6.836  -1.436  -1.647  1.00  0.00     0.001 A 
HETATM   23  C16 UNL     1      -6.086  -0.500  -0.935  1.00  0.00     0.007 A 
ENDBRANCH  17  18
ENDBRANCH  16  17
ENDBRANCH  14  16
ENDBRANCH  11  12
ENDBRANCH   9  11
ENDBRANCH   6   9
BRANCH   1  24
HETATM   24  N2  UNL     1       5.424   1.417  -0.438  1.00  0.00    -0.224 N 
ATOM     25  H2  UNL     1       5.469   2.314  -0.922  1.00  0.00     0.177 HD
BRANCH  24  26
HETATM   26  C2  UNL     1       6.575   0.605  -0.463  1.00  0.00     0.165 C 
BRANCH  26  27
HETATM   27  C1  UNL     1       6.756  -0.126  -1.798  1.00  0.00     0.249 C 
BRANCH  27  28
HETATM   28  N1  UNL     1       5.642  -0.976  -2.081  1.00  0.00    -0.078 N 
ATOM     29  H13 UNL     1       5.466  -1.629  -1.318  1.00  0.00     0.274 HD
ATOM     30  H12 UNL     1       4.762  -0.461  -2.053  1.00  0.00     0.274 HD
ATOM     31  H11 UNL     1       5.762  -1.462  -2.969  1.00  0.00     0.274 HD
ENDBRANCH  27  28
ENDBRANCH  26  27
ENDBRANCH  24  26
ENDBRANCH   1  24
TORSDOF 10
