REMARK  3 active torsions:
REMARK  status: ('A' for Active; 'I' for Inactive)
REMARK    1  A    between atoms: C4_7  and  C5_8 
REMARK    2  A    between atoms: C5_8  and  C6_9 
REMARK    3  A    between atoms: C12_15  and  N2_16 
ROOT
HETATM    1  C1  UNL     1      -1.660   2.845  -0.439  1.00  0.00     0.048 C 
HETATM    2  C2  UNL     1      -1.658   1.500   0.310  1.00  0.00     0.149 C 
HETATM    3  C3  UNL     1      -2.570   1.569   1.453  1.00  0.00     0.048 C 
HETATM    4  N1  UNL     1      -0.268   1.238   0.753  1.00  0.00    -0.059 N 
ATOM      5  H11 UNL     1      -0.069   0.786   1.645  1.00  0.00     0.278 HD
ATOM      6  H12 UNL     1       0.354   1.996   1.035  1.00  0.00     0.278 HD
HETATM    7  C4  UNL     1      -0.095   0.552  -0.487  1.00  0.00     0.220 C 
HETATM    8  C12 UNL     1      -1.567   0.347  -0.584  1.00  0.00     0.254 C 
ENDROOT
BRANCH   7   9
HETATM    9  C5  UNL     1       0.824  -0.556  -0.543  1.00  0.00     0.040 C 
BRANCH   9  10
HETATM   10  C6  UNL     1       2.261  -0.279  -0.221  1.00  0.00    -0.009 C 
HETATM   11  C7  UNL     1       3.063  -1.607  -0.409  1.00  0.00     0.031 C 
HETATM   12  C8  UNL     1       4.488  -1.178  -0.458  1.00  0.00    -0.030 C 
HETATM   13  C9  UNL     1       4.916  -0.142   0.263  1.00  0.00    -0.031 C 
HETATM   14  C10 UNL     1       4.041   0.643   1.143  1.00  0.00     0.027 C 
HETATM   15  C11 UNL     1       2.596   0.118   1.171  1.00  0.00     0.009 C 
ENDBRANCH   9  10
ENDBRANCH   7   9
BRANCH   8  16
HETATM   16  N2  UNL     1      -2.192  -0.874  -0.290  1.00  0.00    -0.070 N 
HETATM   17  C13 UNL     1      -1.840  -1.834  -1.353  1.00  0.00     0.272 C 
HETATM   18  C14 UNL     1      -2.001  -1.507   0.952  1.00  0.00     0.272 C 
HETATM   19  C15 UNL     1      -3.641  -0.651  -0.471  1.00  0.00     0.272 C 
ENDBRANCH   8  16
TORSDOF 3
