REMARK  3 active torsions:
REMARK  status: ('A' for Active; 'I' for Inactive)
REMARK    1  A    between atoms: C4_4  and  C5_5 
REMARK    2  A    between atoms: C5_5  and  C7_7 
REMARK    3  A    between atoms: C7_7  and  N1_8 
ROOT
HETATM    1  C1  UNL     1       8.240  -0.241   0.471  1.00  0.00     0.027 C 
HETATM    2  C2  UNL     1       7.048  -0.064   0.391  1.00  0.00    -0.026 C 
HETATM    3  C3  UNL     1       5.638   0.128   0.315  1.00  0.00    -0.011 C 
HETATM    4  C4  UNL     1       4.438   0.275   0.243  1.00  0.00    -0.056 C 
ENDROOT
BRANCH   4   5
HETATM    5  C5  UNL     1       3.014   0.430   0.142  1.00  0.00     0.005 C 
HETATM    6  C6  UNL     1       2.366   1.446   0.673  1.00  0.00     0.030 C 
BRANCH   5   7
HETATM    7  C7  UNL     1       2.263  -0.611  -0.596  1.00  0.00     0.174 C 
BRANCH   7   8
HETATM    8  N1  UNL     1       0.840  -0.343  -0.626  1.00  0.00    -0.359 N 
HETATM    9  C8  UNL     1       0.272   0.383  -1.614  1.00  0.00     0.092 A 
HETATM   10  C9  UNL     1      -1.083   0.595  -1.575  1.00  0.00     0.031 A 
HETATM   11  C10 UNL     1      -1.861   0.093  -0.573  1.00  0.00     0.001 A 
HETATM   12  C11 UNL     1      -3.209   0.165  -0.316  1.00  0.00    -0.027 A 
HETATM   13  C15 UNL     1      -1.270  -0.656   0.444  1.00  0.00     0.059 A 
HETATM   14  C12 UNL     1      -4.213   0.874  -1.157  1.00  0.00     0.051 C 
HETATM   15  C13 UNL     1      -3.430  -0.531   0.840  1.00  0.00     0.012 A 
HETATM   16  C14 UNL     1      -4.727  -0.742   1.527  1.00  0.00     0.068 C 
HETATM   17  N2  UNL     1      -2.250  -1.023   1.290  1.00  0.00    -0.358 N 
ATOM     18  H2  UNL     1      -2.125  -1.582   2.134  1.00  0.00     0.166 HD
HETATM   19  C16 UNL     1       0.086  -0.843   0.366  1.00  0.00     0.121 A 
ENDBRANCH   7   8
ENDBRANCH   5   7
ENDBRANCH   4   5
TORSDOF 3
