REMARK  8 active torsions:
REMARK  status: ('A' for Active; 'I' for Inactive)
REMARK    1  A    between atoms: C2_2  and  N1_3 
REMARK    2  A    between atoms: C2_2  and  C3_7 
REMARK       I    between atoms: C3_7  and  N2_9 
REMARK    3  A    between atoms: N2_9  and  N3_11 
REMARK    4  A    between atoms: C4_12  and  S1_13 
REMARK    5  A    between atoms: C5_19  and  N5_20 
REMARK       I    between atoms: N5_20  and  C6_22 
REMARK       I    between atoms: C6_22  and  N6_23 
REMARK       I    between atoms: C6_22  and  N7_27 
REMARK    6  A    between atoms: N7_27  and  N8_28 
REMARK    7  A    between atoms: C7_33  and  N10_34 
REMARK    8  A    between atoms: N10_34  and  N11_36 
ROOT
HETATM    1  N3  UNL     1      -0.611  -0.203   0.442  1.00  0.00    -0.051 N 
HETATM    2  C4  UNL     1       0.048  -1.342   0.612  1.00  0.00     0.277 A 
HETATM    3  N4  UNL     1       1.312  -1.500   0.081  1.00  0.00    -0.161 N 
ATOM      4  H4  UNL     1       1.791  -2.388   0.228  1.00  0.00     0.186 HD
HETATM    5  C5  UNL     1       1.938  -0.552  -0.613  1.00  0.00     0.697 A 
HETATM    6  N9  UNL     1       1.295   0.604  -0.791  1.00  0.00    -0.019 N 
ATOM      7  H9  UNL     1       1.738   1.359  -1.314  1.00  0.00     0.203 HD
HETATM    8  C7  UNL     1       0.083   0.769  -0.289  1.00  0.00     0.734 A 
ENDROOT
BRANCH   5   9
HETATM    9  N5  UNL     1       3.110  -0.774  -1.077  1.00  0.00    -0.181 N 
HETATM   10  C6  UNL     1       3.957   0.074  -1.834  1.00  0.00     0.410 C 
HETATM   11  N6  UNL     1       4.368  -0.680  -3.034  1.00  0.00    -0.042 N 
HETATM   12  N7  UNL     1       5.233   0.322  -1.132  1.00  0.00    -0.093 NA
ATOM     13  H63 UNL     1       4.796  -1.579  -2.814  1.00  0.00     0.278 HD
ATOM     14  H62 UNL     1       3.578  -1.039  -3.571  1.00  0.00     0.278 HD
ATOM     15  H61 UNL     1       4.977  -0.070  -3.579  1.00  0.00     0.278 HD
ATOM     16  H5  UNL     1       3.491  -1.698  -0.872  1.00  0.00     0.181 HD
BRANCH  12  17
HETATM   17  N8  UNL     1       4.901   0.928   0.081  1.00  0.00    -0.345 N 
ATOM     18  H82 UNL     1       3.959   1.149   0.404  1.00  0.00     0.172 HD
ATOM     19  H81 UNL     1       5.782   1.099   0.566  1.00  0.00     0.172 HD
ENDBRANCH  12  17
ENDBRANCH   5   9
BRANCH   2  20
HETATM   20  S1  UNL     1      -0.533  -2.663   1.608  1.00  0.00     0.175 S 
HETATM   21  O2  UNL     1       0.769  -3.335   2.160  1.00  0.00    -0.589 OA
HETATM   22  O3  UNL     1      -1.202  -2.218   2.860  1.00  0.00    -0.589 OA
HETATM   23  O4  UNL     1      -1.290  -3.859   0.757  1.00  0.00    -0.589 OA
ENDBRANCH   2  20
BRANCH   8  24
HETATM   24  N10 UNL     1      -0.487   1.908  -0.501  1.00  0.00    -0.136 N 
ATOM     25  H10 UNL     1      -1.424   2.063  -0.129  1.00  0.00     0.205 HD
BRANCH  24  26
HETATM   26  N11 UNL     1       0.126   2.933  -1.217  1.00  0.00    -0.331 N 
ATOM     27 2H11 UNL     1       1.063   2.761  -1.582  1.00  0.00     0.177 HD
ATOM     28 1H11 UNL     1      -0.324   3.833  -1.384  1.00  0.00     0.177 HD
ENDBRANCH  24  26
ENDBRANCH   8  24
BRANCH   1  29
HETATM   29  N2  UNL     1      -1.904   0.110   0.727  1.00  0.00    -0.245 N 
HETATM   30  C3  UNL     1      -3.137  -0.464   0.894  1.00  0.00     0.267 C 
HETATM   31  O1  UNL     1      -3.414  -1.660   0.772  1.00  0.00    -0.269 OA
ATOM     32  H2  UNL     1      -1.982   1.118   0.863  1.00  0.00     0.191 HD
BRANCH  30  33
HETATM   33  C2  UNL     1      -4.346   0.381   1.268  1.00  0.00     0.272 C 
HETATM   34  C1  UNL     1      -4.061   1.247   2.442  1.00  0.00     0.050 C 
BRANCH  33  35
HETATM   35  N1  UNL     1      -5.473  -0.466   1.374  1.00  0.00    -0.067 N 
ATOM     36  H13 UNL     1      -5.395  -1.039   2.214  1.00  0.00     0.275 HD
ATOM     37  H12 UNL     1      -6.299   0.087   1.603  1.00  0.00     0.275 HD
ATOM     38  H11 UNL     1      -5.669  -1.060   0.568  1.00  0.00     0.275 HD
ENDBRANCH  33  35
ENDBRANCH  30  33
ENDBRANCH   1  29
TORSDOF 8
