REMARK  2 active torsions:
REMARK  status: ('A' for Active; 'I' for Inactive)
REMARK       I    between atoms: N1_4  and  C4_6 
REMARK       I    between atoms: C4_6  and  N3_11 
REMARK    1  A    between atoms: N2_7  and  C5_9 
REMARK    2  A    between atoms: N3_11  and  N4_13 
ROOT
HETATM    1  C1  UNL     1       4.255  -1.195   1.006  1.00  0.00     0.018 C 
HETATM    2  C2  UNL     1       3.272  -0.539   0.733  1.00  0.00    -0.072 C 
HETATM    3  C3  UNL     1       2.118   0.232   0.389  1.00  0.00     0.170 C 
HETATM    4  N1  UNL     1       1.162  -0.252  -0.323  1.00  0.00    -0.193 N 
ATOM      5  H1  UNL     1       1.219  -1.214  -0.657  1.00  0.00     0.184 HD
HETATM    6  C4  UNL     1       0.040   0.531  -0.645  1.00  0.00     0.692 C 
HETATM    7  N2  UNL     1      -1.152   0.105  -0.776  1.00  0.00    -0.225 N 
ATOM      8  H2  UNL     1      -1.861   0.799  -1.013  1.00  0.00     0.177 HD
HETATM    9  N3  UNL     1       0.270   1.927  -0.840  1.00  0.00    -0.139 N 
ATOM     10  H3  UNL     1       1.107   2.268  -1.313  1.00  0.00     0.205 HD
ENDROOT
BRANCH   7  11
HETATM   11  C5  UNL     1      -1.600  -1.242  -0.626  1.00  0.00     0.134 C 
HETATM   12  C6  UNL     1      -2.433  -1.455   0.620  1.00  0.00     0.027 C 
ENDBRANCH   7  11
BRANCH   9  13
HETATM   13  N4  UNL     1      -0.700   2.803  -0.356  1.00  0.00    -0.331 N 
ATOM     14  H42 UNL     1      -1.532   2.447   0.115  1.00  0.00     0.177 HD
ATOM     15  H41 UNL     1      -0.536   3.800  -0.495  1.00  0.00     0.177 HD
ENDBRANCH   9  13
TORSDOF 2
