REMARK  3 active torsions:
REMARK  status: ('A' for Active; 'I' for Inactive)
REMARK    1  A    between atoms: C2_2  and  C3_3 
REMARK    2  A    between atoms: C3_3  and  S1_4 
REMARK    3  A    between atoms: S1_4  and  N1_7 
ROOT
HETATM    1  N1  UNL     1       0.881  -1.287  -0.394  1.00  0.00    -0.241 N 
HETATM    2  C4  UNL     1       0.366  -2.634  -0.487  1.00  0.00     0.150 C 
HETATM    3  C5  UNL     1      -0.915  -2.834   0.231  1.00  0.00     0.079 C 
HETATM    4  C6  UNL     1      -1.834  -1.694   0.120  1.00  0.00     0.028 A 
HETATM    5  N2  UNL     1      -3.191  -1.612   0.300  1.00  0.00    -0.353 N 
ATOM      6  H2  UNL     1      -3.796  -2.396   0.544  1.00  0.00     0.166 HD
HETATM    7  C7  UNL     1      -3.607  -0.357   0.109  1.00  0.00     0.116 A 
HETATM    8  C8  UNL     1      -2.541   0.436  -0.204  1.00  0.00    -0.005 A 
HETATM    9  C9  UNL     1      -1.440  -0.427  -0.191  1.00  0.00     0.064 A 
HETATM   10  C10 UNL     1      -0.024  -0.173  -0.466  1.00  0.00     0.269 C 
HETATM   11  O3  UNL     1       0.347   0.986  -0.750  1.00  0.00    -0.266 OA
HETATM   12  C11 UNL     1      -2.624   1.890  -0.484  1.00  0.00     0.069 C 
HETATM   13  C12 UNL     1      -4.008   2.184  -1.020  1.00  0.00     0.183 C 
HETATM   14  O4  UNL     1      -4.943   1.660  -0.101  1.00  0.00    -0.316 OA
HETATM   15  C13 UNL     1      -4.916   0.310   0.165  1.00  0.00     0.310 C 
HETATM   16  O5  UNL     1      -5.953  -0.356   0.449  1.00  0.00    -0.258 OA
ENDROOT
BRANCH   1  17
HETATM   17  S1  UNL     1       2.561  -1.044  -0.200  1.00  0.00     0.235 S 
HETATM   18  O1  UNL     1       3.327  -1.681  -1.351  1.00  0.00    -0.205 OA
HETATM   19  O2  UNL     1       3.061  -1.764   1.043  1.00  0.00    -0.205 OA
BRANCH  17  20
HETATM   20  C3  UNL     1       3.001   0.654  -0.057  1.00  0.00     0.163 C 
BRANCH  20  21
HETATM   21  C2  UNL     1       4.513   0.775   0.116  1.00  0.00     0.012 C 
HETATM   22  C1  UNL     1       4.960   2.197   0.244  1.00  0.00     0.006 C 
ENDBRANCH  20  21
ENDBRANCH  17  20
ENDBRANCH   1  17
TORSDOF 3
