REMARK  4 active torsions:
REMARK  status: ('A' for Active; 'I' for Inactive)
REMARK       I    between atoms: C2_4  and  N2_5 
REMARK       I    between atoms: C2_4  and  N4_15 
REMARK    1  A    between atoms: N3_8  and  C5_9 
REMARK    2  A    between atoms: C5_9  and  C6_10 
REMARK    3  A    between atoms: C6_10  and  O1_11 
REMARK    4  A    between atoms: C14_21  and  C15_22 
ROOT
HETATM    1  C15 UNL     1      -1.487   2.359   1.233  1.00  0.00     0.149 C 
HETATM    2  C16 UNL     1      -0.819   2.801   0.015  1.00  0.00     0.061 C 
HETATM    3  N5  UNL     1      -0.281   3.135  -0.943  1.00  0.00    -0.197 NA
ENDROOT
BRANCH   1   4
HETATM    4  C14 UNL     1      -2.438   1.203   0.937  1.00  0.00     0.116 C 
HETATM    5  N4  UNL     1      -1.769   0.070   0.402  1.00  0.00    -0.212 N 
HETATM    6  C2  UNL     1      -0.707  -0.689   0.952  1.00  0.00     0.674 C 
HETATM    7  C9  UNL     1      -2.346  -0.266  -0.875  1.00  0.00     0.150 C 
HETATM    8  N1  UNL     1      -0.966  -1.509   1.935  1.00  0.00    -0.231 N 
HETATM    9  N2  UNL     1       0.650  -0.648   0.522  1.00  0.00    -0.215 N 
HETATM   10  C1  UNL     1       0.004  -2.335   2.577  1.00  0.00     0.165 C 
ATOM     11  H1  UNL     1      -1.929  -1.563   2.267  1.00  0.00     0.177 HD
HETATM   12  C3  UNL     1       1.099  -1.284  -0.689  1.00  0.00     0.171 C 
HETATM   13  C8  UNL     1       1.557   0.080   1.386  1.00  0.00     0.171 C 
HETATM   14  C4  UNL     1       2.544  -1.731  -0.651  1.00  0.00     0.293 C 
HETATM   15  N3  UNL     1       3.277  -0.620  -0.054  1.00  0.00     0.093 N 
HETATM   16  C7  UNL     1       2.986  -0.488   1.327  1.00  0.00     0.293 C 
HETATM   17  C10 UNL     1      -3.698   0.420  -0.897  1.00  0.00    -0.029 C 
HETATM   18  C11 UNL     1      -4.750  -0.378  -0.160  1.00  0.00     0.016 C 
HETATM   19  C12 UNL     1      -4.197   0.709  -2.280  1.00  0.00     0.016 C 
HETATM   20  C13 UNL     1      -3.416   1.661  -0.103  1.00  0.00     0.037 C 
BRANCH  15  21
HETATM   21  C5  UNL     1       4.610  -0.531  -0.490  1.00  0.00     0.298 C 
BRANCH  21  22
HETATM   22  C6  UNL     1       5.278   0.703   0.057  1.00  0.00     0.194 C 
BRANCH  22  23
HETATM   23  O1  UNL     1       6.611   0.788  -0.412  1.00  0.00    -0.399 OA
ATOM     24  H1  UNL     1       7.032   1.566  -0.067  1.00  0.00     0.209 HD
ENDBRANCH  22  23
ENDBRANCH  21  22
ENDBRANCH  15  21
ENDBRANCH   1   4
TORSDOF 4
