REMARK  6 active torsions:
REMARK  status: ('A' for Active; 'I' for Inactive)
REMARK    1  A    between atoms: C2_2  and  C4_4 
REMARK    2  A    between atoms: C4_4  and  C5_5 
REMARK    3  A    between atoms: C11_11  and  C12_12 
REMARK    4  A    between atoms: C12_12  and  C13_13 
REMARK    5  A    between atoms: C19_19  and  C20_20 
REMARK    6  A    between atoms: C20_20  and  O1_23 
ROOT
HETATM    1  C5  UNL     1      -2.540  -0.321   0.187  1.00  0.00     0.126 C 
HETATM    2  C6  UNL     1      -1.556  -0.741   1.219  1.00  0.00     0.038 C 
HETATM    3  C7  UNL     1      -0.441  -1.473   0.450  1.00  0.00     0.003 C 
HETATM    4  C8  UNL     1       0.134  -0.534  -0.590  1.00  0.00     0.026 C 
HETATM    5  C9  UNL     1       1.036   0.463   0.056  1.00  0.00     0.041 C 
HETATM    6  C10 UNL     1       2.111  -0.298   0.745  1.00  0.00    -0.083 C 
HETATM    7  C11 UNL     1       3.380  -0.270   0.461  1.00  0.00    -0.024 C 
HETATM    8  C15 UNL     1       1.602  -1.174   1.872  1.00  0.00     0.043 C 
HETATM    9  C16 UNL     1       0.543  -2.114   1.345  1.00  0.00    -0.040 C 
HETATM   10  C17 UNL     1       1.234  -3.245   0.585  1.00  0.00     0.015 C 
HETATM   11  C18 UNL     1      -0.163  -2.706   2.539  1.00  0.00     0.015 C 
HETATM   12  C19 UNL     1      -0.984   0.024  -1.389  1.00  0.00     0.160 C 
HETATM   13  O2  UNL     1      -1.945   0.677  -0.583  1.00  0.00    -0.377 OA
ENDROOT
BRANCH  12  14
HETATM   14  C20 UNL     1      -0.658   0.918  -2.516  1.00  0.00     0.077 C 
HETATM   15  C21 UNL     1      -1.986   1.255  -3.217  1.00  0.00     0.048 C 
HETATM   16  C22 UNL     1       0.212   0.306  -3.580  1.00  0.00     0.048 C 
BRANCH  14  17
HETATM   17  O1  UNL     1      -0.166   2.141  -2.073  1.00  0.00    -0.388 OA
ATOM     18  H1  UNL     1       0.044   2.717  -2.799  1.00  0.00     0.210 HD
ENDBRANCH  14  17
ENDBRANCH  12  14
BRANCH   1  19
HETATM   19  C4  UNL     1      -3.911  -0.026   0.621  1.00  0.00     0.065 C 
BRANCH  19  20
HETATM   20  C2  UNL     1      -4.165   1.036   1.569  1.00  0.00    -0.091 C 
HETATM   21  C1  UNL     1      -3.344   1.899   2.113  1.00  0.00     0.014 C 
HETATM   22  C3  UNL     1      -5.618   1.156   2.008  1.00  0.00     0.042 C 
ENDBRANCH  19  20
ENDBRANCH   1  19
BRANCH   7  23
HETATM   23  C12 UNL     1       4.036   0.513  -0.596  1.00  0.00     0.027 C 
BRANCH  23  24
HETATM   24  C13 UNL     1       5.034   1.439   0.119  1.00  0.00    -0.001 C 
HETATM   25  C14 UNL     1       5.774   2.297  -0.863  1.00  0.00     0.005 C 
ENDBRANCH  23  24
ENDBRANCH   7  23
TORSDOF 6
