REMARK  6 active torsions:
REMARK  status: ('A' for Active; 'I' for Inactive)
REMARK    1  A    between atoms: C2_2  and  C3_3 
REMARK    2  A    between atoms: C3_3  and  C4_5 
REMARK    3  A    between atoms: C4_5  and  C5_6 
REMARK    4  A    between atoms: C15_18  and  C17_20 
REMARK    5  A    between atoms: C17_20  and  C18_21 
REMARK    6  A    between atoms: C18_21  and  C19_22 
ROOT
HETATM    1  C5  UNL     1      -1.920  -0.029   0.444  1.00  0.00    -0.003 C 
HETATM    2  C6  UNL     1      -1.505   0.682  -0.766  1.00  0.00     0.008 C 
HETATM    3  C7  UNL     1      -0.065   1.096  -0.871  1.00  0.00     0.034 C 
HETATM    4  C8  UNL     1       0.836  -0.053  -0.858  1.00  0.00     0.060 A 
HETATM    5  N1  UNL     1       1.387  -0.754  -1.889  1.00  0.00    -0.398 N 
ATOM      6  H1  UNL     1       2.088  -0.854  -2.623  1.00  0.00     0.155 HD
HETATM    7  C9  UNL     1       0.225  -1.257  -1.158  1.00  0.00     0.057 A 
HETATM    8  C10 UNL     1      -0.574  -2.020  -2.078  1.00  0.00     0.041 C 
HETATM    9  C11 UNL     1       0.143  -1.503   0.305  1.00  0.00    -0.004 C 
HETATM   10  C12 UNL     1       0.429  -2.997   0.489  1.00  0.00     0.019 C 
HETATM   11  C13 UNL     1      -1.031  -1.037   1.045  1.00  0.00    -0.003 C 
HETATM   12  C14 UNL     1      -1.860  -2.242   1.541  1.00  0.00     0.011 C 
HETATM   13  C15 UNL     1       1.300  -0.560   0.502  1.00  0.00    -0.006 C 
HETATM   14  C16 UNL     1       2.650  -1.325   0.428  1.00  0.00     0.019 C 
ENDROOT
BRANCH  13  15
HETATM   15  C17 UNL     1       1.377   0.359   1.623  1.00  0.00     0.016 C 
BRANCH  15  16
HETATM   16  C18 UNL     1       2.329   1.497   1.510  1.00  0.00     0.028 C 
BRANCH  16  17
HETATM   17  C19 UNL     1       3.763   1.196   1.359  1.00  0.00    -0.025 C 
HETATM   18  C20 UNL     1       4.501   1.707   0.353  1.00  0.00    -0.091 C 
HETATM   19  C21 UNL     1       5.947   1.389   0.222  1.00  0.00     0.042 C 
HETATM   20  C22 UNL     1       3.883   2.599  -0.644  1.00  0.00     0.042 C 
ENDBRANCH  16  17
ENDBRANCH  15  16
ENDBRANCH  13  15
BRANCH   1  21
HETATM   21  C4  UNL     1      -3.317  -0.594   0.158  1.00  0.00     0.083 C 
BRANCH  21  22
HETATM   22  C3  UNL     1      -4.286   0.492  -0.154  1.00  0.00     0.127 C 
HETATM   23  O1  UNL     1      -4.350   0.987  -1.262  1.00  0.00    -0.298 OA
BRANCH  22  24
HETATM   24  C2  UNL     1      -5.229   1.038   0.859  1.00  0.00     0.074 C 
HETATM   25  C1  UNL     1      -6.100   2.117   0.311  1.00  0.00     0.013 C 
ENDBRANCH  22  24
ENDBRANCH  21  22
ENDBRANCH   1  21
TORSDOF 6
