REMARK  7 active torsions:
REMARK  status: ('A' for Active; 'I' for Inactive)
REMARK    1  A    between atoms: C2_2  and  C4_4 
REMARK    2  A    between atoms: C4_4  and  C5_5 
REMARK    3  A    between atoms: C5_5  and  C6_6 
REMARK    4  A    between atoms: C6_6  and  C7_7 
REMARK    5  A    between atoms: C7_7  and  C9_9 
REMARK    6  A    between atoms: C13_13  and  N1_15 
REMARK       I    between atoms: N1_15  and  C15_17 
REMARK    7  A    between atoms: C15_17  and  O2_19 
ROOT
HETATM    1  C9  UNL     1      -0.008   0.293   0.125  1.00  0.00     0.002 A 
HETATM    2  C10 UNL     1      -0.626   0.210  -1.222  1.00  0.00    -0.006 A 
HETATM    3  C11 UNL     1       0.203  -0.041  -2.429  1.00  0.00     0.011 C 
HETATM    4  C12 UNL     1      -1.483  -0.901  -0.732  1.00  0.00     0.026 A 
HETATM    5  C13 UNL     1      -2.962  -0.720  -0.634  1.00  0.00     0.036 C 
HETATM    6  C14 UNL     1      -3.587  -1.141  -1.943  1.00  0.00     0.039 C 
HETATM    7  C17 UNL     1      -3.541  -1.662   0.421  1.00  0.00     0.031 C 
HETATM    8  C18 UNL     1      -2.921  -1.457   1.758  1.00  0.00     0.003 C 
HETATM    9  C19 UNL     1      -1.659  -0.639   1.760  1.00  0.00     0.010 C 
HETATM   10  C20 UNL     1      -0.759  -0.882   0.579  1.00  0.00    -0.033 A 
HETATM   11  C21 UNL     1      -0.065  -2.197   0.788  1.00  0.00     0.016 C 
ENDROOT
BRANCH   1  12
HETATM   12  C7  UNL     1       1.446   0.446   0.317  1.00  0.00    -0.013 C 
HETATM   13  C8  UNL     1       1.726   0.891   1.733  1.00  0.00     0.010 C 
BRANCH  12  14
HETATM   14  C6  UNL     1       2.427  -0.499  -0.130  1.00  0.00     0.005 C 
BRANCH  14  15
HETATM   15  C5  UNL     1       3.827  -0.000  -0.213  1.00  0.00     0.005 C 
BRANCH  15  16
HETATM   16  C4  UNL     1       4.546   0.485   0.970  1.00  0.00     0.033 C 
BRANCH  16  17
HETATM   17  C2  UNL     1       5.944   0.850   0.480  1.00  0.00    -0.093 C 
HETATM   18  C1  UNL     1       6.432   2.077   0.583  1.00  0.00     0.014 C 
HETATM   19  C3  UNL     1       6.764  -0.209  -0.125  1.00  0.00     0.042 C 
ENDBRANCH  16  17
ENDBRANCH  15  16
ENDBRANCH  14  15
ENDBRANCH  12  14
ENDBRANCH   1  12
BRANCH   5  20
HETATM   20  N1  UNL     1      -3.416   0.601  -0.324  1.00  0.00    -0.328 N 
HETATM   21  C15 UNL     1      -4.761   1.039  -0.240  1.00  0.00     0.360 C 
HETATM   22  O1  UNL     1      -5.778   0.325  -0.432  1.00  0.00    -0.239 OA
ATOM     23  H1  UNL     1      -2.696   1.301  -0.145  1.00  0.00     0.165 HD
BRANCH  21  24
HETATM   24  O2  UNL     1      -5.076   2.378   0.082  1.00  0.00    -0.309 OA
HETATM   25  C16 UNL     1      -6.414   2.828   0.169  1.00  0.00     0.215 C 
ENDBRANCH  21  24
ENDBRANCH   5  20
TORSDOF 7
