REMARK  6 active torsions:
REMARK  status: ('A' for Active; 'I' for Inactive)
REMARK    1  A    between atoms: C2_2  and  C4_4 
REMARK    2  A    between atoms: C6_6  and  O1_7 
REMARK    3  A    between atoms: C9_12  and  C10_13 
REMARK    4  A    between atoms: C11_14  and  C12_15 
REMARK    5  A    between atoms: C16_19  and  C18_21 
REMARK    6  A    between atoms: C18_21  and  C19_22 
ROOT
HETATM    1  C4  UNL     1      -1.501  -1.757  -0.317  1.00  0.00     0.025 C 
HETATM    2  C5  UNL     1      -0.694  -2.081  -1.591  1.00  0.00     0.044 C 
HETATM    3  C6  UNL     1       0.630  -2.575  -1.145  1.00  0.00     0.153 C 
HETATM    4  C7  UNL     1       1.298  -1.846  -0.059  1.00  0.00     0.091 A 
HETATM    5  C8  UNL     1       2.133  -2.785   0.826  1.00  0.00     0.049 C 
HETATM    6  O2  UNL     1       2.182  -0.907  -0.595  1.00  0.00    -0.368 OA
HETATM    7  C9  UNL     1       1.573   0.144   0.133  1.00  0.00     0.153 A 
HETATM    8  C15 UNL     1       0.565  -0.815   0.661  1.00  0.00     0.064 A 
HETATM    9  C16 UNL     1      -0.887  -0.597   0.339  1.00  0.00    -0.024 C 
HETATM   10  C17 UNL     1      -1.563  -0.512   1.746  1.00  0.00     0.016 C 
ENDROOT
BRANCH   9  11
HETATM   11  C18 UNL     1      -1.033   0.753  -0.241  1.00  0.00     0.037 C 
BRANCH  11  12
HETATM   12  C19 UNL     1      -2.366   1.339  -0.357  1.00  0.00    -0.024 C 
HETATM   13  C20 UNL     1      -2.730   2.477   0.232  1.00  0.00    -0.091 C 
HETATM   14  C21 UNL     1      -4.094   3.029   0.084  1.00  0.00     0.042 C 
HETATM   15  C22 UNL     1      -1.723   3.199   1.044  1.00  0.00     0.042 C 
ENDBRANCH  11  12
ENDBRANCH   9  11
BRANCH   1  16
HETATM   16  C2  UNL     1      -2.921  -1.828  -0.570  1.00  0.00    -0.088 C 
HETATM   17  C1  UNL     1      -3.381  -1.951  -1.817  1.00  0.00     0.014 C 
HETATM   18  C3  UNL     1      -3.943  -1.807   0.496  1.00  0.00     0.043 C 
ENDBRANCH   1  16
BRANCH   7  19
HETATM   19  C10 UNL     1       2.612   0.593   1.131  1.00  0.00     0.005 C 
HETATM   20  C11 UNL     1       3.714   1.178   0.744  1.00  0.00    -0.002 C 
BRANCH  20  21
HETATM   21  C12 UNL     1       4.014   1.434  -0.656  1.00  0.00    -0.005 C 
HETATM   22  C13 UNL     1       5.129   2.026  -1.050  1.00  0.00    -0.031 C 
HETATM   23  C14 UNL     1       6.120   2.450  -0.045  1.00  0.00     0.036 C 
ENDBRANCH  20  21
ENDBRANCH   7  19
BRANCH   3  24
HETATM   24  O1  UNL     1       1.474  -2.671  -2.277  1.00  0.00    -0.393 OA
ATOM     25  H1  UNL     1       2.323  -2.988  -1.991  1.00  0.00     0.210 HD
ENDBRANCH   3  24
TORSDOF 6
