REMARK  0 active torsions:
REMARK  status: ('A' for Active; 'I' for Inactive)
ROOT
HETATM    1  O1  UNL     1      -3.986   2.098   1.127  1.00  0.00    -0.273 OA
HETATM    2  C1  UNL     1      -2.993   2.319   0.344  1.00  0.00     0.224 C 
HETATM    3  C2  UNL     1      -2.676   1.177  -0.553  1.00  0.00     0.103 C 
HETATM    4  C3  UNL     1      -2.374  -0.049   0.323  1.00  0.00     0.009 C 
HETATM    5  C4  UNL     1      -2.275  -1.222  -0.585  1.00  0.00     0.000 C 
HETATM    6  C5  UNL     1      -2.022  -2.530   0.065  1.00  0.00     0.000 C 
HETATM    7  C6  UNL     1      -0.953  -2.582   1.093  1.00  0.00     0.000 C 
HETATM    8  C7  UNL     1       0.307  -3.198   0.513  1.00  0.00     0.000 C 
HETATM    9  C8  UNL     1       0.878  -2.197  -0.469  1.00  0.00     0.000 C 
HETATM   10  C9  UNL     1       2.374  -2.266  -0.550  1.00  0.00     0.000 C 
HETATM   11  C10 UNL     1       3.117  -1.223   0.157  1.00  0.00     0.000 C 
HETATM   12  C11 UNL     1       2.442   0.084   0.393  1.00  0.00     0.004 C 
HETATM   13  C12 UNL     1       2.249   0.923  -0.832  1.00  0.00     0.031 C 
HETATM   14  C13 UNL     1       2.312   2.357  -0.445  1.00  0.00     0.031 C 
HETATM   15  C14 UNL     1       1.244   3.074  -0.138  1.00  0.00     0.162 A 
HETATM   16  N1  UNL     1       1.157   4.443   0.246  1.00  0.00    -0.277 N 
ATOM     17  H1  UNL     1       1.942   5.088   0.342  1.00  0.00     0.189 HD
HETATM   18  N2  UNL     1      -0.182   4.750   0.468  1.00  0.00    -0.263 N 
ATOM     19  H2  UNL     1      -0.554   5.656   0.754  1.00  0.00     0.190 HD
HETATM   20  C15 UNL     1      -0.867   3.679   0.246  1.00  0.00     0.247 A 
HETATM   21  N3  UNL     1      -2.285   3.548   0.356  1.00  0.00    -0.291 N 
ATOM     22  H3  UNL     1      -2.831   4.405   0.450  1.00  0.00     0.172 HD
HETATM   23  O2  UNL     1      -0.051   2.624  -0.128  1.00  0.00    -0.260 OA
ENDROOT
TORSDOF 0
