REMARK  1 active torsions:
REMARK  status: ('A' for Active; 'I' for Inactive)
REMARK       I    between atoms: C2_2  and  N1_4 
REMARK    1  A    between atoms: N1_4  and  C3_6 
ROOT
HETATM    1  C3  UNL     1      -1.516   0.212   0.080  1.00  0.00     0.045 A 
HETATM    2  C4  UNL     1      -1.889  -1.041   0.330  1.00  0.00     0.033 A 
HETATM    3  C5  UNL     1      -0.947  -2.180   0.467  1.00  0.00     0.043 A 
HETATM    4  C6  UNL     1      -1.150  -2.908   1.783  1.00  0.00     0.042 C 
HETATM    5  C7  UNL     1      -1.366  -3.192  -0.613  1.00  0.00     0.042 C 
HETATM    6  N2  UNL     1       0.416  -1.861   0.315  1.00  0.00    -0.377 N 
ATOM      7  H2  UNL     1       1.110  -2.604   0.400  1.00  0.00     0.160 HD
HETATM    8  C8  UNL     1       0.864  -0.510   0.042  1.00  0.00     0.042 A 
HETATM    9  C9  UNL     1       2.192  -0.257  -0.097  1.00  0.00     0.043 A 
HETATM   10  C10 UNL     1       2.700   1.023  -0.361  1.00  0.00    -0.010 A 
HETATM   11  C11 UNL     1       3.992   1.411  -0.521  1.00  0.00    -0.044 A 
HETATM   12  C12 UNL     1       5.186   0.473  -0.437  1.00  0.00     0.049 C 
HETATM   13  C13 UNL     1       4.207   2.737  -0.773  1.00  0.00     0.058 A 
HETATM   14  S1  UNL     1       2.631   3.396  -0.780  1.00  0.00    -0.101 SA
HETATM   15  C14 UNL     1       1.749   1.984  -0.466  1.00  0.00     0.016 A 
HETATM   16  C15 UNL     1       0.372   1.738  -0.325  1.00  0.00     0.035 A 
HETATM   17  C16 UNL     1      -0.087   0.469  -0.066  1.00  0.00     0.018 A 
ENDROOT
BRANCH   1  18
HETATM   18  N1  UNL     1      -2.437   1.274  -0.045  1.00  0.00    -0.327 N 
HETATM   19  C2  UNL     1      -3.829   1.266   0.054  1.00  0.00     0.218 C 
HETATM   20  C1  UNL     1      -4.568   2.571  -0.127  1.00  0.00     0.117 C 
HETATM   21  O1  UNL     1      -4.527   0.286   0.278  1.00  0.00    -0.274 OA
ATOM     22  H1  UNL     1      -2.022   2.186  -0.237  1.00  0.00     0.169 HD
ENDBRANCH   1  18
TORSDOF 1
