REMARK  5 active torsions:
REMARK  status: ('A' for Active; 'I' for Inactive)
REMARK    1  A    between atoms: N1_1  and  C1_5 
REMARK    2  A    between atoms: N3_14  and  C7_15 
REMARK    3  A    between atoms: C7_15  and  C8_16 
REMARK    4  A    between atoms: C9_17  and  C10_18 
REMARK    5  A    between atoms: C10_18  and  N4_19 
ROOT
HETATM    1  C1  UNL     1      -3.723  -0.362  -0.479  1.00  0.00     0.179 C 
HETATM    2  C2  UNL     1      -4.193  -1.440   0.497  1.00  0.00     0.070 C 
HETATM    3  C3  UNL     1      -5.563  -0.991   0.910  1.00  0.00     0.235 C 
HETATM    4  N2  UNL     1      -5.559   0.436   0.821  1.00  0.00    -0.068 N 
ATOM      5  H21 UNL     1      -5.428   0.888   1.726  1.00  0.00     0.277 HD
ATOM      6  H22 UNL     1      -6.479   0.821   0.609  1.00  0.00     0.277 HD
HETATM    7  C4  UNL     1      -4.568   0.815  -0.134  1.00  0.00     0.225 C 
HETATM    8  C5  UNL     1      -3.764   1.947   0.472  1.00  0.00     0.066 C 
HETATM    9  C6  UNL     1      -2.610   2.157  -0.435  1.00  0.00     0.275 C 
HETATM   10  N3  UNL     1      -1.665   1.068  -0.480  1.00  0.00     0.101 N 
HETATM   11  C16 UNL     1      -2.267  -0.227  -0.381  1.00  0.00     0.314 C 
ENDROOT
BRANCH  10  12
HETATM   12  C7  UNL     1      -0.587   1.286   0.464  1.00  0.00     0.365 C 
BRANCH  12  13
HETATM   13  C8  UNL     1       0.527   0.404   0.228  1.00  0.00    -0.074 C 
HETATM   14  C9  UNL     1       1.507  -0.308   0.030  1.00  0.00    -0.074 C 
BRANCH  14  15
HETATM   15  C10 UNL     1       2.714  -1.132  -0.201  1.00  0.00     0.366 C 
BRANCH  15  16
HETATM   16  N4  UNL     1       3.761  -0.389  -0.868  1.00  0.00     0.105 N 
HETATM   17  C11 UNL     1       4.847  -1.311  -1.141  1.00  0.00     0.274 C 
HETATM   18  C12 UNL     1       5.713  -1.538   0.056  1.00  0.00     0.036 C 
HETATM   19  C13 UNL     1       6.440  -0.255   0.369  1.00  0.00     0.082 C 
HETATM   20  C14 UNL     1       5.679   0.957  -0.076  1.00  0.00     0.269 C 
HETATM   21  F1  UNL     1       5.959   1.968   0.824  1.00  0.00    -0.204 F 
HETATM   22  F2  UNL     1       6.163   1.349  -1.291  1.00  0.00    -0.204 F 
HETATM   23  C15 UNL     1       4.182   0.741  -0.090  1.00  0.00     0.352 C 
ENDBRANCH  15  16
ENDBRANCH  14  15
ENDBRANCH  12  13
ENDBRANCH  10  12
BRANCH   1  24
HETATM   24  N1  UNL     1      -4.167  -0.827  -1.799  1.00  0.00    -0.067 N 
ATOM     25  H13 UNL     1      -3.848  -1.766  -2.035  1.00  0.00     0.275 HD
ATOM     26  H12 UNL     1      -5.166  -1.026  -1.853  1.00  0.00     0.275 HD
ATOM     27  H11 UNL     1      -3.853  -0.108  -2.450  1.00  0.00     0.275 HD
ENDBRANCH   1  24
TORSDOF 5
