REMARK  6 active torsions:
REMARK  status: ('A' for Active; 'I' for Inactive)
REMARK    1  A    between atoms: C3_4  and  C4_5 
REMARK    2  A    between atoms: C4_5  and  C5_7 
REMARK    3  A    between atoms: C6_9  and  C7_10 
REMARK    4  A    between atoms: C7_10  and  O1_11 
REMARK    5  A    between atoms: C8_13  and  O2_14 
REMARK    6  A    between atoms: C9_16  and  O3_17 
ROOT
HETATM    1  N1  UNL     1       5.898   1.984   0.267  1.00  0.00    -0.182 NA
HETATM    2  C1  UNL     1       5.036   1.216   0.160  1.00  0.00     0.152 C 
HETATM    3  C2  UNL     1       3.969   0.295   0.039  1.00  0.00     0.014 C 
HETATM    4  C3  UNL     1       3.050  -0.481  -0.048  1.00  0.00    -0.073 C 
ENDROOT
BRANCH   4   5
HETATM    5  C4  UNL     1       1.905  -1.418  -0.150  1.00  0.00     0.154 C 
HETATM    6 BR1  UNL     1       1.713  -2.464   1.433  1.00  0.00    -0.076 Br
BRANCH   5   7
HETATM    7  C5  UNL     1       0.708  -0.600  -0.495  1.00  0.00     0.105 C 
HETATM    8  S1  UNL     1       0.350   0.665   0.769  1.00  0.00    -0.150 SA
HETATM    9  C6  UNL     1      -1.484   0.610   0.634  1.00  0.00     0.102 C 
HETATM   10  C8  UNL     1      -1.653  -0.288  -0.570  1.00  0.00     0.164 C 
HETATM   11  C9  UNL     1      -0.586  -1.357  -0.472  1.00  0.00     0.164 C 
BRANCH   9  12
HETATM   12  C7  UNL     1      -1.910   2.003   0.240  1.00  0.00     0.181 C 
BRANCH  12  13
HETATM   13  O1  UNL     1      -1.508   2.906   1.206  1.00  0.00    -0.400 OA
ATOM     14  H1  UNL     1      -1.776   3.783   0.958  1.00  0.00     0.209 HD
ENDBRANCH  12  13
ENDBRANCH   9  12
BRANCH  10  15
HETATM   15  O2  UNL     1      -2.888  -0.953  -0.544  1.00  0.00    -0.392 OA
ATOM     16  H2  UNL     1      -2.994  -1.517  -1.301  1.00  0.00     0.210 HD
ENDBRANCH  10  15
BRANCH  11  17
HETATM   17  O3  UNL     1      -0.810  -2.052   0.699  1.00  0.00    -0.392 OA
ATOM     18  H3  UNL     1      -1.630  -2.532   0.714  1.00  0.00     0.210 HD
ENDBRANCH  11  17
ENDBRANCH   5   7
ENDBRANCH   4   5
TORSDOF 6
