REMARK  5 active torsions:
REMARK  status: ('A' for Active; 'I' for Inactive)
REMARK    1  A    between atoms: C2_2  and  O1_3 
REMARK    2  A    between atoms: C2_2  and  C4_5 
REMARK    3  A    between atoms: C4_5  and  C5_6 
REMARK    4  A    between atoms: C9_10  and  O2_11 
REMARK    5  A    between atoms: C10_13  and  O3_14 
ROOT
HETATM    1  C5  UNL     1      -0.705   1.650  -1.096  1.00  0.00    -0.089 C 
HETATM    2  C6  UNL     1      -1.045   2.691  -1.612  1.00  0.00    -0.110 C 
HETATM    3  C7  UNL     1      -1.433   3.956  -2.228  1.00  0.00     0.112 C 
ENDROOT
BRANCH   1   4
HETATM    4  C4  UNL     1      -0.272   0.378  -0.438  1.00  0.00     0.084 C 
HETATM    5  C8  UNL     1       0.712  -0.219  -1.358  1.00  0.00     0.067 C 
HETATM    6  C9  UNL     1       1.639  -1.245  -0.851  1.00  0.00     0.175 C 
HETATM    7  C10 UNL     1       2.890  -0.533  -0.366  1.00  0.00     0.288 C 
HETATM    8  O4  UNL     1       2.478   0.685   0.150  1.00  0.00    -0.326 OA
HETATM    9  C11 UNL     1       1.641   0.595   1.223  1.00  0.00     0.332 C 
HETATM   10  N1  UNL     1       1.881  -0.618   2.020  1.00  0.00    -0.046 N 
HETATM   11  C14 UNL     1       0.194   0.672   0.950  1.00  0.00     0.105 C 
HETATM   12  C12 UNL     1       0.708  -0.730   2.863  1.00  0.00     0.273 C 
ATOM     13  H12 UNL     1       2.077  -1.451   1.464  1.00  0.00     0.280 HD
ATOM     14  H11 UNL     1       2.764  -0.614   2.531  1.00  0.00     0.280 HD
HETATM   15  C13 UNL     1      -0.438  -0.224   1.994  1.00  0.00     0.206 C 
HETATM   16  F1  UNL     1      -1.305   0.449   2.832  1.00  0.00    -0.247 F 
BRANCH   4  17
HETATM   17  C2  UNL     1      -1.507  -0.452  -0.439  1.00  0.00     0.058 C 
HETATM   18  C1  UNL     1      -1.581  -1.645  -0.987  1.00  0.00     0.048 C 
BRANCH  17  19
HETATM   19  O1  UNL     1      -2.686   0.024   0.169  1.00  0.00    -0.359 OA
HETATM   20  C3  UNL     1      -3.827  -0.759   0.319  1.00  0.00     0.209 C 
ENDBRANCH  17  19
ENDBRANCH   4  17
BRANCH   6  21
HETATM   21  O2  UNL     1       2.064  -2.039  -1.945  1.00  0.00    -0.391 OA
ATOM     22  H2  UNL     1       2.662  -2.701  -1.618  1.00  0.00     0.210 HD
ENDBRANCH   6  21
BRANCH   7  23
HETATM   23  O3  UNL     1       3.681  -1.282   0.450  1.00  0.00    -0.369 OA
ATOM     24  H3  UNL     1       4.463  -0.837   0.753  1.00  0.00     0.212 HD
ENDBRANCH   7  23
ENDBRANCH   1   4
TORSDOF 5
