REMARK  4 active torsions:
REMARK  status: ('A' for Active; 'I' for Inactive)
REMARK    1  A    between atoms: C1_2  and  C2_4 
REMARK    2  A    between atoms: C3_6  and  C4_7 
REMARK       I    between atoms: C4_7  and  N1_9 
REMARK    3  A    between atoms: N1_9  and  C5_11 
REMARK    4  A    between atoms: C6_14  and  O5_15 
ROOT
HETATM    1  C2  UNL     1      -1.833   0.354  -0.368  1.00  0.00     0.223 C 
HETATM    2  O3  UNL     1      -0.834   0.688  -1.243  1.00  0.00    -0.322 OA
HETATM    3  C3  UNL     1       0.094   0.289  -0.307  1.00  0.00     0.242 C 
HETATM    4  S1  UNL     1      -0.862   1.076   0.966  1.00  0.00    -0.066 SA
HETATM    5  C6  UNL     1      -0.158  -1.212  -0.121  1.00  0.00     0.205 C 
HETATM    6 CL2  UNL     1       0.559  -2.172  -1.402  1.00  0.00    -0.082 Cl
HETATM    7  C7  UNL     1      -1.694  -1.159  -0.232  1.00  0.00     0.193 C 
HETATM    8 CL3  UNL     1      -2.477  -1.786   1.203  1.00  0.00    -0.116 Cl
ENDROOT
BRANCH   3   9
HETATM    9  C4  UNL     1       1.474   0.693  -0.513  1.00  0.00     0.268 C 
HETATM   10  O4  UNL     1       1.728   1.392  -1.551  1.00  0.00    -0.269 OA
HETATM   11  N1  UNL     1       2.553   0.371   0.347  1.00  0.00    -0.345 N 
ATOM     12  H1  UNL     1       2.377  -0.187   1.183  1.00  0.00     0.163 HD
BRANCH  11  13
HETATM   13  C5  UNL     1       3.901   0.818   0.063  1.00  0.00     0.238 C 
HETATM   14 CL1  UNL     1       4.341   0.118  -1.529  1.00  0.00    -0.109 Cl
ENDBRANCH  11  13
ENDBRANCH   3   9
BRANCH   5  15
HETATM   15  O5  UNL     1       0.229  -1.617   1.158  1.00  0.00    -0.370 OA
ATOM     16  H5  UNL     1       0.073  -2.547   1.273  1.00  0.00     0.212 HD
ENDBRANCH   5  15
BRANCH   1  17
HETATM   17  C1  UNL     1      -3.160   0.875  -0.597  1.00  0.00     0.222 C 
HETATM   18  O1  UNL     1      -3.382   1.621  -1.585  1.00  0.00    -0.645 OA
HETATM   19  O2  UNL     1      -4.214   0.572   0.254  1.00  0.00    -0.645 OA
ENDBRANCH   1  17
TORSDOF 4
