REMARK  16 active torsions:
REMARK  status: ('A' for Active; 'I' for Inactive)
REMARK    1  A    between atoms: N1_1  and  C1_4 
REMARK    2  A    between atoms: C3_8  and  N3_9 
REMARK    3  A    between atoms: N3_9  and  C4_11 
REMARK    4  A    between atoms: C7_14  and  C8_15 
REMARK    5  A    between atoms: N4_17  and  C9_18 
REMARK    6  A    between atoms: C9_18  and  C10_19 
REMARK    7  A    between atoms: C10_19  and  O1_20 
REMARK    8  A    between atoms: C10_19  and  N5_22 
REMARK    9  A    between atoms: N5_22  and  N6_23 
REMARK   10  A    between atoms: N9_33  and  C13_34 
REMARK   11  A    between atoms: C13_34  and  O2_35 
REMARK   12  A    between atoms: O2_35  and  C14_36 
REMARK   13  A    between atoms: C14_36  and  C15_37 
REMARK   14  A    between atoms: C14_36  and  C16_40 
REMARK   15  A    between atoms: C15_37  and  O3_38 
REMARK   16  A    between atoms: C16_40  and  O4_41 
ROOT
HETATM    1  C1  UNL     1       1.504  -0.741  -0.720  1.00  0.00     0.682 A 
HETATM    2  N2  UNL     1       0.257  -0.194  -0.757  1.00  0.00    -0.184 N 
ATOM      3  H2  UNL     1      -0.476  -0.430  -1.426  1.00  0.00     0.184 HD
HETATM    4  C2  UNL     1       0.153   0.694   0.218  1.00  0.00     0.138 A 
HETATM    5  C3  UNL     1      -0.867   1.519   0.627  1.00  0.00     0.140 A 
HETATM    6  N7  UNL     1      -0.589   2.316   1.700  1.00  0.00    -0.317 N 
ATOM      7  H7  UNL     1      -1.309   2.950   2.047  1.00  0.00     0.170 HD
HETATM    8  C11 UNL     1       0.605   2.289   2.311  1.00  0.00     0.182 A 
HETATM    9 CL1  UNL     1       0.931   3.334   3.698  1.00  0.00    -0.045 Cl
HETATM   10  N8  UNL     1       1.608   1.486   1.918  1.00  0.00    -0.316 N 
ATOM     11  H8  UNL     1       2.505   1.489   2.403  1.00  0.00     0.170 HD
HETATM   12  C12 UNL     1       1.391   0.680   0.867  1.00  0.00     0.159 A 
HETATM   13  N9  UNL     1       2.214  -0.203   0.285  1.00  0.00    -0.144 N 
ENDROOT
BRANCH   5  14
HETATM   14  N3  UNL     1      -1.994   1.612   0.129  1.00  0.00    -0.326 N 
ATOM     15  H3  UNL     1      -2.559   2.301   0.625  1.00  0.00     0.169 HD
BRANCH  14  16
HETATM   16  C4  UNL     1      -2.698   1.046  -0.906  1.00  0.00     0.109 A 
HETATM   17  C5  UNL     1      -2.771   1.574  -2.179  1.00  0.00     0.051 A 
HETATM   18  C6  UNL     1      -3.570   0.730  -2.916  1.00  0.00     0.031 A 
HETATM   19  C7  UNL     1      -3.991  -0.327  -2.088  1.00  0.00     0.042 A 
HETATM   20  N4  UNL     1      -3.449  -0.106  -0.880  1.00  0.00    -0.331 N 
BRANCH  19  21
HETATM   21  C8  UNL     1      -4.840  -1.395  -2.614  1.00  0.00     0.279 C 
HETATM   22  F1  UNL     1      -4.132  -2.451  -3.151  1.00  0.00    -0.249 F 
ENDBRANCH  19  21
BRANCH  20  23
HETATM   23  C9  UNL     1      -3.603  -0.955   0.257  1.00  0.00     0.181 C 
BRANCH  23  24
HETATM   24  C10 UNL     1      -4.690  -0.571   1.215  1.00  0.00     0.248 C 
BRANCH  24  25
HETATM   25  O1  UNL     1      -4.669  -1.537   2.244  1.00  0.00    -0.376 OA
ATOM     26  H1  UNL     1      -5.358  -1.294   2.851  1.00  0.00     0.211 HD
ENDBRANCH  24  25
BRANCH  24  27
HETATM   27  N5  UNL     1      -5.996  -0.440   0.678  1.00  0.00    -0.115 NA
BRANCH  27  28
HETATM   28  N6  UNL     1      -6.949  -0.090   1.645  1.00  0.00    -0.346 N 
ATOM     29  H62 UNL     1      -6.712   0.052   2.627  1.00  0.00     0.172 HD
ATOM     30  H61 UNL     1      -7.888   0.004   1.259  1.00  0.00     0.172 HD
ENDBRANCH  27  28
ENDBRANCH  24  27
ENDBRANCH  23  24
ENDBRANCH  20  23
ENDBRANCH  14  16
ENDBRANCH   5  14
BRANCH   1  31
HETATM   31  N1  UNL     1       1.882  -1.655  -1.577  1.00  0.00    -0.234 N 
ATOM     32  H12 UNL     1       1.343  -2.064  -2.340  1.00  0.00     0.174 HD
ATOM     33  H11 UNL     1       2.816  -2.065  -1.549  1.00  0.00     0.174 HD
ENDBRANCH   1  31
BRANCH  13  34
HETATM   34  C13 UNL     1       3.573  -0.557   0.605  1.00  0.00     0.319 C 
BRANCH  34  35
HETATM   35  O2  UNL     1       4.479   0.246  -0.082  1.00  0.00    -0.361 OA
BRANCH  35  36
HETATM   36  C14 UNL     1       5.788  -0.069   0.203  1.00  0.00     0.170 C 
BRANCH  36  37
HETATM   37  C15 UNL     1       6.479   1.151   0.807  1.00  0.00     0.198 C 
BRANCH  37  38
HETATM   38  O3  UNL     1       5.836   1.526   1.965  1.00  0.00    -0.398 OA
ATOM     39  H3  UNL     1       6.266   2.285   2.341  1.00  0.00     0.209 HD
ENDBRANCH  37  38
ENDBRANCH  36  37
BRANCH  36  40
HETATM   40  C16 UNL     1       6.576  -0.413  -1.058  1.00  0.00     0.198 C 
BRANCH  40  41
HETATM   41  O4  UNL     1       7.885  -0.719  -0.692  1.00  0.00    -0.398 OA
ATOM     42  H4  UNL     1       8.375  -0.933  -1.477  1.00  0.00     0.209 HD
ENDBRANCH  40  41
ENDBRANCH  36  40
ENDBRANCH  35  36
ENDBRANCH  34  35
ENDBRANCH  13  34
TORSDOF 16
