REMARK  14 active torsions:
REMARK  status: ('A' for Active; 'I' for Inactive)
REMARK    1  A    between atoms: C2_7  and  C3_8 
REMARK    2  A    between atoms: C3_8  and  N4_9 
REMARK    3  A    between atoms: C3_8  and  C11_27 
REMARK    4  A    between atoms: N4_9  and  C4_11 
REMARK    5  A    between atoms: C4_11  and  O1_12 
REMARK    6  A    between atoms: C4_11  and  C5_14 
REMARK    7  A    between atoms: C9_23  and  C10_24 
REMARK    8  A    between atoms: C11_27  and  O5_28 
REMARK    9  A    between atoms: C11_27  and  C12_30 
REMARK   10  A    between atoms: C12_30  and  O6_31 
REMARK   11  A    between atoms: C12_30  and  C13_33 
REMARK   12  A    between atoms: C13_33  and  C14_34 
REMARK   13  A    between atoms: C14_34  and  C15_35 
REMARK   14  A    between atoms: C15_35  and  N6_36 
ROOT
HETATM    1  C3  UNL     1       0.228   0.105   0.173  1.00  0.00     0.086 C 
ENDROOT
BRANCH   1   2
HETATM    2  C2  UNL     1       0.456   1.502  -0.235  1.00  0.00     0.162 A 
HETATM    3  N3  UNL     1       0.900   2.539   0.480  1.00  0.00    -0.267 N 
HETATM    4  N2  UNL     1       0.972   3.593  -0.280  1.00  0.00    -0.225 N 
ATOM      5  H3  UNL     1       1.145   2.509   1.470  1.00  0.00     0.190 HD
HETATM    6  N1  UNL     1       0.581   3.271  -1.493  1.00  0.00    -0.223 N 
ATOM      7  H2  UNL     1       1.281   4.518   0.017  1.00  0.00     0.210 HD
HETATM    8  C1  UNL     1       0.514   4.169  -2.640  1.00  0.00     0.202 C 
HETATM    9  N7  UNL     1       0.260   1.999  -1.495  1.00  0.00    -0.265 N 
ATOM     10  H7  UNL     1      -0.078   1.470  -2.299  1.00  0.00     0.190 HD
ENDBRANCH   1   2
BRANCH   1  11
HETATM   11  N4  UNL     1      -1.115  -0.339  -0.060  1.00  0.00    -0.357 N 
ATOM     12  H4  UNL     1      -1.325  -0.958  -0.843  1.00  0.00     0.162 HD
BRANCH  11  13
HETATM   13  C4  UNL     1      -2.143   0.089   0.805  1.00  0.00     0.270 C 
BRANCH  13  14
HETATM   14  O1  UNL     1      -2.188   1.472   0.879  1.00  0.00    -0.371 OA
ATOM     15  H1  UNL     1      -2.881   1.760   1.462  1.00  0.00     0.212 HD
ENDBRANCH  13  14
BRANCH  13  16
HETATM   16  C5  UNL     1      -3.457  -0.393   0.291  1.00  0.00     0.079 A 
HETATM   17  N5  UNL     1      -4.419   0.547   0.055  1.00  0.00    -0.321 N 
HETATM   18  C6  UNL     1      -5.604   0.276  -0.503  1.00  0.00     0.269 A 
ATOM     19  H5  UNL     1      -4.222   1.512   0.320  1.00  0.00     0.169 HD
HETATM   20  O2  UNL     1      -6.470   1.172  -0.708  1.00  0.00    -0.266 OA
HETATM   21  C7  UNL     1      -5.917  -0.996  -0.874  1.00  0.00     0.124 A 
HETATM   22 CL1  UNL     1      -7.453  -1.412  -1.612  1.00  0.00    -0.076 Cl
HETATM   23  C8  UNL     1      -4.994  -1.982  -0.659  1.00  0.00     0.080 A 
HETATM   24 CL2  UNL     1      -5.313  -3.647  -1.104  1.00  0.00    -0.081 Cl
HETATM   25  C9  UNL     1      -3.741  -1.676  -0.063  1.00  0.00     0.091 A 
BRANCH  25  26
HETATM   26  C10 UNL     1      -2.851  -2.794   0.256  1.00  0.00     0.213 C 
HETATM   27  O3  UNL     1      -2.537  -3.616  -0.828  1.00  0.00    -0.644 OA
HETATM   28  O4  UNL     1      -1.891  -2.637   1.202  1.00  0.00    -0.644 OA
ENDBRANCH  25  26
ENDBRANCH  13  16
ENDBRANCH  11  13
ENDBRANCH   1  11
BRANCH   1  29
HETATM   29  C11 UNL     1       0.858  -0.262   1.451  1.00  0.00     0.200 C 
BRANCH  29  30
HETATM   30  O5  UNL     1       0.222   0.260   2.576  1.00  0.00    -0.387 OA
ATOM     31  H5  UNL     1       0.629   0.023   3.401  1.00  0.00     0.210 HD
ENDBRANCH  29  30
BRANCH  29  32
HETATM   32  C12 UNL     1       2.328   0.027   1.472  1.00  0.00     0.153 C 
BRANCH  32  33
HETATM   33  O6  UNL     1       2.953  -0.564   2.587  1.00  0.00    -0.393 OA
ATOM     34  H6  UNL     1       3.885  -0.381   2.600  1.00  0.00     0.210 HD
ENDBRANCH  32  33
BRANCH  32  35
HETATM   35  C13 UNL     1       3.085  -0.431   0.255  1.00  0.00     0.036 C 
BRANCH  35  36
HETATM   36  C14 UNL     1       4.570  -0.090   0.408  1.00  0.00     0.030 C 
BRANCH  36  37
HETATM   37  C15 UNL     1       5.339  -0.547  -0.808  1.00  0.00     0.230 C 
BRANCH  37  38
HETATM   38  N6  UNL     1       6.730  -0.205  -0.618  1.00  0.00    -0.079 N 
ATOM     39  H63 UNL     1       6.867   0.785  -0.415  1.00  0.00     0.274 HD
ATOM     40  H62 UNL     1       7.111  -0.578   0.251  1.00  0.00     0.274 HD
ATOM     41  H61 UNL     1       7.250  -0.514  -1.440  1.00  0.00     0.274 HD
ENDBRANCH  37  38
ENDBRANCH  36  37
ENDBRANCH  35  36
ENDBRANCH  32  35
ENDBRANCH  29  32
ENDBRANCH   1  29
TORSDOF 14
