REMARK  17 active torsions:
REMARK  status: ('A' for Active; 'I' for Inactive)
REMARK    1  A    between atoms: N1_1  and  C1_4 
REMARK    2  A    between atoms: C3_9  and  C4_10 
REMARK    3  A    between atoms: C4_10  and  N4_11 
REMARK    4  A    between atoms: C4_10  and  N6_22 
REMARK    5  A    between atoms: N4_11  and  O1_13 
REMARK    6  A    between atoms: O1_13  and  C5_14 
REMARK    7  A    between atoms: C5_14  and  C6_15 
REMARK    8  A    between atoms: C6_15  and  N5_16 
REMARK    9  A    between atoms: N5_16  and  C7_18 
REMARK   10  A    between atoms: C7_18  and  C8_19 
REMARK   11  A    between atoms: C8_19  and  O2_20 
REMARK   12  A    between atoms: N6_22  and  C9_24 
REMARK   13  A    between atoms: C9_24  and  N7_25 
REMARK   14  A    between atoms: C9_24  and  C10_30 
REMARK   15  A    between atoms: N7_25  and  N8_27 
REMARK   16  A    between atoms: C12_35  and  C13_36 
REMARK   17  A    between atoms: C13_36  and  N10_37 
ROOT
HETATM    1  C4  UNL     1       0.292  -0.659  -0.083  1.00  0.00     0.146 C 
ENDROOT
BRANCH   1   2
HETATM    2  C3  UNL     1       0.372  -2.104  -0.203  1.00  0.00     0.120 A 
HETATM    3  C2  UNL     1       0.111  -2.957   0.840  1.00  0.00     0.151 A 
HETATM    4  N2  UNL     1       0.192  -4.304   0.611  1.00  0.00    -0.178 N 
HETATM    5  N3  UNL     1      -0.233  -2.481   2.125  1.00  0.00    -0.081 NA
HETATM    6  C1  UNL     1       0.504  -4.810  -0.562  1.00  0.00     0.680 A 
ATOM      7  H2  UNL     1       0.002  -4.943   1.383  1.00  0.00     0.185 HD
HETATM    8  N11 UNL     1       0.775  -4.023  -1.637  1.00  0.00    -0.155 N 
HETATM    9  C14 UNL     1       0.700  -2.667  -1.439  1.00  0.00     0.277 A 
ATOM     10  H11 UNL     1       1.021  -4.420  -2.544  1.00  0.00     0.187 HD
HETATM   11  O3  UNL     1       0.933  -1.890  -2.393  1.00  0.00    -0.267 OA
BRANCH   6  12
HETATM   12  N1  UNL     1       0.567  -6.097  -0.778  1.00  0.00    -0.234 N 
ATOM     13  H12 UNL     1       0.364  -6.687   0.029  1.00  0.00     0.174 HD
ATOM     14  H11 UNL     1       0.809  -6.489  -1.688  1.00  0.00     0.174 HD
ENDBRANCH   6  12
ENDBRANCH   1   2
BRANCH   1  15
HETATM   15  N4  UNL     1       1.221   0.087  -0.276  1.00  0.00    -0.249 N 
ATOM     16  H4  UNL     1       0.767   0.985  -0.109  1.00  0.00     0.196 HD
BRANCH  15  17
HETATM   17  O1  UNL     1       2.405   0.481  -0.554  1.00  0.00    -0.274 OA
BRANCH  17  18
HETATM   18  C5  UNL     1       2.564   1.947  -0.748  1.00  0.00     0.245 C 
BRANCH  18  19
HETATM   19  C6  UNL     1       3.433   2.245   0.442  1.00  0.00     0.084 C 
BRANCH  19  20
HETATM   20  N5  UNL     1       4.655   1.673   0.574  1.00  0.00    -0.398 N 
ATOM     21  H5  UNL     1       4.811   0.934   1.259  1.00  0.00     0.158 HD
BRANCH  20  22
HETATM   22  C7  UNL     1       5.713   2.120  -0.257  1.00  0.00     0.144 C 
BRANCH  22  23
HETATM   23  C8  UNL     1       6.992   1.745   0.517  1.00  0.00     0.183 C 
BRANCH  23  24
HETATM   24  O2  UNL     1       8.082   2.140  -0.195  1.00  0.00    -0.399 OA
ATOM     25  H2  UNL     1       8.870   1.909   0.282  1.00  0.00     0.209 HD
ENDBRANCH  23  24
ENDBRANCH  22  23
ENDBRANCH  20  22
ENDBRANCH  19  20
ENDBRANCH  18  19
ENDBRANCH  17  18
ENDBRANCH  15  17
ENDBRANCH   1  15
BRANCH   1  26
HETATM   26  N6  UNL     1      -0.894  -0.014   0.460  1.00  0.00    -0.323 N 
ATOM     27  H6  UNL     1      -0.817   0.670   1.213  1.00  0.00     0.169 HD
BRANCH  26  28
HETATM   28  C9  UNL     1      -2.116  -0.347  -0.063  1.00  0.00     0.155 C 
BRANCH  28  29
HETATM   29  N7  UNL     1      -2.211  -1.480  -0.717  1.00  0.00    -0.290 N 
ATOM     30  H7  UNL     1      -1.404  -2.091  -0.845  1.00  0.00     0.188 HD
BRANCH  29  31
HETATM   31  N8  UNL     1      -3.451  -1.809  -1.224  1.00  0.00    -0.344 N 
ATOM     32  H82 UNL     1      -4.249  -1.188  -1.088  1.00  0.00     0.176 HD
ATOM     33  H81 UNL     1      -3.525  -2.690  -1.733  1.00  0.00     0.176 HD
ENDBRANCH  29  31
ENDBRANCH  28  29
BRANCH  28  34
HETATM   34  C10 UNL     1      -3.346   0.444   0.028  1.00  0.00     0.121 A 
HETATM   35  N9  UNL     1      -4.557  -0.099   0.336  1.00  0.00    -0.337 N 
HETATM   36  C11 UNL     1      -5.592   0.656   0.303  1.00  0.00     0.119 A 
ATOM     37  H9  UNL     1      -4.638  -1.084   0.587  1.00  0.00     0.167 HD
HETATM   38 CL1  UNL     1      -7.204   0.108   0.845  1.00  0.00    -0.063 Cl
HETATM   39  C12 UNL     1      -5.435   1.998  -0.060  1.00  0.00     0.049 A 
HETATM   40  S1  UNL     1      -3.764   2.053  -0.307  1.00  0.00    -0.068 SA
BRANCH  39  41
HETATM   41  C13 UNL     1      -6.561   2.908  -0.380  1.00  0.00     0.278 C 
BRANCH  41  42
HETATM   42  N10 UNL     1      -6.840   3.963   0.538  1.00  0.00    -0.075 N 
ATOM     43 3H10 UNL     1      -6.979   3.571   1.469  1.00  0.00     0.274 HD
ATOM     44 2H10 UNL     1      -5.994   4.513   0.685  1.00  0.00     0.274 HD
ATOM     45 1H10 UNL     1      -7.615   4.589   0.318  1.00  0.00     0.274 HD
ENDBRANCH  41  42
ENDBRANCH  39  41
ENDBRANCH  28  34
ENDBRANCH  26  28
ENDBRANCH   1  26
TORSDOF 17
