REMARK  16 active torsions:
REMARK  status: ('A' for Active; 'I' for Inactive)
REMARK    1  A    between atoms: N1_1  and  C1_4 
REMARK    2  A    between atoms: C3_11  and  N4_12 
REMARK    3  A    between atoms: N4_12  and  C4_14 
REMARK    4  A    between atoms: C6_16  and  C7_17 
REMARK    5  A    between atoms: C7_17  and  O1_18 
REMARK    6  A    between atoms: C7_17  and  O2_20 
REMARK    7  A    between atoms: C8_23  and  C9_24 
REMARK    8  A    between atoms: C9_24  and  C10_26 
REMARK    9  A    between atoms: C10_26  and  N5_27 
REMARK   10  A    between atoms: C10_26  and  C11_31 
REMARK   11  A    between atoms: C11_31  and  C12_32 
REMARK   12  A    between atoms: C12_32  and  N6_33 
REMARK   13  A    between atoms: C12_32  and  C13_37 
REMARK   14  A    between atoms: C13_37  and  C14_38 
REMARK   15  A    between atoms: C14_38  and  C15_40 
REMARK   16  A    between atoms: C15_40  and  N7_41 
ROOT
HETATM    1  C4  UNL     1       3.167   0.949  -0.566  1.00  0.00     0.079 A 
HETATM    2  C5  UNL     1       3.205  -0.281   0.050  1.00  0.00     0.070 A 
HETATM    3  C6  UNL     1       2.054  -0.784   0.621  1.00  0.00     0.110 A 
HETATM    4  O3  UNL     1       0.936  -0.112   0.584  1.00  0.00    -0.304 OA
HETATM    5  C8  UNL     1       0.831   1.055   0.018  1.00  0.00     0.150 A 
HETATM    6  C16 UNL     1       1.950   1.620  -0.575  1.00  0.00     0.111 A 
HETATM    7  N8  UNL     1       1.846   2.888  -1.192  1.00  0.00    -0.097 NA
ENDROOT
BRANCH   5   8
HETATM    8  C9  UNL     1      -0.407   1.809  -0.026  1.00  0.00     0.215 C 
HETATM    9  O4  UNL     1      -0.511   2.933  -0.555  1.00  0.00    -0.288 OA
BRANCH   8  10
HETATM   10  C10 UNL     1      -1.625   1.188   0.607  1.00  0.00     0.261 C 
BRANCH  10  11
HETATM   11  N5  UNL     1      -2.594   2.276   0.656  1.00  0.00    -0.068 N 
ATOM     12  H53 UNL     1      -2.258   3.115   1.129  1.00  0.00     0.275 HD
ATOM     13  H52 UNL     1      -2.771   2.720  -0.245  1.00  0.00     0.275 HD
ATOM     14  H51 UNL     1      -3.419   1.856   1.085  1.00  0.00     0.275 HD
ENDBRANCH  10  11
BRANCH  10  15
HETATM   15  C11 UNL     1      -2.058   0.086  -0.291  1.00  0.00     0.074 C 
BRANCH  15  16
HETATM   16  C12 UNL     1      -3.229  -0.726   0.106  1.00  0.00     0.187 C 
BRANCH  16  17
HETATM   17  N6  UNL     1      -3.429  -1.734  -0.955  1.00  0.00    -0.075 N 
ATOM     18  H63 UNL     1      -3.520  -1.326  -1.885  1.00  0.00     0.274 HD
ATOM     19  H62 UNL     1      -2.596  -2.293  -1.140  1.00  0.00     0.274 HD
ATOM     20  H61 UNL     1      -4.236  -2.294  -0.681  1.00  0.00     0.274 HD
ENDBRANCH  16  17
BRANCH  16  21
HETATM   21  C13 UNL     1      -4.521  -0.001   0.325  1.00  0.00     0.054 C 
BRANCH  21  22
HETATM   22  C14 UNL     1      -5.639  -0.973   0.718  1.00  0.00     0.109 C 
HETATM   23 CL2  UNL     1      -5.940  -2.178  -0.525  1.00  0.00    -0.123 Cl
BRANCH  22  24
HETATM   24  C15 UNL     1      -6.917  -0.212   0.999  1.00  0.00     0.249 C 
BRANCH  24  25
HETATM   25  N7  UNL     1      -7.996  -1.072   1.371  1.00  0.00    -0.078 N 
ATOM     26  H73 UNL     1      -8.147  -1.796   0.669  1.00  0.00     0.274 HD
ATOM     27  H72 UNL     1      -7.739  -1.662   2.162  1.00  0.00     0.274 HD
ATOM     28  H71 UNL     1      -8.857  -0.559   1.560  1.00  0.00     0.274 HD
ENDBRANCH  24  25
ENDBRANCH  22  24
ENDBRANCH  21  22
ENDBRANCH  16  21
ENDBRANCH  15  16
ENDBRANCH  10  15
ENDBRANCH   8  10
ENDBRANCH   5   8
BRANCH   3  29
HETATM   29  C7  UNL     1       2.092  -2.118   1.290  1.00  0.00     0.312 C 
BRANCH  29  30
HETATM   30  O1  UNL     1       3.236  -2.175   2.084  1.00  0.00    -0.365 OA
ATOM     31  H1  UNL     1       3.260  -3.024   2.510  1.00  0.00     0.213 HD
ENDBRANCH  29  30
BRANCH  29  32
HETATM   32  O2  UNL     1       2.082  -3.154   0.387  1.00  0.00    -0.365 OA
ATOM     33  H2  UNL     1       2.106  -4.003   0.813  1.00  0.00     0.213 HD
ENDBRANCH  29  32
ENDBRANCH   3  29
BRANCH   1  34
HETATM   34  N4  UNL     1       4.212   1.454  -1.108  1.00  0.00    -0.189 N 
ATOM     35  H4  UNL     1       4.174   2.367  -1.562  1.00  0.00     0.184 HD
BRANCH  34  36
HETATM   36  C3  UNL     1       5.426   0.715  -1.063  1.00  0.00     0.699 A 
HETATM   37  N3  UNL     1       5.692  -0.269  -1.964  1.00  0.00    -0.164 N 
HETATM   38  C2  UNL     1       6.835  -0.971  -1.929  1.00  0.00     0.208 A 
ATOM     39  H3  UNL     1       5.003  -0.479  -2.686  1.00  0.00     0.186 HD
HETATM   40  N2  UNL     1       7.748  -0.700  -0.978  1.00  0.00    -0.165 N 
HETATM   41 CL1  UNL     1       7.183  -2.247  -3.094  1.00  0.00    -0.044 Cl
HETATM   42  C1  UNL     1       7.479   0.288  -0.075  1.00  0.00     0.692 A 
ATOM     43  H2  UNL     1       8.623  -1.222  -0.933  1.00  0.00     0.186 HD
HETATM   44  N9  UNL     1       6.343   0.985  -0.112  1.00  0.00    -0.022 N 
ATOM     45  H9  UNL     1       6.169   1.718   0.575  1.00  0.00     0.203 HD
BRANCH  42  46
HETATM   46  N1  UNL     1       8.360   0.535   0.825  1.00  0.00    -0.234 N 
ATOM     47  H12 UNL     1       9.229   0.002   0.853  1.00  0.00     0.174 HD
ATOM     48  H11 UNL     1       8.159   1.273   1.500  1.00  0.00     0.174 HD
ENDBRANCH  42  46
ENDBRANCH  34  36
ENDBRANCH   1  34
TORSDOF 16
