REMARK  2 active torsions:
REMARK  status: ('A' for Active; 'I' for Inactive)
REMARK    1  A    between atoms: C2_2  and  C3_3 
REMARK    2  A    between atoms: C6_6  and  C7_7 
REMARK       I    between atoms: C7_7  and  N1_9 
ROOT
HETATM    1  C7  UNL     1      -0.722  -0.670   0.549  1.00  0.00     0.228 C 
HETATM    2  O1  UNL     1      -0.741  -1.881   0.208  1.00  0.00    -0.273 OA
HETATM    3  N1  UNL     1      -1.850  -0.043   1.114  1.00  0.00    -0.303 N 
ATOM      4  H1  UNL     1      -1.727   0.380   2.034  1.00  0.00     0.171 HD
HETATM    5  C8  UNL     1      -2.996   0.048   0.598  1.00  0.00     0.203 C 
HETATM    6  N2  UNL     1      -4.035   0.711   1.290  1.00  0.00    -0.066 NA
HETATM    7  N3  UNL     1      -3.266  -0.508  -0.675  1.00  0.00    -0.066 NA
ENDROOT
BRANCH   1   8
HETATM    8  C6  UNL     1       0.495   0.166   0.374  1.00  0.00     0.086 C 
HETATM    9  C3  UNL     1       1.678  -0.551  -0.236  1.00  0.00     0.020 C 
HETATM   10  C4  UNL     1       1.816   0.655  -1.167  1.00  0.00     0.010 C 
HETATM   11  C5  UNL     1       0.340   1.000  -0.906  1.00  0.00     0.015 C 
BRANCH   9  12
HETATM   12  C2  UNL     1       2.833  -0.718   0.671  1.00  0.00    -0.031 C 
HETATM   13  C1  UNL     1       4.003  -0.193   0.338  1.00  0.00     0.007 C 
ENDBRANCH   9  12
ENDBRANCH   1   8
TORSDOF 2
