REMARK  3 active torsions:
REMARK  status: ('A' for Active; 'I' for Inactive)
REMARK    1  A    between atoms: C2_2  and  N1_3 
REMARK    2  A    between atoms: N1_3  and  C3_5 
REMARK    3  A    between atoms: C3_5  and  N2_7 
ROOT
HETATM    1  C3  UNL     1       0.370   0.360   0.834  1.00  0.00     0.169 C 
HETATM    2  S1  UNL     1       0.548   1.445   2.031  1.00  0.00    -0.041 SA
ENDROOT
BRANCH   1   3
HETATM    3  N1  UNL     1       1.480  -0.191   0.187  1.00  0.00    -0.367 N 
ATOM      4  H1  UNL     1       1.358  -0.843  -0.588  1.00  0.00     0.161 HD
BRANCH   3   5
HETATM    5  C2  UNL     1       2.807   0.180   0.635  1.00  0.00     0.117 C 
HETATM    6  C1  UNL     1       3.894  -0.310  -0.295  1.00  0.00     0.026 C 
ENDBRANCH   3   5
ENDBRANCH   1   3
BRANCH   1   7
HETATM    7  N2  UNL     1      -0.945   0.021   0.457  1.00  0.00    -0.358 N 
HETATM    8  C4  UNL     1      -2.208   0.489   1.001  1.00  0.00     0.125 C 
HETATM    9  C5  UNL     1      -2.937   0.807  -0.314  1.00  0.00     0.021 C 
HETATM   10  C6  UNL     1      -2.473  -0.289  -1.251  1.00  0.00     0.021 C 
HETATM   11  C7  UNL     1      -1.263  -0.920  -0.614  1.00  0.00     0.125 C 
ENDBRANCH   1   7
TORSDOF 3
