REMARK  2 active torsions:
REMARK  status: ('A' for Active; 'I' for Inactive)
REMARK    1  A    between atoms: C2_2  and  C3_3 
REMARK    2  A    between atoms: C8_8  and  N1_9 
REMARK       I    between atoms: N1_9  and  C9_11 
ROOT
HETATM    1  C3  UNL     1      -1.805  -0.008  -0.096  1.00  0.00     0.019 C 
HETATM    2  C4  UNL     1      -0.691   0.220  -1.109  1.00  0.00     0.017 C 
HETATM    3  C5  UNL     1      -0.454  -1.207  -1.518  1.00  0.00     0.008 C 
HETATM    4  C6  UNL     1      -0.437  -1.858  -0.123  1.00  0.00     0.008 C 
HETATM    5  C7  UNL     1      -0.688  -0.616   0.710  1.00  0.00     0.017 C 
HETATM    6  C8  UNL     1       0.237   0.360   0.071  1.00  0.00     0.095 C 
ENDROOT
BRANCH   6   7
HETATM    7  N1  UNL     1       1.595  -0.120  -0.146  1.00  0.00    -0.340 N 
HETATM    8  C9  UNL     1       2.706   0.666   0.248  1.00  0.00     0.329 C 
HETATM    9  N2  UNL     1       4.012   0.191   0.032  1.00  0.00    -0.040 NA
HETATM   10  O1  UNL     1       2.525   1.769   0.780  1.00  0.00    -0.251 OA
ATOM     11  H1  UNL     1       1.747  -1.028  -0.585  1.00  0.00     0.164 HD
ENDBRANCH   6   7
BRANCH   1  12
HETATM   12  C2  UNL     1      -2.491   1.156   0.416  1.00  0.00    -0.031 C 
HETATM   13  C1  UNL     1      -2.246   1.781   1.559  1.00  0.00     0.007 C 
ENDBRANCH   1  12
TORSDOF 2
