REMARK  10 active torsions:
REMARK  status: ('A' for Active; 'I' for Inactive)
REMARK    1  A    between atoms: C2_2  and  C3_3 
REMARK       I    between atoms: C3_3  and  N1_5 
REMARK    2  A    between atoms: C12_15  and  C13_16 
REMARK    3  A    between atoms: C13_16  and  C14_17 
REMARK       I    between atoms: C14_17  and  N3_19 
REMARK    4  A    between atoms: N3_19  and  C15_21 
REMARK    5  A    between atoms: C15_21  and  C16_22 
REMARK    6  A    between atoms: C16_22  and  C17_23 
REMARK    7  A    between atoms: C17_23  and  N4_24 
REMARK    8  A    between atoms: N4_24  and  C18_25 
REMARK    9  A    between atoms: N5_34  and  C26_35 
REMARK   10  A    between atoms: C26_35  and  C27_36 
ROOT
HETATM    1  C3  UNL     1      -7.658   1.249   1.805  1.00  0.00     0.219 C 
HETATM    2  O1  UNL     1      -8.477   0.273   1.765  1.00  0.00    -0.273 OA
HETATM    3  N1  UNL     1      -6.362   1.049   1.309  1.00  0.00    -0.352 N 
HETATM    4  C4  UNL     1      -5.339   2.067   1.296  1.00  0.00     0.128 C 
HETATM    5  C5  UNL     1      -4.017   1.358   1.467  1.00  0.00     0.053 C 
HETATM    6  C6  UNL     1      -3.634   0.602   0.157  1.00  0.00     0.068 C 
HETATM    7  C7  UNL     1      -4.955   0.144  -0.374  1.00  0.00     0.053 C 
HETATM    8  C8  UNL     1      -5.937  -0.244   0.746  1.00  0.00     0.128 C 
HETATM    9  C9  UNL     1      -3.112   1.706  -0.740  1.00  0.00     0.303 C 
HETATM   10  N2  UNL     1      -2.172   2.497  -0.021  1.00  0.00     0.087 N 
HETATM   11  C10 UNL     1      -2.245   3.909  -0.304  1.00  0.00     0.310 C 
HETATM   12  C11 UNL     1      -0.833   1.967  -0.208  1.00  0.00     0.286 C 
HETATM   13  C12 UNL     1      -0.557   1.134   1.018  1.00  0.00     0.115 C 
HETATM   14  C25 UNL     1      -1.395  -0.077   1.072  1.00  0.00     0.230 C 
HETATM   15  O3  UNL     1      -0.866  -0.990   1.791  1.00  0.00    -0.273 OA
HETATM   16  N5  UNL     1      -2.682  -0.405   0.465  1.00  0.00    -0.319 N 
ENDROOT
BRANCH  13  17
HETATM   17  C13 UNL     1       0.879   0.824   1.252  1.00  0.00     0.118 C 
BRANCH  17  18
HETATM   18  C14 UNL     1       1.547   0.075   0.197  1.00  0.00     0.218 C 
HETATM   19  O2  UNL     1       0.916  -0.317  -0.806  1.00  0.00    -0.274 OA
HETATM   20  N3  UNL     1       2.951  -0.241   0.265  1.00  0.00    -0.361 N 
ATOM     21  H3  UNL     1       3.495   0.064   1.072  1.00  0.00     0.162 HD
BRANCH  20  22
HETATM   22  C15 UNL     1       3.601  -0.981  -0.789  1.00  0.00     0.124 C 
BRANCH  22  23
HETATM   23  C16 UNL     1       5.066  -1.143  -0.451  1.00  0.00     0.048 C 
BRANCH  23  24
HETATM   24  C17 UNL     1       5.689   0.207  -0.348  1.00  0.00     0.239 C 
BRANCH  24  25
HETATM   25  N4  UNL     1       7.095   0.210  -0.025  1.00  0.00    -0.067 N 
HETATM   26  C20 UNL     1       7.930  -0.192  -1.114  1.00  0.00     0.237 C 
HETATM   27  C21 UNL     1       9.334  -0.524  -0.665  1.00  0.00     0.028 C 
HETATM   28  C22 UNL     1       9.394  -1.611   0.358  1.00  0.00     0.003 C 
HETATM   29  C23 UNL     1       7.995  -1.921   0.826  1.00  0.00     0.028 C 
HETATM   30  C24 UNL     1       7.328  -0.586   1.154  1.00  0.00     0.237 C 
BRANCH  25  31
HETATM   31  C18 UNL     1       7.424   1.592   0.332  1.00  0.00     0.233 C 
HETATM   32  C19 UNL     1       6.735   2.573  -0.561  1.00  0.00     0.035 C 
ENDBRANCH  25  31
ENDBRANCH  24  25
ENDBRANCH  23  24
ENDBRANCH  22  23
ENDBRANCH  20  22
ENDBRANCH  17  18
ENDBRANCH  13  17
BRANCH  16  33
HETATM   33  C26 UNL     1      -2.813  -1.801   0.344  1.00  0.00     0.072 C 
BRANCH  33  34
HETATM   34  C27 UNL     1      -2.193  -2.523  -0.791  1.00  0.00     0.024 C 
HETATM   35  C28 UNL     1      -2.434  -4.024  -0.715  1.00  0.00     0.010 C 
HETATM   36  C29 UNL     1      -3.796  -4.437  -1.165  1.00  0.00     0.001 C 
HETATM   37  C30 UNL     1      -3.804  -4.172  -2.682  1.00  0.00     0.000 C 
HETATM   38  C31 UNL     1      -3.560  -2.727  -2.937  1.00  0.00     0.001 C 
HETATM   39  C32 UNL     1      -2.449  -2.083  -2.179  1.00  0.00     0.010 C 
ENDBRANCH  33  34
ENDBRANCH  16  33
BRANCH   1  40
HETATM   40  C2  UNL     1      -8.138   2.524   2.372  1.00  0.00     0.098 C 
HETATM   41  C1  UNL     1      -8.988   3.229   1.317  1.00  0.00     0.014 C 
ENDBRANCH   1  40
TORSDOF 10
