REMARK  10 active torsions:
REMARK  status: ('A' for Active; 'I' for Inactive)
REMARK    1  A    between atoms: C2_2  and  C3_3 
REMARK    2  A    between atoms: C3_3  and  C4_4 
REMARK    3  A    between atoms: C4_4  and  N1_5 
REMARK       I    between atoms: N1_5  and  C6_7 
REMARK    4  A    between atoms: C6_7  and  C7_9 
REMARK    5  A    between atoms: C7_9  and  C8_10 
REMARK    6  A    between atoms: C7_9  and  N2_14 
REMARK    7  A    between atoms: C8_10  and  C9_11 
REMARK       I    between atoms: N2_14  and  C12_16 
REMARK    8  A    between atoms: C12_16  and  C13_18 
REMARK       I    between atoms: N3_22  and  C17_23 
REMARK    9  A    between atoms: C17_23  and  C18_25 
REMARK   10  A    between atoms: N4_27  and  C20_28 
ROOT
HETATM    1  C13 UNL     1       1.192  -1.644   0.879  1.00  0.00     0.096 C 
HETATM    2  C14 UNL     1       0.688  -1.108   2.176  1.00  0.00     0.017 C 
HETATM    3  C15 UNL     1      -0.615  -1.819   2.476  1.00  0.00     0.021 C 
HETATM    4  C16 UNL     1      -1.421  -1.974   1.181  1.00  0.00     0.126 C 
HETATM    5  N3  UNL     1      -1.014  -1.066   0.151  1.00  0.00    -0.351 N 
HETATM    6  C17 UNL     1      -1.917  -0.216  -0.495  1.00  0.00     0.226 C 
HETATM    7  O3  UNL     1      -1.461   0.538  -1.425  1.00  0.00    -0.273 OA
HETATM    8  C32 UNL     1       0.390  -1.050  -0.227  1.00  0.00     0.139 C 
ENDROOT
BRANCH   6   9
HETATM    9  C18 UNL     1      -3.355  -0.118  -0.187  1.00  0.00     0.108 C 
HETATM   10  C19 UNL     1      -4.062   0.441  -1.371  1.00  0.00     0.252 C 
HETATM   11  N4  UNL     1      -5.361   0.993  -1.136  1.00  0.00    -0.060 N 
HETATM   12  C22 UNL     1      -5.223   2.390  -0.849  1.00  0.00     0.238 C 
HETATM   13  C31 UNL     1      -6.075   0.228  -0.192  1.00  0.00     0.224 C 
HETATM   14  C23 UNL     1      -3.933   2.795  -0.226  1.00  0.00     0.028 C 
HETATM   15  C24 UNL     1      -3.529   2.119   1.016  1.00  0.00     0.007 C 
HETATM   16  C25 UNL     1      -3.530   0.649   1.079  1.00  0.00     0.001 C 
HETATM   17  C26 UNL     1      -4.755   0.159   1.869  1.00  0.00     0.014 C 
HETATM   18  C27 UNL     1      -6.003   0.649   1.232  1.00  0.00     0.047 C 
HETATM   19  C28 UNL     1      -7.163  -0.143   1.854  1.00  0.00     0.278 C 
HETATM   20  N5  UNL     1      -7.935  -0.677   0.775  1.00  0.00     0.086 N 
HETATM   21  C29 UNL     1      -9.344  -0.482   1.087  1.00  0.00     0.310 C 
HETATM   22  C30 UNL     1      -7.567   0.125  -0.409  1.00  0.00     0.305 C 
BRANCH  11  23
HETATM   23  C20 UNL     1      -6.061   0.891  -2.431  1.00  0.00     0.233 C 
HETATM   24  C21 UNL     1      -7.131   1.890  -2.632  1.00  0.00     0.035 C 
ENDBRANCH  11  23
ENDBRANCH   6   9
BRANCH   1  25
HETATM   25  C12 UNL     1       2.668  -1.381   0.692  1.00  0.00     0.224 C 
HETATM   26  N2  UNL     1       3.262  -1.836  -0.483  1.00  0.00    -0.347 N 
ATOM     27  H2  UNL     1       2.636  -2.323  -1.124  1.00  0.00     0.163 HD
HETATM   28  O2  UNL     1       3.222  -0.770   1.627  1.00  0.00    -0.273 OA
BRANCH  26  29
HETATM   29  C7  UNL     1       4.629  -1.723  -0.930  1.00  0.00     0.177 C 
BRANCH  29  30
HETATM   30  C6  UNL     1       5.095  -0.329  -0.969  1.00  0.00     0.242 C 
HETATM   31  N1  UNL     1       6.329   0.120  -1.493  1.00  0.00    -0.355 N 
HETATM   32  C5  UNL     1       7.317  -0.716  -2.157  1.00  0.00     0.152 C 
HETATM   33  O1  UNL     1       4.335   0.556  -0.501  1.00  0.00    -0.271 OA
BRANCH  31  34
HETATM   34  C4  UNL     1       6.676   1.531  -1.420  1.00  0.00     0.125 C 
BRANCH  34  35
HETATM   35  C3  UNL     1       7.411   1.923  -0.195  1.00  0.00     0.019 C 
BRANCH  35  36
HETATM   36  C2  UNL     1       7.699   3.403  -0.260  1.00  0.00    -0.003 C 
HETATM   37  C1  UNL     1       8.538   3.707  -1.480  1.00  0.00     0.005 C 
ENDBRANCH  35  36
ENDBRANCH  34  35
ENDBRANCH  31  34
ENDBRANCH  29  30
BRANCH  29  38
HETATM   38  C8  UNL     1       5.528  -2.732  -0.331  1.00  0.00     0.038 C 
BRANCH  38  39
HETATM   39  C9  UNL     1       5.962  -2.663   1.056  1.00  0.00    -0.020 C 
HETATM   40  C10 UNL     1       6.881  -3.897   1.258  1.00  0.00     0.009 C 
HETATM   41  C11 UNL     1       6.760  -1.511   1.526  1.00  0.00     0.009 C 
ENDBRANCH  38  39
ENDBRANCH  29  38
ENDBRANCH  26  29
ENDBRANCH   1  25
TORSDOF 10
