REMARK  10 active torsions:
REMARK  status: ('A' for Active; 'I' for Inactive)
REMARK    1  A    between atoms: C2_2  and  C5_5 
REMARK    2  A    between atoms: N2_18  and  C14_19 
REMARK    3  A    between atoms: C14_19  and  C15_20 
REMARK    4  A    between atoms: C15_20  and  C16_21 
REMARK    5  A    between atoms: C16_21  and  C17_22 
REMARK    6  A    between atoms: C17_22  and  C18_23 
REMARK    7  A    between atoms: C18_23  and  C19_24 
REMARK    8  A    between atoms: C18_23  and  N5_38 
REMARK       I    between atoms: C19_24  and  N3_26 
REMARK    9  A    between atoms: C25_32  and  C26_33 
REMARK   10  A    between atoms: C26_33  and  N4_34 
ROOT
HETATM    1  C16 UNL     1       0.147  -0.442  -2.489  1.00  0.00     0.004 C 
ENDROOT
BRANCH   1   2
HETATM    2  C15 UNL     1       0.861  -1.402  -1.596  1.00  0.00     0.020 C 
BRANCH   2   3
HETATM    3  C14 UNL     1       2.332  -1.475  -2.030  1.00  0.00     0.127 C 
BRANCH   3   4
HETATM    4  N2  UNL     1       3.071  -2.394  -1.196  1.00  0.00    -0.333 N 
HETATM    5  C8  UNL     1       3.759  -2.047   0.017  1.00  0.00     0.051 C 
HETATM    6  C7  UNL     1       5.244  -2.219  -0.252  1.00  0.00     0.033 C 
HETATM    7  C9  UNL     1       3.417  -0.708   0.571  1.00  0.00     0.033 C 
HETATM    8  C11 UNL     1       3.367  -3.091   1.071  1.00  0.00     0.154 C 
HETATM    9  C6  UNL     1       5.796  -0.817  -0.535  1.00  0.00     0.008 C 
HETATM   10  C5  UNL     1       5.859  -0.123   0.787  1.00  0.00    -0.007 C 
HETATM   11  C10 UNL     1       4.503  -0.182   1.451  1.00  0.00     0.008 C 
HETATM   12  N1  UNL     1       3.724  -4.430   0.666  1.00  0.00    -0.351 N 
HETATM   13  C12 UNL     1       3.458  -4.829  -0.655  1.00  0.00     0.309 C 
ATOM     14  H1  UNL     1       4.161  -5.074   1.326  1.00  0.00     0.162 HD
HETATM   15  O1  UNL     1       3.494  -6.032  -1.049  1.00  0.00    -0.262 OA
HETATM   16  C13 UNL     1       3.119  -3.754  -1.613  1.00  0.00     0.312 C 
HETATM   17  O2  UNL     1       2.883  -4.129  -2.790  1.00  0.00    -0.262 OA
BRANCH  10  18
HETATM   18  C2  UNL     1       6.402   1.264   0.671  1.00  0.00    -0.048 C 
HETATM   19  C1  UNL     1       5.623   2.190  -0.203  1.00  0.00     0.015 C 
HETATM   20  C3  UNL     1       7.800   1.139   0.058  1.00  0.00     0.015 C 
HETATM   21  C4  UNL     1       6.615   1.863   2.057  1.00  0.00     0.015 C 
ENDBRANCH  10  18
ENDBRANCH   3   4
ENDBRANCH   2   3
ENDBRANCH   1   2
BRANCH   1  22
HETATM   22  C17 UNL     1      -1.280  -0.234  -2.233  1.00  0.00     0.035 C 
BRANCH  22  23
HETATM   23  C18 UNL     1      -1.743   0.345  -0.953  1.00  0.00     0.176 C 
BRANCH  23  24
HETATM   24  C19 UNL     1      -3.252   0.358  -1.021  1.00  0.00     0.247 C 
HETATM   25  O3  UNL     1      -3.786  -0.047  -2.115  1.00  0.00    -0.271 OA
HETATM   26  N3  UNL     1      -4.129   0.762  -0.011  1.00  0.00    -0.318 N 
HETATM   27  C20 UNL     1      -3.717   1.219   1.316  1.00  0.00     0.137 C 
HETATM   28  C25 UNL     1      -5.590   0.763  -0.243  1.00  0.00     0.038 C 
HETATM   29  C21 UNL     1      -4.138   2.653   1.480  1.00  0.00     0.009 A 
HETATM   30  C22 UNL     1      -5.109   3.122   2.462  1.00  0.00     0.012 A 
HETATM   31  C23 UNL     1      -5.504   2.912   0.969  1.00  0.00    -0.003 A 
HETATM   32  C24 UNL     1      -6.323   1.678   0.674  1.00  0.00     0.063 C 
BRANCH  28  33
HETATM   33  C26 UNL     1      -6.192  -0.540  -0.498  1.00  0.00     0.226 C 
BRANCH  33  34
HETATM   34  N4  UNL     1      -6.129  -1.609   0.414  1.00  0.00    -0.057 N 
HETATM   35  C27 UNL     1      -6.750  -1.388   1.704  1.00  0.00     0.277 C 
HETATM   36  C28 UNL     1      -6.998  -2.648  -0.216  1.00  0.00     0.277 C 
HETATM   37  C29 UNL     1      -4.870  -2.293   0.551  1.00  0.00     0.277 C 
ENDBRANCH  33  34
ENDBRANCH  28  33
ENDBRANCH  23  24
BRANCH  23  38
HETATM   38  N5  UNL     1      -1.288   1.605  -0.571  1.00  0.00    -0.380 N 
HETATM   39  C30 UNL     1      -1.607   2.708  -1.420  1.00  0.00     0.123 C 
HETATM   40  C31 UNL     1      -0.944   3.879  -0.793  1.00  0.00     0.025 C 
HETATM   41  C32 UNL     1       0.056   3.350   0.195  1.00  0.00     0.046 C 
HETATM   42  C33 UNL     1      -0.057   1.835   0.050  1.00  0.00     0.059 C 
ENDBRANCH  23  38
ENDBRANCH  22  23
ENDBRANCH   1  22
TORSDOF 10
