REMARK  10 active torsions:
REMARK  status: ('A' for Active; 'I' for Inactive)
REMARK    1  A    between atoms: C4_5  and  C6_7 
REMARK    2  A    between atoms: C6_7  and  O2_8 
REMARK    3  A    between atoms: O2_8  and  O3_9 
REMARK    4  A    between atoms: C12_16  and  C13_17 
REMARK    5  A    between atoms: C13_17  and  O4_18 
REMARK    6  A    between atoms: C13_17  and  C14_20 
REMARK    7  A    between atoms: C14_20  and  C15_21 
REMARK    8  A    between atoms: C15_21  and  C16_22 
REMARK    9  A    between atoms: C16_22  and  C17_23 
REMARK   10  A    between atoms: C17_23  and  O5_26 
ROOT
HETATM    1  C1  UNL     1      -3.304   2.821  -0.445  1.00  0.00     0.017 C 
HETATM    2  C2  UNL     1      -3.261   1.585   0.017  1.00  0.00    -0.057 C 
HETATM    3  C3  UNL     1      -3.936   1.289   1.304  1.00  0.00     0.203 C 
HETATM    4  O1  UNL     1      -4.593   0.100   1.339  1.00  0.00    -0.374 OA
HETATM    5  C4  UNL     1      -4.538  -0.692   0.230  1.00  0.00     0.086 C 
HETATM    6  C5  UNL     1      -4.914  -2.122   0.670  1.00  0.00     0.049 C 
HETATM    7  C7  UNL     1      -3.115  -0.791  -0.239  1.00  0.00     0.035 C 
HETATM    8  C8  UNL     1      -2.359  -1.466   0.848  1.00  0.00     0.009 C 
HETATM    9  C9  UNL     1      -0.985  -0.967   1.143  1.00  0.00     0.010 C 
HETATM   10  C10 UNL     1      -0.297  -0.505  -0.088  1.00  0.00    -0.033 C 
HETATM   11  C11 UNL     1      -0.239  -1.668  -1.058  1.00  0.00     0.016 C 
HETATM   12  C12 UNL     1       1.085   0.026   0.083  1.00  0.00     0.023 C 
HETATM   13  C20 UNL     1       0.976   1.486  -0.114  1.00  0.00     0.008 C 
HETATM   14  C21 UNL     1      -0.501   1.788   0.001  1.00  0.00     0.007 C 
HETATM   15  C22 UNL     1      -1.086   0.604  -0.751  1.00  0.00     0.007 C 
HETATM   16  C23 UNL     1      -2.544   0.496  -0.750  1.00  0.00    -0.008 C 
HETATM   17  C24 UNL     1      -3.021   0.665  -2.193  1.00  0.00     0.021 C 
ENDROOT
BRANCH  12  18
HETATM   18  C13 UNL     1       1.784  -0.286   1.349  1.00  0.00     0.123 C 
BRANCH  18  19
HETATM   19  O4  UNL     1       1.969  -1.660   1.590  1.00  0.00    -0.395 OA
ATOM     20  H4  UNL     1       2.418  -1.860   2.403  1.00  0.00     0.210 HD
ENDBRANCH  18  19
BRANCH  18  21
HETATM   21  C14 UNL     1       3.177   0.302   1.365  1.00  0.00     0.032 C 
BRANCH  21  22
HETATM   22  C15 UNL     1       4.064  -0.192   0.272  1.00  0.00     0.006 C 
BRANCH  22  23
HETATM   23  C16 UNL     1       5.413   0.514   0.467  1.00  0.00     0.037 C 
BRANCH  23  24
HETATM   24  C17 UNL     1       6.397   0.080  -0.599  1.00  0.00     0.051 C 
HETATM   25  C18 UNL     1       7.690   0.824  -0.327  1.00  0.00     0.045 C 
HETATM   26  C19 UNL     1       6.697  -1.388  -0.551  1.00  0.00     0.045 C 
BRANCH  24  27
HETATM   27  O5  UNL     1       5.967   0.429  -1.869  1.00  0.00    -0.391 OA
ATOM     28  H5  UNL     1       6.584   0.157  -2.538  1.00  0.00     0.210 HD
ENDBRANCH  24  27
ENDBRANCH  23  24
ENDBRANCH  22  23
ENDBRANCH  21  22
ENDBRANCH  18  21
ENDBRANCH  12  18
BRANCH   5  29
HETATM   29  C6  UNL     1      -5.548  -0.327  -0.801  1.00  0.00     0.247 C 
BRANCH  29  30
HETATM   30  O2  UNL     1      -6.811  -0.479  -0.170  1.00  0.00    -0.240 OA
BRANCH  30  31
HETATM   31  O3  UNL     1      -7.760  -0.173  -1.022  1.00  0.00    -0.251 OA
ATOM     32  H3  UNL     1      -8.605  -0.275  -0.600  1.00  0.00     0.253 HD
ENDBRANCH  30  31
ENDBRANCH  29  30
ENDBRANCH   5  29
TORSDOF 10
