REMARK  7 active torsions:
REMARK  status: ('A' for Active; 'I' for Inactive)
REMARK    1  A    between atoms: C2_2  and  C3_3 
REMARK    2  A    between atoms: C4_4  and  C5_5 
REMARK    3  A    between atoms: C13_15  and  C14_16 
REMARK    4  A    between atoms: C14_16  and  C15_17 
REMARK    5  A    between atoms: C15_17  and  C17_19 
REMARK    6  A    between atoms: C18_20  and  C19_21 
REMARK    7  A    between atoms: C20_22  and  O2_23 
ROOT
HETATM    1  C14 UNL     1       1.895  -0.911  -2.359  1.00  0.00     0.035 C 
ENDROOT
BRANCH   1   2
HETATM    2  C13 UNL     1       0.852  -0.658  -1.368  1.00  0.00    -0.019 C 
HETATM    3  C2  UNL     1      -0.442  -0.460  -1.632  1.00  0.00    -0.066 C 
HETATM    4  C1  UNL     1      -0.895  -0.490  -3.046  1.00  0.00     0.048 C 
BRANCH   3   5
HETATM    5  C3  UNL     1      -1.357  -0.223  -0.537  1.00  0.00     0.003 C 
HETATM    6  C4  UNL     1      -2.644  -0.016  -0.641  1.00  0.00    -0.013 C 
BRANCH   6   7
HETATM    7  C5  UNL     1      -3.502   0.221   0.575  1.00  0.00     0.019 C 
HETATM    8  C6  UNL     1      -3.465   1.668   0.909  1.00  0.00     0.017 C 
HETATM    9  C7  UNL     1      -4.639   2.144   1.720  1.00  0.00     0.001 C 
HETATM   10  C8  UNL     1      -5.960   1.674   1.210  1.00  0.00     0.003 C 
HETATM   11  C9  UNL     1      -5.841   0.808  -0.026  1.00  0.00     0.035 C 
HETATM   12  C10 UNL     1      -4.888  -0.318   0.318  1.00  0.00     0.159 C 
HETATM   13  O1  UNL     1      -5.250  -0.834   1.536  1.00  0.00    -0.297 OA
HETATM   14  N1  UNL     1      -4.182  -1.343   2.141  1.00  0.00    -0.200 NA
HETATM   15  C11 UNL     1      -4.146  -2.770   2.066  1.00  0.00     0.143 C 
HETATM   16  C12 UNL     1      -3.004  -0.686   1.661  1.00  0.00     0.136 C 
ENDBRANCH   6   7
ENDBRANCH   3   5
ENDBRANCH   1   2
BRANCH   1  17
HETATM   17  C15 UNL     1       2.996   0.125  -2.335  1.00  0.00     0.007 C 
HETATM   18  C16 UNL     1       2.432   1.481  -2.616  1.00  0.00     0.014 C 
BRANCH  17  19
HETATM   19  C17 UNL     1       3.676   0.130  -0.983  1.00  0.00    -0.021 C 
HETATM   20  C18 UNL     1       4.938  -0.148  -0.882  1.00  0.00     0.018 C 
BRANCH  20  21
HETATM   21  C19 UNL     1       5.776  -0.201   0.280  1.00  0.00     0.083 A 
HETATM   22  C20 UNL     1       5.356   0.046   1.553  1.00  0.00     0.158 A 
HETATM   23  N2  UNL     1       6.245  -0.033   2.600  1.00  0.00    -0.313 N 
HETATM   24  C21 UNL     1       7.519  -0.353   2.363  1.00  0.00     0.180 A 
ATOM     25  H2  UNL     1       5.932   0.152   3.553  1.00  0.00     0.170 HD
HETATM   26  S1  UNL     1       8.545  -0.438   3.632  1.00  0.00    -0.040 SA
HETATM   27  N3  UNL     1       7.943  -0.599   1.118  1.00  0.00    -0.299 N 
HETATM   28  C22 UNL     1       7.129  -0.538   0.060  1.00  0.00     0.262 A 
ATOM     29  H3  UNL     1       8.923  -0.842   0.971  1.00  0.00     0.171 HD
HETATM   30  O3  UNL     1       7.555  -0.775  -1.109  1.00  0.00    -0.267 OA
BRANCH  22  31
HETATM   31  O2  UNL     1       4.041   0.380   1.822  1.00  0.00    -0.345 OA
ATOM     32  H2  UNL     1       3.748   0.552   2.709  1.00  0.00     0.219 HD
ENDBRANCH  22  31
ENDBRANCH  20  21
ENDBRANCH  17  19
ENDBRANCH   1  17
TORSDOF 7
