REMARK  17 active torsions:
REMARK  status: ('A' for Active; 'I' for Inactive)
REMARK    1  A    between atoms: C3_3  and  C4_4 
REMARK    2  A    between atoms: C4_4  and  C5_5 
REMARK    3  A    between atoms: C5_5  and  C6_6 
REMARK    4  A    between atoms: C6_6  and  C7_7 
REMARK    5  A    between atoms: C7_7  and  N1_8 
REMARK    6  A    between atoms: N1_8  and  C8_10 
REMARK    7  A    between atoms: C9_13  and  N3_14 
REMARK    8  A    between atoms: N3_14  and  C10_16 
REMARK    9  A    between atoms: C12_20  and  N5_21 
REMARK   10  A    between atoms: N5_21  and  C13_23 
REMARK   11  A    between atoms: C13_23  and  C14_24 
REMARK   12  A    between atoms: C17_27  and  C18_28 
REMARK       I    between atoms: C18_28  and  N6_30 
REMARK   13  A    between atoms: N6_30  and  C19_32 
REMARK   14  A    between atoms: C19_32  and  C20_33 
REMARK   15  A    between atoms: C20_33  and  C21_34 
REMARK   16  A    between atoms: C21_34  and  C22_35 
REMARK   17  A    between atoms: C22_35  and  N7_36 
ROOT
HETATM    1  C1  UNL     1      10.687   4.677  -0.846  1.00  0.00     0.012 C 
HETATM    2  C2  UNL     1       9.803   4.099  -0.236  1.00  0.00    -0.117 C 
HETATM    3  C3  UNL     1       8.754   3.393   0.515  1.00  0.00     0.093 C 
ENDROOT
BRANCH   3   4
HETATM    4  C4  UNL     1       8.162   2.300  -0.399  1.00  0.00     0.012 C 
BRANCH   4   5
HETATM    5  C5  UNL     1       9.294   1.394  -0.751  1.00  0.00     0.002 C 
BRANCH   5   6
HETATM    6  C6  UNL     1       8.974   0.278  -1.678  1.00  0.00     0.020 C 
BRANCH   6   7
HETATM    7  C7  UNL     1       7.956  -0.680  -1.201  1.00  0.00     0.138 C 
BRANCH   7   8
HETATM    8  N1  UNL     1       6.649  -0.185  -0.965  1.00  0.00    -0.225 N 
ATOM      9  H1  UNL     1       6.457   0.802  -1.135  1.00  0.00     0.177 HD
BRANCH   8  10
HETATM   10  C8  UNL     1       5.703  -0.935  -0.546  1.00  0.00     0.707 A 
HETATM   11  N2  UNL     1       5.929  -2.251  -0.309  1.00  0.00    -0.022 N 
HETATM   12  C9  UNL     1       4.937  -3.026   0.129  1.00  0.00     0.707 A 
ATOM     13  H2  UNL     1       6.856  -2.647  -0.466  1.00  0.00     0.203 HD
HETATM   14  N4  UNL     1       3.725  -2.460   0.324  1.00  0.00    -0.022 N 
HETATM   15  C12 UNL     1       3.461  -1.162   0.101  1.00  0.00     0.707 A 
ATOM     16  H4  UNL     1       2.967  -3.053   0.660  1.00  0.00     0.203 HD
HETATM   17  N8  UNL     1       4.474  -0.385  -0.343  1.00  0.00    -0.022 N 
ATOM     18  H8  UNL     1       4.319   0.607  -0.525  1.00  0.00     0.203 HD
BRANCH  12  19
HETATM   19  N3  UNL     1       5.157  -4.272   0.350  1.00  0.00    -0.225 N 
ATOM     20  H3  UNL     1       4.401  -4.869   0.685  1.00  0.00     0.177 HD
BRANCH  19  21
HETATM   21  C10 UNL     1       6.454  -4.827   0.129  1.00  0.00     0.133 C 
HETATM   22  C11 UNL     1       6.484  -6.332   0.273  1.00  0.00     0.027 C 
ENDBRANCH  19  21
ENDBRANCH  12  19
BRANCH  15  23
HETATM   23  N5  UNL     1       2.290  -0.676   0.306  1.00  0.00    -0.221 N 
ATOM     24  H5  UNL     1       2.115   0.313   0.130  1.00  0.00     0.178 HD
BRANCH  23  25
HETATM   25  C13 UNL     1       1.219  -1.520   0.784  1.00  0.00     0.176 C 
BRANCH  25  26
HETATM   26  C14 UNL     1      -0.114  -0.822   0.685  1.00  0.00    -0.040 A 
HETATM   27  C15 UNL     1      -0.947  -1.057  -0.383  1.00  0.00     0.010 A 
HETATM   28  C16 UNL     1      -2.160  -0.427  -0.479  1.00  0.00     0.017 A 
HETATM   29  C17 UNL     1      -2.590   0.469   0.499  1.00  0.00     0.032 A 
HETATM   30  C27 UNL     1      -1.753   0.692   1.553  1.00  0.00     0.017 A 
HETATM   31  C28 UNL     1      -0.520   0.058   1.660  1.00  0.00     0.010 A 
BRANCH  29  32
HETATM   32  C18 UNL     1      -3.903   1.144   0.377  1.00  0.00     0.255 C 
HETATM   33  O1  UNL     1      -4.380   1.129  -0.779  1.00  0.00    -0.267 OA
HETATM   34  N6  UNL     1      -4.537   1.741   1.473  1.00  0.00    -0.337 N 
ATOM     35  H6  UNL     1      -4.018   1.695   2.350  1.00  0.00     0.168 HD
BRANCH  34  36
HETATM   36  C19 UNL     1      -5.782   2.396   1.551  1.00  0.00     0.064 C 
BRANCH  36  37
HETATM   37  C20 UNL     1      -7.044   1.658   1.415  1.00  0.00     0.046 C 
BRANCH  37  38
HETATM   38  C21 UNL     1      -7.298   0.920   0.154  1.00  0.00     0.035 C 
BRANCH  38  39
HETATM   39  C22 UNL     1      -8.699   0.283   0.238  1.00  0.00     0.273 C 
BRANCH  39  40
HETATM   40  N7  UNL     1      -9.725   1.243   0.405  1.00  0.00     0.092 N 
HETATM   41  C23 UNL     1      -9.963   2.104  -0.719  1.00  0.00     0.298 C 
HETATM   42  C24 UNL     1     -10.850   1.482  -1.757  1.00  0.00     0.198 C 
HETATM   43  O2  UNL     1     -10.996   0.112  -1.635  1.00  0.00    -0.388 OA
HETATM   44  C25 UNL     1     -11.474  -0.282  -0.397  1.00  0.00     0.198 C 
HETATM   45  C26 UNL     1     -10.975   0.590   0.727  1.00  0.00     0.298 C 
ENDBRANCH  39  40
ENDBRANCH  38  39
ENDBRANCH  37  38
ENDBRANCH  36  37
ENDBRANCH  34  36
ENDBRANCH  29  32
ENDBRANCH  25  26
ENDBRANCH  23  25
ENDBRANCH  15  23
ENDBRANCH   8  10
ENDBRANCH   7   8
ENDBRANCH   6   7
ENDBRANCH   5   6
ENDBRANCH   4   5
ENDBRANCH   3   4
TORSDOF 17
