REMARK  16 active torsions:
REMARK  status: ('A' for Active; 'I' for Inactive)
REMARK    1  A    between atoms: C2_2  and  C3_3 
REMARK    2  A    between atoms: C3_3  and  C4_4 
REMARK    3  A    between atoms: C4_4  and  C5_5 
REMARK    4  A    between atoms: C5_5  and  C6_6 
REMARK    5  A    between atoms: C7_7  and  C8_8 
REMARK    6  A    between atoms: C8_8  and  C10_10 
REMARK    7  A    between atoms: N1_13  and  C12_14 
REMARK    8  A    between atoms: C12_14  and  O2_15 
REMARK    9  A    between atoms: C12_14  and  C13_17 
REMARK   10  A    between atoms: C13_17  and  C16_20 
REMARK   11  A    between atoms: N2_24  and  C20_25 
REMARK   12  A    between atoms: C20_25  and  C21_26 
REMARK   13  A    between atoms: N4_33  and  C26_34 
REMARK   14  A    between atoms: C26_34  and  C27_35 
REMARK   15  A    between atoms: C27_35  and  N5_36 
REMARK   16  A    between atoms: N5_36  and  C28_38 
ROOT
HETATM    1  C6  UNL     1      -1.472   0.412   0.828  1.00  0.00     0.250 C 
HETATM    2  C7  UNL     1      -0.718   0.379  -0.519  1.00  0.00     0.147 C 
HETATM    3  N1  UNL     1      -0.129   1.635  -0.685  1.00  0.00    -0.375 N 
HETATM    4  C23 UNL     1      -0.406   2.570   0.408  1.00  0.00     0.155 C 
HETATM    5  C24 UNL     1      -1.797   2.679   0.896  1.00  0.00     0.237 C 
HETATM    6  C25 UNL     1      -1.745   3.268   2.289  1.00  0.00     0.044 C 
HETATM    7  N4  UNL     1      -2.475   1.414   0.809  1.00  0.00     0.102 N 
ENDROOT
BRANCH   3   8
HETATM    8  C12 UNL     1       1.018   1.944  -1.368  1.00  0.00     0.224 C 
BRANCH   8   9
HETATM    9  O2  UNL     1       0.961   3.403  -1.487  1.00  0.00    -0.376 OA
ATOM     10  H2  UNL     1       1.756   3.617  -1.961  1.00  0.00     0.212 HD
ENDBRANCH   8   9
BRANCH   8  11
HETATM   11  C13 UNL     1       2.424   1.702  -1.111  1.00  0.00     0.001 C 
HETATM   12  C14 UNL     1       2.825   2.406   0.248  1.00  0.00     0.020 C 
HETATM   13  C15 UNL     1       3.186   2.616  -2.133  1.00  0.00     0.020 C 
BRANCH  11  14
HETATM   14  C16 UNL     1       3.144   0.439  -1.188  1.00  0.00     0.026 C 
HETATM   15  C17 UNL     1       4.638   0.727  -0.910  1.00  0.00     0.009 C 
HETATM   16  C18 UNL     1       5.099   0.347   0.445  1.00  0.00     0.031 C 
HETATM   17  C19 UNL     1       4.835  -1.125   0.773  1.00  0.00     0.273 C 
HETATM   18  N2  UNL     1       4.036  -1.600  -0.302  1.00  0.00     0.097 N 
HETATM   19  C22 UNL     1       2.848  -0.724  -0.350  1.00  0.00     0.278 C 
BRANCH  18  20
HETATM   20  C20 UNL     1       3.690  -2.970  -0.157  1.00  0.00     0.371 C 
BRANCH  20  21
HETATM   21  C21 UNL     1       4.850  -3.845  -0.348  1.00  0.00     0.259 C 
HETATM   22  N3  UNL     1       4.768  -5.270  -0.235  1.00  0.00    -0.061 NA
HETATM   23  O3  UNL     1       5.982  -3.368  -0.623  1.00  0.00    -0.275 OA
ENDBRANCH  20  21
ENDBRANCH  18  20
ENDBRANCH  11  14
ENDBRANCH   8  11
ENDBRANCH   3   8
BRANCH   2  24
HETATM   24  C8  UNL     1      -1.619  -0.132  -1.597  1.00  0.00    -0.014 C 
HETATM   25  C9  UNL     1      -2.847   0.640  -1.915  1.00  0.00     0.049 C 
BRANCH  24  26
HETATM   26  C10 UNL     1      -0.981  -0.793  -2.750  1.00  0.00     0.149 C 
HETATM   27  C11 UNL     1      -1.863  -1.273  -3.874  1.00  0.00     0.096 C 
HETATM   28  O1  UNL     1       0.196  -0.958  -2.820  1.00  0.00    -0.293 OA
ENDBRANCH  24  26
ENDBRANCH   2  24
BRANCH   1  29
HETATM   29  C5  UNL     1      -1.986  -0.909   1.272  1.00  0.00     0.038 C 
BRANCH  29  30
HETATM   30  C4  UNL     1      -0.903  -1.943   1.465  1.00  0.00     0.002 C 
BRANCH  30  31
HETATM   31  C3  UNL     1      -1.500  -3.256   1.921  1.00  0.00    -0.000 C 
BRANCH  31  32
HETATM   32  C2  UNL     1      -2.478  -3.845   0.951  1.00  0.00    -0.005 C 
HETATM   33  C1  UNL     1      -1.853  -4.129  -0.388  1.00  0.00     0.005 C 
ENDBRANCH  31  32
ENDBRANCH  30  31
ENDBRANCH  29  30
ENDBRANCH   1  29
BRANCH   7  34
HETATM   34  C26 UNL     1      -3.609   1.229   1.625  1.00  0.00     0.293 C 
BRANCH  34  35
HETATM   35  C27 UNL     1      -4.629   2.301   1.463  1.00  0.00     0.152 C 
BRANCH  35  36
HETATM   36  N5  UNL     1      -5.772   2.014   2.344  1.00  0.00    -0.367 N 
ATOM     37  H5  UNL     1      -5.766   1.183   2.935  1.00  0.00     0.161 HD
BRANCH  36  38
HETATM   38  C28 UNL     1      -6.889   2.901   2.370  1.00  0.00     0.348 C 
HETATM   39  O4  UNL     1      -6.919   3.926   1.657  1.00  0.00    -0.284 OA
ENDBRANCH  36  38
ENDBRANCH  35  36
ENDBRANCH  34  35
ENDBRANCH   7  34
TORSDOF 16
