REMARK  13 active torsions:
REMARK  status: ('A' for Active; 'I' for Inactive)
REMARK    1  A    between atoms: C2_2  and  C3_3 
REMARK    2  A    between atoms: C5_7  and  C6_8 
REMARK       I    between atoms: C6_8  and  N1_10 
REMARK    3  A    between atoms: C7_12  and  C8_13 
REMARK    4  A    between atoms: C8_13  and  C9_14 
REMARK    5  A    between atoms: C9_14  and  C10_15 
REMARK    6  A    between atoms: C10_15  and  N2_16 
REMARK    7  A    between atoms: C13_22  and  C14_23 
REMARK       I    between atoms: C14_23  and  N5_25 
REMARK    8  A    between atoms: N5_25  and  C15_27 
REMARK    9  A    between atoms: C15_27  and  C16_28 
REMARK   10  A    between atoms: C16_28  and  C17_29 
REMARK   11  A    between atoms: C17_29  and  C18_30 
REMARK   12  A    between atoms: C18_30  and  C19_31 
REMARK   13  A    between atoms: C19_31  and  C20_32 
ROOT
HETATM    1  C3  UNL     1      -1.145  -0.923  -3.446  1.00  0.00     0.158 C 
HETATM    2  O1  UNL     1      -0.802   0.426  -3.242  1.00  0.00    -0.311 OA
HETATM    3  C4  UNL     1      -1.076   0.987  -2.008  1.00  0.00     0.277 C 
HETATM    4  O2  UNL     1      -0.849   2.215  -1.863  1.00  0.00    -0.264 OA
HETATM    5  C5  UNL     1      -1.616   0.249  -0.847  1.00  0.00     0.130 C 
HETATM    6  C12 UNL     1      -0.496   0.193   0.188  1.00  0.00     0.044 C 
HETATM    7  C13 UNL     1       0.450  -0.920  -0.127  1.00  0.00     0.080 C 
HETATM    8  C22 UNL     1       0.464  -1.339  -1.573  1.00  0.00     0.021 C 
HETATM    9  C23 UNL     1      -0.877  -1.659  -2.143  1.00  0.00     0.021 C 
HETATM   10  C24 UNL     1      -1.962  -1.176  -1.172  1.00  0.00     0.037 C 
ENDROOT
BRANCH   5  11
HETATM   11  C6  UNL     1      -2.818   0.916  -0.311  1.00  0.00     0.240 C 
HETATM   12  O3  UNL     1      -2.778   1.304   0.900  1.00  0.00    -0.272 OA
HETATM   13  N1  UNL     1      -3.939   1.098  -1.136  1.00  0.00    -0.340 N 
HETATM   14  C7  UNL     1      -4.952   0.302  -1.088  1.00  0.00     0.064 C 
ATOM     15  H1  UNL     1      -3.952   1.880  -1.790  1.00  0.00     0.167 HD
BRANCH  14  16
HETATM   16  C8  UNL     1      -6.133   0.472  -1.939  1.00  0.00     0.046 C 
BRANCH  16  17
HETATM   17  C9  UNL     1      -7.403   0.258  -1.191  1.00  0.00     0.025 C 
BRANCH  17  18
HETATM   18  C10 UNL     1      -7.580   1.225  -0.050  1.00  0.00     0.122 C 
BRANCH  18  19
HETATM   19  N2  UNL     1      -6.511   1.068   0.883  1.00  0.00    -0.367 N 
HETATM   20  C11 UNL     1      -6.706   0.609   2.082  1.00  0.00     0.196 C 
HETATM   21  N3  UNL     1      -5.570   0.494   2.927  1.00  0.00    -0.067 NA
HETATM   22  N4  UNL     1      -8.015   0.257   2.465  1.00  0.00    -0.067 NA
ATOM     23  H2  UNL     1      -5.565   1.324   0.599  1.00  0.00     0.161 HD
ENDBRANCH  18  19
ENDBRANCH  17  18
ENDBRANCH  16  17
ENDBRANCH  14  16
ENDBRANCH   5  11
BRANCH   7  24
HETATM   24  C14 UNL     1       1.837  -0.454   0.199  1.00  0.00     0.221 C 
HETATM   25  O4  UNL     1       2.052   0.690   0.663  1.00  0.00    -0.273 OA
HETATM   26  N5  UNL     1       2.908  -1.331  -0.026  1.00  0.00    -0.361 N 
ATOM     27  H5  UNL     1       2.708  -2.256  -0.407  1.00  0.00     0.162 HD
BRANCH  26  28
HETATM   28  C15 UNL     1       4.257  -0.990   0.253  1.00  0.00     0.122 C 
BRANCH  28  29
HETATM   29  C16 UNL     1       4.520  -0.690   1.706  1.00  0.00     0.020 C 
BRANCH  29  30
HETATM   30  C17 UNL     1       6.005  -0.356   1.799  1.00  0.00     0.002 C 
BRANCH  30  31
HETATM   31  C18 UNL     1       6.429  -0.035   3.181  1.00  0.00     0.007 C 
BRANCH  31  32
HETATM   32  C19 UNL     1       7.889   0.279   3.247  1.00  0.00     0.077 C 
BRANCH  32  33
HETATM   33  C20 UNL     1       8.330   1.457   2.489  1.00  0.00     0.123 C 
HETATM   34  C21 UNL     1       9.786   1.746   2.446  1.00  0.00     0.091 C 
HETATM   35  O5  UNL     1       7.582   2.182   1.915  1.00  0.00    -0.298 OA
ENDBRANCH  32  33
ENDBRANCH  31  32
ENDBRANCH  30  31
ENDBRANCH  29  30
ENDBRANCH  28  29
ENDBRANCH  26  28
ENDBRANCH   7  24
BRANCH   1  36
HETATM   36  C2  UNL     1      -0.494  -1.540  -4.593  1.00  0.00    -0.005 C 
HETATM   37  C1  UNL     1      -0.100  -0.804  -5.615  1.00  0.00     0.009 C 
ENDBRANCH   1  36
TORSDOF 13
