REMARK  15 active torsions:
REMARK  status: ('A' for Active; 'I' for Inactive)
REMARK    1  A    between atoms: C2_2  and  N1_3 
REMARK    2  A    between atoms: N1_3  and  C3_5 
REMARK    3  A    between atoms: C3_5  and  C4_6 
REMARK    4  A    between atoms: C3_5  and  C7_9 
REMARK    5  A    between atoms: C7_9  and  C8_10 
REMARK    6  A    between atoms: C7_9  and  N2_14 
REMARK    7  A    between atoms: C8_10  and  C9_11 
REMARK       I    between atoms: N2_14  and  C12_16 
REMARK    8  A    between atoms: C12_16  and  C13_18 
REMARK    9  A    between atoms: C13_18  and  C14_19 
REMARK   10  A    between atoms: C13_18  and  O5_37 
REMARK   11  A    between atoms: C14_19  and  C15_20 
REMARK       I    between atoms: C15_20  and  N3_22 
REMARK   12  A    between atoms: N3_22  and  C16_24 
REMARK   13  A    between atoms: C16_24  and  C22_34 
REMARK   14  A    between atoms: C17_25  and  O3_26 
REMARK   15  A    between atoms: C17_25  and  N4_28 
ROOT
HETATM    1  C13 UNL     1       0.509  -0.994   2.275  1.00  0.00     0.221 C 
ENDROOT
BRANCH   1   2
HETATM    2  C12 UNL     1      -0.405  -0.255   1.332  1.00  0.00     0.251 C 
HETATM    3  N2  UNL     1      -1.780  -0.677   1.216  1.00  0.00    -0.327 N 
ATOM      4  H2  UNL     1      -2.090  -1.474   1.772  1.00  0.00     0.168 HD
HETATM    5  O1  UNL     1      -0.036   0.681   0.665  1.00  0.00    -0.270 OA
BRANCH   3   6
HETATM    6  C7  UNL     1      -2.739  -0.031   0.355  1.00  0.00     0.035 C 
BRANCH   6   7
HETATM    7  C3  UNL     1      -4.106  -0.022   0.886  1.00  0.00     0.031 C 
BRANCH   7   8
HETATM    8  N1  UNL     1      -4.816  -1.267   0.798  1.00  0.00    -0.392 N 
ATOM      9  H1  UNL     1      -4.608  -1.989   0.109  1.00  0.00     0.159 HD
BRANCH   8  10
HETATM   10  C2  UNL     1      -5.885  -1.388   1.818  1.00  0.00     0.115 C 
HETATM   11  C1  UNL     1      -6.594  -2.733   1.604  1.00  0.00     0.026 C 
ENDBRANCH   8  10
ENDBRANCH   7   8
BRANCH   7  12
HETATM   12  C4  UNL     1      -4.957   1.188   0.585  1.00  0.00     0.029 C 
HETATM   13  C5  UNL     1      -4.179   2.466   0.731  1.00  0.00     0.016 C 
HETATM   14  C6  UNL     1      -5.717   1.119  -0.711  1.00  0.00     0.016 C 
ENDBRANCH   7  12
ENDBRANCH   6   7
BRANCH   6  15
HETATM   15  C8  UNL     1      -2.498  -0.398  -1.069  1.00  0.00     0.063 C 
BRANCH  15  16
HETATM   16  C9  UNL     1      -2.887  -1.712  -1.585  1.00  0.00    -0.017 C 
HETATM   17  C10 UNL     1      -2.264  -2.916  -0.912  1.00  0.00     0.010 C 
HETATM   18  C11 UNL     1      -2.305  -1.753  -3.033  1.00  0.00     0.010 C 
ENDBRANCH  15  16
ENDBRANCH   6  15
ENDBRANCH   3   6
ENDBRANCH   1   2
BRANCH   1  19
HETATM   19  C14 UNL     1       1.609  -1.624   1.422  1.00  0.00     0.144 C 
BRANCH  19  20
HETATM   20  C15 UNL     1       2.510  -0.642   0.768  1.00  0.00     0.225 C 
HETATM   21  O2  UNL     1       2.611   0.555   1.064  1.00  0.00    -0.273 OA
HETATM   22  N3  UNL     1       3.340  -1.127  -0.296  1.00  0.00    -0.327 N 
ATOM     23  H3  UNL     1       3.287  -2.104  -0.584  1.00  0.00     0.168 HD
BRANCH  22  24
HETATM   24  C16 UNL     1       4.263  -0.212  -0.965  1.00  0.00     0.066 C 
HETATM   25  C17 UNL     1       3.660   1.031  -1.297  1.00  0.00     0.161 C 
BRANCH  25  26
HETATM   26  O3  UNL     1       2.370   0.872  -1.670  1.00  0.00    -0.345 OA
ATOM     27  H3  UNL     1       1.967   1.703  -1.892  1.00  0.00     0.219 HD
ENDBRANCH  25  26
BRANCH  25  28
HETATM   28  N4  UNL     1       4.014   2.374  -1.353  1.00  0.00    -0.356 N 
HETATM   29  C18 UNL     1       5.250   3.015  -1.009  1.00  0.00     0.151 C 
HETATM   30  C19 UNL     1       5.772   3.898  -2.157  1.00  0.00     0.187 C 
HETATM   31  O4  UNL     1       4.927   3.774  -3.251  1.00  0.00    -0.388 OA
HETATM   32  C20 UNL     1       3.636   4.229  -2.883  1.00  0.00     0.187 C 
HETATM   33  C21 UNL     1       2.989   3.331  -1.863  1.00  0.00     0.151 C 
ENDBRANCH  25  28
BRANCH  24  34
HETATM   34  C22 UNL     1       5.626  -0.319  -0.394  1.00  0.00     0.032 C 
HETATM   35  C23 UNL     1       5.695  -0.010   1.088  1.00  0.00     0.016 C 
HETATM   36  C24 UNL     1       5.993  -1.828  -0.480  1.00  0.00     0.016 C 
ENDBRANCH  24  34
ENDBRANCH  22  24
ENDBRANCH  19  20
ENDBRANCH   1  19
BRANCH   1  37
HETATM   37  O5  UNL     1      -0.143  -1.843   3.040  1.00  0.00    -0.381 OA
HETATM   38  C25 UNL     1      -0.028  -1.773   4.404  1.00  0.00     0.202 C 
ENDBRANCH   1  37
TORSDOF 15
