REMARK  15 active torsions:
REMARK  status: ('A' for Active; 'I' for Inactive)
REMARK    1  A    between atoms: C2_2  and  C3_3 
REMARK    2  A    between atoms: C3_3  and  C4_4 
REMARK    3  A    between atoms: C4_4  and  C5_5 
REMARK    4  A    between atoms: C5_5  and  C6_6 
REMARK    5  A    between atoms: C6_6  and  N1_7 
REMARK    6  A    between atoms: N1_7  and  C7_9 
REMARK    7  A    between atoms: C8_12  and  C9_13 
REMARK    8  A    between atoms: C9_13  and  N3_14 
REMARK    9  A    between atoms: N3_14  and  S1_16 
REMARK   10  A    between atoms: S1_16  and  N4_19 
REMARK   11  A    between atoms: C15_25  and  N5_26 
REMARK   12  A    between atoms: N5_26  and  C16_28 
REMARK   13  A    between atoms: C16_28  and  C17_29 
REMARK   14  A    between atoms: C17_29  and  C18_30 
REMARK   15  A    between atoms: C18_30  and  N6_31 
ROOT
HETATM    1  C7  UNL     1      -0.625   1.222   1.015  1.00  0.00     0.679 A 
HETATM    2  N2  UNL     1       0.650   1.536   0.736  1.00  0.00    -0.194 N 
ATOM      3  H2  UNL     1       0.857   2.456   0.347  1.00  0.00     0.184 HD
HETATM    4  C8  UNL     1       1.665   0.679   0.952  1.00  0.00     0.048 A 
HETATM    5  C14 UNL     1       1.354  -0.549   1.475  1.00  0.00     0.076 A 
HETATM    6  C15 UNL     1       0.033  -0.935   1.787  1.00  0.00     0.122 A 
HETATM    7  N7  UNL     1      -0.890  -0.006   1.532  1.00  0.00    -0.177 N 
ATOM      8  H7  UNL     1      -1.862  -0.234   1.740  1.00  0.00     0.186 HD
ENDROOT
BRANCH   4   9
HETATM    9  C9  UNL     1       3.083   1.055   0.623  1.00  0.00     0.191 C 
BRANCH   9  10
HETATM   10  N3  UNL     1       3.462   0.313  -0.564  1.00  0.00    -0.301 N 
ATOM     11  H3  UNL     1       2.858  -0.338  -1.066  1.00  0.00     0.173 HD
BRANCH  10  12
HETATM   12  S1  UNL     1       5.087   0.697  -1.001  1.00  0.00     0.299 S 
HETATM   13  O1  UNL     1       5.333   2.111  -0.629  1.00  0.00    -0.188 OA
HETATM   14  O2  UNL     1       5.319   0.472  -2.464  1.00  0.00    -0.188 OA
BRANCH  12  15
HETATM   15  N4  UNL     1       6.123  -0.392  -0.150  1.00  0.00    -0.194 NA
HETATM   16  C10 UNL     1       5.883  -1.758  -0.503  1.00  0.00     0.109 C 
HETATM   17  C11 UNL     1       7.185  -2.499  -0.200  1.00  0.00     0.017 C 
HETATM   18  C12 UNL     1       8.162  -1.377   0.175  1.00  0.00     0.017 C 
HETATM   19  C13 UNL     1       7.517  -0.223  -0.594  1.00  0.00     0.109 C 
ENDBRANCH  12  15
ENDBRANCH  10  12
ENDBRANCH   9  10
ENDBRANCH   4   9
BRANCH   1  20
HETATM   20  N1  UNL     1      -1.598   2.043   0.820  1.00  0.00    -0.226 N 
ATOM     21  H1  UNL     1      -2.555   1.770   1.042  1.00  0.00     0.177 HD
BRANCH  20  22
HETATM   22  C6  UNL     1      -1.321   3.342   0.288  1.00  0.00     0.138 C 
BRANCH  22  23
HETATM   23  C5  UNL     1      -2.532   4.260   0.353  1.00  0.00     0.020 C 
BRANCH  23  24
HETATM   24  C4  UNL     1      -2.087   5.580  -0.236  1.00  0.00     0.002 C 
BRANCH  24  25
HETATM   25  C3  UNL     1      -3.229   6.543  -0.188  1.00  0.00    -0.000 C 
BRANCH  25  26
HETATM   26  C2  UNL     1      -4.391   6.004  -0.987  1.00  0.00    -0.005 C 
HETATM   27  C1  UNL     1      -5.502   7.036  -0.895  1.00  0.00     0.005 C 
ENDBRANCH  25  26
ENDBRANCH  24  25
ENDBRANCH  23  24
ENDBRANCH  22  23
ENDBRANCH  20  22
ENDBRANCH   1  20
BRANCH   6  28
HETATM   28  N5  UNL     1      -0.186  -2.097   2.272  1.00  0.00    -0.355 N 
ATOM     29  H5  UNL     1       0.616  -2.710   2.418  1.00  0.00     0.166 HD
BRANCH  28  30
HETATM   30  C16 UNL     1      -1.456  -2.588   2.618  1.00  0.00     0.064 C 
BRANCH  30  31
HETATM   31  C17 UNL     1      -2.037  -3.555   1.606  1.00  0.00     0.074 C 
BRANCH  31  32
HETATM   32  C18 UNL     1      -2.197  -2.942   0.257  1.00  0.00     0.277 C 
BRANCH  32  33
HETATM   33  N6  UNL     1      -2.740  -3.852  -0.692  1.00  0.00     0.092 N 
HETATM   34  C19 UNL     1      -4.096  -4.234  -0.471  1.00  0.00     0.298 C 
HETATM   35  C20 UNL     1      -4.674  -4.855  -1.728  1.00  0.00     0.198 C 
HETATM   36  O3  UNL     1      -3.680  -5.226  -2.635  1.00  0.00    -0.388 OA
HETATM   37  C21 UNL     1      -2.650  -5.879  -1.986  1.00  0.00     0.198 C 
HETATM   38  C22 UNL     1      -1.921  -4.970  -1.019  1.00  0.00     0.298 C 
ENDBRANCH  32  33
ENDBRANCH  31  32
ENDBRANCH  30  31
ENDBRANCH  28  30
ENDBRANCH   6  28
TORSDOF 15
