REMARK  5 active torsions:
REMARK  status: ('A' for Active; 'I' for Inactive)
REMARK    1  A    between atoms: C2_2  and  N1_3 
REMARK    2  A    between atoms: C2_2  and  C3_7 
REMARK    3  A    between atoms: C3_7  and  N2_8 
REMARK    4  A    between atoms: C3_7  and  C4_12 
REMARK    5  A    between atoms: C5_15  and  N4_16 
ROOT
HETATM    1  C4  UNL     1       0.721  -0.537   0.227  1.00  0.00     0.145 A 
HETATM    2  N3  UNL     1       1.845   0.197   0.268  1.00  0.00    -0.176 N 
ATOM      3  H3  UNL     1       1.950   1.067   0.791  1.00  0.00     0.185 HD
HETATM    4  C5  UNL     1       2.817  -0.371  -0.475  1.00  0.00     0.691 A 
HETATM    5  N5  UNL     1       2.257  -1.487  -0.980  1.00  0.00    -0.131 N 
ATOM      6  H5  UNL     1       2.727  -2.154  -1.593  1.00  0.00     0.205 HD
HETATM    7  N6  UNL     1       1.004  -1.588  -0.561  1.00  0.00    -0.272 N 
ATOM      8  H6  UNL     1       0.359  -2.342  -0.798  1.00  0.00     0.189 HD
ENDROOT
BRANCH   1   9
HETATM    9  C3  UNL     1      -0.586  -0.287   0.894  1.00  0.00     0.282 C 
BRANCH   9  10
HETATM   10  C2  UNL     1      -1.277   0.829   0.097  1.00  0.00     0.217 C 
HETATM   11  C1  UNL     1      -1.464   0.424  -1.339  1.00  0.00     0.042 C 
BRANCH  10  12
HETATM   12  N1  UNL     1      -2.507   1.180   0.755  1.00  0.00    -0.073 N 
ATOM     13  H13 UNL     1      -3.001   1.906   0.236  1.00  0.00     0.274 HD
ATOM     14  H12 UNL     1      -3.187   0.424   0.678  1.00  0.00     0.274 HD
ATOM     15  H11 UNL     1      -2.380   1.455   1.729  1.00  0.00     0.274 HD
ENDBRANCH  10  12
ENDBRANCH   9  10
BRANCH   9  16
HETATM   16  N2  UNL     1      -0.411   0.107   2.258  1.00  0.00    -0.066 N 
ATOM     17  H23 UNL     1       0.088   0.993   2.336  1.00  0.00     0.275 HD
ATOM     18  H22 UNL     1      -1.292   0.390   2.687  1.00  0.00     0.275 HD
ATOM     19  H21 UNL     1       0.048  -0.634   2.787  1.00  0.00     0.275 HD
ENDBRANCH   9  16
ENDBRANCH   1   9
BRANCH   4  20
HETATM   20  N4  UNL     1       4.029   0.031  -0.684  1.00  0.00    -0.233 N 
ATOM     21  H42 UNL     1       4.453   0.876  -0.302  1.00  0.00     0.174 HD
ATOM     22  H41 UNL     1       4.764  -0.399  -1.246  1.00  0.00     0.174 HD
ENDBRANCH   4  20
TORSDOF 5
