REMARK  4 active torsions:
REMARK  status: ('A' for Active; 'I' for Inactive)
REMARK    1  A    between atoms: C2_2  and  O1_3 
REMARK    2  A    between atoms: O1_3  and  C3_4 
REMARK    3  A    between atoms: C4_7  and  N2_8 
REMARK    4  A    between atoms: C5_13  and  N4_14 
ROOT
HETATM    1  C3  UNL     1      -0.127   0.251  -0.183  1.00  0.00     0.252 A 
HETATM    2  N1  UNL     1       0.544  -0.622   0.590  1.00  0.00    -0.154 N 
ATOM      3  H1  UNL     1       0.031  -1.367   1.061  1.00  0.00     0.188 HD
HETATM    4  C4  UNL     1       1.876  -0.534   0.755  1.00  0.00     0.693 A 
HETATM    5  N3  UNL     1       2.540   0.454   0.128  1.00  0.00    -0.023 N 
ATOM      6  H3  UNL     1       3.550   0.527   0.249  1.00  0.00     0.203 HD
HETATM    7  C5  UNL     1       1.910   1.347  -0.653  1.00  0.00     0.693 A 
HETATM    8  N5  UNL     1       0.577   1.237  -0.802  1.00  0.00    -0.154 N 
ATOM      9  H5  UNL     1       0.084   1.907  -1.392  1.00  0.00     0.188 HD
ENDROOT
BRANCH   1  10
HETATM   10  O1  UNL     1      -1.499   0.199  -0.382  1.00  0.00    -0.322 OA
BRANCH  10  11
HETATM   11  C2  UNL     1      -2.199  -0.846   0.281  1.00  0.00     0.174 C 
HETATM   12  C1  UNL     1      -3.664  -0.798  -0.010  1.00  0.00     0.034 C 
ENDBRANCH  10  11
ENDBRANCH   1  10
BRANCH   4  13
HETATM   13  N2  UNL     1       2.517  -1.388   1.508  1.00  0.00    -0.234 N 
ATOM     14  H22 UNL     1       2.014  -2.137   1.983  1.00  0.00     0.174 HD
ATOM     15  H21 UNL     1       3.527  -1.321   1.633  1.00  0.00     0.174 HD
ENDBRANCH   4  13
BRANCH   7  16
HETATM   16  N4  UNL     1       2.551   2.289  -1.249  1.00  0.00    -0.234 N 
ATOM     17  H42 UNL     1       3.561   2.372  -1.136  1.00  0.00     0.174 HD
ATOM     18  H41 UNL     1       2.073   2.967  -1.842  1.00  0.00     0.174 HD
ENDBRANCH   7  16
TORSDOF 4
