REMARK  3 active torsions:
REMARK  status: ('A' for Active; 'I' for Inactive)
REMARK    1  A    between atoms: C4_11  and  N5_12 
REMARK    2  A    between atoms: N6_15  and  C5_16 
REMARK    3  A    between atoms: C5_16  and  C6_17 
ROOT
HETATM    1  N1  UNL     1       0.699  -2.196   1.375  1.00  0.00    -0.234 N 
ATOM      2  H11 UNL     1       1.709  -2.255   1.242  1.00  0.00     0.174 HD
ATOM      3  H12 UNL     1       0.203  -2.837   1.994  1.00  0.00     0.174 HD
HETATM    4  C1  UNL     1       0.135  -1.253   0.716  1.00  0.00     0.681 A 
HETATM    5  N2  UNL     1      -1.219  -1.174   0.894  1.00  0.00    -0.177 N 
ATOM      6  H2  UNL     1      -1.667  -1.838   1.526  1.00  0.00     0.185 HD
HETATM    7  C2  UNL     1      -1.985  -0.262   0.275  1.00  0.00     0.159 A 
HETATM    8  N3  UNL     1      -3.396  -0.187   0.466  1.00  0.00    -0.080 NA
HETATM    9  C3  UNL     1      -1.333   0.613  -0.568  1.00  0.00     0.132 A 
HETATM   10  N4  UNL     1      -2.092   1.604  -1.254  1.00  0.00    -0.095 NA
HETATM   11  C4  UNL     1       0.021   0.516  -0.730  1.00  0.00     0.145 A 
HETATM   12  N6  UNL     1       0.788  -0.410  -0.099  1.00  0.00    -0.165 N 
ENDROOT
BRANCH  12  13
HETATM   13  C5  UNL     1       2.193  -0.467  -0.269  1.00  0.00     0.180 C 
BRANCH  13  14
HETATM   14  C6  UNL     1       3.034   0.385   0.585  1.00  0.00     0.242 C 
HETATM   15  F1  UNL     1       2.887   0.143   1.934  1.00  0.00    -0.254 F 
ENDBRANCH  13  14
ENDBRANCH  12  13
BRANCH  11  16
HETATM   16  N5  UNL     1       0.658   1.313  -1.505  1.00  0.00    -0.383 N 
ATOM     17  H52 UNL     1       0.082   2.009  -1.979  1.00  0.00     0.157 HD
ATOM     18  H51 UNL     1       1.668   1.241  -1.626  1.00  0.00     0.157 HD
ENDBRANCH  11  16
TORSDOF 3
