REMARK  5 active torsions:
REMARK  status: ('A' for Active; 'I' for Inactive)
REMARK    1  A    between atoms: N1_1  and  C1_4 
REMARK    2  A    between atoms: C2_7  and  N3_8 
REMARK    3  A    between atoms: N3_8  and  N4_10 
REMARK    4  A    between atoms: N5_13  and  C3_14 
REMARK    5  A    between atoms: C3_14  and  C4_15 
ROOT
HETATM    1  C1  UNL     1      -1.305  -1.555  -0.425  1.00  0.00     0.705 A 
HETATM    2  N2  UNL     1      -1.669  -0.302  -0.083  1.00  0.00    -0.018 N 
ATOM      3  H2  UNL     1      -2.618  -0.005   0.145  1.00  0.00     0.203 HD
HETATM    4  C2  UNL     1      -0.580   0.500  -0.090  1.00  0.00     0.728 A 
HETATM    5  N5  UNL     1       0.437  -0.305  -0.444  1.00  0.00    -0.107 N 
HETATM    6  N6  UNL     1       0.023  -1.539  -0.648  1.00  0.00    -0.115 N 
ATOM      7  H6  UNL     1       0.600  -2.334  -0.923  1.00  0.00     0.206 HD
ENDROOT
BRANCH   4   8
HETATM    8  N3  UNL     1      -0.561   1.761   0.187  1.00  0.00    -0.137 N 
ATOM      9  H3  UNL     1       0.321   2.271   0.150  1.00  0.00     0.205 HD
BRANCH   8  10
HETATM   10  N4  UNL     1      -1.727   2.432   0.535  1.00  0.00    -0.331 N 
ATOM     11  H42 UNL     1      -2.601   1.907   0.567  1.00  0.00     0.177 HD
ATOM     12  H41 UNL     1      -1.712   3.428   0.754  1.00  0.00     0.177 HD
ENDBRANCH   8  10
ENDBRANCH   4   8
BRANCH   5  13
HETATM   13  C3  UNL     1       1.793   0.127  -0.578  1.00  0.00     0.183 C 
BRANCH  13  14
HETATM   14  C4  UNL     1       2.606   0.009   0.694  1.00  0.00     0.137 C 
HETATM   15 CL1  UNL     1       1.976   0.946   2.033  1.00  0.00    -0.129 Cl
ENDBRANCH  13  14
ENDBRANCH   5  13
BRANCH   1  16
HETATM   16  N1  UNL     1      -2.086  -2.590  -0.523  1.00  0.00    -0.233 N 
ATOM     17  H12 UNL     1      -3.092  -2.602  -0.354  1.00  0.00     0.174 HD
ATOM     18  H11 UNL     1      -1.811  -3.537  -0.782  1.00  0.00     0.174 HD
ENDBRANCH   1  16
TORSDOF 5
