REMARK  5 active torsions:
REMARK  status: ('A' for Active; 'I' for Inactive)
REMARK    1  A    between atoms: N1_1  and  C1_4 
REMARK    2  A    between atoms: C2_7  and  C3_8 
REMARK    3  A    between atoms: C3_8  and  O1_9 
REMARK    4  A    between atoms: O1_9  and  N3_10 
REMARK    5  A    between atoms: C4_15  and  N5_16 
ROOT
HETATM    1  C1  UNL     1      -1.135   1.498  -0.021  1.00  0.00     0.691 A 
HETATM    2  N2  UNL     1       0.130   1.136   0.260  1.00  0.00    -0.177 N 
ATOM      3  H2  UNL     1       0.885   1.814   0.158  1.00  0.00     0.185 HD
HETATM    4  C2  UNL     1       0.409  -0.120   0.677  1.00  0.00     0.139 A 
HETATM    5  N4  UNL     1      -0.630  -0.968   0.792  1.00  0.00    -0.177 N 
ATOM      6  H4  UNL     1      -0.452  -1.923   1.104  1.00  0.00     0.185 HD
HETATM    7  C4  UNL     1      -1.895  -0.604   0.511  1.00  0.00     0.691 A 
HETATM    8  N6  UNL     1      -2.169   0.646   0.097  1.00  0.00    -0.023 N 
ATOM      9  H6  UNL     1      -3.123   0.936  -0.119  1.00  0.00     0.203 HD
ENDROOT
BRANCH   4  10
HETATM   10  C3  UNL     1       1.810  -0.529   0.989  1.00  0.00     0.278 C 
BRANCH  10  11
HETATM   11  O1  UNL     1       2.461  -1.041  -0.135  1.00  0.00    -0.280 OA
BRANCH  11  12
HETATM   12  N3  UNL     1       2.526  -0.138  -1.135  1.00  0.00    -0.311 N 
ATOM     13  H32 UNL     1       2.140   0.804  -1.063  1.00  0.00     0.184 HD
ATOM     14  H31 UNL     1       3.002  -0.512  -1.956  1.00  0.00     0.184 HD
ENDBRANCH  11  12
ENDBRANCH  10  11
ENDBRANCH   4  10
BRANCH   1  15
HETATM   15  N1  UNL     1      -1.405   2.699  -0.420  1.00  0.00    -0.234 N 
ATOM     16  H12 UNL     1      -0.621   3.345  -0.509  1.00  0.00     0.174 HD
ATOM     17  H11 UNL     1      -2.364   2.973  -0.633  1.00  0.00     0.174 HD
ENDBRANCH   1  15
BRANCH   7  18
HETATM   18  N5  UNL     1      -2.896  -1.413   0.620  1.00  0.00    -0.234 N 
ATOM     19  H52 UNL     1      -2.688  -2.361   0.934  1.00  0.00     0.174 HD
ATOM     20  H51 UNL     1      -3.855  -1.137   0.407  1.00  0.00     0.174 HD
ENDBRANCH   7  18
TORSDOF 5
