REMARK  6 active torsions:
REMARK  status: ('A' for Active; 'I' for Inactive)
REMARK    1  A    between atoms: N1_1  and  C1_4 
REMARK    2  A    between atoms: C2_7  and  O1_8 
REMARK    3  A    between atoms: O1_8  and  C3_9 
REMARK    4  A    between atoms: C3_9  and  O2_10 
REMARK    5  A    between atoms: O2_10  and  N3_11 
REMARK    6  A    between atoms: C4_16  and  N5_17 
ROOT
HETATM    1  C1  UNL     1      -1.355   1.308  -0.275  1.00  0.00     0.693 A 
HETATM    2  N2  UNL     1      -0.239   0.551  -0.361  1.00  0.00    -0.154 N 
ATOM      3  H2  UNL     1       0.604   0.961  -0.763  1.00  0.00     0.188 HD
HETATM    4  C2  UNL     1      -0.200  -0.730   0.067  1.00  0.00     0.254 A 
HETATM    5  N4  UNL     1      -1.310  -1.283   0.599  1.00  0.00    -0.154 N 
ATOM      6  H4  UNL     1      -1.303  -2.249   0.927  1.00  0.00     0.188 HD
HETATM    7  C4  UNL     1      -2.426  -0.538   0.689  1.00  0.00     0.693 A 
HETATM    8  N6  UNL     1      -2.459   0.755   0.256  1.00  0.00    -0.023 N 
ATOM      9  H6  UNL     1      -3.318   1.300   0.335  1.00  0.00     0.203 HD
ENDROOT
BRANCH   4  10
HETATM   10  O1  UNL     1       0.932  -1.517  -0.014  1.00  0.00    -0.293 OA
BRANCH  10  11
HETATM   11  C3  UNL     1       2.099  -0.945  -0.571  1.00  0.00     0.379 C 
BRANCH  11  12
HETATM   12  O2  UNL     1       2.437   0.152   0.216  1.00  0.00    -0.261 OA
BRANCH  12  13
HETATM   13  N3  UNL     1       3.551   0.699  -0.315  1.00  0.00    -0.309 N 
ATOM     14  H32 UNL     1       4.043   0.359  -1.141  1.00  0.00     0.184 HD
ATOM     15  H31 UNL     1       3.799   1.503   0.262  1.00  0.00     0.184 HD
ENDBRANCH  12  13
ENDBRANCH  11  12
ENDBRANCH  10  11
ENDBRANCH   4  10
BRANCH   1  16
HETATM   16  N1  UNL     1      -1.399   2.536  -0.683  1.00  0.00    -0.234 N 
ATOM     17  H12 UNL     1      -0.561   2.956  -1.086  1.00  0.00     0.174 HD
ATOM     18  H11 UNL     1      -2.241   3.107  -0.618  1.00  0.00     0.174 HD
ENDBRANCH   1  16
BRANCH   7  19
HETATM   19  N5  UNL     1      -3.501  -1.016   1.186  1.00  0.00    -0.234 N 
ATOM     20  H52 UNL     1      -3.476  -1.983   1.510  1.00  0.00     0.174 HD
ATOM     21  H51 UNL     1      -4.347  -0.451   1.254  1.00  0.00     0.174 HD
ENDBRANCH   7  19
TORSDOF 6
