REMARK  6 active torsions:
REMARK  status: ('A' for Active; 'I' for Inactive)
REMARK    1  A    between atoms: N1_1  and  C1_4 
REMARK    2  A    between atoms: C2_7  and  O1_8 
REMARK    3  A    between atoms: O1_8  and  C3_9 
REMARK    4  A    between atoms: C3_9  and  C4_10 
REMARK    5  A    between atoms: C4_10  and  O2_11 
REMARK    6  A    between atoms: C5_15  and  N4_16 
ROOT
HETATM    1  C1  UNL     1      -1.624  -1.145   0.563  1.00  0.00     0.693 A 
HETATM    2  N2  UNL     1      -0.404  -0.840   0.121  1.00  0.00    -0.154 N 
ATOM      3  H2  UNL     1       0.330  -1.548   0.146  1.00  0.00     0.188 HD
HETATM    4  C2  UNL     1      -0.128   0.373  -0.353  1.00  0.00     0.252 A 
HETATM    5  N3  UNL     1      -1.116   1.291  -0.377  1.00  0.00    -0.154 N 
ATOM      6  H3  UNL     1      -0.915   2.223  -0.738  1.00  0.00     0.188 HD
HETATM    7  C5  UNL     1      -2.351   1.018   0.058  1.00  0.00     0.693 A 
HETATM    8  N5  UNL     1      -2.603  -0.216   0.532  1.00  0.00    -0.023 N 
ATOM      9  H5  UNL     1      -3.537  -0.450   0.869  1.00  0.00     0.203 HD
ENDROOT
BRANCH   4  10
HETATM   10  O1  UNL     1       1.092   0.792  -0.832  1.00  0.00    -0.319 OA
BRANCH  10  11
HETATM   11  C3  UNL     1       2.228  -0.005  -0.881  1.00  0.00     0.205 C 
BRANCH  11  12
HETATM   12  C4  UNL     1       2.636  -0.424   0.502  1.00  0.00     0.191 C 
BRANCH  12  13
HETATM   13  O2  UNL     1       2.895   0.758   1.229  1.00  0.00    -0.399 OA
ATOM     14  H2  UNL     1       3.153   0.493   2.104  1.00  0.00     0.209 HD
ENDBRANCH  12  13
ENDBRANCH  11  12
ENDBRANCH  10  11
ENDBRANCH   4  10
BRANCH   1  15
HETATM   15  N1  UNL     1      -1.905  -2.336   1.031  1.00  0.00    -0.234 N 
ATOM     16  H12 UNL     1      -1.165  -3.038   1.054  1.00  0.00     0.174 HD
ATOM     17  H11 UNL     1      -2.839  -2.569   1.369  1.00  0.00     0.174 HD
ENDBRANCH   1  15
BRANCH   7  18
HETATM   18  N4  UNL     1      -3.295   1.917   0.027  1.00  0.00    -0.234 N 
ATOM     19  H42 UNL     1      -3.104   2.852  -0.332  1.00  0.00     0.174 HD
ATOM     20  H41 UNL     1      -4.237   1.709   0.359  1.00  0.00     0.174 HD
ENDBRANCH   7  18
TORSDOF 6
