REMARK  4 active torsions:
REMARK  status: ('A' for Active; 'I' for Inactive)
REMARK    1  A    between atoms: N1_1  and  C1_4 
REMARK    2  A    between atoms: C4_10  and  C5_11 
REMARK    3  A    between atoms: C5_11  and  C6_14 
REMARK    4  A    between atoms: C6_14  and  N4_15 
ROOT
HETATM    1  C1  UNL     1      -1.671   1.375   0.549  1.00  0.00     0.676 A 
HETATM    2  N2  UNL     1      -2.655   0.457   0.546  1.00  0.00    -0.200 N 
ATOM      3  H2  UNL     1      -3.602   0.723   0.814  1.00  0.00     0.183 HD
HETATM    4  C2  UNL     1      -2.388  -0.810   0.189  1.00  0.00     0.135 A 
HETATM    5  C3  UNL     1      -1.125  -1.182  -0.170  1.00  0.00     0.091 A 
HETATM    6  N3  UNL     1      -0.816  -2.493  -0.546  1.00  0.00    -0.099 NA
HETATM    7  C4  UNL     1      -0.129  -0.193  -0.152  1.00  0.00     0.125 A 
HETATM    8  N5  UNL     1      -0.398   1.049   0.198  1.00  0.00    -0.188 N 
ATOM      9  H5  UNL     1       0.338   1.755   0.206  1.00  0.00     0.184 HD
ENDROOT
BRANCH   7  10
HETATM   10  C5  UNL     1       1.232  -0.598  -0.567  1.00  0.00     0.311 C 
HETATM   11  F1  UNL     1       1.638  -1.737   0.119  1.00  0.00    -0.197 F 
HETATM   12  F2  UNL     1       1.089  -1.009  -1.907  1.00  0.00    -0.197 F 
BRANCH  10  13
HETATM   13  C6  UNL     1       2.270   0.467  -0.508  1.00  0.00     0.315 C 
BRANCH  13  14
HETATM   14  N4  UNL     1       2.482   0.977   0.813  1.00  0.00    -0.073 N 
ATOM     15  H43 UNL     1       1.606   1.302   1.221  1.00  0.00     0.274 HD
ATOM     16  H42 UNL     1       2.700   0.222   1.463  1.00  0.00     0.274 HD
ATOM     17  H41 UNL     1       3.193   1.707   0.853  1.00  0.00     0.274 HD
ENDBRANCH  13  14
ENDBRANCH  10  13
ENDBRANCH   7  10
BRANCH   1  18
HETATM   18  N1  UNL     1      -1.962   2.571   0.894  1.00  0.00    -0.234 N 
ATOM     19  H12 UNL     1      -2.917   2.815   1.157  1.00  0.00     0.174 HD
ATOM     20  H11 UNL     1      -1.216   3.267   0.896  1.00  0.00     0.174 HD
ENDBRANCH   1  18
TORSDOF 4
