REMARK  5 active torsions:
REMARK  status: ('A' for Active; 'I' for Inactive)
REMARK    1  A    between atoms: C2_2  and  N1_3 
REMARK    2  A    between atoms: C9_11  and  C10_12 
REMARK    3  A    between atoms: C10_12  and  N3_13 
REMARK       I    between atoms: N3_13  and  C11_15 
REMARK    4  A    between atoms: C11_15  and  C12_17 
REMARK    5  A    between atoms: C13_20  and  N5_21 
ROOT
HETATM    1  C10 UNL     1       1.111   0.466  -1.162  1.00  0.00     0.071 C 
ENDROOT
BRANCH   1   2
HETATM    2  C9  UNL     1      -0.154   0.115  -0.479  1.00  0.00     0.059 C 
HETATM    3  C8  UNL     1      -1.255   0.707  -1.325  1.00  0.00     0.048 C 
HETATM    4  C7  UNL     1      -2.630   0.518  -0.826  1.00  0.00     0.226 C 
HETATM    5  N1  UNL     1      -3.082  -0.848  -0.803  1.00  0.00     0.094 N 
HETATM    6  C6  UNL     1      -2.933   1.287   0.438  1.00  0.00     0.071 C 
HETATM    7  C3  UNL     1      -3.317  -1.367   0.499  1.00  0.00     0.303 C 
HETATM    8  C4  UNL     1      -1.978  -1.463   1.198  1.00  0.00     0.303 C 
HETATM    9  N2  UNL     1      -1.408  -0.276   1.590  1.00  0.00     0.100 N 
HETATM   10  C5  UNL     1      -2.070   0.932   1.592  1.00  0.00     0.227 C 
HETATM   11  C16 UNL     1      -0.251   0.301   0.938  1.00  0.00     0.234 C 
HETATM   12  C17 UNL     1      -0.749   1.638   1.420  1.00  0.00     0.072 C 
BRANCH   5  13
HETATM   13  C2  UNL     1      -4.157  -1.133  -1.692  1.00  0.00     0.268 C 
HETATM   14  C1  UNL     1      -5.449  -0.425  -1.400  1.00  0.00     0.037 C 
ENDBRANCH   5  13
ENDBRANCH   1   2
BRANCH   1  15
HETATM   15  N3  UNL     1       2.382   0.127  -0.714  1.00  0.00    -0.335 N 
HETATM   16  C11 UNL     1       3.109   0.607   0.355  1.00  0.00     0.273 C 
HETATM   17  O1  UNL     1       2.709   1.504   1.143  1.00  0.00    -0.266 OA
ATOM     18  H3  UNL     1       2.852  -0.592  -1.264  1.00  0.00     0.168 HD
BRANCH  16  19
HETATM   19  C12 UNL     1       4.495   0.088   0.700  1.00  0.00     0.116 A 
HETATM   20  N4  UNL     1       4.888   0.002   1.950  1.00  0.00    -0.332 N 
HETATM   21  C13 UNL     1       6.122  -0.414   2.206  1.00  0.00     0.143 A 
ATOM     22  H4  UNL     1       4.256   0.251   2.711  1.00  0.00     0.168 HD
HETATM   23  S1  UNL     1       6.776  -0.699   0.668  1.00  0.00    -0.057 SA
HETATM   24  C14 UNL     1       5.389  -0.257  -0.268  1.00  0.00     0.015 A 
HETATM   25  C15 UNL     1       5.297  -0.246  -1.775  1.00  0.00     0.059 C 
BRANCH  21  26
HETATM   26  N5  UNL     1       6.680  -0.559   3.398  1.00  0.00    -0.380 N 
ATOM     27  H52 UNL     1       6.287  -0.388   4.323  1.00  0.00     0.158 HD
ATOM     28  H51 UNL     1       7.628  -0.879   3.595  1.00  0.00     0.158 HD
ENDBRANCH  21  26
ENDBRANCH  16  19
ENDBRANCH   1  15
TORSDOF 5
