REMARK  7 active torsions:
REMARK  status: ('A' for Active; 'I' for Inactive)
REMARK    1  A    between atoms: C3_4  and  S1_5 
REMARK    2  A    between atoms: S1_5  and  C4_6 
REMARK    3  A    between atoms: C7_9  and  C8_10 
REMARK    4  A    between atoms: C8_10  and  N1_11 
REMARK    5  A    between atoms: N1_11  and  S2_13 
REMARK    6  A    between atoms: S2_13  and  N2_14 
REMARK    7  A    between atoms: C10_20  and  O4_21 
ROOT
HETATM    1  C4  UNL     1      -0.060  -0.070   1.781  1.00  0.00     0.083 C 
HETATM    2  C5  UNL     1       0.285  -1.360   1.119  1.00  0.00     0.018 C 
HETATM    3  C6  UNL     1       1.656  -1.270   0.527  1.00  0.00     0.007 C 
HETATM    4  C7  UNL     1       2.514  -0.174   1.069  1.00  0.00     0.006 C 
HETATM    5  C9  UNL     1       1.879   1.185   1.032  1.00  0.00     0.039 C 
HETATM    6  C10 UNL     1       0.358   1.060   0.869  1.00  0.00     0.132 C 
ENDROOT
BRANCH   1   7
HETATM    7  S1  UNL     1      -1.765   0.033   2.331  1.00  0.00    -0.097 SA
BRANCH   7   8
HETATM    8  C3  UNL     1      -2.943   0.027   0.989  1.00  0.00     0.119 A 
HETATM    9  O1  UNL     1      -3.489  -1.048   0.446  1.00  0.00    -0.307 OA
HETATM   10  C2  UNL     1      -4.311  -0.752  -0.512  1.00  0.00     0.057 A 
HETATM   11  C1  UNL     1      -5.122  -1.692  -1.368  1.00  0.00     0.077 C 
HETATM   12  C13 UNL     1      -4.347   0.617  -0.654  1.00  0.00    -0.023 A 
HETATM   13  C11 UNL     1      -3.478   1.101   0.301  1.00  0.00    -0.013 A 
HETATM   14  C14 UNL     1      -5.161   1.371  -1.637  1.00  0.00     0.051 C 
HETATM   15  C12 UNL     1      -3.170   2.544   0.553  1.00  0.00     0.052 C 
ENDBRANCH   7   8
ENDBRANCH   1   7
BRANCH   6  16
HETATM   16  O4  UNL     1       0.135   0.697  -0.458  1.00  0.00    -0.394 OA
ATOM     17  H4  UNL     1       0.398   1.407  -1.031  1.00  0.00     0.210 HD
ENDBRANCH   6  16
BRANCH   4  18
HETATM   18  C8  UNL     1       3.765  -0.081   0.220  1.00  0.00     0.138 C 
BRANCH  18  19
HETATM   19  N1  UNL     1       4.543  -1.278   0.206  1.00  0.00    -0.303 N 
ATOM     20  H1  UNL     1       4.309  -2.134   0.708  1.00  0.00     0.173 HD
BRANCH  19  21
HETATM   21  S2  UNL     1       5.933  -1.062  -0.783  1.00  0.00     0.312 S 
HETATM   22  O2  UNL     1       6.434   0.342  -0.613  1.00  0.00    -0.183 OA
HETATM   23  O3  UNL     1       7.006  -1.994  -0.247  1.00  0.00    -0.183 OA
BRANCH  21  24
HETATM   24  N2  UNL     1       5.659  -1.490  -2.413  1.00  0.00    -0.312 N 
ATOM     25  H22 UNL     1       4.760  -1.836  -2.749  1.00  0.00     0.170 HD
ATOM     26  H21 UNL     1       6.484  -1.362  -3.000  1.00  0.00     0.170 HD
ENDBRANCH  21  24
ENDBRANCH  19  21
ENDBRANCH  18  19
ENDBRANCH   4  18
TORSDOF 7
