REMARK  7 active torsions:
REMARK  status: ('A' for Active; 'I' for Inactive)
REMARK    1  A    between atoms: C8_8  and  C9_9 
REMARK    2  A    between atoms: C9_9  and  C10_10 
REMARK       I    between atoms: C10_10  and  N1_12 
REMARK    3  A    between atoms: N1_12  and  N2_14 
REMARK       I    between atoms: N2_14  and  C11_16 
REMARK       I    between atoms: C11_16  and  N3_18 
REMARK    4  A    between atoms: N3_18  and  C12_20 
REMARK    5  A    between atoms: C12_20  and  C13_21 
REMARK    6  A    between atoms: C13_21  and  O3_22 
REMARK    7  A    between atoms: O3_22  and  N4_23 
ROOT
HETATM    1  C10 UNL     1       0.484   0.147   0.237  1.00  0.00     0.236 C 
HETATM    2  O1  UNL     1       0.525  -0.009  -0.992  1.00  0.00    -0.272 OA
HETATM    3  N1  UNL     1       1.709   0.518   0.890  1.00  0.00    -0.266 N 
ATOM      4  H1  UNL     1       1.692   0.646   1.902  1.00  0.00     0.190 HD
ENDROOT
BRANCH   1   5
HETATM    5  C9  UNL     1      -0.703  -0.010   1.079  1.00  0.00     0.110 C 
BRANCH   5   6
HETATM    6  C8  UNL     1      -1.932  -0.333   0.351  1.00  0.00     0.011 C 
HETATM    7  C2  UNL     1      -2.425   0.652  -0.677  1.00  0.00    -0.038 C 
HETATM    8  C1  UNL     1      -1.805   1.989  -0.672  1.00  0.00     0.015 C 
HETATM    9  C3  UNL     1      -2.365   0.113  -2.093  1.00  0.00     0.015 C 
HETATM   10  C4  UNL     1      -3.858   0.792  -0.203  1.00  0.00     0.003 C 
HETATM   11  C5  UNL     1      -3.596   1.036   1.291  1.00  0.00     0.016 C 
HETATM   12  C14 UNL     1      -4.316  -0.568   0.285  1.00  0.00    -0.036 C 
HETATM   13  C6  UNL     1      -3.160  -0.441   1.226  1.00  0.00    -0.032 C 
HETATM   14  C7  UNL     1      -3.129  -1.168   2.477  1.00  0.00     0.016 C 
HETATM   15  C15 UNL     1      -4.347  -1.694  -0.659  1.00  0.00     0.016 C 
HETATM   16  C16 UNL     1      -5.672  -0.392   0.984  1.00  0.00     0.016 C 
ENDBRANCH   5   6
ENDBRANCH   1   5
BRANCH   3  17
HETATM   17  N2  UNL     1       2.912   0.712   0.229  1.00  0.00    -0.249 N 
HETATM   18  C11 UNL     1       3.889  -0.310   0.181  1.00  0.00     0.334 C 
HETATM   19  O2  UNL     1       3.641  -1.402   0.743  1.00  0.00    -0.246 OA
HETATM   20  N3  UNL     1       5.135  -0.127  -0.484  1.00  0.00    -0.340 N 
ATOM     21  H3  UNL     1       5.322   0.767  -0.938  1.00  0.00     0.164 HD
ATOM     22  H2  UNL     1       3.095   1.605  -0.229  1.00  0.00     0.192 HD
BRANCH  20  23
HETATM   23  C12 UNL     1       6.145  -1.159  -0.540  1.00  0.00     0.153 C 
BRANCH  23  24
HETATM   24  C13 UNL     1       7.334  -0.606  -1.303  1.00  0.00     0.227 C 
BRANCH  24  25
HETATM   25  O3  UNL     1       7.855   0.547  -0.649  1.00  0.00    -0.220 OA
BRANCH  25  26
HETATM   26  N4  UNL     1       8.923   1.254  -1.104  1.00  0.00     0.004 N 
HETATM   27  O4  UNL     1       9.311   1.157  -2.284  1.00  0.00    -0.511 OA
HETATM   28  O5  UNL     1       9.633   2.115  -0.283  1.00  0.00    -0.511 OA
ENDBRANCH  25  26
ENDBRANCH  24  25
ENDBRANCH  23  24
ENDBRANCH  20  23
ENDBRANCH   3  17
TORSDOF 7
