REMARK  10 active torsions:
REMARK  status: ('A' for Active; 'I' for Inactive)
REMARK    1  A    between atoms: C2_2  and  N1_3 
REMARK    2  A    between atoms: N1_3  and  C3_4 
REMARK    3  A    between atoms: N1_3  and  C5_6 
REMARK    4  A    between atoms: C5_6  and  C6_7 
REMARK    5  A    between atoms: C6_7  and  N2_8 
REMARK    6  A    between atoms: N2_8  and  C7_10 
REMARK    7  A    between atoms: C8_13  and  C9_14 
REMARK    8  A    between atoms: C10_15  and  C11_16 
REMARK    9  A    between atoms: C19_27  and  C20_28 
REMARK   10  A    between atoms: C20_28  and  N5_29 
ROOT
HETATM    1  C7  UNL     1       1.590  -1.291  -0.434  1.00  0.00     0.127 A 
HETATM    2  N3  UNL     1       0.414  -0.657  -0.319  1.00  0.00    -0.333 N 
ATOM      3  H3  UNL     1       0.422   0.329  -0.059  1.00  0.00     0.168 HD
HETATM    4  C8  UNL     1      -0.777  -1.249  -0.528  1.00  0.00     0.103 A 
HETATM    5  C18 UNL     1      -0.707  -2.595  -0.881  1.00  0.00     0.127 A 
HETATM    6  N4  UNL     1       0.454  -3.248  -1.003  1.00  0.00    -0.362 N 
ATOM      7  H4  UNL     1       0.457  -4.234  -1.265  1.00  0.00     0.165 HD
HETATM    8  C19 UNL     1       1.612  -2.613  -0.783  1.00  0.00     0.079 A 
ENDROOT
BRANCH   4   9
HETATM    9  C9  UNL     1      -2.039  -0.573  -0.408  1.00  0.00    -0.045 C 
HETATM   10  C10 UNL     1      -3.107  -0.022  -0.322  1.00  0.00    -0.067 C 
BRANCH  10  11
HETATM   11  C11 UNL     1      -4.415   0.623  -0.231  1.00  0.00     0.201 C 
HETATM   12  C12 UNL     1      -4.267   1.867   0.592  1.00  0.00     0.045 C 
HETATM   13  C13 UNL     1      -5.662   2.459   0.770  1.00  0.00     0.006 C 
HETATM   14  C14 UNL     1      -6.677   1.683  -0.011  1.00  0.00     0.037 C 
HETATM   15  C15 UNL     1      -6.596   0.198   0.191  1.00  0.00     0.055 C 
HETATM   16  C16 UNL     1      -7.566  -0.237   1.239  1.00  0.00     0.045 C 
HETATM   17  C17 UNL     1      -7.009  -0.472  -1.123  1.00  0.00     0.045 C 
HETATM   18  O1  UNL     1      -5.292  -0.232   0.439  1.00  0.00    -0.363 OA
ENDBRANCH  10  11
ENDBRANCH   4   9
BRANCH   1  19
HETATM   19  N2  UNL     1       2.711  -0.694  -0.223  1.00  0.00    -0.370 N 
ATOM     20  H2  UNL     1       3.562  -1.245  -0.332  1.00  0.00     0.161 HD
BRANCH  19  21
HETATM   21  C6  UNL     1       2.861   0.663   0.148  1.00  0.00     0.165 C 
BRANCH  21  22
HETATM   22  C5  UNL     1       4.202   1.279  -0.003  1.00  0.00     0.077 C 
BRANCH  22  23
HETATM   23  N1  UNL     1       5.288   0.757   0.704  1.00  0.00    -0.392 N 
BRANCH  23  24
HETATM   24  C2  UNL     1       5.810  -0.504   0.349  1.00  0.00     0.117 C 
HETATM   25  C1  UNL     1       6.744  -0.378  -0.871  1.00  0.00     0.026 C 
ENDBRANCH  23  24
BRANCH  23  26
HETATM   26  C3  UNL     1       6.275   1.630   1.215  1.00  0.00     0.117 C 
HETATM   27  C4  UNL     1       5.808   2.984   1.625  1.00  0.00     0.026 C 
ENDBRANCH  23  26
ENDBRANCH  22  23
ENDBRANCH  21  22
ENDBRANCH  19  21
ENDBRANCH   1  19
BRANCH   8  28
HETATM   28  C20 UNL     1       2.924  -3.354  -0.923  1.00  0.00     0.290 C 
BRANCH  28  29
HETATM   29  N5  UNL     1       2.619  -4.701  -1.292  1.00  0.00    -0.074 N 
ATOM     30  H53 UNL     1       1.973  -5.154  -0.645  1.00  0.00     0.274 HD
ATOM     31  H52 UNL     1       2.036  -4.763  -2.127  1.00  0.00     0.274 HD
ATOM     32  H51 UNL     1       3.503  -5.200  -1.386  1.00  0.00     0.274 HD
ENDBRANCH  28  29
ENDBRANCH   8  28
TORSDOF 10
