REMARK  6 active torsions:
REMARK  status: ('A' for Active; 'I' for Inactive)
REMARK    1  A    between atoms: C2_2  and  N1_3 
REMARK    2  A    between atoms: N1_3  and  N2_5 
REMARK    3  A    between atoms: N3_7  and  C4_9 
REMARK    4  A    between atoms: C7_15  and  N5_16 
REMARK    5  A    between atoms: C10_22  and  O1_23 
REMARK    6  A    between atoms: O1_23  and  C11_24 
ROOT
HETATM    1  C4  UNL     1       0.589   0.685   1.212  1.00  0.00     0.071 A 
HETATM    2  C5  UNL     1       1.440   1.658   1.652  1.00  0.00     0.083 A 
HETATM    3  S1  UNL     1       0.740   3.089   1.062  1.00  0.00    -0.081 SA
HETATM    4  C6  UNL     1      -0.620   2.426   0.268  1.00  0.00     0.091 A 
HETATM    5  N4  UNL     1      -1.648   2.984  -0.451  1.00  0.00    -0.335 N 
ATOM      6  H4  UNL     1      -1.671   3.997  -0.569  1.00  0.00     0.168 HD
HETATM    7  C7  UNL     1      -2.624   2.248  -1.004  1.00  0.00     0.123 A 
HETATM    8  C8  UNL     1      -2.515   0.881  -0.794  1.00  0.00     0.122 A 
HETATM    9  C9  UNL     1      -3.545   0.048  -1.371  1.00  0.00     0.106 C 
HETATM   10  N6  UNL     1      -4.380  -0.603  -1.843  1.00  0.00    -0.191 NA
HETATM   11  C10 UNL     1      -1.507   0.282  -0.083  1.00  0.00     0.108 A 
HETATM   12  C13 UNL     1      -0.490   1.082   0.488  1.00  0.00     0.061 A 
ENDROOT
BRANCH   7  13
HETATM   13  N5  UNL     1      -3.568   2.774  -1.667  1.00  0.00    -0.384 N 
ATOM     14  H52 UNL     1      -3.648   3.779  -1.821  1.00  0.00     0.157 HD
ATOM     15  H51 UNL     1      -4.310   2.214  -2.087  1.00  0.00     0.157 HD
ENDBRANCH   7  13
BRANCH  11  16
HETATM   16  O1  UNL     1      -1.550  -1.088   0.031  1.00  0.00    -0.349 OA
BRANCH  16  17
HETATM   17  C11 UNL     1      -2.226  -1.841   0.981  1.00  0.00     0.171 C 
HETATM   18  C12 UNL     1      -1.943  -3.319   0.683  1.00  0.00     0.034 C 
ENDBRANCH  16  17
ENDBRANCH  11  16
BRANCH   1  19
HETATM   19  N3  UNL     1       0.884  -0.715   1.518  1.00  0.00    -0.285 N 
HETATM   20  N2  UNL     1       1.843  -1.327   0.966  1.00  0.00    -0.241 N 
ATOM     21  H2  UNL     1       2.031  -2.303   1.196  1.00  0.00     0.208 HD
ATOM     22  H3  UNL     1       0.301  -1.210   2.194  1.00  0.00     0.188 HD
BRANCH  20  23
HETATM   23  N1  UNL     1       2.641  -0.656   0.041  1.00  0.00    -0.294 N 
HETATM   24  C3  UNL     1       2.180  -0.182  -1.245  1.00  0.00     0.178 C 
BRANCH  23  25
HETATM   25  C2  UNL     1       3.989  -0.427   0.383  1.00  0.00     0.101 C 
HETATM   26  C1  UNL     1       4.962  -0.844  -0.390  1.00  0.00     0.031 C 
ENDBRANCH  23  25
ENDBRANCH  20  23
ENDBRANCH   1  19
TORSDOF 6
