REMARK  5 active torsions:
REMARK  status: ('A' for Active; 'I' for Inactive)
REMARK    1  A    between atoms: S1_2  and  C2_3 
REMARK    2  A    between atoms: C4_5  and  N1_6 
REMARK    3  A    between atoms: N1_6  and  N2_8 
REMARK    4  A    between atoms: N2_8  and  C5_10 
REMARK    5  A    between atoms: C12_22  and  N5_23 
ROOT
HETATM    1  N1  UNL     1       0.735  -0.766   0.122  1.00  0.00    -0.300 N 
ATOM      2  H1  UNL     1       1.025  -1.744   0.120  1.00  0.00     0.187 HD
ENDROOT
BRANCH   1   3
HETATM    3  C4  UNL     1      -0.569  -0.369  -0.342  1.00  0.00     0.055 A 
HETATM    4  C3  UNL     1      -1.423   0.361   0.455  1.00  0.00     0.052 A 
HETATM    5  C2  UNL     1      -2.659   0.735   0.012  1.00  0.00     0.035 A 
HETATM    6  C12 UNL     1      -3.095   0.393  -1.251  1.00  0.00     0.120 A 
HETATM    7  C11 UNL     1      -2.240  -0.337  -2.049  1.00  0.00     0.046 A 
HETATM    8  C9  UNL     1      -0.990  -0.719  -1.609  1.00  0.00    -0.031 A 
HETATM    9  C10 UNL     1      -0.096  -1.508  -2.502  1.00  0.00     0.050 C 
BRANCH   5  10
HETATM   10  S1  UNL     1      -3.684   1.683   1.136  1.00  0.00    -0.132 SA
HETATM   11  C1  UNL     1      -4.683   0.548   2.126  1.00  0.00     0.095 C 
ENDBRANCH   5  10
BRANCH   6  12
HETATM   12  N5  UNL     1      -4.389   0.797  -1.687  1.00  0.00    -0.114 N 
HETATM   13  O2  UNL     1      -4.888   1.858  -1.282  1.00  0.00    -0.532 OA
HETATM   14  O3  UNL     1      -5.029  -0.056  -2.568  1.00  0.00    -0.532 OA
ENDBRANCH   6  12
ENDBRANCH   1   3
BRANCH   1  15
HETATM   15  N2  UNL     1       1.508   0.151   0.533  1.00  0.00    -0.293 N 
ATOM     16  H2  UNL     1       1.213   1.127   0.533  1.00  0.00     0.187 HD
BRANCH  15  17
HETATM   17  C5  UNL     1       2.795  -0.224   0.993  1.00  0.00     0.141 A 
HETATM   18  C6  UNL     1       3.950   0.463   0.688  1.00  0.00     0.055 A 
HETATM   19  C7  UNL     1       4.098   1.690  -0.150  1.00  0.00     0.072 C 
HETATM   20  N3  UNL     1       4.971  -0.174   1.293  1.00  0.00    -0.300 N 
HETATM   21  N4  UNL     1       4.519  -1.224   1.960  1.00  0.00    -0.264 N 
ATOM     22  H3  UNL     1       5.949   0.111   1.244  1.00  0.00     0.186 HD
HETATM   23  C8  UNL     1       3.177  -1.279   1.793  1.00  0.00     0.289 A 
ATOM     24  H4  UNL     1       5.083  -1.877   2.504  1.00  0.00     0.190 HD
HETATM   25  O1  UNL     1       2.410  -2.144   2.283  1.00  0.00    -0.264 OA
ENDBRANCH  15  17
ENDBRANCH   1  15
TORSDOF 5
