REMARK  5 active torsions:
REMARK  status: ('A' for Active; 'I' for Inactive)
REMARK    1  A    between atoms: C2_2  and  S1_3 
REMARK    2  A    between atoms: S1_3  and  C3_4 
REMARK    3  A    between atoms: C4_5  and  C5_6 
REMARK    4  A    between atoms: C7_9  and  N2_10 
REMARK    5  A    between atoms: C10_17  and  C11_18 
ROOT
HETATM    1  C5  UNL     1      -1.101  -2.539  -0.608  1.00  0.00     0.166 C 
HETATM    2  C6  UNL     1      -1.178  -2.910   0.783  1.00  0.00     0.063 C 
HETATM    3  N1  UNL     1      -1.268  -3.239   1.913  1.00  0.00    -0.197 NA
ENDROOT
BRANCH   1   4
HETATM    4  C4  UNL     1      -1.566  -1.088  -0.791  1.00  0.00     0.006 A 
HETATM    5  C3  UNL     1      -0.598  -0.151  -0.662  1.00  0.00     0.023 A 
HETATM    6  C12 UNL     1      -0.726   1.261  -0.802  1.00  0.00     0.023 A 
HETATM    7  C8  UNL     1      -2.003   1.660  -1.094  1.00  0.00     0.060 A 
HETATM    8  C10 UNL     1       0.205   2.249  -0.687  1.00  0.00     0.060 A 
HETATM    9  S2  UNL     1      -3.366   0.610  -1.293  1.00  0.00    -0.064 SA
HETATM   10  S3  UNL     1      -1.895   3.364  -1.190  1.00  0.00    -0.093 SA
HETATM   11  C7  UNL     1      -2.920  -1.016  -1.078  1.00  0.00     0.077 A 
HETATM   12  C9  UNL     1      -0.256   3.551  -0.870  1.00  0.00     0.070 A 
BRANCH   5  13
HETATM   13  S1  UNL     1       1.069  -0.691  -0.122  1.00  0.00    -0.129 SA
BRANCH  13  14
HETATM   14  C2  UNL     1       1.370  -0.572   1.602  1.00  0.00     0.075 C 
HETATM   15  C1  UNL     1       2.825  -1.065   1.799  1.00  0.00     0.016 C 
ENDBRANCH  13  14
ENDBRANCH   5  13
BRANCH  11  16
HETATM   16  N2  UNL     1      -3.699  -2.012  -1.163  1.00  0.00    -0.393 N 
ATOM     17  H22 UNL     1      -3.431  -2.988  -1.034  1.00  0.00     0.156 HD
ATOM     18  H21 UNL     1      -4.695  -1.959  -1.374  1.00  0.00     0.156 HD
ENDBRANCH  11  16
BRANCH   8  19
HETATM   19  C11 UNL     1       1.690   2.153  -0.545  1.00  0.00     0.210 C 
HETATM   20  O1  UNL     1       2.449   1.451  -1.191  1.00  0.00    -0.644 OA
HETATM   21  O2  UNL     1       2.276   2.965   0.445  1.00  0.00    -0.644 OA
ENDBRANCH   8  19
ENDBRANCH   1   4
TORSDOF 5
