REMARK  8 active torsions:
REMARK  status: ('A' for Active; 'I' for Inactive)
REMARK    1  A    between atoms: C2_2  and  C3_3 
REMARK    2  A    between atoms: C3_3  and  C4_4 
REMARK    3  A    between atoms: C4_4  and  C5_5 
REMARK    4  A    between atoms: C5_5  and  S1_6 
REMARK    5  A    between atoms: S1_6  and  C6_7 
REMARK    6  A    between atoms: C9_12  and  O1_13 
REMARK    7  A    between atoms: C11_16  and  O2_17 
REMARK    8  A    between atoms: O2_17  and  C12_18 
ROOT
HETATM    1  C6  UNL     1      -0.738  -0.652  -0.754  1.00  0.00     0.115 C 
HETATM    2  N1  UNL     1       0.040  -0.023  -0.012  1.00  0.00    -0.369 N 
ATOM      3  H1  UNL     1      -0.436   0.574   0.664  1.00  0.00     0.161 HD
HETATM    4  C7  UNL     1       1.425   0.030   0.082  1.00  0.00     0.127 C 
HETATM    5  C8  UNL     1       2.131   0.687  -1.060  1.00  0.00     0.037 C 
HETATM    6  C9  UNL     1       3.351   0.199  -1.188  1.00  0.00     0.073 C 
HETATM    7  C10 UNL     1       3.553  -0.809  -0.156  1.00  0.00     0.014 C 
HETATM    8  C11 UNL     1       4.719  -1.221   0.261  1.00  0.00     0.157 C 
HETATM    9  C14 UNL     1       2.184  -1.244   0.297  1.00  0.00     0.123 C 
HETATM   10  S2  UNL     1       1.705  -2.578  -0.828  1.00  0.00    -0.078 SA
HETATM   11  S3  UNL     1       0.079  -1.727  -1.960  1.00  0.00    -0.032 SA
ENDROOT
BRANCH   1  12
HETATM   12  S1  UNL     1      -2.534  -0.557  -0.690  1.00  0.00    -0.105 SA
BRANCH  12  13
HETATM   13  C5  UNL     1      -2.925   0.616   0.639  1.00  0.00     0.081 C 
BRANCH  13  14
HETATM   14  C4  UNL     1      -4.412   0.799   0.812  1.00  0.00     0.010 C 
BRANCH  14  15
HETATM   15  C3  UNL     1      -5.030  -0.545   1.154  1.00  0.00     0.000 C 
BRANCH  15  16
HETATM   16  C2  UNL     1      -6.510  -0.350   1.324  1.00  0.00    -0.005 C 
HETATM   17  C1  UNL     1      -7.076   0.178   0.032  1.00  0.00     0.005 C 
ENDBRANCH  15  16
ENDBRANCH  14  15
ENDBRANCH  13  14
ENDBRANCH  12  13
ENDBRANCH   1  12
BRANCH   6  18
HETATM   18  O1  UNL     1       4.231   0.631  -2.171  1.00  0.00    -0.360 OA
ATOM     19  H1  UNL     1       5.109   0.280  -2.263  1.00  0.00     0.217 HD
ENDBRANCH   6  18
BRANCH   8  20
HETATM   20  O2  UNL     1       5.910  -0.734  -0.245  1.00  0.00    -0.291 OA
BRANCH  20  21
HETATM   21  C12 UNL     1       6.493   0.366   0.352  1.00  0.00     0.259 C 
HETATM   22  C13 UNL     1       7.768   0.976  -0.101  1.00  0.00     0.126 C 
HETATM   23  O3  UNL     1       5.902   0.875   1.338  1.00  0.00    -0.265 OA
ENDBRANCH  20  21
ENDBRANCH   8  20
TORSDOF 8
