REMARK  8 active torsions:
REMARK  status: ('A' for Active; 'I' for Inactive)
REMARK    1  A    between atoms: C2_2  and  C3_3 
REMARK    2  A    between atoms: C3_3  and  C4_4 
REMARK    3  A    between atoms: C4_4  and  O1_5 
REMARK    4  A    between atoms: O1_5  and  C5_6 
REMARK    5  A    between atoms: C5_6  and  C6_8 
REMARK    6  A    between atoms: C9_12  and  N1_13 
REMARK    7  A    between atoms: C10_14  and  O3_15 
REMARK    8  A    between atoms: C13_19  and  O4_20 
ROOT
HETATM    1  C6  UNL     1       0.029  -0.619  -0.478  1.00  0.00     0.060 A 
HETATM    2  C7  UNL     1      -0.089  -1.915  -0.903  1.00  0.00    -0.002 A 
HETATM    3  C8  UNL     1       0.993  -2.899  -1.228  1.00  0.00     0.057 C 
HETATM    4  S1  UNL     1      -1.767  -2.161  -0.980  1.00  0.00    -0.075 SA
HETATM    5  C9  UNL     1      -2.295  -0.622  -0.474  1.00  0.00     0.092 A 
HETATM    6  C15 UNL     1      -1.125   0.053  -0.256  1.00  0.00    -0.010 A 
HETATM    7  C16 UNL     1      -1.194   1.499   0.219  1.00  0.00     0.052 C 
ENDROOT
BRANCH   5   8
HETATM    8  N1  UNL     1      -3.646  -0.127  -0.309  1.00  0.00    -0.264 N 
HETATM    9  C10 UNL     1      -4.296   0.019   0.852  1.00  0.00     0.158 A 
HETATM   10  C11 UNL     1      -5.574   0.519   0.633  1.00  0.00     0.024 A 
HETATM   11  C12 UNL     1      -5.686   0.676  -0.730  1.00  0.00     0.063 A 
HETATM   12  C14 UNL     1      -6.902   0.977   1.131  1.00  0.00     0.124 A 
HETATM   13  C13 UNL     1      -4.488   0.272  -1.276  1.00  0.00     0.167 A 
HETATM   14  S2  UNL     1      -7.353   1.290  -0.568  1.00  0.00    -0.120 SA
BRANCH   9  15
HETATM   15  O3  UNL     1      -3.691  -0.312   2.076  1.00  0.00    -0.345 OA
ATOM     16  H3  UNL     1      -4.152  -0.208   2.900  1.00  0.00     0.219 HD
ENDBRANCH   9  15
BRANCH  13  17
HETATM   17  O4  UNL     1      -4.159   0.264  -2.646  1.00  0.00    -0.345 OA
ATOM     18  H4  UNL     1      -4.755   0.546  -3.330  1.00  0.00     0.219 HD
ENDBRANCH  13  17
ENDBRANCH   5   8
BRANCH   1  19
HETATM   19  C5  UNL     1       1.368   0.021  -0.272  1.00  0.00     0.295 C 
HETATM   20  O2  UNL     1       1.919   0.625  -1.225  1.00  0.00    -0.259 OA
BRANCH  19  21
HETATM   21  O1  UNL     1       2.034  -0.021   0.925  1.00  0.00    -0.317 OA
BRANCH  21  22
HETATM   22  C4  UNL     1       3.271   0.541   1.205  1.00  0.00     0.179 C 
BRANCH  22  23
HETATM   23  C3  UNL     1       4.402   0.027   0.368  1.00  0.00     0.026 C 
BRANCH  23  24
HETATM   24  C2  UNL     1       5.675   0.746   0.807  1.00  0.00    -0.002 C 
HETATM   25  C1  UNL     1       6.874   0.305   0.031  1.00  0.00     0.005 C 
ENDBRANCH  23  24
ENDBRANCH  22  23
ENDBRANCH  21  22
ENDBRANCH  19  21
ENDBRANCH   1  19
TORSDOF 8
