REMARK  7 active torsions:
REMARK  status: ('A' for Active; 'I' for Inactive)
REMARK    1  A    between atoms: O1_2  and  C2_3 
REMARK    2  A    between atoms: C4_5  and  O2_6 
REMARK    3  A    between atoms: C7_9  and  O3_10 
REMARK    4  A    between atoms: C9_12  and  O4_13 
REMARK    5  A    between atoms: C11_15  and  C12_16 
REMARK    6  A    between atoms: N1_17  and  C13_19 
REMARK    7  A    between atoms: C17_23  and  O5_24 
ROOT
HETATM    1  C2  UNL     1      -3.713   2.030   0.319  1.00  0.00     0.071 A 
HETATM    2  C3  UNL     1      -4.155   0.737   0.138  1.00  0.00     0.074 A 
HETATM    3  C4  UNL     1      -3.261  -0.294  -0.012  1.00  0.00     0.085 A 
HETATM    4  C6  UNL     1      -1.904  -0.052   0.016  1.00  0.00     0.047 A 
HETATM    5  C7  UNL     1      -0.949  -1.029  -0.118  1.00  0.00     0.116 A 
HETATM    6  C9  UNL     1       0.419  -0.760  -0.075  1.00  0.00     0.116 A 
HETATM    7  C11 UNL     1       0.895   0.515   0.105  1.00  0.00     0.049 A 
HETATM    8  C17 UNL     1      -0.063   1.514   0.241  1.00  0.00     0.091 A 
HETATM    9  C18 UNL     1      -1.428   1.244   0.198  1.00  0.00     0.017 A 
HETATM   10  C19 UNL     1      -2.354   2.259   0.347  1.00  0.00     0.052 A 
ENDROOT
BRANCH   7  11
HETATM   11  C12 UNL     1       2.311   0.826   0.128  1.00  0.00     0.101 C 
HETATM   12  N1  UNL     1       3.205  -0.078  -0.027  1.00  0.00    -0.390 N 
ATOM     13  H1  UNL     1       2.887  -1.037  -0.169  1.00  0.00     0.159 HD
BRANCH  12  14
HETATM   14  C13 UNL     1       4.615   0.155  -0.016  1.00  0.00     0.018 C 
HETATM   15  C14 UNL     1       4.994   1.602  -0.119  1.00  0.00     0.037 C 
HETATM   16  C15 UNL     1       5.281  -0.411   1.235  1.00  0.00     0.037 C 
HETATM   17  C16 UNL     1       5.246  -0.582  -1.199  1.00  0.00     0.037 C 
ENDBRANCH  12  14
ENDBRANCH   7  11
BRANCH   6  18
HETATM   18  O4  UNL     1       1.252  -1.853  -0.223  1.00  0.00    -0.352 OA
HETATM   19  C10 UNL     1       1.663  -2.643   0.893  1.00  0.00     0.210 C 
ENDBRANCH   6  18
BRANCH   8  20
HETATM   20  O5  UNL     1       0.285   2.821   0.425  1.00  0.00    -0.359 OA
ATOM     21  H5  UNL     1      -0.369   3.503   0.518  1.00  0.00     0.217 HD
ENDBRANCH   8  20
BRANCH   5  22
HETATM   22  O3  UNL     1      -1.379  -2.349  -0.312  1.00  0.00    -0.352 OA
HETATM   23  C8  UNL     1      -1.487  -2.773  -1.674  1.00  0.00     0.210 C 
ENDBRANCH   5  22
BRANCH   3  24
HETATM   24  O2  UNL     1      -3.741  -1.566  -0.188  1.00  0.00    -0.355 OA
HETATM   25  C5  UNL     1      -5.085  -1.928  -0.233  1.00  0.00     0.210 C 
ENDBRANCH   3  24
BRANCH   1  26
HETATM   26  O1  UNL     1      -4.584   3.083   0.472  1.00  0.00    -0.356 OA
HETATM   27  C1  UNL     1      -5.975   2.986   0.464  1.00  0.00     0.210 C 
ENDBRANCH   1  26
TORSDOF 7
