REMARK  10 active torsions:
REMARK  status: ('A' for Active; 'I' for Inactive)
REMARK    1  A    between atoms: C2_2  and  S1_3 
REMARK    2  A    between atoms: S1_3  and  C3_4 
REMARK    3  A    between atoms: C3_4  and  C4_6 
REMARK    4  A    between atoms: C5_7  and  O2_8 
REMARK    5  A    between atoms: C6_10  and  C7_11 
REMARK    6  A    between atoms: C9_14  and  O4_15 
REMARK    7  A    between atoms: C10_17  and  C11_18 
REMARK    8  A    between atoms: C11_18  and  C13_20 
REMARK    9  A    between atoms: C14_22  and  O5_23 
REMARK   10  A    between atoms: O5_23  and  C15_24 
ROOT
HETATM    1  C4  UNL     1       0.586   0.247  -1.005  1.00  0.00     0.090 A 
HETATM    2  C5  UNL     1       0.591   1.566  -0.539  1.00  0.00     0.100 A 
HETATM    3  C6  UNL     1      -0.485   2.001   0.269  1.00  0.00     0.077 A 
HETATM    4  C9  UNL     1      -1.496   1.121   0.567  1.00  0.00     0.095 A 
HETATM    5  C10 UNL     1      -1.496  -0.221   0.098  1.00  0.00     0.036 A 
HETATM    6  C14 UNL     1      -0.449  -0.642  -0.687  1.00  0.00     0.110 A 
ENDROOT
BRANCH   1   7
HETATM    7  C3  UNL     1       1.694  -0.252  -1.787  1.00  0.00     0.224 C 
HETATM    8  O1  UNL     1       1.737  -1.411  -2.302  1.00  0.00    -0.280 OA
BRANCH   7   9
HETATM    9  S1  UNL     1       3.190   0.706  -2.127  1.00  0.00    -0.087 SA
BRANCH   9  10
HETATM   10  C2  UNL     1       4.479   0.156  -0.925  1.00  0.00     0.078 C 
HETATM   11  C1  UNL     1       5.365   1.360  -0.626  1.00  0.00     0.016 C 
ENDBRANCH   9  10
ENDBRANCH   7   9
ENDBRANCH   1   7
BRANCH   2  12
HETATM   12  O2  UNL     1       1.530   2.472  -0.790  1.00  0.00    -0.358 OA
ATOM     13  H2  UNL     1       1.533   3.368  -0.474  1.00  0.00     0.217 HD
ENDBRANCH   2  12
BRANCH   6  14
HETATM   14  O5  UNL     1      -0.439  -1.961  -1.138  1.00  0.00    -0.277 OA
BRANCH  14  15
HETATM   15  C15 UNL     1       0.213  -2.998  -0.453  1.00  0.00     0.260 C 
HETATM   16  C16 UNL     1       0.129  -4.372  -1.056  1.00  0.00     0.126 C 
HETATM   17  O6  UNL     1       0.817  -2.738   0.594  1.00  0.00    -0.265 OA
ENDBRANCH  14  15
ENDBRANCH   6  14
BRANCH   3  18
HETATM   18  C7  UNL     1      -0.497   3.360   0.761  1.00  0.00     0.161 C 
HETATM   19  C8  UNL     1      -1.522   3.987   1.621  1.00  0.00     0.097 C 
HETATM   20  O3  UNL     1       0.479   4.120   0.432  1.00  0.00    -0.293 OA
ENDBRANCH   3  18
BRANCH   5  21
HETATM   21  C11 UNL     1      -2.518  -1.169   0.581  1.00  0.00    -0.054 C 
HETATM   22  C12 UNL     1      -3.592  -1.537  -0.379  1.00  0.00     0.046 C 
BRANCH  21  23
HETATM   23  C13 UNL     1      -2.841  -1.106   2.003  1.00  0.00     0.149 C 
HETATM   24 CL1  UNL     1      -4.096  -2.343   2.451  1.00  0.00    -0.126 Cl
ENDBRANCH  21  23
ENDBRANCH   5  21
BRANCH   4  25
HETATM   25  O4  UNL     1      -2.508   1.570   1.303  1.00  0.00    -0.359 OA
ATOM     26  H4  UNL     1      -3.207   0.961   1.509  1.00  0.00     0.217 HD
ENDBRANCH   4  25
TORSDOF 10
