REMARK  7 active torsions:
REMARK  status: ('A' for Active; 'I' for Inactive)
REMARK    1  A    between atoms: C2_2  and  O1_3 
REMARK    2  A    between atoms: O1_3  and  C3_4 
REMARK       I    between atoms: C3_4  and  N1_6 
REMARK    3  A    between atoms: N1_6  and  C4_8 
REMARK    4  A    between atoms: C6_10  and  C7_11 
REMARK    5  A    between atoms: C8_16  and  S1_17 
REMARK    6  A    between atoms: S1_17  and  C9_18 
REMARK    7  A    between atoms: N5_20  and  C10_22 
ROOT
HETATM    1  C7  UNL     1      -0.647   0.702  -0.757  1.00  0.00     0.175 A 
HETATM    2  N2  UNL     1      -1.073   1.947  -0.494  1.00  0.00    -0.277 N 
ATOM      3  H2  UNL     1      -0.465   2.730  -0.255  1.00  0.00     0.189 HD
HETATM    4  N3  UNL     1      -2.382   2.018  -0.587  1.00  0.00    -0.272 N 
ATOM      5  H3  UNL     1      -2.966   2.841  -0.439  1.00  0.00     0.189 HD
HETATM    6  C8  UNL     1      -2.791   0.782  -0.918  1.00  0.00     0.211 A 
HETATM    7  O3  UNL     1      -1.727   0.022  -1.012  1.00  0.00    -0.267 OA
ENDROOT
BRANCH   1   8
HETATM    8  C6  UNL     1       0.764   0.213  -0.757  1.00  0.00     0.026 A 
HETATM    9  C5  UNL     1       1.823   1.005  -0.477  1.00  0.00     0.053 A 
HETATM   10  C4  UNL     1       3.056   0.427  -0.512  1.00  0.00     0.079 A 
HETATM   11  S2  UNL     1       2.722  -1.190  -0.929  1.00  0.00    -0.083 SA
HETATM   12  C12 UNL     1       1.028  -1.097  -1.050  1.00  0.00     0.067 A 
BRANCH  10  13
HETATM   13  N1  UNL     1       4.332   1.062  -0.252  1.00  0.00    -0.297 N 
HETATM   14  C3  UNL     1       5.515   0.332  -0.327  1.00  0.00     0.365 C 
HETATM   15  O2  UNL     1       5.487  -0.881  -0.621  1.00  0.00    -0.238 OA
ATOM     16  H1  UNL     1       4.364   2.053  -0.012  1.00  0.00     0.171 HD
BRANCH  14  17
HETATM   17  O1  UNL     1       6.722   0.945  -0.078  1.00  0.00    -0.304 OA
BRANCH  17  18
HETATM   18  C2  UNL     1       7.958   0.262  -0.138  1.00  0.00     0.176 C 
HETATM   19  C1  UNL     1       8.038  -0.881   0.830  1.00  0.00     0.034 C 
ENDBRANCH  17  18
ENDBRANCH  14  17
ENDBRANCH  10  13
ENDBRANCH   1   8
BRANCH   6  20
HETATM   20  S1  UNL     1      -4.500   0.339  -1.168  1.00  0.00    -0.012 SA
BRANCH  20  21
HETATM   21  C9  UNL     1      -5.214  -0.190   0.371  1.00  0.00     0.159 C 
HETATM   22  N4  UNL     1      -4.411  -0.200   1.534  1.00  0.00    -0.075 NA
HETATM   23  N5  UNL     1      -6.439  -0.559   0.434  1.00  0.00    -0.356 N 
ATOM     24  H5  UNL     1      -6.794  -0.852   1.344  1.00  0.00     0.162 HD
BRANCH  23  25
HETATM   25  C10 UNL     1      -7.349  -0.594  -0.666  1.00  0.00     0.176 C 
HETATM   26  C11 UNL     1      -8.758  -0.735  -0.092  1.00  0.00     0.049 C 
HETATM   27 CL1  UNL     1      -7.202   0.885  -1.631  1.00  0.00    -0.103 Cl
ENDBRANCH  23  25
ENDBRANCH  20  21
ENDBRANCH   6  20
TORSDOF 7
