REMARK  10 active torsions:
REMARK  status: ('A' for Active; 'I' for Inactive)
REMARK    1  A    between atoms: C2_2  and  S1_3 
REMARK    2  A    between atoms: S1_3  and  C3_4 
REMARK    3  A    between atoms: C3_4  and  C4_6 
REMARK    4  A    between atoms: C5_7  and  S2_8 
REMARK    5  A    between atoms: C7_10  and  C8_11 
REMARK    6  A    between atoms: C8_11  and  O3_13 
REMARK    7  A    between atoms: C10_15  and  N1_16 
REMARK    8  A    between atoms: N1_16  and  N2_17 
REMARK    9  A    between atoms: C11_20  and  N3_21 
REMARK   10  A    between atoms: C11_20  and  N4_25 
ROOT
HETATM    1  C4  UNL     1       0.587   0.264  -0.436  1.00  0.00     0.025 C 
HETATM    2  C5  UNL     1      -0.224  -0.832  -0.172  1.00  0.00     0.031 C 
HETATM    3  C7  UNL     1      -1.655  -0.594  -0.378  1.00  0.00     0.100 C 
HETATM    4  C10 UNL     1      -2.106   0.661   0.288  1.00  0.00     0.190 C 
HETATM    5  C11 UNL     1      -1.189   1.817   0.169  1.00  0.00     0.346 C 
HETATM    6  C12 UNL     1      -0.077   1.479  -0.853  1.00  0.00     0.093 C 
HETATM    7  C13 UNL     1       0.730   2.715  -1.024  1.00  0.00     0.020 C 
ENDROOT
BRANCH   5   8
HETATM    8  N3  UNL     1      -1.925   2.924  -0.367  1.00  0.00    -0.037 N 
ATOM      9  H33 UNL     1      -2.388   2.698  -1.247  1.00  0.00     0.277 HD
ATOM     10  H32 UNL     1      -2.760   3.140   0.177  1.00  0.00     0.277 HD
ATOM     11  H31 UNL     1      -1.293   3.721  -0.449  1.00  0.00     0.277 HD
ENDBRANCH   5   8
BRANCH   5  12
HETATM   12  N4  UNL     1      -0.635   2.074   1.471  1.00  0.00    -0.037 N 
ATOM     13  H43 UNL     1      -1.350   2.208   2.186  1.00  0.00     0.277 HD
ATOM     14  H42 UNL     1      -0.187   1.254   1.880  1.00  0.00     0.277 HD
ATOM     15  H41 UNL     1      -0.003   2.871   1.389  1.00  0.00     0.277 HD
ENDBRANCH   5  12
BRANCH   4  16
HETATM   16  N1  UNL     1      -3.176   0.769   0.907  1.00  0.00    -0.332 NA
BRANCH  16  17
HETATM   17  N2  UNL     1      -4.318   1.121   1.293  1.00  0.00    -0.280 N 
ATOM     18  H22 UNL     1      -4.427   1.820   0.558  1.00  0.00     0.191 HD
ATOM     19  H21 UNL     1      -5.198   1.210   1.802  1.00  0.00     0.191 HD
ENDBRANCH  16  17
ENDBRANCH   4  16
BRANCH   3  20
HETATM   20  C8  UNL     1      -2.598  -1.672  -0.251  1.00  0.00     0.297 C 
HETATM   21  O2  UNL     1      -3.434  -1.668   0.713  1.00  0.00    -0.259 OA
BRANCH  20  22
HETATM   22  O3  UNL     1      -2.734  -2.779  -1.090  1.00  0.00    -0.322 OA
HETATM   23  C9  UNL     1      -3.734  -3.786  -0.863  1.00  0.00     0.213 C 
ENDBRANCH  20  22
ENDBRANCH   3  20
BRANCH   1  24
HETATM   24  C3  UNL     1       2.006   0.114  -0.253  1.00  0.00     0.217 C 
HETATM   25  O1  UNL     1       2.502  -1.008   0.152  1.00  0.00    -0.280 OA
BRANCH  24  26
HETATM   26  S1  UNL     1       3.199   1.380  -0.546  1.00  0.00    -0.088 SA
BRANCH  26  27
HETATM   27  C2  UNL     1       4.882   0.869  -0.216  1.00  0.00     0.078 C 
HETATM   28  C1  UNL     1       5.080   0.608   1.252  1.00  0.00     0.016 C 
ENDBRANCH  26  27
ENDBRANCH  24  26
ENDBRANCH   1  24
BRANCH   2  29
HETATM   29  S2  UNL     1       0.643  -2.247   0.357  1.00  0.00    -0.133 SA
HETATM   30  C6  UNL     1      -0.358  -3.603   0.889  1.00  0.00     0.095 C 
ENDBRANCH   2  29
TORSDOF 10
