REMARK  14 active torsions:
REMARK  status: ('A' for Active; 'I' for Inactive)
REMARK    1  A    between atoms: C2_2  and  C4_4 
REMARK    2  A    between atoms: C4_4  and  N1_5 
REMARK    3  A    between atoms: C4_4  and  C10_16 
REMARK       I    between atoms: N1_5  and  C5_7 
REMARK    4  A    between atoms: C5_7  and  C6_9 
REMARK    5  A    between atoms: C10_16  and  O2_17 
REMARK    6  A    between atoms: C10_16  and  N3_19 
REMARK    7  A    between atoms: N3_19  and  C11_21 
REMARK    8  A    between atoms: C11_21  and  C12_22 
REMARK    9  A    between atoms: C11_21  and  C28_41 
REMARK   10  A    between atoms: C12_22  and  C13_23 
REMARK       I    between atoms: N4_32  and  C22_33 
REMARK   11  A    between atoms: C22_33  and  C23_35 
REMARK   12  A    between atoms: C23_35  and  N5_36 
REMARK   13  A    between atoms: C28_41  and  O4_42 
REMARK   14  A    between atoms: C28_41  and  N6_44 
ROOT
HETATM    1  C11 UNL     1       0.357   2.000  -0.987  1.00  0.00     0.160 C 
ENDROOT
BRANCH   1   2
HETATM    2  N3  UNL     1       1.511   1.321  -0.305  1.00  0.00    -0.361 N 
ATOM      3  H3  UNL     1       1.650   1.472   0.694  1.00  0.00     0.162 HD
BRANCH   2   4
HETATM    4  C10 UNL     1       2.398   0.491  -0.990  1.00  0.00     0.135 C 
BRANCH   4   5
HETATM    5  C4  UNL     1       3.568  -0.248  -0.516  1.00  0.00     0.162 C 
BRANCH   5   6
HETATM    6  C2  UNL     1       3.749  -0.430   0.940  1.00  0.00     0.008 C 
HETATM    7  C1  UNL     1       3.889   0.836   1.721  1.00  0.00     0.012 C 
HETATM    8  C3  UNL     1       4.987  -1.292   1.248  1.00  0.00     0.012 C 
ENDBRANCH   5   6
BRANCH   5   9
HETATM    9  N1  UNL     1       3.509  -1.554  -1.205  1.00  0.00    -0.347 N 
HETATM   10  C5  UNL     1       4.518  -1.944  -2.115  1.00  0.00     0.249 C 
HETATM   11  O1  UNL     1       5.483  -1.183  -2.360  1.00  0.00    -0.271 OA
ATOM     12  H1  UNL     1       2.728  -2.184  -1.021  1.00  0.00     0.163 HD
BRANCH  10  13
HETATM   13  C6  UNL     1       4.451  -3.268  -2.798  1.00  0.00     0.277 C 
HETATM   14  C7  UNL     1       4.449  -4.374  -1.764  1.00  0.00     0.044 C 
HETATM   15  C8  UNL     1       5.890  -4.822  -1.696  1.00  0.00     0.030 C 
HETATM   16  C9  UNL     1       6.429  -4.464  -3.041  1.00  0.00     0.233 C 
HETATM   17  N2  UNL     1       5.552  -3.520  -3.672  1.00  0.00    -0.062 N 
ATOM     18  H22 UNL     1       5.254  -3.822  -4.599  1.00  0.00     0.278 HD
ATOM     19  H21 UNL     1       6.033  -2.665  -3.951  1.00  0.00     0.278 HD
ENDBRANCH  10  13
ENDBRANCH   5   9
ENDBRANCH   4   5
BRANCH   4  20
HETATM   20  O2  UNL     1       2.125   0.361  -2.260  1.00  0.00    -0.348 OA
ATOM     21  H2  UNL     1       1.365   0.841  -2.568  1.00  0.00     0.219 HD
ENDBRANCH   4  20
ENDBRANCH   2   4
ENDBRANCH   1   2
BRANCH   1  22
HETATM   22  C12 UNL     1      -0.904   1.672  -0.306  1.00  0.00     0.059 C 
BRANCH  22  23
HETATM   23  C13 UNL     1      -1.190   0.157  -0.264  1.00  0.00     0.089 C 
HETATM   24  C14 UNL     1      -1.318  -0.513  -1.532  1.00  0.00     0.030 C 
HETATM   25  C15 UNL     1      -2.667  -0.911  -2.055  1.00  0.00    -0.013 C 
HETATM   26  C16 UNL     1      -3.516   0.257  -2.455  1.00  0.00     0.005 C 
HETATM   27  C20 UNL     1      -3.358  -1.959  -1.261  1.00  0.00     0.005 C 
HETATM   28  C17 UNL     1      -4.506   0.714  -1.470  1.00  0.00     0.006 C 
HETATM   29  C18 UNL     1      -4.528  -0.021  -0.156  1.00  0.00     0.004 C 
HETATM   30  C19 UNL     1      -4.492  -1.480  -0.425  1.00  0.00     0.006 C 
HETATM   31  C21 UNL     1      -3.556   0.501   0.838  1.00  0.00     0.130 C 
HETATM   32  N4  UNL     1      -2.216   0.006   0.735  1.00  0.00    -0.345 N 
HETATM   33  C22 UNL     1      -1.869  -0.788   1.864  1.00  0.00     0.248 C 
HETATM   34  O3  UNL     1      -0.699  -1.312   1.833  1.00  0.00    -0.271 OA
BRANCH  33  35
HETATM   35  C23 UNL     1      -2.739  -1.026   3.017  1.00  0.00     0.374 C 
BRANCH  35  36
HETATM   36  N5  UNL     1      -2.065  -1.891   3.968  1.00  0.00     0.097 N 
HETATM   37  C24 UNL     1      -2.883  -1.988   5.156  1.00  0.00     0.273 C 
HETATM   38  C25 UNL     1      -4.036  -2.893   4.806  1.00  0.00     0.032 C 
HETATM   39  C26 UNL     1      -3.380  -3.891   3.908  1.00  0.00     0.032 C 
HETATM   40  C27 UNL     1      -2.105  -3.231   3.403  1.00  0.00     0.273 C 
ENDBRANCH  35  36
ENDBRANCH  33  35
ENDBRANCH  22  23
ENDBRANCH   1  22
BRANCH   1  41
HETATM   41  C28 UNL     1       0.716   3.421  -0.944  1.00  0.00     0.137 C 
BRANCH  41  42
HETATM   42  O4  UNL     1       1.998   3.639  -1.116  1.00  0.00    -0.348 OA
ATOM     43  H4  UNL     1       2.231   4.560  -1.088  1.00  0.00     0.219 HD
ENDBRANCH  41  42
BRANCH  41  44
HETATM   44  N6  UNL     1      -0.029   4.584  -0.760  1.00  0.00    -0.364 N 
HETATM   45  C29 UNL     1       0.723   5.863  -0.860  1.00  0.00     0.124 C 
HETATM   46  C30 UNL     1      -0.134   6.776  -1.707  1.00  0.00     0.020 C 
HETATM   47  C31 UNL     1      -1.393   7.170  -0.923  1.00  0.00     0.003 C 
HETATM   48  C32 UNL     1      -1.629   6.156   0.138  1.00  0.00     0.020 C 
HETATM   49  C33 UNL     1      -1.423   4.755  -0.470  1.00  0.00     0.124 C 
ENDBRANCH  41  44
ENDBRANCH   1  41
TORSDOF 14
