REMARK  14 active torsions:
REMARK  status: ('A' for Active; 'I' for Inactive)
REMARK       I    between atoms: C2_2  and  N1_4 
REMARK    1  A    between atoms: N1_4  and  C3_6 
REMARK    2  A    between atoms: C3_6  and  C4_7 
REMARK    3  A    between atoms: C3_6  and  C29_45 
REMARK    4  A    between atoms: C4_7  and  C5_9 
REMARK    5  A    between atoms: N2_10  and  C6_11 
REMARK    6  A    between atoms: C6_11  and  O3_12 
REMARK    7  A    between atoms: C6_11  and  C7_14 
REMARK    8  A    between atoms: C7_14  and  N3_15 
REMARK    9  A    between atoms: C7_14  and  C21_36 
REMARK       I    between atoms: N3_15  and  C8_17 
REMARK       I    between atoms: C8_17  and  N4_19 
REMARK   10  A    between atoms: N4_19  and  C9_21 
REMARK   11  A    between atoms: C9_21  and  C10_22 
REMARK   12  A    between atoms: C9_21  and  C18_33 
REMARK   13  A    between atoms: C10_22  and  O5_23 
REMARK   14  A    between atoms: C10_22  and  N5_25 
ROOT
HETATM    1  C7  UNL     1      -0.299   0.302  -1.304  1.00  0.00     0.168 C 
ENDROOT
BRANCH   1   2
HETATM    2  C6  UNL     1      -1.483  -0.118  -0.534  1.00  0.00     0.138 C 
BRANCH   2   3
HETATM    3  N2  UNL     1      -2.518  -0.944  -0.936  1.00  0.00    -0.350 N 
HETATM    4  C5  UNL     1      -3.741  -1.393  -0.148  1.00  0.00     0.172 C 
HETATM    5  C26 UNL     1      -3.786  -2.504  -1.054  1.00  0.00     0.046 C 
HETATM    6  C25 UNL     1      -2.980  -1.740  -2.064  1.00  0.00     0.142 C 
HETATM    7  C27 UNL     1      -3.102  -3.799  -0.592  1.00  0.00     0.183 C 
HETATM    8  C28 UNL     1      -4.906  -3.333  -1.424  1.00  0.00     0.183 C 
HETATM    9  O6  UNL     1      -4.061  -4.469  -1.367  1.00  0.00    -0.389 OA
BRANCH   4  10
HETATM   10  C4  UNL     1      -4.649  -0.297   0.058  1.00  0.00     0.173 C 
HETATM   11  O2  UNL     1      -4.211   0.867  -0.121  1.00  0.00    -0.293 OA
BRANCH  10  12
HETATM   12  C3  UNL     1      -6.059  -0.345   0.475  1.00  0.00     0.159 C 
BRANCH  12  13
HETATM   13  N1  UNL     1      -6.225   0.559   1.660  1.00  0.00    -0.350 N 
HETATM   14  C2  UNL     1      -6.845   0.070   2.830  1.00  0.00     0.214 C 
HETATM   15  C1  UNL     1      -7.047   0.890   4.036  1.00  0.00     0.117 C 
HETATM   16  O1  UNL     1      -7.261  -1.135   2.877  1.00  0.00    -0.274 OA
ATOM     17  H1  UNL     1      -5.892   1.522   1.621  1.00  0.00     0.163 HD
ENDBRANCH  12  13
BRANCH  12  18
HETATM   18  C29 UNL     1      -6.910   0.320  -0.609  1.00  0.00     0.007 C 
HETATM   19  C30 UNL     1      -6.932  -0.363  -1.897  1.00  0.00     0.012 C 
HETATM   20  C31 UNL     1      -8.290   0.643  -0.060  1.00  0.00     0.012 C 
ENDBRANCH  12  18
ENDBRANCH  10  12
ENDBRANCH   4  10
ENDBRANCH   2   3
BRANCH   2  21
HETATM   21  O3  UNL     1      -1.508   0.372   0.681  1.00  0.00    -0.348 OA
ATOM     22  H3  UNL     1      -0.797   0.939   0.957  1.00  0.00     0.219 HD
ENDBRANCH   2  21
ENDBRANCH   1   2
BRANCH   1  23
HETATM   23  N3  UNL     1       0.699   0.728  -0.289  1.00  0.00    -0.330 N 
HETATM   24  C8  UNL     1       1.843  -0.037   0.035  1.00  0.00     0.317 C 
HETATM   25  O4  UNL     1       2.055  -1.115  -0.528  1.00  0.00    -0.247 OA
HETATM   26  N4  UNL     1       2.731   0.450   1.013  1.00  0.00    -0.331 N 
ATOM     27  H4  UNL     1       2.540   1.349   1.455  1.00  0.00     0.165 HD
ATOM     28  H3  UNL     1       0.552   1.613   0.196  1.00  0.00     0.165 HD
BRANCH  26  29
HETATM   29  C9  UNL     1       3.953  -0.323   1.421  1.00  0.00     0.164 C 
BRANCH  29  30
HETATM   30  C10 UNL     1       5.045   0.651   1.320  1.00  0.00     0.138 C 
BRANCH  30  31
HETATM   31  O5  UNL     1       4.748   1.796   1.886  1.00  0.00    -0.348 OA
ATOM     32  H5  UNL     1       5.455   2.427   1.821  1.00  0.00     0.219 HD
ENDBRANCH  30  31
BRANCH  30  33
HETATM   33  N5  UNL     1       6.299   0.535   0.725  1.00  0.00    -0.354 N 
HETATM   34  C11 UNL     1       7.322   1.617   0.778  1.00  0.00     0.130 C 
HETATM   35  C12 UNL     1       7.777   1.446  -0.635  1.00  0.00     0.010 A 
HETATM   36  C13 UNL     1       8.843   0.811  -1.276  1.00  0.00     0.014 A 
HETATM   37  C14 UNL     1       8.224  -0.039  -0.354  1.00  0.00     0.019 A 
HETATM   38  C15 UNL     1       6.834  -0.510  -0.085  1.00  0.00     0.031 C 
HETATM   39  C16 UNL     1       6.957  -1.863   0.569  1.00  0.00     0.038 C 
HETATM   40  C17 UNL     1       6.038  -0.704  -1.367  1.00  0.00     0.038 C 
ENDBRANCH  30  33
ENDBRANCH  29  30
BRANCH  29  41
HETATM   41  C18 UNL     1       3.653  -0.756   2.855  1.00  0.00     0.008 C 
HETATM   42  C19 UNL     1       3.442   0.379   3.802  1.00  0.00     0.012 C 
HETATM   43  C20 UNL     1       4.547  -1.809   3.368  1.00  0.00     0.012 C 
ENDBRANCH  29  41
ENDBRANCH  26  29
ENDBRANCH   1  23
BRANCH   1  44
HETATM   44  C21 UNL     1      -0.537   1.436  -2.239  1.00  0.00    -0.023 C 
HETATM   45  C22 UNL     1       0.761   1.821  -2.966  1.00  0.00     0.017 C 
HETATM   46  C23 UNL     1      -1.100   2.676  -1.622  1.00  0.00     0.017 C 
HETATM   47  C24 UNL     1      -1.487   1.028  -3.346  1.00  0.00     0.017 C 
ENDBRANCH   1  44
TORSDOF 14
