REMARK  3 active torsions:
REMARK  status: ('A' for Active; 'I' for Inactive)
REMARK       I    between atoms: N1_1  and  C1_4 
REMARK       I    between atoms: C1_4  and  N3_6 
REMARK    1  A    between atoms: N3_6  and  C2_8 
REMARK    2  A    between atoms: C4_16  and  N7_17 
REMARK    3  A    between atoms: N7_17  and  N8_19 
ROOT
HETATM    1  C2  UNL     1       0.308  -0.887   0.407  1.00  0.00     0.168 A 
HETATM    2  N4  UNL     1       1.359  -1.762   0.376  1.00  0.00    -0.281 N 
ATOM      3  H4  UNL     1       1.176  -2.735   0.620  1.00  0.00     0.188 HD
HETATM    4  N5  UNL     1       2.582  -1.434   0.055  1.00  0.00    -0.294 N 
ATOM      5  H5  UNL     1       3.317  -2.142   0.054  1.00  0.00     0.187 HD
HETATM    6  C3  UNL     1       2.872  -0.162  -0.275  1.00  0.00     0.199 A 
HETATM    7  N6  UNL     1       1.862   0.745  -0.259  1.00  0.00    -0.333 N 
ATOM      8  H6  UNL     1       2.067   1.713  -0.506  1.00  0.00     0.168 HD
HETATM    9  C4  UNL     1       0.608   0.414   0.069  1.00  0.00     0.167 A 
ENDROOT
BRANCH   1  10
HETATM   10  N3  UNL     1      -0.852  -1.308   0.734  1.00  0.00    -0.313 N 
HETATM   11  C1  UNL     1      -2.045  -0.564   0.822  1.00  0.00     0.187 C 
HETATM   12  N1  UNL     1      -2.303  -0.076   2.013  1.00  0.00    -0.373 N 
HETATM   13  N2  UNL     1      -2.918  -0.353  -0.275  1.00  0.00    -0.064 NA
ATOM     14  H12 UNL     1      -3.167   0.463   2.077  1.00  0.00     0.158 HD
ATOM     15  H11 UNL     1      -1.675  -0.228   2.802  1.00  0.00     0.158 HD
ATOM     16  H3  UNL     1      -0.923  -2.301   0.958  1.00  0.00     0.170 HD
ENDBRANCH   1  10
BRANCH   9  17
HETATM   17  N7  UNL     1      -0.315   1.321   0.067  1.00  0.00    -0.289 N 
ATOM     18  H7  UNL     1      -1.269   1.062   0.319  1.00  0.00     0.188 HD
BRANCH  17  19
HETATM   19  N8  UNL     1      -0.036   2.642  -0.271  1.00  0.00    -0.344 N 
ATOM     20  H82 UNL     1       0.923   2.884  -0.520  1.00  0.00     0.176 HD
ATOM     21  H81 UNL     1      -0.764   3.357  -0.273  1.00  0.00     0.176 HD
ENDBRANCH  17  19
ENDBRANCH   9  17
TORSDOF 3
