REMARK  3 active torsions:
REMARK  status: ('A' for Active; 'I' for Inactive)
REMARK       I    between atoms: C2_2  and  N1_4 
REMARK    1  A    between atoms: N1_4  and  N2_6 
REMARK    2  A    between atoms: N2_6  and  C3_8 
REMARK    3  A    between atoms: N5_15  and  N6_16 
ROOT
HETATM    1  C3  UNL     1       0.864   0.207  -0.037  1.00  0.00     0.736 A 
HETATM    2  N3  UNL     1       0.698  -1.131  -0.061  1.00  0.00    -0.125 N 
ATOM      3  H3  UNL     1      -0.133  -1.619  -0.397  1.00  0.00     0.206 HD
HETATM    4  N4  UNL     1       1.786  -1.709   0.421  1.00  0.00    -0.235 N 
ATOM      5  H4  UNL     1       1.950  -2.710   0.526  1.00  0.00     0.192 HD
HETATM    6  C4  UNL     1       2.636  -0.712   0.747  1.00  0.00     0.375 A 
HETATM    7  O2  UNL     1       3.782  -0.881   1.239  1.00  0.00    -0.243 OA
HETATM    8  N5  UNL     1       2.076   0.487   0.468  1.00  0.00    -0.034 N 
ENDROOT
BRANCH   1   9
HETATM    9  N2  UNL     1       0.024   1.104  -0.424  1.00  0.00    -0.126 N 
ATOM     10  H2  UNL     1       0.271   2.091  -0.353  1.00  0.00     0.206 HD
BRANCH   9  11
HETATM   11  N1  UNL     1      -1.235   0.734  -0.945  1.00  0.00    -0.256 N 
HETATM   12  C2  UNL     1      -2.204   0.202  -0.078  1.00  0.00     0.232 C 
HETATM   13  C1  UNL     1      -3.531  -0.194  -0.597  1.00  0.00     0.119 C 
HETATM   14  O1  UNL     1      -1.964   0.052   1.158  1.00  0.00    -0.272 OA
ATOM     15  H1  UNL     1      -1.438   0.851  -1.938  1.00  0.00     0.190 HD
ENDBRANCH   9  11
ENDBRANCH   1   9
BRANCH   8  16
HETATM   16  N6  UNL     1       2.635   1.763   0.662  1.00  0.00    -0.320 N 
ATOM     17  H62 UNL     1       2.213   2.667   0.452  1.00  0.00     0.178 HD
ATOM     18  H61 UNL     1       3.556   1.976   1.046  1.00  0.00     0.178 HD
ENDBRANCH   8  16
TORSDOF 3
