REMARK  3 active torsions:
REMARK  status: ('A' for Active; 'I' for Inactive)
REMARK       I    between atoms: C2_2  and  N1_4 
REMARK    1  A    between atoms: N1_4  and  C3_6 
REMARK    2  A    between atoms: C5_15  and  N5_16 
REMARK    3  A    between atoms: N5_16  and  N6_18 
ROOT
HETATM    1  C3  UNL     1       0.086  -0.012  -0.270  1.00  0.00     0.169 A 
HETATM    2  N2  UNL     1      -0.224  -1.205  -0.810  1.00  0.00    -0.278 N 
ATOM      3  H2  UNL     1       0.498  -1.747  -1.284  1.00  0.00     0.189 HD
HETATM    4  N3  UNL     1      -1.473  -1.689  -0.732  1.00  0.00    -0.250 N 
ATOM      5  H3  UNL     1      -1.680  -2.596  -1.150  1.00  0.00     0.192 HD
HETATM    6  C4  UNL     1      -2.460  -1.013  -0.119  1.00  0.00     0.340 A 
HETATM    7  O2  UNL     1      -3.618  -1.506  -0.070  1.00  0.00    -0.245 OA
HETATM    8  N4  UNL     1      -2.196   0.185   0.435  1.00  0.00    -0.289 N 
ATOM      9  H4  UNL     1      -2.931   0.714   0.904  1.00  0.00     0.172 HD
HETATM   10  C5  UNL     1      -0.930   0.677   0.357  1.00  0.00     0.170 A 
ENDROOT
BRANCH   1  11
HETATM   11  N1  UNL     1       1.272   0.485  -0.325  1.00  0.00    -0.309 N 
HETATM   12  C2  UNL     1       2.381  -0.094  -0.920  1.00  0.00     0.219 C 
HETATM   13  C1  UNL     1       3.585  -0.423  -0.128  1.00  0.00     0.117 C 
HETATM   14  O1  UNL     1       2.376  -0.348  -2.143  1.00  0.00    -0.274 OA
ATOM     15  H1  UNL     1       1.409   1.396   0.113  1.00  0.00     0.170 HD
ENDBRANCH   1  11
BRANCH  10  16
HETATM   16  N5  UNL     1      -0.641   1.833   0.883  1.00  0.00    -0.289 N 
ATOM     17  H5  UNL     1       0.308   2.203   0.825  1.00  0.00     0.188 HD
BRANCH  16  18
HETATM   18  N6  UNL     1      -1.635   2.553   1.521  1.00  0.00    -0.344 N 
ATOM     19  H62 UNL     1      -2.579   2.169   1.570  1.00  0.00     0.176 HD
ATOM     20  H61 UNL     1      -1.409   3.458   1.933  1.00  0.00     0.176 HD
ENDBRANCH  16  18
ENDBRANCH  10  16
TORSDOF 3
