REMARK  3 active torsions:
REMARK  status: ('A' for Active; 'I' for Inactive)
REMARK    1  A    between atoms: N1_1  and  C1_4 
REMARK    2  A    between atoms: C3_11  and  N4_12 
REMARK       I    between atoms: N4_12  and  C4_14 
REMARK    3  A    between atoms: N6_16  and  O2_18 
ROOT
HETATM    1  C1  UNL     1      -1.838   0.511  -0.264  1.00  0.00     0.692 A 
HETATM    2  N2  UNL     1      -2.547  -0.632  -0.319  1.00  0.00    -0.129 N 
ATOM      3  H2  UNL     1      -3.529  -0.628  -0.594  1.00  0.00     0.205 HD
HETATM    4  N3  UNL     1      -1.932  -1.760  -0.006  1.00  0.00    -0.249 N 
ATOM      5  H3  UNL     1      -2.446  -2.640  -0.041  1.00  0.00     0.191 HD
HETATM    6  C2  UNL     1      -0.627  -1.762   0.361  1.00  0.00     0.305 A 
HETATM    7  O1  UNL     1      -0.067  -2.852   0.654  1.00  0.00    -0.263 OA
HETATM    8  C3  UNL     1       0.111  -0.597   0.421  1.00  0.00     0.193 A 
HETATM    9  N7  UNL     1      -0.542   0.533   0.097  1.00  0.00    -0.170 N 
ATOM     10  H7  UNL     1      -0.046   1.424   0.125  1.00  0.00     0.186 HD
ENDROOT
BRANCH   8  11
HETATM   11  N4  UNL     1       1.330  -0.667   0.772  1.00  0.00    -0.310 N 
HETATM   12  C4  UNL     1       2.212   0.441   0.880  1.00  0.00     0.213 C 
HETATM   13  N5  UNL     1       3.351   0.489   0.033  1.00  0.00    -0.061 NA
HETATM   14  N6  UNL     1       2.042   1.408   1.700  1.00  0.00    -0.241 N 
ATOM     15  H6  UNL     1       1.236   1.410   2.325  1.00  0.00     0.197 HD
ATOM     16  H4  UNL     1       1.704  -1.590   0.993  1.00  0.00     0.170 HD
BRANCH  14  17
HETATM   17  O2  UNL     1       2.937   2.437   1.741  1.00  0.00    -0.287 OA
ATOM     18  H2  UNL     1       2.811   3.155   2.350  1.00  0.00     0.244 HD
ENDBRANCH  14  17
ENDBRANCH   8  11
BRANCH   1  19
HETATM   19  N1  UNL     1      -2.434   1.629  -0.571  1.00  0.00    -0.233 N 
ATOM     20  H12 UNL     1      -3.416   1.612  -0.845  1.00  0.00     0.174 HD
ATOM     21  H11 UNL     1      -1.897   2.495  -0.529  1.00  0.00     0.174 HD
ENDBRANCH   1  19
TORSDOF 3
