REMARK  2 active torsions:
REMARK  status: ('A' for Active; 'I' for Inactive)
REMARK       I    between atoms: C1_4  and  N3_6 
REMARK    1  A    between atoms: N3_6  and  N4_7 
REMARK    2  A    between atoms: N3_6  and  N5_10 
ROOT
HETATM    1  N5  UNL     1      -0.327  -0.702  -0.858  1.00  0.00    -0.257 N 
ATOM      2  H5  UNL     1      -0.544  -1.562  -1.361  1.00  0.00     0.191 HD
HETATM    3  C2  UNL     1       0.857  -0.582  -0.324  1.00  0.00     0.195 A 
HETATM    4  N6  UNL     1       1.910  -1.537  -0.362  1.00  0.00    -0.289 N 
ATOM      5  H6  UNL     1       1.851  -2.444  -0.824  1.00  0.00     0.172 HD
HETATM    6  C3  UNL     1       3.047  -1.063   0.324  1.00  0.00     0.328 A 
HETATM    7  O1  UNL     1       4.172  -1.641   0.497  1.00  0.00    -0.247 OA
HETATM    8  N7  UNL     1       2.726   0.231   0.821  1.00  0.00    -0.272 N 
ATOM      9  H7  UNL     1       3.348   0.832   1.362  1.00  0.00     0.174 HD
HETATM   10  C4  UNL     1       1.378   0.549   0.433  1.00  0.00     0.295 A 
HETATM   11  O2  UNL     1       0.780   1.611   0.706  1.00  0.00    -0.264 OA
ENDROOT
BRANCH   1  12
HETATM   12  N3  UNL     1      -1.299   0.267  -0.780  1.00  0.00    -0.170 N 
HETATM   13  C1  UNL     1      -2.102   0.366   0.389  1.00  0.00     0.223 C 
HETATM   14  N1  UNL     1      -2.769   1.453   0.677  1.00  0.00    -0.371 N 
HETATM   15  N2  UNL     1      -2.215  -0.722   1.300  1.00  0.00    -0.060 NA
ATOM     16  H12 UNL     1      -3.345   1.524   1.516  1.00  0.00     0.158 HD
ATOM     17  H11 UNL     1      -2.688   2.233   0.024  1.00  0.00     0.158 HD
BRANCH  12  18
HETATM   18  N4  UNL     1      -1.527   1.169  -1.822  1.00  0.00    -0.321 N 
ATOM     19  H42 UNL     1      -2.248   1.888  -1.764  1.00  0.00     0.179 HD
ATOM     20  H41 UNL     1      -0.951   1.098  -2.661  1.00  0.00     0.179 HD
ENDBRANCH  12  18
ENDBRANCH   1  12
TORSDOF 2
