REMARK  13 active torsions:
REMARK  status: ('A' for Active; 'I' for Inactive)
REMARK    1  A    between atoms: C2_2  and  N1_3 
REMARK       I    between atoms: N1_3  and  C3_5 
REMARK    2  A    between atoms: C3_5  and  C4_7 
REMARK    3  A    between atoms: N3_15  and  C9_16 
REMARK    4  A    between atoms: C9_16  and  O2_17 
REMARK    5  A    between atoms: C10_19  and  C11_20 
REMARK    6  A    between atoms: C10_19  and  N4_24 
REMARK    7  A    between atoms: C11_20  and  C12_21 
REMARK       I    between atoms: N4_24  and  C15_26 
REMARK    8  A    between atoms: C15_26  and  C16_28 
REMARK    9  A    between atoms: C21_33  and  C22_34 
REMARK   10  A    between atoms: C22_34  and  C23_35 
REMARK   11  A    between atoms: C23_35  and  C24_36 
REMARK   12  A    between atoms: C24_36  and  N5_37 
REMARK       I    between atoms: N6_40  and  C27_41 
REMARK   13  A    between atoms: C27_41  and  C28_43 
ROOT
HETATM    1  N4  UNL     1      -3.973  -0.072   0.161  1.00  0.00    -0.323 N 
ATOM      2  H4  UNL     1      -3.756  -0.003  -0.833  1.00  0.00     0.169 HD
HETATM    3  C15 UNL     1      -3.013   0.410   1.080  1.00  0.00     0.227 C 
HETATM    4  O3  UNL     1      -3.327   0.315   2.317  1.00  0.00    -0.273 OA
ENDROOT
BRANCH   3   5
HETATM    5  C16 UNL     1      -1.710   1.013   0.781  1.00  0.00     0.093 A 
HETATM    6  C17 UNL     1      -1.219   0.839  -0.638  1.00  0.00     0.018 A 
HETATM    7  C18 UNL     1      -0.611  -0.509  -0.940  1.00  0.00    -0.034 A 
HETATM    8  C21 UNL     1      -0.503   0.086   0.383  1.00  0.00    -0.015 A 
HETATM    9  C19 UNL     1       0.417  -0.400  -2.057  1.00  0.00     0.016 C 
HETATM   10  C20 UNL     1      -1.446  -1.743  -1.029  1.00  0.00     0.016 C 
BRANCH   8  11
HETATM   11  C22 UNL     1       0.764   0.586   0.974  1.00  0.00     0.016 C 
BRANCH  11  12
HETATM   12  C23 UNL     1       2.005  -0.196   0.714  1.00  0.00     0.045 C 
BRANCH  12  13
HETATM   13  C24 UNL     1       3.132   0.575   1.439  1.00  0.00     0.063 C 
BRANCH  13  14
HETATM   14  N5  UNL     1       4.392   0.010   1.355  1.00  0.00    -0.371 N 
HETATM   15  C25 UNL     1       5.454   0.749   1.918  1.00  0.00     0.147 C 
HETATM   16  C26 UNL     1       6.553   1.028   0.888  1.00  0.00     0.146 C 
HETATM   17  N6  UNL     1       6.869  -0.153   0.133  1.00  0.00    -0.344 N 
HETATM   18  C27 UNL     1       8.225  -0.599  -0.087  1.00  0.00     0.251 C 
HETATM   19  C35 UNL     1       5.796  -0.922  -0.453  1.00  0.00     0.170 C 
HETATM   20  O4  UNL     1       8.415  -1.660  -0.721  1.00  0.00    -0.271 OA
HETATM   21  C36 UNL     1       4.699  -1.103   0.570  1.00  0.00     0.083 C 
BRANCH  18  22
HETATM   22  C28 UNL     1       9.376   0.169   0.414  1.00  0.00     0.280 C 
HETATM   23  C29 UNL     1       9.494   1.351  -0.587  1.00  0.00     0.043 C 
HETATM   24  C30 UNL     1      10.727   2.150  -0.385  1.00  0.00     0.004 C 
HETATM   25  C31 UNL     1      11.969   1.323  -0.518  1.00  0.00     0.028 C 
HETATM   26  C32 UNL     1      11.537  -0.130  -0.626  1.00  0.00     0.237 C 
HETATM   27  N7  UNL     1      10.632  -0.498   0.453  1.00  0.00    -0.062 N 
HETATM   28  C33 UNL     1      11.370  -0.124   1.692  1.00  0.00     0.273 C 
HETATM   29  C34 UNL     1      10.597  -1.943   0.489  1.00  0.00     0.273 C 
ENDBRANCH  18  22
ENDBRANCH  13  14
ENDBRANCH  12  13
ENDBRANCH  11  12
ENDBRANCH   8  11
ENDBRANCH   3   5
BRANCH   1  30
HETATM   30  C10 UNL     1      -5.267  -0.668   0.544  1.00  0.00     0.082 C 
HETATM   31  C9  UNL     1      -6.327   0.316   0.593  1.00  0.00     0.167 C 
BRANCH  31  32
HETATM   32  N3  UNL     1      -7.710   0.306   0.604  1.00  0.00    -0.325 N 
HETATM   33  C4  UNL     1      -8.368   1.630   0.773  1.00  0.00     0.380 C 
HETATM   34  N2  UNL     1      -9.346   1.637   1.799  1.00  0.00    -0.045 N 
HETATM   35  C5  UNL     1      -9.190   0.545   2.726  1.00  0.00     0.235 C 
ATOM     36  H22 UNL     1      -9.357   2.532   2.288  1.00  0.00     0.280 HD
ATOM     37  H21 UNL     1     -10.287   1.651   1.406  1.00  0.00     0.280 HD
HETATM   38  C6  UNL     1     -10.059  -0.605   2.279  1.00  0.00     0.029 C 
HETATM   39  C7  UNL     1      -9.955  -0.739   0.785  1.00  0.00     0.022 C 
HETATM   40  C8  UNL     1      -8.490  -0.908   0.416  1.00  0.00     0.128 C 
BRANCH  33  41
HETATM   41  C3  UNL     1      -8.858   2.180  -0.518  1.00  0.00     0.268 C 
HETATM   42  N1  UNL     1      -8.138   2.129  -1.719  1.00  0.00    -0.358 N 
ATOM     43  H1  UNL     1      -7.220   1.685  -1.735  1.00  0.00     0.162 HD
HETATM   44  O1  UNL     1     -10.007   2.734  -0.542  1.00  0.00    -0.269 OA
BRANCH  42  45
HETATM   45  C2  UNL     1      -8.676   2.695  -2.934  1.00  0.00     0.118 C 
HETATM   46  C1  UNL     1      -9.970   2.039  -3.317  1.00  0.00     0.026 C 
ENDBRANCH  42  45
ENDBRANCH  33  41
ENDBRANCH  31  32
BRANCH  31  47
HETATM   47  O2  UNL     1      -5.824   1.551   0.640  1.00  0.00    -0.344 OA
ATOM     48  H2  UNL     1      -4.874   1.558   0.632  1.00  0.00     0.219 HD
ENDBRANCH  31  47
BRANCH  30  49
HETATM   49  C11 UNL     1      -5.434  -2.040   0.085  1.00  0.00     0.012 C 
BRANCH  49  50
HETATM   50  C12 UNL     1      -5.894  -2.371  -1.276  1.00  0.00     0.010 A 
HETATM   51  C13 UNL     1      -5.279  -2.020  -2.549  1.00  0.00     0.009 A 
HETATM   52  C14 UNL     1      -4.967  -3.361  -2.029  1.00  0.00     0.009 A 
ENDBRANCH  49  50
ENDBRANCH  30  49
ENDBRANCH   1  30
TORSDOF 13
