REMARK  11 active torsions:
REMARK  status: ('A' for Active; 'I' for Inactive)
REMARK    1  A    between atoms: C2_2  and  C3_3 
REMARK    2  A    between atoms: C3_3  and  C4_4 
REMARK    3  A    between atoms: C3_3  and  C23_29 
REMARK    4  A    between atoms: C3_3  and  N7_46 
REMARK    5  A    between atoms: C4_4  and  N1_5 
REMARK       I    between atoms: N1_5  and  C5_7 
REMARK    6  A    between atoms: C5_7  and  C6_9 
REMARK    7  A    between atoms: C10_13  and  C11_14 
REMARK    8  A    between atoms: C11_14  and  C12_15 
REMARK    9  A    between atoms: C15_19  and  N3_20 
REMARK   10  A    between atoms: C23_29  and  C24_30 
REMARK       I    between atoms: C24_30  and  N4_32 
REMARK       I    between atoms: N5_35  and  C27_36 
REMARK       I    between atoms: C27_36  and  N6_38 
REMARK   11  A    between atoms: N6_38  and  C28_40 
REMARK       I    between atoms: N7_46  and  C33_48 
ROOT
HETATM    1  C3  UNL     1      -2.942  -0.890  -0.109  1.00  0.00     0.056 C 
ENDROOT
BRANCH   1   2
HETATM    2  C2  UNL     1      -2.722  -0.490   1.321  1.00  0.00     0.028 C 
HETATM    3  C1  UNL     1      -3.398  -1.266   2.387  1.00  0.00     0.007 C 
ENDBRANCH   1   2
BRANCH   1   4
HETATM    4  C4  UNL     1      -2.102   0.067  -0.973  1.00  0.00     0.154 C 
BRANCH   4   5
HETATM    5  N1  UNL     1      -0.700  -0.063  -0.633  1.00  0.00    -0.358 N 
HETATM    6  C5  UNL     1       0.294   0.723  -1.318  1.00  0.00     0.222 C 
HETATM    7  O1  UNL     1      -0.050   1.513  -2.218  1.00  0.00    -0.273 OA
ATOM      8  H1  UNL     1      -0.414  -0.716   0.097  1.00  0.00     0.162 HD
BRANCH   6   9
HETATM    9  C6  UNL     1       1.702   0.556  -0.910  1.00  0.00     0.082 C 
HETATM   10  C7  UNL     1       1.828   1.228   0.450  1.00  0.00     0.014 C 
HETATM   11  C8  UNL     1       3.148   0.813   1.011  1.00  0.00     0.005 C 
HETATM   12  C9  UNL     1       4.334   1.063   0.100  1.00  0.00     0.034 C 
HETATM   13  C10 UNL     1       4.088   0.922  -1.352  1.00  0.00    -0.078 C 
HETATM   14  C22 UNL     1       2.683   1.175  -1.828  1.00  0.00     0.048 C 
BRANCH  13  15
HETATM   15  C11 UNL     1       4.757  -0.193  -2.063  1.00  0.00     0.020 C 
BRANCH  15  16
HETATM   16  C12 UNL     1       6.216  -0.255  -2.241  1.00  0.00     0.090 C 
HETATM   17  N2  UNL     1       7.177  -0.183  -1.281  1.00  0.00    -0.370 N 
HETATM   18  C13 UNL     1       7.596   0.986  -0.632  1.00  0.00     0.065 C 
HETATM   19  C21 UNL     1       7.802  -1.339  -0.747  1.00  0.00     0.129 C 
HETATM   20  C14 UNL     1       9.087   1.167  -0.889  1.00  0.00     0.070 C 
HETATM   21  C15 UNL     1       9.832  -0.020  -0.361  1.00  0.00     0.093 C 
HETATM   22  C20 UNL     1       8.871  -0.972   0.291  1.00  0.00     0.045 C 
BRANCH  21  23
HETATM   23  N3  UNL     1      10.851   0.412   0.581  1.00  0.00    -0.347 N 
HETATM   24  C16 UNL     1      10.551   1.159   1.791  1.00  0.00     0.127 C 
HETATM   25  C17 UNL     1      11.852   1.747   2.253  1.00  0.00     0.029 C 
HETATM   26  C18 UNL     1      12.889   1.341   1.258  1.00  0.00     0.104 C 
HETATM   27  C19 UNL     1      12.252   0.223   0.524  1.00  0.00     0.220 C 
HETATM   28  O2  UNL     1      12.836  -0.718  -0.043  1.00  0.00    -0.273 OA
ENDBRANCH  21  23
ENDBRANCH  15  16
ENDBRANCH  13  15
ENDBRANCH   6   9
ENDBRANCH   4   5
ENDBRANCH   1   4
BRANCH   1  29
HETATM   29  C23 UNL     1      -4.327  -0.764  -0.616  1.00  0.00     0.136 C 
BRANCH  29  30
HETATM   30  C24 UNL     1      -5.398  -1.574  -0.078  1.00  0.00     0.229 C 
HETATM   31  O3  UNL     1      -5.164  -2.710   0.409  1.00  0.00    -0.273 OA
HETATM   32  N4  UNL     1      -6.768  -1.185  -0.046  1.00  0.00    -0.285 N 
HETATM   33  C25 UNL     1      -7.757  -2.075   0.514  1.00  0.00     0.155 C 
HETATM   34  C32 UNL     1      -7.212   0.067  -0.551  1.00  0.00     0.244 C 
HETATM   35  C26 UNL     1      -8.502  -1.310   1.582  1.00  0.00     0.148 C 
HETATM   36  N5  UNL     1      -9.113  -0.143   0.935  1.00  0.00    -0.324 N 
HETATM   37  C27 UNL     1     -10.518   0.027   1.055  1.00  0.00     0.319 C 
HETATM   38  C31 UNL     1      -8.297   0.784   0.210  1.00  0.00     0.231 C 
HETATM   39  O4  UNL     1     -11.186  -0.852   1.706  1.00  0.00    -0.247 OA
HETATM   40  N6  UNL     1     -11.216   1.113   0.495  1.00  0.00    -0.339 N 
ATOM     41  H6  UNL     1     -10.708   1.827  -0.027  1.00  0.00     0.164 HD
HETATM   42  O5  UNL     1      -6.702   0.540  -1.598  1.00  0.00    -0.271 OA
BRANCH  40  43
HETATM   43  C28 UNL     1     -12.663   1.224   0.656  1.00  0.00     0.078 C 
HETATM   44  C29 UNL     1     -13.324   1.226  -0.718  1.00  0.00     0.032 C 
HETATM   45  C30 UNL     1     -12.989   2.495   1.406  1.00  0.00     0.032 C 
ENDBRANCH  40  43
ENDBRANCH  29  30
ENDBRANCH   1  29
BRANCH   1  46
HETATM   46  N7  UNL     1      -2.353  -2.200  -0.374  1.00  0.00    -0.350 N 
HETATM   47  C33 UNL     1      -2.318  -2.873  -1.590  1.00  0.00     0.214 C 
HETATM   48  C34 UNL     1      -1.675  -4.204  -1.665  1.00  0.00     0.117 C 
HETATM   49  O6  UNL     1      -2.808  -2.402  -2.625  1.00  0.00    -0.274 OA
ATOM     50  H7  UNL     1      -1.920  -2.673   0.420  1.00  0.00     0.163 HD
ENDBRANCH   1  46
TORSDOF 11
