REMARK  14 active torsions:
REMARK  status: ('A' for Active; 'I' for Inactive)
REMARK    1  A    between atoms: C3_3  and  C4_4 
REMARK    2  A    between atoms: C5_5  and  C6_6 
REMARK    3  A    between atoms: C6_6  and  N1_7 
REMARK    4  A    between atoms: N1_7  and  C7_8 
REMARK       I    between atoms: N1_7  and  C9_10 
REMARK    5  A    between atoms: C9_10  and  C10_12 
REMARK    6  A    between atoms: C10_12  and  C11_13 
REMARK    7  A    between atoms: C10_12  and  N5_41 
REMARK    8  A    between atoms: C11_13  and  C12_14 
REMARK    9  A    between atoms: C15_17  and  C16_18 
REMARK   10  A    between atoms: C15_17  and  C17_21 
REMARK       I    between atoms: C17_21  and  N2_23 
REMARK   11  A    between atoms: N3_28  and  C22_29 
REMARK   12  A    between atoms: C22_29  and  C23_30 
REMARK       I    between atoms: C23_30  and  N4_32 
REMARK       I    between atoms: N5_41  and  C31_43 
REMARK   13  A    between atoms: C31_43  and  C32_45 
REMARK   14  A    between atoms: C32_45  and  N6_47 
ROOT
HETATM    1  C1  UNL     1     -10.722   0.984   1.327  1.00  0.00     0.113 C 
HETATM    2  C2  UNL     1      -9.339   1.488   1.275  1.00  0.00    -0.097 C 
HETATM    3  C3  UNL     1      -8.199   1.880   1.221  1.00  0.00    -0.015 C 
ENDROOT
BRANCH   3   4
HETATM    4  C4  UNL     1      -6.842   2.322   1.140  1.00  0.00    -0.013 C 
HETATM    5  C5  UNL     1      -5.696   2.686   1.047  1.00  0.00    -0.073 C 
BRANCH   5   6
HETATM    6  C6  UNL     1      -4.310   3.126   0.902  1.00  0.00     0.221 C 
BRANCH   6   7
HETATM    7  N1  UNL     1      -3.458   2.032   1.363  1.00  0.00    -0.340 N 
HETATM    8  C9  UNL     1      -3.065   1.064   0.424  1.00  0.00     0.243 C 
HETATM    9  O1  UNL     1      -3.522   1.191  -0.768  1.00  0.00    -0.271 OA
BRANCH   7  10
HETATM   10  C7  UNL     1      -3.110   2.018   2.756  1.00  0.00     0.122 C 
HETATM   11  C8  UNL     1      -4.155   1.265   3.581  1.00  0.00     0.026 C 
ENDBRANCH   7  10
BRANCH   8  12
HETATM   12  C10 UNL     1      -2.191  -0.080   0.643  1.00  0.00     0.177 C 
BRANCH  12  13
HETATM   13  C11 UNL     1      -0.739   0.228   0.672  1.00  0.00     0.049 C 
BRANCH  13  14
HETATM   14  C12 UNL     1      -0.092   0.872  -0.489  1.00  0.00     0.080 C 
HETATM   15  C13 UNL     1      -0.108   0.149  -1.798  1.00  0.00     0.017 C 
HETATM   16  C14 UNL     1       1.046  -0.828  -1.777  1.00  0.00     0.054 C 
HETATM   17  C15 UNL     1       2.330  -0.046  -1.954  1.00  0.00     0.205 C 
HETATM   18  N3  UNL     1       2.490   0.651  -0.660  1.00  0.00    -0.316 N 
HETATM   19  C30 UNL     1       1.318   1.177  -0.064  1.00  0.00     0.226 C 
HETATM   20  O6  UNL     1       1.394   1.986   0.924  1.00  0.00    -0.273 OA
BRANCH  17  21
HETATM   21  C16 UNL     1       3.431  -0.973  -2.255  1.00  0.00     0.212 C 
HETATM   22  O2  UNL     1       3.209  -1.971  -3.036  1.00  0.00    -0.646 OA
HETATM   23  O3  UNL     1       4.727  -0.924  -1.804  1.00  0.00    -0.646 OA
ENDBRANCH  17  21
BRANCH  17  24
HETATM   24  C17 UNL     1       2.254   0.993  -3.010  1.00  0.00     0.259 C 
HETATM   25  O4  UNL     1       2.466   2.206  -2.633  1.00  0.00    -0.270 OA
HETATM   26  N2  UNL     1       1.976   0.760  -4.369  1.00  0.00    -0.349 N 
HETATM   27  C18 UNL     1       1.659  -0.405  -5.142  1.00  0.00     0.126 C 
HETATM   28  C21 UNL     1       2.009   1.881  -5.351  1.00  0.00     0.126 C 
HETATM   29  C19 UNL     1       0.792   0.058  -6.325  1.00  0.00     0.021 C 
HETATM   30  C20 UNL     1       1.383   1.397  -6.602  1.00  0.00     0.021 C 
ENDBRANCH  17  24
BRANCH  18  31
HETATM   31  C22 UNL     1       3.722   0.866   0.034  1.00  0.00     0.230 C 
BRANCH  31  32
HETATM   32  C23 UNL     1       4.026  -0.202   1.030  1.00  0.00     0.237 C 
HETATM   33  O5  UNL     1       3.233  -1.159   1.195  1.00  0.00    -0.272 OA
HETATM   34  N4  UNL     1       5.211  -0.119   1.777  1.00  0.00    -0.351 N 
HETATM   35  C24 UNL     1       5.403  -1.233   2.710  1.00  0.00     0.126 C 
HETATM   36  C29 UNL     1       6.128   0.979   1.616  1.00  0.00     0.126 C 
HETATM   37  C25 UNL     1       6.298  -0.834   3.855  1.00  0.00     0.020 C 
HETATM   38  C26 UNL     1       5.743   0.399   4.555  1.00  0.00     0.002 C 
HETATM   39  C27 UNL     1       6.444   1.608   4.009  1.00  0.00     0.002 C 
HETATM   40  C28 UNL     1       5.828   2.025   2.694  1.00  0.00     0.020 C 
ENDBRANCH  31  32
ENDBRANCH  18  31
ENDBRANCH  13  14
ENDBRANCH  12  13
BRANCH  12  41
HETATM   41  N5  UNL     1      -2.532  -1.227  -0.165  1.00  0.00    -0.346 N 
HETATM   42  C31 UNL     1      -2.553  -2.562   0.378  1.00  0.00     0.240 C 
HETATM   43  O7  UNL     1      -2.270  -2.714   1.582  1.00  0.00    -0.271 OA
ATOM     44  H5  UNL     1      -2.765  -1.089  -1.148  1.00  0.00     0.163 HD
BRANCH  42  45
HETATM   45  C32 UNL     1      -2.900  -3.728  -0.462  1.00  0.00     0.165 C 
HETATM   46  C33 UNL     1      -4.177  -3.562  -1.235  1.00  0.00     0.042 C 
BRANCH  45  47
HETATM   47  N6  UNL     1      -2.862  -4.957   0.255  1.00  0.00    -0.414 N 
HETATM   48  C34 UNL     1      -3.765  -5.095   1.345  1.00  0.00     0.140 C 
ATOM     49  H6  UNL     1      -2.217  -5.704  -0.001  1.00  0.00     0.153 HD
ENDBRANCH  45  47
ENDBRANCH  42  45
ENDBRANCH  12  41
ENDBRANCH   8  12
ENDBRANCH   6   7
ENDBRANCH   5   6
ENDBRANCH   3   4
TORSDOF 14
