REMARK  16 active torsions:
REMARK  status: ('A' for Active; 'I' for Inactive)
REMARK    1  A    between atoms: C2_2  and  C17_44 
REMARK    2  A    between atoms: N1_3  and  C3_5 
REMARK    3  A    between atoms: C3_5  and  O1_6 
REMARK    4  A    between atoms: C3_5  and  C4_8 
REMARK    5  A    between atoms: C4_8  and  O2_9 
REMARK    6  A    between atoms: C4_8  and  C5_11 
REMARK    7  A    between atoms: C5_11  and  O3_12 
REMARK    8  A    between atoms: C5_11  and  C6_14 
REMARK    9  A    between atoms: N2_17  and  C8_19 
REMARK   10  A    between atoms: C8_19  and  C9_20 
REMARK   11  A    between atoms: C9_20  and  O5_21 
REMARK   12  A    between atoms: C11_25  and  O6_26 
REMARK   13  A    between atoms: C12_28  and  C13_29 
REMARK   14  A    between atoms: C16_38  and  N7_39 
REMARK   15  A    between atoms: C17_44  and  O8_45 
REMARK   16  A    between atoms: C17_44  and  O9_47 
ROOT
HETATM    1  C6  UNL     1      -1.138   0.312   0.077  1.00  0.00     0.127 A 
HETATM    2  O4  UNL     1      -0.744   1.485  -0.491  1.00  0.00    -0.288 OA
HETATM    3  C7  UNL     1      -1.322   2.027  -1.512  1.00  0.00     0.175 A 
HETATM    4  N2  UNL     1      -0.907   3.146  -2.014  1.00  0.00    -0.346 N 
ATOM      5  H2  UNL     1      -1.430   3.486  -2.821  1.00  0.00     0.167 HD
HETATM    6  C10 UNL     1      -2.410   1.422  -2.098  1.00  0.00     0.131 A 
HETATM    7  N3  UNL     1      -3.041   2.030  -3.208  1.00  0.00    -0.095 NA
HETATM    8  C11 UNL     1      -2.836   0.239  -1.559  1.00  0.00     0.111 A 
HETATM    9  C12 UNL     1      -2.202  -0.367  -0.436  1.00  0.00     0.089 A 
ENDROOT
BRANCH   1  10
HETATM   10  C5  UNL     1      -0.395  -0.133   1.239  1.00  0.00     0.111 C 
BRANCH  10  11
HETATM   11  C4  UNL     1       1.066   0.018   1.358  1.00  0.00     0.225 C 
BRANCH  11  12
HETATM   12  C3  UNL     1       1.803   0.912   0.407  1.00  0.00     0.253 C 
BRANCH  12  13
HETATM   13  N1  UNL     1       3.166   0.924   0.845  1.00  0.00    -0.364 N 
HETATM   14  C2  UNL     1       4.191   0.444   0.362  1.00  0.00     0.035 C 
HETATM   15  C1  UNL     1       4.279  -0.326  -0.898  1.00  0.00     0.068 C 
ATOM     16  H1  UNL     1       3.315   1.424   1.721  1.00  0.00     0.162 HD
BRANCH  14  17
HETATM   17  C17 UNL     1       5.481   0.666   1.120  1.00  0.00     0.300 C 
BRANCH  17  18
HETATM   18  O8  UNL     1       6.126  -0.529   1.383  1.00  0.00    -0.366 OA
ATOM     19  H8  UNL     1       6.936  -0.390   1.859  1.00  0.00     0.213 HD
ENDBRANCH  17  18
BRANCH  17  20
HETATM   20  O9  UNL     1       6.231   1.538   0.328  1.00  0.00    -0.366 OA
ATOM     21  H9  UNL     1       7.041   1.677   0.804  1.00  0.00     0.213 HD
ENDBRANCH  17  20
ENDBRANCH  14  17
ENDBRANCH  12  13
BRANCH  12  22
HETATM   22  O1  UNL     1       1.829   0.405  -0.888  1.00  0.00    -0.374 OA
ATOM     23  H1  UNL     1       0.925   0.397  -1.179  1.00  0.00     0.212 HD
ENDBRANCH  12  22
ENDBRANCH  11  12
BRANCH  11  24
HETATM   24  O2  UNL     1       1.724  -1.242   1.223  1.00  0.00    -0.384 OA
ATOM     25  H2  UNL     1       1.257  -1.809   1.826  1.00  0.00     0.210 HD
ENDBRANCH  11  24
ENDBRANCH  10  11
BRANCH  10  26
HETATM   26  O3  UNL     1      -0.917  -1.015   2.127  1.00  0.00    -0.359 OA
ATOM     27  H3  UNL     1      -1.859  -1.112   2.050  1.00  0.00     0.217 HD
ENDBRANCH  10  26
ENDBRANCH   1  10
BRANCH   9  28
HETATM   28  C13 UNL     1      -2.659  -1.693  -0.043  1.00  0.00     0.184 A 
HETATM   29  N4  UNL     1      -3.732  -2.136  -0.656  1.00  0.00    -0.361 N 
HETATM   30  C14 UNL     1      -4.372  -3.391  -0.456  1.00  0.00     0.203 A 
ATOM     31  H4  UNL     1      -4.151  -1.515  -1.348  1.00  0.00     0.162 HD
HETATM   32  C15 UNL     1      -3.727  -4.231   0.557  1.00  0.00     0.161 A 
HETATM   33  N5  UNL     1      -4.033  -5.467   1.028  1.00  0.00    -0.271 N 
HETATM   34  N8  UNL     1      -2.635  -3.806   1.191  1.00  0.00    -0.026 N 
HETATM   35  N6  UNL     1      -3.122  -5.762   1.933  1.00  0.00    -0.129 N 
ATOM     36  H5  UNL     1      -4.816  -6.053   0.738  1.00  0.00     0.189 HD
HETATM   37  C16 UNL     1      -2.248  -4.763   2.058  1.00  0.00     0.719 A 
ATOM     38  H6  UNL     1      -3.090  -6.633   2.464  1.00  0.00     0.205 HD
HETATM   39  O7  UNL     1      -2.156  -2.565   0.862  1.00  0.00    -0.196 OA
BRANCH  37  40
HETATM   40  N7  UNL     1      -1.232  -4.685   2.835  1.00  0.00    -0.231 N 
ATOM     41  H72 UNL     1      -0.939  -5.409   3.491  1.00  0.00     0.174 HD
ATOM     42  H71 UNL     1      -0.563  -3.921   2.931  1.00  0.00     0.174 HD
ENDBRANCH  37  40
ENDBRANCH   9  28
BRANCH   8  43
HETATM   43  O6  UNL     1      -3.926  -0.440  -2.084  1.00  0.00    -0.358 OA
ATOM     44  H6  UNL     1      -4.222  -1.262  -1.710  1.00  0.00     0.217 HD
ENDBRANCH   8  43
BRANCH   4  45
HETATM   45  C8  UNL     1       0.163   3.957  -1.603  1.00  0.00     0.089 C 
BRANCH  45  46
HETATM   46  C9  UNL     1      -0.198   4.993  -0.545  1.00  0.00     0.208 C 
BRANCH  46  47
HETATM   47  O5  UNL     1       0.982   5.690  -0.274  1.00  0.00    -0.396 OA
ATOM     48  H5  UNL     1       0.757   6.336   0.385  1.00  0.00     0.209 HD
ENDBRANCH  46  47
ENDBRANCH  45  46
ENDBRANCH   4  45
TORSDOF 16
