REMARK  15 active torsions:
REMARK  status: ('A' for Active; 'I' for Inactive)
REMARK       I    between atoms: C2_2  and  N1_4 
REMARK    1  A    between atoms: N1_4  and  C3_6 
REMARK    2  A    between atoms: C3_6  and  C4_7 
REMARK    3  A    between atoms: C4_7  and  O2_8 
REMARK    4  A    between atoms: C4_7  and  C5_10 
REMARK    5  A    between atoms: C5_10  and  O3_11 
REMARK    6  A    between atoms: C5_10  and  C6_13 
REMARK    7  A    between atoms: C9_17  and  N2_18 
REMARK    8  A    between atoms: N2_18  and  O5_19 
REMARK    9  A    between atoms: N2_18  and  O6_21 
REMARK   10  A    between atoms: C10_23  and  O7_24 
REMARK   11  A    between atoms: C11_26  and  O8_27 
REMARK   12  A    between atoms: C13_30  and  N3_31 
REMARK   13  A    between atoms: N3_31  and  N4_33 
REMARK       I    between atoms: N4_33  and  C14_34 
REMARK   14  A    between atoms: N4_33  and  N5_37 
REMARK   15  A    between atoms: C16_44  and  N9_45 
ROOT
HETATM    1  C6  UNL     1       0.596   0.180   0.609  1.00  0.00     0.137 A 
HETATM    2  O4  UNL     1       0.949   1.341   0.126  1.00  0.00    -0.305 OA
HETATM    3  C7  UNL     1      -0.037   2.153  -0.066  1.00  0.00     0.093 A 
HETATM    4  C8  UNL     1      -0.129   3.457  -0.546  1.00  0.00     0.069 A 
HETATM    5  C9  UNL     1      -1.313   4.140  -0.663  1.00  0.00     0.104 A 
HETATM    6  C10 UNL     1      -2.466   3.491  -0.281  1.00  0.00     0.126 A 
HETATM    7  C11 UNL     1      -2.387   2.186   0.199  1.00  0.00     0.116 A 
HETATM    8  C12 UNL     1      -1.196   1.497   0.316  1.00  0.00     0.065 A 
HETATM    9  C13 UNL     1      -0.798   0.247   0.742  1.00  0.00     0.102 A 
ENDROOT
BRANCH   9  10
HETATM   10  N3  UNL     1      -1.666  -0.782   1.193  1.00  0.00    -0.271 N 
ATOM     11  H3  UNL     1      -1.998  -0.766   2.157  1.00  0.00     0.189 HD
BRANCH  10  12
HETATM   12  N4  UNL     1      -2.075  -1.811   0.353  1.00  0.00    -0.123 N 
HETATM   13  C14 UNL     1      -1.893  -1.823  -1.052  1.00  0.00     0.256 C 
HETATM   14  C15 UNL     1      -2.300  -2.990  -1.843  1.00  0.00     0.121 C 
HETATM   15  O9  UNL     1      -1.387  -0.854  -1.671  1.00  0.00    -0.270 OA
BRANCH  12  16
HETATM   16  N5  UNL     1      -2.676  -2.945   0.927  1.00  0.00     0.021 N 
HETATM   17  N6  UNL     1      -2.043  -4.096   1.225  1.00  0.00    -0.189 N 
HETATM   18  N7  UNL     1      -2.899  -4.951   1.732  1.00  0.00    -0.212 N 
ATOM     19  H6  UNL     1      -1.050  -4.275   1.079  1.00  0.00     0.212 HD
HETATM   20  N8  UNL     1      -4.084  -4.389   1.774  1.00  0.00    -0.114 N 
ATOM     21  H7  UNL     1      -2.679  -5.897   2.043  1.00  0.00     0.210 HD
HETATM   22  C16 UNL     1      -3.946  -3.139   1.273  1.00  0.00     0.731 A 
ATOM     23  H8  UNL     1      -4.945  -4.813   2.119  1.00  0.00     0.207 HD
BRANCH  22  24
HETATM   24  N9  UNL     1      -4.911  -2.292   1.151  1.00  0.00    -0.230 N 
ATOM     25  H92 UNL     1      -4.807  -1.350   0.774  1.00  0.00     0.174 HD
ATOM     26  H91 UNL     1      -5.885  -2.441   1.416  1.00  0.00     0.174 HD
ENDBRANCH  22  24
ENDBRANCH  12  16
ENDBRANCH  10  12
ENDBRANCH   9  10
BRANCH   1  27
HETATM   27  C5  UNL     1       1.456  -0.968   0.962  1.00  0.00     0.109 C 
BRANCH  27  28
HETATM   28  C4  UNL     1       2.768  -1.080   0.300  1.00  0.00     0.195 C 
BRANCH  28  29
HETATM   29  C3  UNL     1       3.377   0.245  -0.125  1.00  0.00     0.161 C 
BRANCH  29  30
HETATM   30  N1  UNL     1       4.687   0.001  -0.657  1.00  0.00    -0.359 N 
HETATM   31  C2  UNL     1       5.722  -0.564   0.108  1.00  0.00     0.213 C 
HETATM   32  C1  UNL     1       7.049  -0.770  -0.590  1.00  0.00     0.117 C 
HETATM   33  O1  UNL     1       5.639  -0.911   1.309  1.00  0.00    -0.274 OA
ATOM     34  H1  UNL     1       4.875   0.247  -1.629  1.00  0.00     0.162 HD
ENDBRANCH  29  30
ENDBRANCH  28  29
BRANCH  28  35
HETATM   35  O2  UNL     1       2.696  -1.817  -0.916  1.00  0.00    -0.387 OA
ATOM     36  H2  UNL     1       2.315  -2.646  -0.650  1.00  0.00     0.210 HD
ENDBRANCH  28  35
ENDBRANCH  27  28
BRANCH  27  37
HETATM   37  O3  UNL     1       0.834  -2.154   1.195  1.00  0.00    -0.359 OA
ATOM     38  H3  UNL     1      -0.012  -2.082   1.622  1.00  0.00     0.217 HD
ENDBRANCH  27  37
ENDBRANCH   1  27
BRANCH   7  39
HETATM   39  O8  UNL     1      -3.571   1.597   0.560  1.00  0.00    -0.357 OA
ATOM     40  H8  UNL     1      -3.517   0.707   0.887  1.00  0.00     0.217 HD
ENDBRANCH   7  39
BRANCH   6  41
HETATM   41  O7  UNL     1      -3.663   4.182  -0.398  1.00  0.00    -0.356 OA
ATOM     42  H7  UNL     1      -4.458   3.734  -0.134  1.00  0.00     0.218 HD
ENDBRANCH   6  41
BRANCH   5  43
HETATM   43  N2  UNL     1      -1.355   5.493  -1.146  1.00  0.00    -0.033 NA
BRANCH  43  44
HETATM   44  O5  UNL     1      -1.534   5.511  -2.468  1.00  0.00    -0.284 OA
ATOM     45  H5  UNL     1      -1.562   6.405  -2.787  1.00  0.00     0.240 HD
ENDBRANCH  43  44
BRANCH  43  46
HETATM   46  O6  UNL     1      -0.237   6.158  -0.742  1.00  0.00    -0.284 OA
ATOM     47  H6  UNL     1      -0.265   7.052  -1.061  1.00  0.00     0.240 HD
ENDBRANCH  43  46
ENDBRANCH   5  43
TORSDOF 15
