REMARK  12 active torsions:
REMARK  status: ('A' for Active; 'I' for Inactive)
REMARK    1  A    between atoms: N3_7  and  C4_8 
REMARK    2  A    between atoms: N5_12  and  C6_14 
REMARK    3  A    between atoms: C6_14  and  C7_15 
REMARK    4  A    between atoms: C6_14  and  C8_24 
REMARK    5  A    between atoms: C8_24  and  O1_25 
REMARK    6  A    between atoms: C8_24  and  O2_27 
REMARK    7  A    between atoms: C10_33  and  N11_34 
REMARK    8  A    between atoms: N12_36  and  N13_38 
REMARK       I    between atoms: N13_38  and  C11_40 
REMARK       I    between atoms: C11_40  and  N15_45 
REMARK    9  A    between atoms: N14_41  and  O4_43 
REMARK   10  A    between atoms: N15_45  and  N16_47 
REMARK   11  A    between atoms: C12_49  and  C13_50 
REMARK   12  A    between atoms: C13_50  and  O5_51 
ROOT
HETATM    1  C4  UNL     1      -1.008  -0.279   0.199  1.00  0.00     0.159 A 
HETATM    2  N4  UNL     1      -2.238   0.258   0.448  1.00  0.00    -0.174 N 
ATOM      3  H4  UNL     1      -3.021   0.007  -0.156  1.00  0.00     0.186 HD
HETATM    4  C5  UNL     1      -2.443   1.098   1.455  1.00  0.00     0.683 A 
HETATM    5  N5  UNL     1      -3.579   1.597   1.670  1.00  0.00    -0.209 N 
ATOM      6  H5  UNL     1      -3.591   2.224   2.475  1.00  0.00     0.178 HD
HETATM    7  N10 UNL     1      -1.368   1.410   2.243  1.00  0.00    -0.154 N 
ATOM      8  H10 UNL     1      -1.508   2.053   3.022  1.00  0.00     0.187 HD
HETATM    9  C9  UNL     1      -0.144   0.912   2.040  1.00  0.00     0.291 A 
HETATM   10  O3  UNL     1       0.832   1.214   2.780  1.00  0.00    -0.265 OA
HETATM   11  C10 UNL     1       0.070   0.034   0.987  1.00  0.00     0.163 A 
ENDROOT
BRANCH  11  12
HETATM   12  N11 UNL     1       1.377  -0.501   0.774  1.00  0.00    -0.277 N 
HETATM   13  N12 UNL     1       2.146  -0.799   1.740  1.00  0.00    -0.228 N 
ATOM     14  H12 UNL     1       1.863  -0.670   2.711  1.00  0.00     0.209 HD
ATOM     15  H11 UNL     1       1.702  -0.648  -0.181  1.00  0.00     0.189 HD
BRANCH  13  16
HETATM   16  N13 UNL     1       3.404  -1.315   1.400  1.00  0.00    -0.115 N 
HETATM   17  C11 UNL     1       4.541  -0.505   1.213  1.00  0.00     0.732 C 
HETATM   18  N14 UNL     1       5.138  -0.006   2.233  1.00  0.00    -0.096 N 
HETATM   19  N15 UNL     1       5.072  -0.195  -0.070  1.00  0.00    -0.130 N 
ATOM     20  H14 UNL     1       5.962   0.583   2.113  1.00  0.00     0.213 HD
ATOM     21  H15 UNL     1       4.588   0.521  -0.611  1.00  0.00     0.205 HD
ATOM     22  H13 UNL     1       3.501  -2.324   1.283  1.00  0.00     0.207 HD
BRANCH  18  23
HETATM   23  O4  UNL     1       4.653  -0.275   3.484  1.00  0.00    -0.276 OA
ATOM     24  H4  UNL     1       5.095   0.095   4.239  1.00  0.00     0.245 HD
ENDBRANCH  18  23
BRANCH  19  25
HETATM   25  N16 UNL     1       6.181  -0.774  -0.648  1.00  0.00    -0.299 N 
HETATM   26  C12 UNL     1       7.266  -0.163  -0.935  1.00  0.00     0.106 C 
ATOM     27  H16 UNL     1       6.132  -1.770  -0.864  1.00  0.00     0.186 HD
BRANCH  26  28
HETATM   28  C13 UNL     1       7.456   1.288  -0.667  1.00  0.00     0.210 C 
BRANCH  28  29
HETATM   29  O5  UNL     1       8.669   1.512  -0.050  1.00  0.00    -0.396 OA
ATOM     30  H5  UNL     1       8.790   2.439   0.121  1.00  0.00     0.209 HD
ENDBRANCH  28  29
ENDBRANCH  26  28
ENDBRANCH  19  25
ENDBRANCH  13  16
ENDBRANCH  11  12
BRANCH   1  31
HETATM   31  N3  UNL     1      -0.809  -1.172  -0.877  1.00  0.00    -0.303 N 
HETATM   32  C1  UNL     1      -0.973  -0.915  -2.262  1.00  0.00     0.192 C 
HETATM   33  N1  UNL     1      -1.697   0.153  -2.867  1.00  0.00    -0.063 NA
HETATM   34  N2  UNL     1      -0.368  -1.802  -2.935  1.00  0.00    -0.363 N 
HETATM   35  C2  UNL     1       0.292  -2.774  -2.120  1.00  0.00     0.142 C 
ATOM     36  H2  UNL     1      -0.353  -1.821  -3.955  1.00  0.00     0.162 HD
HETATM   37  C3  UNL     1      -0.381  -2.545  -0.761  1.00  0.00     0.153 C 
ENDBRANCH   1  31
BRANCH   5  38
HETATM   38  C6  UNL     1      -4.829   1.483   1.050  1.00  0.00     0.224 C 
BRANCH  38  39
HETATM   39  C7  UNL     1      -5.355   0.095   0.901  1.00  0.00     0.141 A 
HETATM   40  N6  UNL     1      -5.321  -0.884   1.816  1.00  0.00    -0.270 N 
HETATM   41  N7  UNL     1      -5.899  -1.945   1.279  1.00  0.00    -0.227 N 
ATOM     42  H6  UNL     1      -4.923  -0.822   2.753  1.00  0.00     0.190 HD
HETATM   43  N8  UNL     1      -6.295  -1.674   0.067  1.00  0.00    -0.227 N 
ATOM     44  H7  UNL     1      -6.018  -2.844   1.745  1.00  0.00     0.210 HD
HETATM   45  N9  UNL     1      -5.974  -0.437  -0.186  1.00  0.00    -0.270 N 
ATOM     46  H8  UNL     1      -6.770  -2.315  -0.569  1.00  0.00     0.210 HD
ATOM     47  H9  UNL     1      -6.158   0.054  -1.061  1.00  0.00     0.190 HD
ENDBRANCH  38  39
BRANCH  38  48
HETATM   48  C8  UNL     1      -4.919   2.156  -0.306  1.00  0.00     0.284 C 
BRANCH  48  49
HETATM   49  O1  UNL     1      -6.203   1.981  -0.820  1.00  0.00    -0.369 OA
ATOM     50  H1  UNL     1      -6.259   2.403  -1.669  1.00  0.00     0.212 HD
ENDBRANCH  48  49
BRANCH  48  51
HETATM   51  O2  UNL     1      -4.702   3.519  -0.084  1.00  0.00    -0.369 OA
ATOM     52  H2  UNL     1      -4.758   3.941  -0.933  1.00  0.00     0.212 HD
ENDBRANCH  48  51
ENDBRANCH  38  48
ENDBRANCH   5  38
TORSDOF 12
