REMARK  12 active torsions:
REMARK  status: ('A' for Active; 'I' for Inactive)
REMARK    1  A    between atoms: C2_2  and  C3_3 
REMARK    2  A    between atoms: C3_3  and  C5_5 
REMARK    3  A    between atoms: C6_8  and  O1_9 
REMARK    4  A    between atoms: C7_11  and  C8_12 
REMARK    5  A    between atoms: C8_12  and  C9_13 
REMARK    6  A    between atoms: C12_16  and  C13_17 
REMARK    7  A    between atoms: C16_20  and  O2_21 
REMARK    8  A    between atoms: C17_23  and  C18_24 
REMARK    9  A    between atoms: C18_24  and  C19_25 
REMARK   10  A    between atoms: C26_38  and  C27_39 
REMARK   11  A    between atoms: C27_39  and  C28_40 
REMARK   12  A    between atoms: C31_45  and  O5_46 
ROOT
HETATM    1  C5  UNL     1       1.245   1.652  -0.390  1.00  0.00     0.161 C 
HETATM    2  N1  UNL     1       0.598   2.720   0.353  1.00  0.00    -0.358 N 
ATOM      3  H1  UNL     1       1.027   3.638   0.235  1.00  0.00     0.162 HD
HETATM    4  C6  UNL     1      -0.518   2.703   1.207  1.00  0.00     0.139 C 
HETATM    5  C7  UNL     1      -1.840   2.082   1.007  1.00  0.00    -0.022 C 
HETATM    6  C12 UNL     1      -1.882   0.631   1.257  1.00  0.00     0.053 C 
HETATM    7  C16 UNL     1      -2.365  -0.258   0.177  1.00  0.00     0.149 C 
HETATM    8  C17 UNL     1      -1.557  -1.516  -0.062  1.00  0.00     0.114 C 
HETATM    9  N2  UNL     1      -1.392  -2.354   1.094  1.00  0.00    -0.352 N 
ATOM     10  H2  UNL     1      -2.254  -2.782   1.431  1.00  0.00     0.163 HD
HETATM   11  C22 UNL     1      -0.263  -2.681   1.830  1.00  0.00     0.240 C 
HETATM   12  O3  UNL     1      -0.281  -2.396   3.089  1.00  0.00    -0.271 OA
HETATM   13  C23 UNL     1       0.987  -3.323   1.380  1.00  0.00     0.172 C 
HETATM   14  C24 UNL     1       0.795  -4.861   1.346  1.00  0.00     0.042 C 
HETATM   15  N3  UNL     1       1.421  -2.956   0.058  1.00  0.00    -0.346 N 
ATOM     16  H3  UNL     1       0.749  -3.125  -0.691  1.00  0.00     0.163 HD
HETATM   17  C25 UNL     1       2.644  -2.397  -0.337  1.00  0.00     0.241 C 
HETATM   18  O4  UNL     1       3.150  -2.940  -1.392  1.00  0.00    -0.271 OA
HETATM   19  C26 UNL     1       3.389  -1.299   0.293  1.00  0.00     0.175 C 
HETATM   20  N4  UNL     1       2.574  -0.260   0.874  1.00  0.00    -0.359 N 
ATOM     21  H4  UNL     1       2.133  -0.562   1.743  1.00  0.00     0.162 HD
HETATM   22  C31 UNL     1       2.241   1.036   0.552  1.00  0.00     0.135 C 
ENDROOT
BRANCH   1  23
HETATM   23  C3  UNL     1       2.043   2.168  -1.581  1.00  0.00     0.012 C 
HETATM   24  C4  UNL     1       2.604   0.917  -2.325  1.00  0.00     0.012 C 
BRANCH  23  25
HETATM   25  C2  UNL     1       1.295   2.913  -2.616  1.00  0.00     0.002 C 
HETATM   26  C1  UNL     1       0.652   4.208  -2.263  1.00  0.00     0.005 C 
ENDBRANCH  23  25
ENDBRANCH   1  23
BRANCH  22  27
HETATM   27  O5  UNL     1       2.896   1.986   1.172  1.00  0.00    -0.348 OA
ATOM     28  H5  UNL     1       3.526   1.597   1.767  1.00  0.00     0.219 HD
ENDBRANCH  22  27
BRANCH   4  29
HETATM   29  O1  UNL     1      -0.394   3.319   2.352  1.00  0.00    -0.346 OA
ATOM     30  H1  UNL     1      -1.148   3.308   2.929  1.00  0.00     0.219 HD
ENDBRANCH   4  29
BRANCH   5  31
HETATM   31  C8  UNL     1      -2.681   2.659  -0.078  1.00  0.00     0.043 C 
BRANCH  31  32
HETATM   32  C9  UNL     1      -3.124   4.066   0.071  1.00  0.00    -0.019 C 
HETATM   33  C10 UNL     1      -3.954   4.492  -1.152  1.00  0.00     0.010 C 
HETATM   34  C11 UNL     1      -2.203   5.132   0.436  1.00  0.00     0.010 C 
ENDBRANCH  31  32
ENDBRANCH   5  31
BRANCH  19  35
HETATM   35  C27 UNL     1       4.341  -1.722   1.387  1.00  0.00     0.038 C 
BRANCH  35  36
HETATM   36  C28 UNL     1       5.427  -2.651   1.057  1.00  0.00    -0.020 C 
HETATM   37  C29 UNL     1       6.386  -2.146   0.000  1.00  0.00     0.009 C 
HETATM   38  C30 UNL     1       5.035  -4.089   0.824  1.00  0.00     0.009 C 
ENDBRANCH  35  36
ENDBRANCH  19  35
BRANCH   6  39
HETATM   39  C13 UNL     1      -2.639   0.294   2.544  1.00  0.00    -0.012 C 
HETATM   40  C14 UNL     1      -4.050   0.750   2.563  1.00  0.00     0.010 C 
HETATM   41  C15 UNL     1      -1.920   0.866   3.751  1.00  0.00     0.010 C 
ENDBRANCH   6  39
BRANCH   7  42
HETATM   42  O2  UNL     1      -3.667  -0.662   0.457  1.00  0.00    -0.393 OA
ATOM     43  H2  UNL     1      -3.977  -1.233  -0.236  1.00  0.00     0.210 HD
ENDBRANCH   7  42
BRANCH   8  44
HETATM   44  C18 UNL     1      -2.304  -2.318  -1.107  1.00  0.00     0.031 C 
BRANCH  44  45
HETATM   45  C19 UNL     1      -2.497  -1.652  -2.419  1.00  0.00    -0.021 C 
HETATM   46  C20 UNL     1      -3.260  -2.667  -3.298  1.00  0.00     0.009 C 
HETATM   47  C21 UNL     1      -1.199  -1.350  -3.133  1.00  0.00     0.009 C 
ENDBRANCH  44  45
ENDBRANCH   8  44
TORSDOF 12
