REMARK  11 active torsions:
REMARK  status: ('A' for Active; 'I' for Inactive)
REMARK       I    between atoms: C1_2  and  N2_4 
REMARK    1  A    between atoms: N2_4  and  C2_5 
REMARK    2  A    between atoms: C2_5  and  C3_6 
REMARK    3  A    between atoms: C2_5  and  C9_15 
REMARK    4  A    between atoms: C6_9  and  N3_10 
REMARK    5  A    between atoms: C14_20  and  C15_21 
REMARK    6  A    between atoms: C18_28  and  C19_29 
REMARK    7  A    between atoms: C22_32  and  C23_33 
REMARK    8  A    between atoms: C23_33  and  C24_34 
REMARK    9  A    between atoms: C24_34  and  C25_35 
REMARK   10  A    between atoms: C25_35  and  O4_36 
REMARK   11  A    between atoms: C25_35  and  C26_38 
ROOT
HETATM    1  C15 UNL     1      -2.671  -0.978  -1.431  1.00  0.00     0.047 C 
HETATM    2  C16 UNL     1      -1.418  -0.797  -1.092  1.00  0.00     0.101 A 
HETATM    3  N4  UNL     1      -0.574  -0.032  -1.834  1.00  0.00    -0.296 N 
ATOM      4  H4  UNL     1      -0.830   0.466  -2.687  1.00  0.00     0.187 HD
HETATM    5  N5  UNL     1       0.618  -0.030  -1.290  1.00  0.00    -0.296 N 
ATOM      6  H5  UNL     1       1.421   0.475  -1.666  1.00  0.00     0.187 HD
HETATM    7  C17 UNL     1       0.649  -0.771  -0.182  1.00  0.00     0.101 A 
HETATM    8  C18 UNL     1       1.641  -1.078   0.619  1.00  0.00     0.046 C 
HETATM    9  C32 UNL     1      -0.660  -1.263  -0.053  1.00  0.00     0.227 A 
HETATM   10  O5  UNL     1      -1.078  -2.008   0.862  1.00  0.00    -0.283 OA
ENDROOT
BRANCH   1  11
HETATM   11  C14 UNL     1      -3.645  -1.789  -0.694  1.00  0.00    -0.024 A 
HETATM   12  C9  UNL     1      -4.748  -1.212  -0.116  1.00  0.00    -0.008 A 
HETATM   13  C10 UNL     1      -5.647  -2.026   0.538  1.00  0.00     0.011 A 
HETATM   14  C11 UNL     1      -5.482  -3.390   0.634  1.00  0.00     0.001 A 
HETATM   15  C12 UNL     1      -4.367  -3.924   0.043  1.00  0.00     0.001 A 
HETATM   16  C13 UNL     1      -3.448  -3.145  -0.618  1.00  0.00     0.012 A 
BRANCH  12  17
HETATM   17  C2  UNL     1      -4.970   0.263  -0.177  1.00  0.00     0.235 C 
BRANCH  17  18
HETATM   18  N2  UNL     1      -5.400   0.742  -1.458  1.00  0.00    -0.384 NA
HETATM   19  C1  UNL     1      -5.791   1.181  -2.625  1.00  0.00     0.401 C 
HETATM   20  N1  UNL     1      -6.684   0.373  -3.505  1.00  0.00    -0.025 NA
HETATM   21  O1  UNL     1      -5.534   2.278  -3.224  1.00  0.00    -0.234 OA
ENDBRANCH  17  18
BRANCH  17  22
HETATM   22  C3  UNL     1      -5.836   0.764   0.951  1.00  0.00    -0.018 A 
HETATM   23  C4  UNL     1      -7.209   0.851   0.822  1.00  0.00     0.013 A 
HETATM   24  C5  UNL     1      -8.012   1.310   1.833  1.00  0.00     0.037 A 
HETATM   25  C6  UNL     1      -7.433   1.705   3.033  1.00  0.00     0.102 A 
HETATM   26  C7  UNL     1      -6.070   1.629   3.189  1.00  0.00     0.037 A 
HETATM   27  C8  UNL     1      -5.300   1.163   2.155  1.00  0.00     0.013 A 
BRANCH  25  28
HETATM   28  N3  UNL     1      -8.286   2.183   4.066  1.00  0.00    -0.116 N 
HETATM   29  O2  UNL     1      -9.509   2.215   3.872  1.00  0.00    -0.532 OA
HETATM   30  O3  UNL     1      -7.798   2.614   5.278  1.00  0.00    -0.532 OA
ENDBRANCH  25  28
ENDBRANCH  17  22
ENDBRANCH  12  17
ENDBRANCH   1  11
BRANCH   8  31
HETATM   31  C19 UNL     1       3.019  -0.660   0.469  1.00  0.00    -0.034 A 
HETATM   32  C20 UNL     1       3.677  -0.887  -0.747  1.00  0.00     0.012 A 
HETATM   33  C21 UNL     1       4.998  -0.546  -0.916  1.00  0.00     0.012 A 
HETATM   34  C22 UNL     1       5.726   0.035   0.106  1.00  0.00    -0.036 A 
HETATM   35  C30 UNL     1       5.096   0.262   1.293  1.00  0.00     0.012 A 
HETATM   36  C31 UNL     1       3.746  -0.085   1.472  1.00  0.00     0.012 A 
BRANCH  34  37
HETATM   37  C23 UNL     1       7.158   0.337  -0.146  1.00  0.00     0.014 C 
BRANCH  37  38
HETATM   38  C24 UNL     1       7.957   0.872   0.712  1.00  0.00     0.040 C 
BRANCH  38  39
HETATM   39  C25 UNL     1       9.330   1.216   0.622  1.00  0.00     0.092 C 
BRANCH  39  40
HETATM   40  O4  UNL     1       9.867   1.768   1.707  1.00  0.00    -0.358 OA
ATOM     41  H4  UNL     1      10.787   1.998   1.647  1.00  0.00     0.217 HD
ENDBRANCH  39  40
BRANCH  39  42
HETATM   42  C26 UNL     1      10.257   1.064  -0.460  1.00  0.00     0.065 A 
HETATM   43  C27 UNL     1      11.627   1.442  -0.346  1.00  0.00     0.034 A 
HETATM   44  C28 UNL     1      12.220   1.154  -1.530  1.00  0.00     0.019 A 
HETATM   45  C29 UNL     1      11.281   0.625  -2.352  1.00  0.00     0.088 A 
HETATM   46  N6  UNL     1      10.097   0.578  -1.685  1.00  0.00    -0.364 N 
ATOM     47  H6  UNL     1       9.220   0.224  -2.067  1.00  0.00     0.165 HD
ENDBRANCH  39  42
ENDBRANCH  38  39
ENDBRANCH  37  38
ENDBRANCH  34  37
ENDBRANCH   8  31
TORSDOF 11
