REMARK  11 active torsions:
REMARK  status: ('A' for Active; 'I' for Inactive)
REMARK    1  A    between atoms: C7_7  and  C8_8 
REMARK    2  A    between atoms: C8_8  and  N1_9 
REMARK    3  A    between atoms: N1_9  and  C9_11 
REMARK    4  A    between atoms: N3_15  and  C11_17 
REMARK    5  A    between atoms: C11_17  and  C12_18 
REMARK    6  A    between atoms: C12_18  and  C13_19 
REMARK    7  A    between atoms: C17_23  and  C18_24 
REMARK    8  A    between atoms: C21_27  and  S1_28 
REMARK    9  A    between atoms: S1_28  and  N4_29 
REMARK   10  A    between atoms: N6_40  and  C26_42 
REMARK   11  A    between atoms: C26_42  and  C27_43 
ROOT
HETATM    1  C9  UNL     1      -3.613   1.200  -1.103  1.00  0.00     0.707 A 
HETATM    2  N2  UNL     1      -2.383   1.181  -0.961  1.00  0.00    -0.022 N 
ATOM      3  H2  UNL     1      -1.947   2.101  -0.897  1.00  0.00     0.203 HD
HETATM    4  C10 UNL     1      -1.510   0.125  -0.876  1.00  0.00     0.707 A 
HETATM    5  N3  UNL     1      -0.304   0.243  -0.826  1.00  0.00    -0.225 N 
ATOM      6  H3  UNL     1       0.037   1.204  -0.848  1.00  0.00     0.177 HD
HETATM    7  N5  UNL     1      -2.253  -1.067  -0.985  1.00  0.00    -0.022 N 
ATOM      8  H5  UNL     1      -1.740  -1.947  -0.936  1.00  0.00     0.203 HD
HETATM    9  C25 UNL     1      -3.522  -1.131  -1.141  1.00  0.00     0.707 A 
HETATM   10  N6  UNL     1      -4.283  -2.212  -0.935  1.00  0.00    -0.221 N 
ATOM     11  H6  UNL     1      -5.290  -2.199  -1.094  1.00  0.00     0.178 HD
HETATM   12  N7  UNL     1      -4.314  -0.006  -1.224  1.00  0.00    -0.022 N 
ATOM     13  H7  UNL     1      -5.324  -0.048  -1.362  1.00  0.00     0.203 HD
ENDROOT
BRANCH   5  14
HETATM   14  C11 UNL     1       0.735  -0.781  -0.739  1.00  0.00     0.142 C 
BRANCH  14  15
HETATM   15  C12 UNL     1       1.690  -0.376   0.326  1.00  0.00     0.058 C 
BRANCH  15  16
HETATM   16  C13 UNL     1       2.813  -1.379   0.463  1.00  0.00    -0.056 A 
HETATM   17  C14 UNL     1       2.631  -2.586   1.125  1.00  0.00     0.007 A 
HETATM   18  C15 UNL     1       3.676  -3.416   1.417  1.00  0.00     0.001 A 
HETATM   19  C16 UNL     1       4.977  -3.057   1.047  1.00  0.00     0.012 A 
HETATM   20  C17 UNL     1       5.167  -1.874   0.399  1.00  0.00    -0.025 A 
HETATM   21  C24 UNL     1       4.080  -1.034   0.101  1.00  0.00     0.019 A 
BRANCH  20  22
HETATM   22  C18 UNL     1       6.503  -1.263   0.252  1.00  0.00    -0.026 A 
HETATM   23  C19 UNL     1       7.412  -1.328   1.278  1.00  0.00     0.014 A 
HETATM   24  C20 UNL     1       8.552  -0.516   1.253  1.00  0.00     0.026 A 
HETATM   25  C21 UNL     1       8.724   0.321   0.197  1.00  0.00     0.079 A 
HETATM   26  C22 UNL     1       7.831   0.386  -0.843  1.00  0.00     0.026 A 
HETATM   27  C23 UNL     1       6.689  -0.437  -0.805  1.00  0.00     0.014 A 
BRANCH  25  28
HETATM   28  S1  UNL     1      10.000   1.551   0.261  1.00  0.00     0.256 S 
HETATM   29  O1  UNL     1       9.261   2.837   0.713  1.00  0.00    -0.201 OA
HETATM   30  O2  UNL     1      10.965   1.250   1.338  1.00  0.00    -0.201 OA
BRANCH  28  31
HETATM   31  N4  UNL     1      10.665   1.748  -1.278  1.00  0.00    -0.324 N 
ATOM     32  H42 UNL     1      10.368   1.232  -2.106  1.00  0.00     0.169 HD
ATOM     33  H41 UNL     1      11.399   2.455  -1.241  1.00  0.00     0.169 HD
ENDBRANCH  28  31
ENDBRANCH  25  28
ENDBRANCH  20  22
ENDBRANCH  15  16
ENDBRANCH  14  15
ENDBRANCH   5  14
BRANCH   1  34
HETATM   34  N1  UNL     1      -4.461   2.209  -0.864  1.00  0.00    -0.221 N 
ATOM     35  H1  UNL     1      -5.467   2.154  -1.025  1.00  0.00     0.178 HD
BRANCH  34  36
HETATM   36  C8  UNL     1      -3.779   3.408  -0.343  1.00  0.00     0.177 C 
BRANCH  36  37
HETATM   37  C7  UNL     1      -4.487   4.667  -0.314  1.00  0.00    -0.034 A 
HETATM   38  C2  UNL     1      -4.519   5.348   0.935  1.00  0.00    -0.054 A 
HETATM   39  C1  UNL     1      -4.186   4.452   2.080  1.00  0.00     0.049 C 
HETATM   40  C3  UNL     1      -4.917   6.643   1.065  1.00  0.00     0.007 A 
HETATM   41  C4  UNL     1      -5.314   7.338  -0.082  1.00  0.00     0.001 A 
HETATM   42  C5  UNL     1      -5.295   6.703  -1.300  1.00  0.00     0.001 A 
HETATM   43  C6  UNL     1      -4.882   5.367  -1.417  1.00  0.00     0.009 A 
ENDBRANCH  36  37
ENDBRANCH  34  36
ENDBRANCH   1  34
BRANCH  10  44
HETATM   44  C26 UNL     1      -3.578  -3.435  -0.461  1.00  0.00     0.176 C 
BRANCH  44  45
HETATM   45  C27 UNL     1      -4.605  -4.340   0.048  1.00  0.00    -0.040 A 
HETATM   46  C28 UNL     1      -5.936  -4.008   0.141  1.00  0.00     0.009 A 
HETATM   47  C29 UNL     1      -6.851  -4.899   0.628  1.00  0.00     0.001 A 
HETATM   48  C30 UNL     1      -6.509  -6.164   1.055  1.00  0.00     0.000 A 
HETATM   49  C31 UNL     1      -5.172  -6.501   0.969  1.00  0.00     0.001 A 
HETATM   50  C32 UNL     1      -4.256  -5.609   0.478  1.00  0.00     0.009 A 
ENDBRANCH  44  45
ENDBRANCH  10  44
TORSDOF 11
