REMARK  10 active torsions:
REMARK  status: ('A' for Active; 'I' for Inactive)
REMARK    1  A    between atoms: C2_2  and  C3_3 
REMARK    2  A    between atoms: C3_3  and  N1_4 
REMARK    3  A    between atoms: N1_4  and  C4_6 
REMARK    4  A    between atoms: N3_10  and  C6_12 
REMARK    5  A    between atoms: C6_12  and  C7_13 
REMARK    6  A    between atoms: C6_12  and  C16_22 
REMARK    7  A    between atoms: C7_13  and  C8_14 
REMARK       I    between atoms: C16_22  and  N4_24 
REMARK    8  A    between atoms: N4_24  and  C17_26 
REMARK    9  A    between atoms: C17_26  and  C18_27 
REMARK   10  A    between atoms: N8_42  and  C26_44 
ROOT
HETATM    1  C4  UNL     1       2.910  -0.041   1.712  1.00  0.00     0.680 A 
HETATM    2  N2  UNL     1       1.594   0.137   1.742  1.00  0.00    -0.175 N 
ATOM      3  H2  UNL     1       1.149   0.339   2.637  1.00  0.00     0.186 HD
HETATM    4  C5  UNL     1       0.804   0.060   0.613  1.00  0.00     0.147 A 
HETATM    5  N3  UNL     1      -0.397   0.224   0.673  1.00  0.00    -0.361 N 
ATOM      6  H3  UNL     1      -0.516   0.395   1.671  1.00  0.00     0.162 HD
HETATM    7  C23 UNL     1       1.461  -0.220  -0.590  1.00  0.00     0.109 A 
HETATM    8  N6  UNL     1       0.780  -0.322  -1.736  1.00  0.00    -0.347 N 
ATOM      9  H6  UNL     1      -0.232  -0.191  -1.747  1.00  0.00     0.167 HD
HETATM   10  C24 UNL     1       1.440  -0.598  -2.873  1.00  0.00     0.182 A 
HETATM   11  N7  UNL     1       2.762  -0.782  -2.938  1.00  0.00    -0.337 N 
ATOM     12  H7  UNL     1       3.209  -0.990  -3.831  1.00  0.00     0.168 HD
HETATM   13  C25 UNL     1       3.494  -0.692  -1.825  1.00  0.00     0.132 A 
HETATM   14  N8  UNL     1       4.749  -0.833  -1.731  1.00  0.00    -0.370 N 
ATOM     15  H8  UNL     1       5.135  -0.729  -0.793  1.00  0.00     0.161 HD
HETATM   16  C31 UNL     1       2.828  -0.405  -0.625  1.00  0.00     0.123 A 
HETATM   17  N9  UNL     1       3.502  -0.308   0.533  1.00  0.00    -0.186 N 
ATOM     18  H9  UNL     1       4.513  -0.443   0.518  1.00  0.00     0.184 HD
ENDROOT
BRANCH   5  19
HETATM   19  C6  UNL     1      -1.675   0.322   0.247  1.00  0.00     0.175 C 
BRANCH  19  20
HETATM   20  C7  UNL     1      -2.344   1.655   0.661  1.00  0.00     0.040 C 
BRANCH  20  21
HETATM   21  C8  UNL     1      -1.670   2.849   0.106  1.00  0.00    -0.004 C 
HETATM   22  C9  UNL     1      -1.727   2.791  -1.406  1.00  0.00     0.005 C 
HETATM   23  C10 UNL     1      -1.155   4.073  -1.937  1.00  0.00     0.000 C 
HETATM   24  C11 UNL     1      -2.105   5.192  -1.642  1.00  0.00     0.001 C 
HETATM   25  C12 UNL     1      -2.800   5.059  -0.320  1.00  0.00     0.009 C 
HETATM   26  C13 UNL     1      -2.123   4.151   0.655  1.00  0.00    -0.044 C 
HETATM   27  C14 UNL     1      -3.107   3.976   1.823  1.00  0.00     0.015 C 
HETATM   28  C15 UNL     1      -0.952   4.920   1.277  1.00  0.00     0.015 C 
ENDBRANCH  20  21
ENDBRANCH  19  20
BRANCH  19  29
HETATM   29  C16 UNL     1      -2.597  -0.780   0.719  1.00  0.00     0.240 C 
HETATM   30  O1  UNL     1      -2.187  -1.681   1.484  1.00  0.00    -0.271 OA
HETATM   31  N4  UNL     1      -3.949  -0.805   0.300  1.00  0.00    -0.359 N 
ATOM     32  H4  UNL     1      -4.278  -0.072  -0.328  1.00  0.00     0.162 HD
BRANCH  31  33
HETATM   33  C17 UNL     1      -4.868  -1.806   0.715  1.00  0.00     0.127 C 
BRANCH  33  34
HETATM   34  C18 UNL     1      -4.528  -3.218   0.333  1.00  0.00     0.006 C 
HETATM   35  C19 UNL     1      -4.438  -3.392  -1.165  1.00  0.00     0.034 C 
HETATM   36  C20 UNL     1      -4.367  -4.862  -1.474  1.00  0.00     0.232 C 
HETATM   37  N5  UNL     1      -5.565  -5.526  -0.991  1.00  0.00    -0.075 N 
HETATM   38  C21 UNL     1      -5.598  -5.492   0.467  1.00  0.00     0.232 C 
ATOM     39  H52 UNL     1      -6.412  -5.134  -1.402  1.00  0.00     0.277 HD
ATOM     40  H51 UNL     1      -5.649  -6.476  -1.354  1.00  0.00     0.277 HD
HETATM   41  C22 UNL     1      -5.656  -4.075   0.929  1.00  0.00     0.034 C 
ENDBRANCH  33  34
ENDBRANCH  31  33
ENDBRANCH  19  29
ENDBRANCH   5  19
BRANCH   1  42
HETATM   42  N1  UNL     1       3.637   0.041   2.805  1.00  0.00    -0.223 N 
ATOM     43  H1  UNL     1       4.648  -0.094   2.790  1.00  0.00     0.178 HD
BRANCH  42  44
HETATM   44  C3  UNL     1       2.914   0.338   4.048  1.00  0.00     0.164 C 
BRANCH  44  45
HETATM   45  C2  UNL     1       3.849   0.311   5.206  1.00  0.00    -0.017 C 
HETATM   46  C1  UNL     1       3.709  -0.508   6.236  1.00  0.00     0.008 C 
ENDBRANCH  44  45
ENDBRANCH  42  44
ENDBRANCH   1  42
BRANCH  14  47
HETATM   47  C26 UNL     1       5.697  -1.118  -2.761  1.00  0.00     0.083 C 
HETATM   48  C27 UNL     1       6.401  -2.446  -2.553  1.00  0.00     0.025 C 
HETATM   49  C28 UNL     1       7.567  -2.140  -1.639  1.00  0.00     0.002 C 
HETATM   50  C29 UNL     1       7.996  -0.755  -2.052  1.00  0.00     0.002 C 
HETATM   51  C30 UNL     1       6.802  -0.071  -2.632  1.00  0.00     0.025 C 
ENDBRANCH  14  47
TORSDOF 10
