REMARK  12 active torsions:
REMARK  status: ('A' for Active; 'I' for Inactive)
REMARK    1  A    between atoms: C2_2  and  C3_3 
REMARK    2  A    between atoms: C3_3  and  N1_4 
REMARK    3  A    between atoms: N1_4  and  C4_6 
REMARK    4  A    between atoms: N3_10  and  C6_12 
REMARK    5  A    between atoms: C6_12  and  C7_13 
REMARK    6  A    between atoms: C7_13  and  C8_14 
REMARK    7  A    between atoms: C16_26  and  N6_27 
REMARK    8  A    between atoms: N6_27  and  C17_29 
REMARK    9  A    between atoms: C17_29  and  C18_30 
REMARK   10  A    between atoms: C22_36  and  C23_37 
REMARK   11  A    between atoms: C31_48  and  C32_49 
REMARK   12  A    between atoms: C32_49  and  C33_50 
ROOT
HETATM    1  C4  UNL     1      -2.595   0.001   2.034  1.00  0.00     0.711 A 
HETATM    2  N2  UNL     1      -2.923   0.075   0.703  1.00  0.00    -0.021 N 
ATOM      3  H2  UNL     1      -3.909   0.075   0.440  1.00  0.00     0.203 HD
HETATM    4  C5  UNL     1      -2.013   0.146  -0.250  1.00  0.00     0.707 A 
HETATM    5  N3  UNL     1      -2.292   0.217  -1.513  1.00  0.00    -0.225 N 
ATOM      6  H3  UNL     1      -1.521   0.269  -2.179  1.00  0.00     0.177 HD
HETATM    7  N5  UNL     1      -0.694   0.146   0.129  1.00  0.00    -0.022 N 
ATOM      8  H5  UNL     1       0.029   0.201  -0.588  1.00  0.00     0.203 HD
HETATM    9  C16 UNL     1      -0.335   0.076   1.407  1.00  0.00     0.707 A 
HETATM   10  N9  UNL     1      -1.295   0.004   2.341  1.00  0.00    -0.021 N 
ATOM     11  H9  UNL     1      -1.022  -0.050   3.322  1.00  0.00     0.203 HD
ENDROOT
BRANCH   9  12
HETATM   12  N6  UNL     1       0.863   0.082   1.786  1.00  0.00    -0.221 N 
ATOM     13  H6  UNL     1       1.009   0.022   2.794  1.00  0.00     0.178 HD
BRANCH  12  14
HETATM   14  C17 UNL     1       2.066   0.163   0.978  1.00  0.00     0.179 C 
BRANCH  14  15
HETATM   15  C18 UNL     1       2.923   1.274   1.364  1.00  0.00    -0.012 A 
HETATM   16  C19 UNL     1       2.500   2.047   2.438  1.00  0.00     0.012 A 
HETATM   17  C20 UNL     1       3.257   3.103   2.886  1.00  0.00     0.018 A 
HETATM   18  C21 UNL     1       4.453   3.401   2.261  1.00  0.00     0.088 A 
HETATM   19  N7  UNL     1       4.838   2.645   1.231  1.00  0.00    -0.365 N 
HETATM   20  C22 UNL     1       4.104   1.580   0.757  1.00  0.00     0.051 A 
ATOM     21  H7  UNL     1       5.721   2.867   0.771  1.00  0.00     0.165 HD
BRANCH  20  22
HETATM   22  C23 UNL     1       4.612   0.831  -0.380  1.00  0.00     0.000 A 
HETATM   23  C24 UNL     1       3.860   0.870  -1.537  1.00  0.00     0.015 A 
HETATM   24  C25 UNL     1       4.256   0.258  -2.695  1.00  0.00     0.014 A 
HETATM   25  C26 UNL     1       5.450  -0.421  -2.704  1.00  0.00    -0.009 A 
HETATM   26  C27 UNL     1       5.883  -1.067  -3.874  1.00  0.00     0.019 A 
HETATM   27  C30 UNL     1       6.248  -0.494  -1.575  1.00  0.00     0.052 A 
HETATM   28  C28 UNL     1       7.060  -1.763  -3.936  1.00  0.00     0.075 A 
HETATM   29  C29 UNL     1       7.816  -1.810  -2.792  1.00  0.00     0.245 A 
HETATM   30  O1  UNL     1       8.914  -2.443  -2.798  1.00  0.00    -0.268 OA
HETATM   31  N8  UNL     1       7.391  -1.184  -1.669  1.00  0.00    -0.322 N 
ATOM     32  H8  UNL     1       7.981  -1.242  -0.839  1.00  0.00     0.169 HD
HETATM   33  C31 UNL     1       5.810   0.141  -0.421  1.00  0.00    -0.015 A 
BRANCH  33  34
HETATM   34  C32 UNL     1       6.649   0.048   0.770  1.00  0.00     0.068 C 
BRANCH  34  35
HETATM   35  C33 UNL     1       6.318  -1.034   1.714  1.00  0.00    -0.032 C 
HETATM   36  C34 UNL     1       5.404  -1.969   1.548  1.00  0.00     0.007 C 
ENDBRANCH  34  35
ENDBRANCH  33  34
ENDBRANCH  20  22
ENDBRANCH  14  15
ENDBRANCH  12  14
ENDBRANCH   9  12
BRANCH   1  37
HETATM   37  N1  UNL     1      -3.516  -0.061   2.858  1.00  0.00    -0.201 N 
ATOM     38  H1  UNL     1      -4.401  -0.045   2.351  1.00  0.00     0.183 HD
BRANCH  37  39
HETATM   39  C3  UNL     1      -3.790  -0.143   4.202  1.00  0.00     0.105 C 
BRANCH  39  40
HETATM   40  C2  UNL     1      -2.790   0.375   5.169  1.00  0.00     0.007 C 
HETATM   41  C1  UNL     1      -2.234  -0.381   6.109  1.00  0.00     0.012 C 
ENDBRANCH  39  40
ENDBRANCH  37  39
ENDBRANCH   1  37
BRANCH   5  42
HETATM   42  C6  UNL     1      -3.616   0.226  -2.012  1.00  0.00     0.142 C 
BRANCH  42  43
HETATM   43  C7  UNL     1      -4.211  -1.123  -2.311  1.00  0.00     0.061 C 
BRANCH  43  44
HETATM   44  C8  UNL     1      -5.571  -0.928  -2.845  1.00  0.00    -0.029 A 
HETATM   45  C9  UNL     1      -5.965  -1.018  -4.181  1.00  0.00     0.096 A 
HETATM   46  N4  UNL     1      -7.269  -0.772  -4.290  1.00  0.00    -0.365 N 
HETATM   47  C10 UNL     1      -7.763  -0.518  -3.062  1.00  0.00     0.042 A 
ATOM     48  H4  UNL     1      -7.805  -0.775  -5.158  1.00  0.00     0.165 HD
HETATM   49  C11 UNL     1      -9.038  -0.211  -2.647  1.00  0.00     0.030 A 
HETATM   50  C15 UNL     1      -6.708  -0.614  -2.148  1.00  0.00    -0.002 A 
HETATM   51  C12 UNL     1      -9.315   0.014  -1.309  1.00  0.00     0.002 A 
HETATM   52  C13 UNL     1      -8.273  -0.085  -0.438  1.00  0.00     0.001 A 
HETATM   53  C14 UNL     1      -6.993  -0.389  -0.818  1.00  0.00     0.014 A 
ENDBRANCH  43  44
ENDBRANCH  42  43
ENDBRANCH   5  42
TORSDOF 12
