REMARK  3 active torsions:
REMARK  status: ('A' for Active; 'I' for Inactive)
REMARK    1  A    between atoms: C5_5  and  C6_6 
REMARK    2  A    between atoms: N1_9  and  C9_11 
REMARK    3  A    between atoms: C9_11  and  C10_12 
ROOT
HETATM    1  C6  UNL     1       1.187   0.152  -0.534  1.00  0.00     0.078 A 
HETATM    2  C7  UNL     1       0.355   1.115   0.012  1.00  0.00     0.082 A 
HETATM    3  C8  UNL     1      -0.884   1.031  -0.583  1.00  0.00     0.118 A 
HETATM    4  N1  UNL     1      -1.883   1.759  -0.324  1.00  0.00    -0.370 N 
ATOM      5  H1  UNL     1      -1.756   2.474   0.392  1.00  0.00     0.161 HD
HETATM    6  N3  UNL     1      -0.799   0.031  -1.473  1.00  0.00    -0.285 N 
ATOM      7  H3  UNL     1      -1.556  -0.285  -2.080  1.00  0.00     0.188 HD
HETATM    8  N4  UNL     1       0.437  -0.489  -1.440  1.00  0.00    -0.297 N 
ATOM      9  H4  UNL     1       0.760  -1.262  -2.022  1.00  0.00     0.187 HD
ENDROOT
BRANCH   4  10
HETATM   10  C9  UNL     1      -3.173   1.683  -0.932  1.00  0.00     0.178 C 
BRANCH  10  11
HETATM   11  C10 UNL     1      -4.094   0.780  -0.188  1.00  0.00     0.026 A 
HETATM   12  C11 UNL     1      -4.905   1.248   0.828  1.00  0.00     0.027 A 
HETATM   13  C12 UNL     1      -5.760   0.408   1.518  1.00  0.00     0.003 A 
HETATM   14  C13 UNL     1      -5.788  -0.924   1.167  1.00  0.00     0.017 A 
HETATM   15  C14 UNL     1      -4.976  -1.392   0.149  1.00  0.00     0.088 A 
HETATM   16  N2  UNL     1      -4.166  -0.530  -0.486  1.00  0.00    -0.368 N 
ATOM     17  H2  UNL     1      -3.573  -0.888  -1.235  1.00  0.00     0.165 HD
ENDBRANCH  10  11
ENDBRANCH   4  10
BRANCH   1  18
HETATM   18  C5  UNL     1       2.577  -0.103  -0.190  1.00  0.00     0.060 A 
HETATM   19  C4  UNL     1       3.317  -1.097  -0.803  1.00  0.00     0.032 A 
HETATM   20  C3  UNL     1       4.631  -1.345  -0.484  1.00  0.00     0.010 A 
HETATM   21  C2  UNL     1       5.243  -0.577   0.483  1.00  0.00    -0.047 A 
HETATM   22  C1  UNL     1       6.652  -0.823   0.841  1.00  0.00     0.049 C 
HETATM   23  C15 UNL     1       4.500   0.418   1.094  1.00  0.00     0.095 A 
HETATM   24  N5  UNL     1       3.199   0.630   0.748  1.00  0.00    -0.364 N 
ATOM     25  H5  UNL     1       2.679   1.371   1.218  1.00  0.00     0.165 HD
ENDBRANCH   1  18
TORSDOF 3
