REMARK  6 active torsions:
REMARK  status: ('A' for Active; 'I' for Inactive)
REMARK    1  A    between atoms: C2_2  and  C3_3 
REMARK    2  A    between atoms: C2_2  and  C4_6 
REMARK    3  A    between atoms: C3_3  and  O1_4 
REMARK    4  A    between atoms: C4_6  and  N1_7 
REMARK    5  A    between atoms: N1_7  and  C5_9 
REMARK    6  A    between atoms: N3_18  and  C12_19 
ROOT
HETATM    1  C5  UNL     1       0.851  -0.405   0.124  1.00  0.00     0.113 A 
HETATM    2  N2  UNL     1       0.753  -1.651  -0.380  1.00  0.00    -0.352 N 
ATOM      3  H2  UNL     1       1.615  -2.184  -0.492  1.00  0.00     0.166 HD
HETATM    4  C6  UNL     1      -0.381  -2.236  -0.741  1.00  0.00     0.092 A 
HETATM    5  C7  UNL     1      -1.557  -1.516  -0.591  1.00  0.00     0.048 A 
HETATM    6  C8  UNL     1      -1.526  -0.231  -0.079  1.00  0.00     0.050 A 
HETATM    7  C9  UNL     1      -0.313   0.319   0.277  1.00  0.00     0.036 A 
HETATM    8  C10 UNL     1      -0.615   1.587   0.745  1.00  0.00     0.035 A 
HETATM    9  C11 UNL     1      -1.978   1.773   0.662  1.00  0.00     0.093 A 
HETATM   10  N3  UNL     1      -2.525   0.666   0.162  1.00  0.00    -0.347 N 
ENDROOT
BRANCH   1  11
HETATM   11  N1  UNL     1       1.971   0.123   0.461  1.00  0.00    -0.375 N 
ATOM     12  H1  UNL     1       2.005   1.069   0.840  1.00  0.00     0.161 HD
BRANCH  11  13
HETATM   13  C4  UNL     1       3.179  -0.644   0.295  1.00  0.00     0.127 C 
BRANCH  13  14
HETATM   14  C2  UNL     1       4.392   0.033   0.835  1.00  0.00     0.023 C 
HETATM   15  C1  UNL     1       5.578  -0.907   0.582  1.00  0.00     0.014 C 
BRANCH  14  16
HETATM   16  C3  UNL     1       4.718   1.318   0.104  1.00  0.00     0.170 C 
BRANCH  16  17
HETATM   17  O1  UNL     1       5.899   1.878   0.586  1.00  0.00    -0.400 OA
ATOM     18  H1  UNL     1       6.104   2.684   0.127  1.00  0.00     0.209 HD
ENDBRANCH  16  17
ENDBRANCH  14  16
ENDBRANCH  13  14
ENDBRANCH  11  13
ENDBRANCH   1  11
BRANCH  10  19
HETATM   19  C12 UNL     1      -3.924   0.371  -0.115  1.00  0.00     0.026 C 
HETATM   20  C13 UNL     1      -4.368  -0.863   0.647  1.00  0.00     0.038 C 
HETATM   21  C14 UNL     1      -4.144   0.161  -1.607  1.00  0.00     0.038 C 
HETATM   22  C15 UNL     1      -4.777   1.552   0.295  1.00  0.00     0.038 C 
ENDBRANCH  10  19
TORSDOF 6
