REMARK  4 active torsions:
REMARK  status: ('A' for Active; 'I' for Inactive)
REMARK    1  A    between atoms: O1_3  and  C3_4 
REMARK    2  A    between atoms: C3_4  and  C4_5 
REMARK    3  A    between atoms: C3_4  and  C6_8 
REMARK       I    between atoms: C6_8  and  N1_10 
REMARK    4  A    between atoms: N1_10  and  C7_12 
ROOT
HETATM    1  C1  UNL     1       5.204   0.412   3.715  1.00  0.00     0.044 C 
HETATM    2  C2  UNL     1       4.522  -0.071   2.844  1.00  0.00     0.044 C 
HETATM    3  O1  UNL     1       3.751  -0.609   1.871  1.00  0.00    -0.281 OA
ENDROOT
BRANCH   3   4
HETATM    4  C3  UNL     1       3.180   0.112   0.803  1.00  0.00     0.300 C 
BRANCH   4   5
HETATM    5  C4  UNL     1       3.597  -0.403  -0.493  1.00  0.00     0.162 C 
HETATM    6  C5  UNL     1       3.104   0.221  -1.740  1.00  0.00     0.094 C 
HETATM    7  O2  UNL     1       4.351  -1.344  -0.567  1.00  0.00    -0.295 OA
ENDBRANCH   4   5
BRANCH   4   8
HETATM    8  C6  UNL     1       1.700   0.163   1.017  1.00  0.00     0.260 C 
HETATM    9  O3  UNL     1       1.313  -0.410   2.105  1.00  0.00    -0.270 OA
HETATM   10  N1  UNL     1       0.817   0.760   0.152  1.00  0.00    -0.319 N 
ATOM     11  H1  UNL     1       1.165   1.666  -0.161  1.00  0.00     0.169 HD
BRANCH  10  12
HETATM   12  C7  UNL     1      -0.275   0.509  -0.351  1.00  0.00     0.110 C 
HETATM   13  C8  UNL     1      -0.931  -0.661  -0.074  1.00  0.00    -0.024 C 
HETATM   14  C9  UNL     1      -0.179  -1.904  -0.088  1.00  0.00     0.051 C 
HETATM   15  C10 UNL     1      -2.289  -0.785   0.199  1.00  0.00    -0.052 C 
HETATM   16  C11 UNL     1      -2.668  -1.973   0.963  1.00  0.00     0.049 C 
HETATM   17  C12 UNL     1      -3.322   0.086  -0.176  1.00  0.00     0.032 C 
HETATM   18  C13 UNL     1      -3.237   1.246  -0.951  1.00  0.00     0.009 C 
HETATM   19  C14 UNL     1      -4.530   1.942  -1.166  1.00  0.00     0.068 C 
HETATM   20  N2  UNL     1      -2.120   1.762  -1.494  1.00  0.00    -0.326 N 
HETATM   21  C15 UNL     1      -0.831   1.514  -1.209  1.00  0.00     0.273 C 
ATOM     22  H2  UNL     1      -2.275   2.446  -2.235  1.00  0.00     0.169 HD
HETATM   23  O4  UNL     1       0.017   2.246  -1.754  1.00  0.00    -0.266 OA
ENDBRANCH  10  12
ENDBRANCH   4   8
ENDBRANCH   3   4
TORSDOF 4
