REMARK  2 active torsions:
REMARK  status: ('A' for Active; 'I' for Inactive)
REMARK    1  A    between atoms: C2_2  and  N1_3 
REMARK       I    between atoms: N1_3  and  C3_5 
REMARK    2  A    between atoms: C3_5  and  C4_7 
ROOT
HETATM    1  C4  UNL     1       0.719  -0.782   0.119  1.00  0.00     0.144 C 
HETATM    2  C5  UNL     1       0.189  -2.073  -0.399  1.00  0.00     0.234 C 
HETATM    3  C6  UNL     1       0.002  -3.176   0.591  1.00  0.00     0.044 C 
HETATM    4  N2  UNL     1      -0.971  -1.401  -0.875  1.00  0.00     0.101 N 
HETATM    5  C7  UNL     1      -2.183  -1.515  -0.165  1.00  0.00     0.294 C 
HETATM    6  C8  UNL     1      -3.087  -0.378  -0.556  1.00  0.00     0.145 C 
HETATM    7  C9  UNL     1      -4.357  -0.566   0.178  1.00  0.00     0.067 C 
HETATM    8  N3  UNL     1      -5.355  -0.695   0.759  1.00  0.00    -0.197 NA
HETATM    9  C10 UNL     1      -2.481   0.955  -0.324  1.00  0.00     0.089 A 
HETATM   10  C11 UNL     1      -3.289   2.073  -0.874  1.00  0.00     0.072 C 
HETATM   11  N4  UNL     1      -3.922   2.937  -1.308  1.00  0.00    -0.196 NA
HETATM   12  C12 UNL     1      -1.005   1.027  -0.389  1.00  0.00     0.063 A 
HETATM   13  C13 UNL     1      -0.289  -0.171  -0.853  1.00  0.00     0.245 C 
HETATM   14  C14 UNL     1      -1.708   1.216   0.835  1.00  0.00     0.057 A 
HETATM   15  C15 UNL     1      -1.735   2.253   1.803  1.00  0.00     0.099 A 
HETATM   16  C16 UNL     1      -1.620   0.737   2.127  1.00  0.00     0.139 A 
HETATM   17  O2  UNL     1      -1.532   0.095   3.186  1.00  0.00    -0.297 OA
ENDROOT
BRANCH   1  18
HETATM   18  C3  UNL     1       2.137  -0.568  -0.268  1.00  0.00     0.226 C 
HETATM   19  N1  UNL     1       2.856   0.602   0.116  1.00  0.00    -0.361 N 
ATOM     20  H1  UNL     1       2.417   1.335   0.673  1.00  0.00     0.162 HD
HETATM   21  O1  UNL     1       2.696  -1.460  -0.955  1.00  0.00    -0.273 OA
BRANCH  19  22
HETATM   22  C2  UNL     1       4.234   0.709  -0.315  1.00  0.00     0.118 C 
HETATM   23  C1  UNL     1       4.889   1.971   0.143  1.00  0.00     0.026 C 
ENDBRANCH  19  22
ENDBRANCH   1  18
TORSDOF 2
