REMARK  11 active torsions:
REMARK  status: ('A' for Active; 'I' for Inactive)
REMARK    1  A    between atoms: C3_5  and  N2_6 
REMARK    2  A    between atoms: N4_11  and  C5_12 
REMARK    3  A    between atoms: C5_12  and  C6_13 
REMARK    4  A    between atoms: C6_13  and  C7_15 
REMARK    5  A    between atoms: C10_18  and  S1_19 
REMARK    6  A    between atoms: S1_19  and  N5_22 
REMARK    7  A    between atoms: C12_24  and  C13_25 
REMARK    8  A    between atoms: C13_25  and  N6_26 
REMARK    9  A    between atoms: N6_26  and  O4_27 
REMARK   10  A    between atoms: C14_29  and  N7_30 
REMARK   11  A    between atoms: C15_35  and  N9_36 
ROOT
HETATM    1  C7  UNL     1      -1.474   0.256   0.642  1.00  0.00     0.011 A 
HETATM    2  C8  UNL     1      -1.000  -0.865   1.290  1.00  0.00     0.017 A 
HETATM    3  C9  UNL     1       0.280  -0.973   1.791  1.00  0.00     0.026 A 
HETATM    4  C10 UNL     1       1.143   0.071   1.649  1.00  0.00     0.080 A 
HETATM    5  C16 UNL     1       0.688   1.224   0.994  1.00  0.00     0.026 A 
HETATM    6  C17 UNL     1      -0.590   1.314   0.502  1.00  0.00     0.017 A 
ENDROOT
BRANCH   4   7
HETATM    7  S1  UNL     1       2.774   0.097   2.217  1.00  0.00     0.282 S 
HETATM    8  O2  UNL     1       2.919  -0.990   3.262  1.00  0.00    -0.199 OA
HETATM    9  O3  UNL     1       2.961   1.396   2.964  1.00  0.00    -0.199 OA
BRANCH   7  10
HETATM   10  N5  UNL     1       3.969  -0.060   1.000  1.00  0.00    -0.077 N 
HETATM   11  C11 UNL     1       4.758   1.038   0.789  1.00  0.00     0.146 A 
HETATM   12  C12 UNL     1       5.699   1.041  -0.225  1.00  0.00     0.057 A 
HETATM   13  C14 UNL     1       5.797  -0.094  -0.992  1.00  0.00     0.129 A 
HETATM   14  N8  UNL     1       5.014  -1.164  -0.769  1.00  0.00    -0.175 N 
HETATM   15  C15 UNL     1       4.084  -1.152   0.243  1.00  0.00     0.693 A 
ATOM     16  H8  UNL     1       5.111  -1.992  -1.356  1.00  0.00     0.186 HD
BRANCH  12  17
HETATM   17  C13 UNL     1       6.549   2.190  -0.472  1.00  0.00     0.234 C 
BRANCH  17  18
HETATM   18  N6  UNL     1       7.402   2.372  -1.285  1.00  0.00    -0.296 NA
BRANCH  18  19
HETATM   19  O4  UNL     1       8.220   2.240  -2.244  1.00  0.00    -0.219 OA
ATOM     20  H4  UNL     1       8.900   2.385  -2.892  1.00  0.00     0.261 HD
ENDBRANCH  18  19
ENDBRANCH  17  18
ENDBRANCH  12  17
BRANCH  13  21
HETATM   21  N7  UNL     1       6.657  -0.135  -1.947  1.00  0.00    -0.384 N 
ATOM     22  H72 UNL     1       7.251   0.677  -2.116  1.00  0.00     0.157 HD
ATOM     23  H71 UNL     1       6.730  -0.978  -2.517  1.00  0.00     0.157 HD
ENDBRANCH  13  21
BRANCH  15  24
HETATM   24  N9  UNL     1       3.413  -2.216   0.466  1.00  0.00    -0.233 N 
ATOM     25  H92 UNL     1       2.723  -2.207   1.217  1.00  0.00     0.174 HD
ATOM     26  H91 UNL     1       3.501  -3.051  -0.113  1.00  0.00     0.174 HD
ENDBRANCH  15  24
ENDBRANCH   7  10
ENDBRANCH   4   7
BRANCH   1  27
HETATM   27  C6  UNL     1      -2.832   0.356   0.118  1.00  0.00     0.179 C 
HETATM   28  O1  UNL     1      -3.197   1.389  -0.455  1.00  0.00    -0.290 OA
BRANCH  27  29
HETATM   29  C5  UNL     1      -3.719  -0.828   0.311  1.00  0.00     0.235 C 
BRANCH  29  30
HETATM   30  N4  UNL     1      -5.001  -0.513  -0.279  1.00  0.00    -0.257 N 
HETATM   31  C2  UNL     1      -6.004   0.070   0.406  1.00  0.00     0.111 A 
HETATM   32  C1  UNL     1      -5.976   0.484   1.852  1.00  0.00     0.091 C 
HETATM   33  N1  UNL     1      -7.037   0.215  -0.438  1.00  0.00    -0.178 N 
HETATM   34  C3  UNL     1      -6.690  -0.270  -1.641  1.00  0.00     0.693 A 
ATOM     35  H1  UNL     1      -7.940   0.627  -0.204  1.00  0.00     0.185 HD
HETATM   36  N3  UNL     1      -5.427  -0.713  -1.514  1.00  0.00    -0.125 N 
HETATM   37  C4  UNL     1      -4.610  -1.328  -2.547  1.00  0.00     0.198 C 
BRANCH  34  38
HETATM   38  N2  UNL     1      -7.435  -0.303  -2.718  1.00  0.00    -0.233 N 
ATOM     39  H22 UNL     1      -8.393   0.033  -2.814  1.00  0.00     0.174 HD
ATOM     40  H21 UNL     1      -7.171  -0.671  -3.632  1.00  0.00     0.174 HD
ENDBRANCH  34  38
ENDBRANCH  29  30
ENDBRANCH  27  29
ENDBRANCH   1  27
TORSDOF 11
