REMARK  1 active torsions:
REMARK  status: ('A' for Active; 'I' for Inactive)
REMARK    1  A    between atoms: O1_1  and  C1_3 
ROOT
HETATM    1  C1  UNL     1      -2.197   0.788  -0.334  1.00  0.00     0.141 C 
HETATM    2  C2  UNL     1      -2.623  -0.428   0.423  1.00  0.00     0.049 C 
HETATM    3  C3  UNL     1      -1.392  -0.967   1.070  1.00  0.00     0.111 C 
HETATM    4  N1  UNL     1      -0.294  -0.107   0.774  1.00  0.00    -0.239 NA
HETATM    5  C4  UNL     1      -0.851   1.120   0.194  1.00  0.00     0.132 C 
HETATM    6  C5  UNL     1       0.209   0.951  -0.908  1.00  0.00     0.157 C 
HETATM    7  S1  UNL     1       1.640   1.927  -0.517  1.00  0.00    -0.146 SA
HETATM    8  C6  UNL     1       2.954   0.850   0.018  1.00  0.00     0.077 C 
HETATM    9  C7  UNL     1       2.784  -0.593  -0.314  1.00  0.00     0.026 C 
HETATM   10  C8  UNL     1       1.446  -1.121  -0.551  1.00  0.00     0.110 C 
HETATM   11  N2  UNL     1       0.309  -0.332  -0.423  1.00  0.00    -0.233 NA
ENDROOT
BRANCH   1  12
HETATM   12  O1  UNL     1      -2.190   0.498  -1.705  1.00  0.00    -0.394 OA
ATOM     13  H1  UNL     1      -1.919   1.271  -2.186  1.00  0.00     0.210 HD
ENDBRANCH   1  12
TORSDOF 1
