REMARK  16 active torsions:
REMARK  status: ('A' for Active; 'I' for Inactive)
REMARK    1  A    between atoms: C2_2  and  N1_4 
REMARK    2  A    between atoms: C12_14  and  C13_15 
REMARK    3  A    between atoms: C13_15  and  C14_16 
REMARK    4  A    between atoms: C14_16  and  C15_17 
REMARK    5  A    between atoms: C15_17  and  N2_20 
REMARK       I    between atoms: N2_20  and  C18_22 
REMARK    6  A    between atoms: C18_22  and  C19_24 
REMARK    7  A    between atoms: C19_24  and  C20_25 
REMARK    8  A    between atoms: C24_33  and  C25_34 
REMARK    9  A    between atoms: C25_34  and  C26_36 
REMARK   10  A    between atoms: C26_36  and  C27_37 
REMARK   11  A    between atoms: C27_37  and  C28_38 
REMARK   12  A    between atoms: C28_38  and  C29_40 
REMARK       I    between atoms: C29_40  and  N5_42 
REMARK   13  A    between atoms: N5_42  and  C30_44 
REMARK   14  A    between atoms: C30_44  and  C31_45 
REMARK   15  A    between atoms: C31_45  and  C32_46 
REMARK   16  A    between atoms: C32_46  and  N6_47 
ROOT
HETATM    1  C19 UNL     1       1.563  -2.403   0.775  1.00  0.00     0.095 A 
HETATM    2  C23 UNL     1       2.328  -3.545   0.137  1.00  0.00     0.040 A 
HETATM    3  C24 UNL     1       2.578  -3.160   1.554  1.00  0.00     0.081 A 
ENDROOT
BRANCH   1   4
HETATM    4  C18 UNL     1       0.141  -2.722   1.160  1.00  0.00     0.234 C 
HETATM    5  N2  UNL     1      -0.924  -1.865   0.947  1.00  0.00    -0.352 N 
ATOM      6  H2  UNL     1      -0.777  -0.957   0.506  1.00  0.00     0.163 HD
HETATM    7  O2  UNL     1      -0.009  -3.878   1.709  1.00  0.00    -0.272 OA
BRANCH   5   8
HETATM    8  C15 UNL     1      -2.267  -2.280   1.364  1.00  0.00     0.025 C 
HETATM    9  C16 UNL     1      -2.207  -2.465   2.864  1.00  0.00     0.038 C 
HETATM   10  C17 UNL     1      -2.614  -3.616   0.743  1.00  0.00     0.038 C 
BRANCH   8  11
HETATM   11  C14 UNL     1      -3.320  -1.246   1.058  1.00  0.00     0.031 C 
BRANCH  11  12
HETATM   12  C13 UNL     1      -3.478  -0.965  -0.406  1.00  0.00     0.012 C 
BRANCH  12  13
HETATM   13  C12 UNL     1      -4.567   0.057  -0.690  1.00  0.00    -0.038 C 
HETATM   14  C11 UNL     1      -5.838  -0.538  -0.151  1.00  0.00     0.035 C 
HETATM   15  C10 UNL     1      -7.098  -0.116  -0.795  1.00  0.00     0.088 C 
HETATM   16  N1  UNL     1      -7.803   0.927  -0.023  1.00  0.00    -0.343 N 
HETATM   17  C9  UNL     1      -6.989   0.387  -2.190  1.00  0.00     0.030 C 
HETATM   18  C4  UNL     1      -7.378   2.199   0.455  1.00  0.00     0.220 C 
HETATM   19  O1  UNL     1      -8.357   2.889   0.819  1.00  0.00    -0.273 OA
HETATM   20  C5  UNL     1      -6.119   2.930   0.643  1.00  0.00     0.107 C 
HETATM   21  C6  UNL     1      -5.064   2.516  -0.399  1.00  0.00    -0.005 C 
HETATM   22  C7  UNL     1      -5.704   2.503  -1.727  1.00  0.00     0.009 C 
HETATM   23  C35 UNL     1      -4.310   1.338   0.039  1.00  0.00     0.014 C 
HETATM   24  C8  UNL     1      -5.740   1.200  -2.456  1.00  0.00    -0.012 C 
HETATM   25  C36 UNL     1      -4.560   0.311  -2.157  1.00  0.00     0.014 C 
BRANCH  16  26
HETATM   26  C2  UNL     1      -9.171   0.573   0.298  1.00  0.00     0.079 C 
HETATM   27  C1  UNL     1     -10.181   1.498  -0.330  1.00  0.00     0.032 C 
HETATM   28  C3  UNL     1      -9.404   0.413   1.788  1.00  0.00     0.032 C 
ENDBRANCH  16  26
ENDBRANCH  12  13
ENDBRANCH  11  12
ENDBRANCH   8  11
ENDBRANCH   5   8
ENDBRANCH   1   4
BRANCH   1  29
HETATM   29  C20 UNL     1       1.784  -1.050   0.256  1.00  0.00     0.044 A 
HETATM   30  C21 UNL     1       1.382   0.099   0.874  1.00  0.00     0.115 A 
HETATM   31  N3  UNL     1       1.716   1.149   0.123  1.00  0.00    -0.360 N 
HETATM   32  C22 UNL     1       2.321   0.652  -0.954  1.00  0.00     0.180 A 
ATOM     33  H3  UNL     1       1.543   2.132   0.331  1.00  0.00     0.166 HD
HETATM   34  N4  UNL     1       2.381  -0.682  -0.908  1.00  0.00    -0.353 N 
ATOM     35  H4  UNL     1       2.793  -1.301  -1.607  1.00  0.00     0.166 HD
ENDBRANCH   1  29
BRANCH   3  36
HETATM   36  C25 UNL     1       3.855  -2.625   1.966  1.00  0.00     0.133 C 
HETATM   37  O3  UNL     1       4.302  -3.053   3.076  1.00  0.00    -0.298 OA
BRANCH  36  38
HETATM   38  C26 UNL     1       4.710  -1.657   1.270  1.00  0.00     0.086 C 
BRANCH  38  39
HETATM   39  C27 UNL     1       6.097  -1.584   1.944  1.00  0.00     0.096 C 
BRANCH  39  40
HETATM   40  C28 UNL     1       6.881  -0.580   1.161  1.00  0.00     0.216 C 
HETATM   41  O4  UNL     1       6.789   0.654   1.397  1.00  0.00    -0.287 OA
BRANCH  40  42
HETATM   42  C29 UNL     1       7.768  -1.022   0.107  1.00  0.00     0.287 C 
HETATM   43  O5  UNL     1       7.857  -2.256  -0.125  1.00  0.00    -0.264 OA
HETATM   44  N5  UNL     1       8.510  -0.055  -0.633  1.00  0.00    -0.354 N 
ATOM     45  H5  UNL     1       8.428   0.942  -0.432  1.00  0.00     0.162 HD
BRANCH  44  46
HETATM   46  C30 UNL     1       9.367  -0.530  -1.660  1.00  0.00     0.125 C 
BRANCH  46  47
HETATM   47  C31 UNL     1      10.152   0.451  -2.446  1.00  0.00     0.050 C 
BRANCH  47  48
HETATM   48  C32 UNL     1      11.123   1.303  -1.732  1.00  0.00     0.273 C 
BRANCH  48  49
HETATM   49  N6  UNL     1      10.610   2.221  -0.757  1.00  0.00     0.080 N 
HETATM   50  C33 UNL     1      11.736   2.849  -0.024  1.00  0.00     0.309 C 
HETATM   51  C34 UNL     1       9.891   3.331  -1.440  1.00  0.00     0.309 C 
ENDBRANCH  48  49
ENDBRANCH  47  48
ENDBRANCH  46  47
ENDBRANCH  44  46
ENDBRANCH  40  42
ENDBRANCH  39  40
ENDBRANCH  38  39
ENDBRANCH  36  38
ENDBRANCH   3  36
TORSDOF 16
