REMARK  17 active torsions:
REMARK  status: ('A' for Active; 'I' for Inactive)
REMARK    1  A    between atoms: C2_2  and  C3_3 
REMARK    2  A    between atoms: C3_3  and  C4_4 
REMARK    3  A    between atoms: C4_4  and  C5_5 
REMARK    4  A    between atoms: C5_5  and  C32_46 
REMARK    5  A    between atoms: C6_6  and  C7_7 
REMARK    6  A    between atoms: C7_7  and  N1_8 
REMARK    7  A    between atoms: C13_19  and  C14_20 
REMARK    8  A    between atoms: C18_27  and  C19_28 
REMARK    9  A    between atoms: C19_28  and  S1_29 
REMARK   10  A    between atoms: S1_29  and  C20_30 
REMARK   11  A    between atoms: C20_30  and  C21_31 
REMARK   12  A    between atoms: C21_31  and  C22_32 
REMARK   13  A    between atoms: C26_39  and  C27_40 
REMARK   14  A    between atoms: C27_40  and  C28_41 
REMARK   15  A    between atoms: C32_46  and  C33_47 
REMARK   16  A    between atoms: C33_47  and  C34_48 
REMARK   17  A    between atoms: C34_48  and  N5_49 
ROOT
HETATM    1  N1  UNL     1      -1.861  -1.234   1.199  1.00  0.00    -0.283 N 
HETATM    2  C8  UNL     1      -1.173  -1.730   2.332  1.00  0.00     0.226 C 
HETATM    3  O1  UNL     1      -1.747  -1.596   3.464  1.00  0.00    -0.273 OA
HETATM    4  C9  UNL     1       0.163  -2.394   2.317  1.00  0.00     0.105 C 
HETATM    5  C10 UNL     1       0.036  -3.917   2.386  1.00  0.00     0.036 C 
HETATM    6  C11 UNL     1      -0.067  -4.417   0.964  1.00  0.00     0.181 C 
HETATM    7  O2  UNL     1       0.812  -5.521   0.831  1.00  0.00    -0.304 OA
HETATM    8  C12 UNL     1       1.723  -5.663  -0.192  1.00  0.00     0.361 C 
HETATM    9  O3  UNL     1       1.792  -6.831  -0.729  1.00  0.00    -0.238 OA
HETATM   10  N2  UNL     1       2.572  -4.672  -0.701  1.00  0.00    -0.323 N 
ATOM     11  H2  UNL     1       2.647  -4.630  -1.717  1.00  0.00     0.165 HD
HETATM   12  C13 UNL     1       3.346  -3.712   0.021  1.00  0.00     0.182 C 
HETATM   13  C17 UNL     1       4.070  -2.779  -0.919  1.00  0.00     0.245 C 
HETATM   14  O4  UNL     1       4.035  -3.088  -2.132  1.00  0.00    -0.271 OA
HETATM   15  N3  UNL     1       4.716  -1.673  -0.427  1.00  0.00    -0.331 N 
ATOM     16  H3  UNL     1       5.725  -1.815  -0.377  1.00  0.00     0.168 HD
HETATM   17  C18 UNL     1       4.383  -0.526  -0.021  1.00  0.00     0.007 C 
HETATM   18  C24 UNL     1       3.002  -0.005   0.037  1.00  0.00     0.156 C 
HETATM   19  C25 UNL     1       2.231  -0.139  -1.206  1.00  0.00     0.223 C 
HETATM   20  O5  UNL     1       2.782   0.008  -2.357  1.00  0.00    -0.273 OA
HETATM   21  N4  UNL     1       0.837  -0.436  -1.171  1.00  0.00    -0.347 N 
ATOM     22  H4  UNL     1       0.458  -1.038  -1.903  1.00  0.00     0.163 HD
HETATM   23  C26 UNL     1      -0.070   0.059  -0.169  1.00  0.00     0.177 C 
HETATM   24  C31 UNL     1      -1.249  -0.832  -0.017  1.00  0.00     0.249 C 
HETATM   25  O6  UNL     1      -1.778  -1.290  -1.086  1.00  0.00    -0.271 OA
ENDROOT
BRANCH   1  26
HETATM   26  C7  UNL     1      -3.336  -1.139   1.310  1.00  0.00     0.162 C 
BRANCH  26  27
HETATM   27  C6  UNL     1      -3.803   0.133   1.825  1.00  0.00    -0.004 C 
HETATM   28  C5  UNL     1      -4.594   0.992   1.235  1.00  0.00    -0.082 C 
BRANCH  28  29
HETATM   29  C4  UNL     1      -4.996   2.287   1.908  1.00  0.00     0.037 C 
BRANCH  29  30
HETATM   30  C3  UNL     1      -4.574   3.493   1.122  1.00  0.00     0.030 C 
BRANCH  30  31
HETATM   31  C2  UNL     1      -4.989   4.730   1.852  1.00  0.00    -0.037 C 
HETATM   32  C1  UNL     1      -5.608   4.716   3.019  1.00  0.00     0.007 C 
ENDBRANCH  30  31
ENDBRANCH  29  30
ENDBRANCH  28  29
BRANCH  28  33
HETATM   33  C32 UNL     1      -5.157   0.784  -0.105  1.00  0.00     0.035 C 
BRANCH  33  34
HETATM   34  C33 UNL     1      -6.675   0.770  -0.097  1.00  0.00     0.031 C 
BRANCH  34  35
HETATM   35  C34 UNL     1      -7.098   0.543  -1.554  1.00  0.00     0.230 C 
BRANCH  35  36
HETATM   36  N5  UNL     1      -6.528  -0.734  -1.952  1.00  0.00    -0.079 N 
ATOM     37  H53 UNL     1      -5.519  -0.789  -1.810  1.00  0.00     0.274 HD
ATOM     38  H52 UNL     1      -6.784  -1.502  -1.332  1.00  0.00     0.274 HD
ATOM     39  H51 UNL     1      -6.809  -0.885  -2.921  1.00  0.00     0.274 HD
ENDBRANCH  35  36
ENDBRANCH  34  35
ENDBRANCH  33  34
ENDBRANCH  28  33
ENDBRANCH  26  27
ENDBRANCH   1  26
BRANCH  23  40
HETATM   40  C27 UNL     1      -0.609   1.436  -0.410  1.00  0.00     0.038 C 
BRANCH  40  41
HETATM   41  C28 UNL     1      -1.410   1.662  -1.633  1.00  0.00    -0.020 C 
HETATM   42  C29 UNL     1      -0.672   1.408  -2.916  1.00  0.00     0.009 C 
HETATM   43  C30 UNL     1      -1.892   3.118  -1.715  1.00  0.00     0.009 C 
ENDBRANCH  40  41
ENDBRANCH  23  40
BRANCH  17  44
HETATM   44  C19 UNL     1       5.503   0.367   0.442  1.00  0.00     0.126 C 
BRANCH  44  45
HETATM   45  S1  UNL     1       5.914   1.614  -0.746  1.00  0.00    -0.163 SA
BRANCH  45  46
HETATM   46  C20 UNL     1       4.706   2.913  -0.974  1.00  0.00     0.074 C 
BRANCH  46  47
HETATM   47  C21 UNL     1       5.268   3.912  -1.986  1.00  0.00     0.010 C 
BRANCH  47  48
HETATM   48  C22 UNL     1       4.334   5.044  -2.254  1.00  0.00    -0.004 C 
HETATM   49  C23 UNL     1       3.984   5.869  -1.053  1.00  0.00     0.005 C 
ENDBRANCH  47  48
ENDBRANCH  46  47
ENDBRANCH  45  46
ENDBRANCH  44  45
ENDBRANCH  17  44
BRANCH  12  50
HETATM   50  C14 UNL     1       4.478  -4.429   0.767  1.00  0.00     0.009 C 
HETATM   51  C15 UNL     1       3.996  -5.437   1.752  1.00  0.00     0.012 C 
HETATM   52  C16 UNL     1       5.373  -5.148  -0.247  1.00  0.00     0.012 C 
ENDBRANCH  12  50
TORSDOF 17
