REMARK  16 active torsions:
REMARK  status: ('A' for Active; 'I' for Inactive)
REMARK    1  A    between atoms: C2_2  and  C3_3 
REMARK    2  A    between atoms: C3_3  and  C4_4 
REMARK    3  A    between atoms: C4_4  and  C5_5 
REMARK    4  A    between atoms: C5_5  and  C6_6 
REMARK    5  A    between atoms: C6_6  and  C7_7 
REMARK    6  A    between atoms: C7_7  and  S1_8 
REMARK    7  A    between atoms: S1_8  and  C8_9 
REMARK    8  A    between atoms: C8_9  and  C9_10 
REMARK    9  A    between atoms: C9_10  and  C10_12 
REMARK   10  A    between atoms: N1_21  and  C19_22 
REMARK   11  A    between atoms: C21_24  and  O2_25 
REMARK   12  A    between atoms: C22_29  and  C23_30 
REMARK   13  A    between atoms: C26_34  and  N3_35 
REMARK   14  A    between atoms: N3_35  and  C27_37 
REMARK   15  A    between atoms: C29_43  and  C30_44 
REMARK   16  A    between atoms: C30_44  and  C31_45 
ROOT
HETATM    1  C10 UNL     1       1.367  -0.775   0.796  1.00  0.00     0.155 C 
HETATM    2  C11 UNL     1       1.514   0.440   1.690  1.00  0.00     0.033 C 
HETATM    3  C12 UNL     1       0.430   1.468   1.444  1.00  0.00     0.002 C 
HETATM    4  C13 UNL     1       0.886   2.615   0.584  1.00  0.00     0.001 C 
HETATM    5  C14 UNL     1      -0.234   3.141  -0.266  1.00  0.00     0.012 C 
HETATM    6  C15 UNL     1      -1.531   3.292   0.481  1.00  0.00     0.094 C 
HETATM    7  C16 UNL     1      -2.646   3.044  -0.358  1.00  0.00    -0.101 C 
HETATM    8  C17 UNL     1      -3.546   2.824  -1.020  1.00  0.00    -0.061 C 
HETATM    9  C18 UNL     1      -4.645   2.526  -1.823  1.00  0.00     0.159 C 
HETATM   10  N1  UNL     1      -5.966   2.693  -1.233  1.00  0.00    -0.316 N 
HETATM   11  C21 UNL     1      -6.937   1.666  -1.190  1.00  0.00     0.220 C 
HETATM   12  N2  UNL     1      -6.793   0.287  -1.027  1.00  0.00    -0.345 N 
ATOM     13  H2  UNL     1      -7.136  -0.259  -1.817  1.00  0.00     0.163 HD
HETATM   14  C22 UNL     1      -6.260  -0.504   0.029  1.00  0.00     0.157 C 
HETATM   15  C25 UNL     1      -4.867  -0.926  -0.074  1.00  0.00     0.181 C 
HETATM   16  O3  UNL     1      -3.984  -0.359   0.590  1.00  0.00    -0.293 OA
HETATM   17  C26 UNL     1      -4.334  -2.039  -0.944  1.00  0.00     0.248 C 
HETATM   18  C28 UNL     1      -3.094  -1.523  -1.570  1.00  0.00     0.248 C 
HETATM   19  O5  UNL     1      -3.268  -1.107  -2.782  1.00  0.00    -0.271 OA
HETATM   20  N4  UNL     1      -1.810  -1.419  -1.068  1.00  0.00    -0.346 N 
ATOM     21  H4  UNL     1      -1.432  -0.472  -1.090  1.00  0.00     0.163 HD
HETATM   22  C29 UNL     1      -0.900  -2.405  -0.516  1.00  0.00     0.177 C 
HETATM   23  C34 UNL     1      -0.707  -2.224   0.931  1.00  0.00     0.241 C 
HETATM   24  O6  UNL     1      -1.613  -2.456   1.802  1.00  0.00    -0.271 OA
HETATM   25  N5  UNL     1       0.528  -1.765   1.487  1.00  0.00    -0.348 N 
ATOM     26  H5  UNL     1       0.835  -2.134   2.387  1.00  0.00     0.163 HD
ENDROOT
BRANCH   1  27
HETATM   27  C9  UNL     1       2.725  -1.333   0.585  1.00  0.00     0.158 C 
HETATM   28  O1  UNL     1       2.986  -2.437   0.988  1.00  0.00    -0.295 OA
BRANCH  27  29
HETATM   29  C8  UNL     1       3.802  -0.575  -0.117  1.00  0.00     0.154 C 
BRANCH  29  30
HETATM   30  S1  UNL     1       5.311  -1.537  -0.258  1.00  0.00    -0.162 SA
BRANCH  30  31
HETATM   31  C7  UNL     1       6.559  -0.588  -1.127  1.00  0.00     0.074 C 
BRANCH  31  32
HETATM   32  C6  UNL     1       7.000   0.605  -0.310  1.00  0.00     0.010 C 
BRANCH  32  33
HETATM   33  C5  UNL     1       8.061   1.379  -1.074  1.00  0.00     0.001 C 
BRANCH  33  34
HETATM   34  C4  UNL     1       8.570   2.577  -0.344  1.00  0.00     0.000 C 
BRANCH  34  35
HETATM   35  C3  UNL     1       9.204   2.223   0.985  1.00  0.00    -0.000 C 
BRANCH  35  36
HETATM   36  C2  UNL     1      10.379   1.291   0.790  1.00  0.00    -0.005 C 
HETATM   37  C1  UNL     1      10.956   0.983   2.155  1.00  0.00     0.005 C 
ENDBRANCH  35  36
ENDBRANCH  34  35
ENDBRANCH  33  34
ENDBRANCH  32  33
ENDBRANCH  31  32
ENDBRANCH  30  31
ENDBRANCH  29  30
ENDBRANCH  27  29
ENDBRANCH   1  27
BRANCH  22  38
HETATM   38  C30 UNL     1      -1.251  -3.756  -0.992  1.00  0.00     0.038 C 
BRANCH  38  39
HETATM   39  C31 UNL     1      -0.420  -4.905  -0.536  1.00  0.00    -0.020 C 
HETATM   40  C32 UNL     1       1.022  -4.857  -0.875  1.00  0.00     0.009 C 
HETATM   41  C33 UNL     1      -0.611  -5.292   0.912  1.00  0.00     0.009 C 
ENDBRANCH  38  39
ENDBRANCH  22  38
BRANCH  17  42
HETATM   42  N3  UNL     1      -5.292  -2.428  -1.945  1.00  0.00    -0.349 N 
ATOM     43  H3  UNL     1      -5.526  -1.773  -2.691  1.00  0.00     0.163 HD
BRANCH  42  44
HETATM   44  C27 UNL     1      -5.914  -3.692  -1.918  1.00  0.00     0.349 C 
HETATM   45  O4  UNL     1      -5.723  -4.594  -1.067  1.00  0.00    -0.284 OA
ENDBRANCH  42  44
ENDBRANCH  17  42
BRANCH  14  46
HETATM   46  C23 UNL     1      -6.442   0.107   1.422  1.00  0.00     0.028 C 
HETATM   47  C24 UNL     1      -7.891   0.318   1.766  1.00  0.00     0.007 C 
ENDBRANCH  14  46
BRANCH  10  48
HETATM   48  C19 UNL     1      -6.241   4.033  -0.696  1.00  0.00     0.128 C 
HETATM   49  C20 UNL     1      -5.893   4.207   0.734  1.00  0.00     0.027 C 
ENDBRANCH  10  48
BRANCH  11  50
HETATM   50  O2  UNL     1      -8.140   2.140  -1.330  1.00  0.00    -0.332 OA
ATOM     51  H2  UNL     1      -8.792   1.450  -1.301  1.00  0.00     0.220 HD
ENDBRANCH  11  50
TORSDOF 16
