REMARK  17 active torsions:
REMARK  status: ('A' for Active; 'I' for Inactive)
REMARK    1  A    between atoms: C2_2  and  N1_5 
REMARK       I    between atoms: N1_5  and  C5_7 
REMARK       I    between atoms: C5_7  and  N2_9 
REMARK    2  A    between atoms: N2_9  and  C6_11 
REMARK    3  A    between atoms: C6_11  and  C7_12 
REMARK    4  A    between atoms: C6_11  and  C10_17 
REMARK    5  A    between atoms: C7_12  and  C8_13 
REMARK    6  A    between atoms: C8_13  and  C9_14 
REMARK    7  A    between atoms: C10_17  and  O4_18 
REMARK    8  A    between atoms: C10_17  and  N3_20 
REMARK    9  A    between atoms: C14_24  and  C15_25 
REMARK       I    between atoms: C15_25  and  N4_27 
REMARK   10  A    between atoms: N4_27  and  C16_29 
REMARK   11  A    between atoms: C16_29  and  C17_30 
REMARK   12  A    between atoms: C16_29  and  C25_38 
REMARK   13  A    between atoms: C17_30  and  C18_31 
REMARK   14  A    between atoms: C25_38  and  N5_39 
REMARK   15  A    between atoms: N5_39  and  C26_40 
REMARK   16  A    between atoms: N5_39  and  S1_46 
REMARK   17  A    between atoms: C26_40  and  C27_41 
ROOT
HETATM    1  C15 UNL     1      -0.533   1.252   1.598  1.00  0.00     0.241 C 
HETATM    2  O5  UNL     1      -1.222   0.375   2.164  1.00  0.00    -0.271 OA
HETATM    3  N4  UNL     1      -1.125   1.897   0.487  1.00  0.00    -0.353 N 
ATOM      4  H4  UNL     1      -0.531   2.577   0.012  1.00  0.00     0.163 HD
ENDROOT
BRANCH   1   5
HETATM    5  C14 UNL     1       0.835   1.645   2.025  1.00  0.00     0.178 C 
HETATM    6  N3  UNL     1       1.562   0.526   2.662  1.00  0.00    -0.350 N 
HETATM    7  C11 UNL     1       1.131   0.584   4.020  1.00  0.00     0.126 C 
HETATM    8  C12 UNL     1       1.381   2.088   4.337  1.00  0.00     0.022 C 
HETATM    9  C13 UNL     1       0.826   2.710   3.094  1.00  0.00     0.037 C 
BRANCH   6  10
HETATM   10  C10 UNL     1       2.472  -0.227   1.895  1.00  0.00     0.137 C 
BRANCH  10  11
HETATM   11  C6  UNL     1       3.477  -1.230   2.021  1.00  0.00     0.161 C 
BRANCH  11  12
HETATM   12  N2  UNL     1       3.594  -1.767   0.601  1.00  0.00    -0.331 N 
HETATM   13  C5  UNL     1       4.726  -1.758  -0.155  1.00  0.00     0.317 C 
HETATM   14  N1  UNL     1       4.878  -2.241  -1.471  1.00  0.00    -0.335 N 
HETATM   15  O1  UNL     1       5.791  -1.259   0.377  1.00  0.00    -0.247 OA
ATOM     16  H1  UNL     1       4.057  -2.627  -1.938  1.00  0.00     0.165 HD
ATOM     17  H2  UNL     1       2.755  -2.167   0.181  1.00  0.00     0.165 HD
BRANCH  14  18
HETATM   18  C2  UNL     1       6.123  -2.222  -2.194  1.00  0.00     0.023 C 
HETATM   19  C1  UNL     1       6.589  -0.750  -2.226  1.00  0.00     0.037 C 
HETATM   20  C3  UNL     1       7.214  -3.005  -1.531  1.00  0.00     0.037 C 
HETATM   21  C4  UNL     1       5.854  -2.693  -3.608  1.00  0.00     0.037 C 
ENDBRANCH  14  18
ENDBRANCH  11  12
BRANCH  11  22
HETATM   22  C7  UNL     1       3.467  -2.406   2.880  1.00  0.00     0.044 C 
BRANCH  22  23
HETATM   23  C8  UNL     1       3.484  -2.317   4.347  1.00  0.00     0.116 C 
BRANCH  23  24
HETATM   24  C9  UNL     1       4.677  -1.601   4.885  1.00  0.00     0.172 C 
HETATM   25  O2  UNL     1       5.577  -1.104   4.203  1.00  0.00    -0.648 OA
HETATM   26  O3  UNL     1       4.844  -1.449   6.285  1.00  0.00    -0.648 OA
ENDBRANCH  23  24
ENDBRANCH  22  23
ENDBRANCH  11  22
ENDBRANCH  10  11
BRANCH  10  27
HETATM   27  O4  UNL     1       2.335   0.139   0.589  1.00  0.00    -0.348 OA
ATOM     28  H4  UNL     1       1.665   0.807   0.505  1.00  0.00     0.219 HD
ENDBRANCH  10  27
ENDBRANCH   6  10
ENDBRANCH   1   5
BRANCH   3  29
HETATM   29  C16 UNL     1      -2.447   1.735  -0.074  1.00  0.00     0.099 C 
BRANCH  29  30
HETATM   30  C17 UNL     1      -2.941   3.090  -0.424  1.00  0.00     0.031 C 
BRANCH  30  31
HETATM   31  C18 UNL     1      -4.205   3.414  -1.066  1.00  0.00    -0.013 C 
HETATM   32  C19 UNL     1      -4.414   2.956  -2.451  1.00  0.00     0.005 C 
HETATM   33  C20 UNL     1      -5.879   2.525  -2.612  1.00  0.00     0.000 C 
HETATM   34  C21 UNL     1      -6.729   3.720  -2.288  1.00  0.00     0.000 C 
HETATM   35  C22 UNL     1      -6.167   4.973  -2.854  1.00  0.00     0.000 C 
HETATM   36  C23 UNL     1      -5.010   5.568  -2.135  1.00  0.00     0.000 C 
HETATM   37  C24 UNL     1      -4.571   4.896  -0.887  1.00  0.00     0.005 C 
ENDBRANCH  30  31
ENDBRANCH  29  30
BRANCH  29  38
HETATM   38  C25 UNL     1      -2.658   0.703  -1.079  1.00  0.00     0.132 C 
BRANCH  38  39
HETATM   39  N5  UNL     1      -2.393  -0.697  -0.646  1.00  0.00    -0.209 NA
BRANCH  39  40
HETATM   40  C26 UNL     1      -1.830  -1.299  -1.857  1.00  0.00     0.112 C 
BRANCH  40  41
HETATM   41  C27 UNL     1      -1.279  -2.638  -1.700  1.00  0.00    -0.000 C 
HETATM   42  C28 UNL     1      -0.725  -3.167  -3.043  1.00  0.00     0.006 C 
HETATM   43  C29 UNL     1      -0.244  -4.541  -2.535  1.00  0.00     0.000 C 
HETATM   44  C30 UNL     1       0.275  -4.263  -1.114  1.00  0.00     0.000 C 
HETATM   45  C31 UNL     1      -0.026  -2.772  -0.874  1.00  0.00     0.006 C 
ENDBRANCH  40  41
ENDBRANCH  39  40
BRANCH  39  46
HETATM   46  S1  UNL     1      -3.927  -1.412  -0.301  1.00  0.00     0.207 S 
HETATM   47  C32 UNL     1      -4.741  -0.560   1.004  1.00  0.00     0.180 C 
HETATM   48  O6  UNL     1      -4.844  -1.318  -1.514  1.00  0.00    -0.212 OA
HETATM   49  O7  UNL     1      -3.774  -2.846   0.152  1.00  0.00    -0.212 OA
ENDBRANCH  39  46
ENDBRANCH  38  39
ENDBRANCH  29  38
ENDBRANCH   3  29
TORSDOF 17
