REMARK  13 active torsions:
REMARK  status: ('A' for Active; 'I' for Inactive)
REMARK    1  A    between atoms: C2_2  and  C3_3 
REMARK    2  A    between atoms: C3_3  and  N1_4 
REMARK       I    between atoms: N2_8  and  C7_9 
REMARK       I    between atoms: C7_9  and  N3_11 
REMARK    3  A    between atoms: N3_11  and  C8_13 
REMARK    4  A    between atoms: C8_13  and  C9_14 
REMARK    5  A    between atoms: C12_17  and  C13_18 
REMARK       I    between atoms: C13_18  and  N4_20 
REMARK    6  A    between atoms: N4_20  and  C14_21 
REMARK    7  A    between atoms: C19_26  and  C20_27 
REMARK       I    between atoms: C20_27  and  N5_29 
REMARK    8  A    between atoms: N5_29  and  C21_31 
REMARK    9  A    between atoms: C21_31  and  C29_39 
REMARK   10  A    between atoms: C22_32  and  C23_33 
REMARK   11  A    between atoms: C29_39  and  C30_41 
REMARK       I    between atoms: C30_41  and  N6_43 
REMARK   12  A    between atoms: N6_43  and  C31_44 
REMARK   13  A    between atoms: C31_44  and  C32_45 
ROOT
HETATM    1  N1  UNL     1       0.326  -2.638   0.814  1.00  0.00    -0.378 N 
HETATM    2  C4  UNL     1       0.218  -3.493  -0.291  1.00  0.00     0.089 C 
HETATM    3  C5  UNL     1       1.504  -4.140  -0.639  1.00  0.00     0.070 C 
HETATM    4  C6  UNL     1       2.596  -3.237  -0.860  1.00  0.00     0.071 C 
HETATM    5  N2  UNL     1       2.627  -1.825  -0.448  1.00  0.00    -0.312 N 
HETATM    6  C7  UNL     1       3.980  -1.433  -0.808  1.00  0.00     0.322 C 
HETATM    7  O1  UNL     1       4.449  -1.982  -1.841  1.00  0.00    -0.247 OA
HETATM    8  N3  UNL     1       4.846  -0.523  -0.068  1.00  0.00    -0.342 N 
ATOM      9  H3  UNL     1       4.553   0.051   0.723  1.00  0.00     0.164 HD
HETATM   10  C17 UNL     1       1.744  -0.844   0.068  1.00  0.00     0.159 C 
HETATM   11  C18 UNL     1       0.350  -1.275   0.398  1.00  0.00     0.115 C 
HETATM   12  C19 UNL     1      -0.561  -1.297  -0.803  1.00  0.00     0.104 C 
HETATM   13  C36 UNL     1      -0.093  -2.603  -1.518  1.00  0.00     0.041 C 
ENDROOT
BRANCH  12  14
HETATM   14  C20 UNL     1      -2.018  -1.564  -0.566  1.00  0.00     0.228 C 
HETATM   15  O3  UNL     1      -2.633  -2.533  -1.006  1.00  0.00    -0.273 OA
HETATM   16  N5  UNL     1      -2.737  -0.644   0.190  1.00  0.00    -0.323 N 
ATOM     17  H5  UNL     1      -2.195   0.077   0.667  1.00  0.00     0.169 HD
BRANCH  16  18
HETATM   18  C21 UNL     1      -4.116  -0.601   0.366  1.00  0.00     0.089 C 
HETATM   19  C22 UNL     1      -5.412  -0.853   0.719  1.00  0.00     0.016 C 
BRANCH  19  20
HETATM   20  C23 UNL     1      -6.166  -2.097   0.443  1.00  0.00    -0.024 C 
HETATM   21  C24 UNL     1      -7.521  -1.830   1.125  1.00  0.00     0.019 C 
HETATM   22  C25 UNL     1      -5.738  -3.428   0.859  1.00  0.00     0.013 C 
HETATM   23  C26 UNL     1      -6.334  -4.415  -0.139  1.00  0.00     0.001 C 
HETATM   24  C27 UNL     1      -7.285  -3.591  -0.982  1.00  0.00     0.001 C 
HETATM   25  C28 UNL     1      -6.512  -2.258  -1.065  1.00  0.00     0.013 C 
ENDBRANCH  19  20
BRANCH  18  26
HETATM   26  C29 UNL     1      -4.127   1.017  -0.007  1.00  0.00     0.279 C 
HETATM   27  O4  UNL     1      -3.640   1.329  -1.110  1.00  0.00    -0.279 OA
BRANCH  26  28
HETATM   28  C30 UNL     1      -4.677   1.941   0.967  1.00  0.00     0.363 C 
HETATM   29  O5  UNL     1      -4.931   1.727   2.148  1.00  0.00    -0.248 OA
HETATM   30  N6  UNL     1      -4.892   3.183   0.346  1.00  0.00    -0.408 NA
BRANCH  30  31
HETATM   31  C31 UNL     1      -5.099   4.357  -0.225  1.00  0.00     0.230 C 
BRANCH  31  32
HETATM   32  C32 UNL     1      -6.623   4.706  -0.273  1.00  0.00    -0.024 C 
HETATM   33  C33 UNL     1      -6.872   5.980  -0.976  1.00  0.00     0.017 C 
HETATM   34  C34 UNL     1      -7.213   4.732   1.126  1.00  0.00     0.017 C 
HETATM   35  C35 UNL     1      -7.318   3.529  -0.984  1.00  0.00     0.017 C 
ENDBRANCH  31  32
ENDBRANCH  30  31
ENDBRANCH  26  28
ENDBRANCH  18  26
ENDBRANCH  16  18
ENDBRANCH  12  14
BRANCH   1  36
HETATM   36  C3  UNL     1       0.047  -3.055   2.107  1.00  0.00     0.085 C 
BRANCH  36  37
HETATM   37  C2  UNL     1       0.994  -4.031   2.745  1.00  0.00     0.007 C 
HETATM   38  C1  UNL     1       0.570  -5.233   3.207  1.00  0.00     0.012 C 
ENDBRANCH  36  37
ENDBRANCH   1  36
BRANCH   8  39
HETATM   39  C8  UNL     1       6.185  -0.555  -0.622  1.00  0.00     0.129 C 
BRANCH  39  40
HETATM   40  C9  UNL     1       7.286   0.187  -0.062  1.00  0.00     0.008 C 
HETATM   41  C10 UNL     1       8.532  -0.481  -0.736  1.00  0.00     0.011 C 
HETATM   42  C11 UNL     1       9.075   0.489  -1.717  1.00  0.00     0.041 C 
HETATM   43  C12 UNL     1       8.897   1.755  -0.895  1.00  0.00     0.003 C 
HETATM   44  C16 UNL     1       7.526   1.657  -0.404  1.00  0.00     0.047 C 
BRANCH  43  45
HETATM   45  C13 UNL     1       9.757   2.863  -1.289  1.00  0.00     0.312 C 
HETATM   46  O2  UNL     1      10.426   2.727  -2.341  1.00  0.00    -0.252 OA
HETATM   47  N4  UNL     1       9.791   3.957  -0.425  1.00  0.00    -0.412 NA
BRANCH  47  48
HETATM   48  C14 UNL     1       9.896   5.061   0.355  1.00  0.00     0.217 C 
HETATM   49  C15 UNL     1      11.260   5.165   1.048  1.00  0.00     0.041 C 
ENDBRANCH  47  48
ENDBRANCH  43  45
ENDBRANCH  39  40
ENDBRANCH   8  39
TORSDOF 13
