REMARK  16 active torsions:
REMARK  status: ('A' for Active; 'I' for Inactive)
REMARK    1  A    between atoms: C3_3  and  C4_4 
REMARK    2  A    between atoms: C4_4  and  S1_5 
REMARK    3  A    between atoms: S1_5  and  C5_8 
REMARK    4  A    between atoms: C5_8  and  C6_9 
REMARK    5  A    between atoms: C6_9  and  C7_10 
REMARK    6  A    between atoms: C20_23  and  N1_24 
REMARK    7  A    between atoms: N1_24  and  C21_26 
REMARK    8  A    between atoms: C21_26  and  C22_27 
REMARK    9  A    between atoms: C22_27  and  N2_28 
REMARK   10  A    between atoms: C22_27  and  C23_32 
REMARK   11  A    between atoms: C22_27  and  C25_34 
REMARK   12  A    between atoms: N3_38  and  C28_39 
REMARK   13  A    between atoms: C28_39  and  C29_40 
REMARK   14  A    between atoms: C29_40  and  C30_41 
REMARK   15  A    between atoms: C30_41  and  C31_42 
REMARK   16  A    between atoms: C31_42  and  N4_43 
ROOT
HETATM    1  C7  UNL     1       2.110   0.725  -1.308  1.00  0.00    -0.006 C 
HETATM    2  C8  UNL     1       2.397   2.174  -1.744  1.00  0.00     0.005 C 
HETATM    3  C9  UNL     1       1.445   3.004  -0.865  1.00  0.00     0.007 C 
HETATM    4  C10 UNL     1       0.302   2.069  -0.962  1.00  0.00     0.016 C 
HETATM    5  C11 UNL     1      -0.947   2.469  -0.260  1.00  0.00     0.092 C 
HETATM    6  C12 UNL     1      -0.923   2.542   1.185  1.00  0.00     0.035 C 
HETATM    7  C13 UNL     1      -1.220   1.454   2.087  1.00  0.00    -0.034 C 
HETATM    8  C14 UNL     1      -0.229   1.507   3.267  1.00  0.00     0.010 C 
HETATM    9  C15 UNL     1      -1.013   1.179   4.517  1.00  0.00     0.005 C 
HETATM   10  C16 UNL     1      -2.227   0.507   3.857  1.00  0.00    -0.013 C 
HETATM   11  C17 UNL     1      -1.667  -0.606   3.041  1.00  0.00     0.010 C 
HETATM   12  C18 UNL     1      -1.443   0.076   1.665  1.00  0.00    -0.003 C 
HETATM   13  C19 UNL     1      -0.344  -0.663   0.999  1.00  0.00     0.046 C 
HETATM   14  C20 UNL     1      -0.118  -0.291  -0.477  1.00  0.00     0.112 C 
HETATM   15  C27 UNL     1      -1.512   0.211  -0.855  1.00  0.00     0.248 C 
HETATM   16  O3  UNL     1      -2.404  -0.638  -1.170  1.00  0.00    -0.271 OA
HETATM   17  N3  UNL     1      -1.907   1.559  -0.888  1.00  0.00    -0.345 N 
HETATM   18  C33 UNL     1       0.908   0.770  -0.476  1.00  0.00     0.033 C 
HETATM   19  C34 UNL     1      -2.536   1.644   2.882  1.00  0.00     0.014 C 
ENDROOT
BRANCH  14  20
HETATM   20  N1  UNL     1       0.007  -1.417  -1.288  1.00  0.00    -0.402 N 
ATOM     21  H1  UNL     1      -0.692  -1.494  -2.026  1.00  0.00     0.154 HD
BRANCH  20  22
HETATM   22  C21 UNL     1       0.913  -2.429  -1.251  1.00  0.00     0.153 C 
BRANCH  22  23
HETATM   23  C22 UNL     1       0.534  -3.495  -2.313  1.00  0.00     0.138 C 
BRANCH  23  24
HETATM   24  N2  UNL     1       0.543  -2.888  -3.606  1.00  0.00    -0.069 N 
ATOM     25  H23 UNL     1      -0.056  -2.064  -3.652  1.00  0.00     0.275 HD
ATOM     26  H22 UNL     1       1.431  -2.431  -3.814  1.00  0.00     0.275 HD
ATOM     27  H21 UNL     1       0.294  -3.589  -4.304  1.00  0.00     0.275 HD
ENDBRANCH  23  24
BRANCH  23  28
HETATM   28  C23 UNL     1       1.582  -4.565  -2.207  1.00  0.00     0.036 C 
HETATM   29  C24 UNL     1       2.961  -3.979  -2.487  1.00  0.00     0.007 C 
ENDBRANCH  23  28
BRANCH  23  30
HETATM   30  C25 UNL     1      -0.811  -4.070  -2.053  1.00  0.00     0.036 C 
HETATM   31  C26 UNL     1      -0.888  -4.746  -0.694  1.00  0.00     0.007 C 
ENDBRANCH  23  30
ENDBRANCH  22  23
ENDBRANCH  20  22
ENDBRANCH  14  20
BRANCH  17  32
HETATM   32  C28 UNL     1      -3.128   2.014  -1.514  1.00  0.00     0.126 C 
BRANCH  32  33
HETATM   33  C29 UNL     1      -4.322   2.038  -0.634  1.00  0.00     0.021 C 
BRANCH  33  34
HETATM   34  C30 UNL     1      -5.485   2.554  -1.493  1.00  0.00     0.021 C 
BRANCH  34  35
HETATM   35  C31 UNL     1      -6.757   2.611  -0.693  1.00  0.00     0.122 C 
BRANCH  35  36
HETATM   36  N4  UNL     1      -7.049   1.265  -0.239  1.00  0.00    -0.367 N 
HETATM   37  C32 UNL     1      -8.110   1.000   0.430  1.00  0.00     0.196 C 
HETATM   38  N5  UNL     1      -8.320  -0.341   0.836  1.00  0.00    -0.067 NA
HETATM   39  N6  UNL     1      -9.009   2.041   0.728  1.00  0.00    -0.067 NA
ATOM     40  H4  UNL     1      -6.396   0.512  -0.457  1.00  0.00     0.161 HD
ENDBRANCH  35  36
ENDBRANCH  34  35
ENDBRANCH  33  34
ENDBRANCH  32  33
ENDBRANCH  17  32
BRANCH   1  41
HETATM   41  C6  UNL     1       3.394   0.309  -0.661  1.00  0.00     0.020 C 
BRANCH  41  42
HETATM   42  C5  UNL     1       3.847   1.089   0.512  1.00  0.00     0.141 C 
BRANCH  42  43
HETATM   43  S1  UNL     1       5.404   0.339   1.045  1.00  0.00     0.147 S 
HETATM   44  O1  UNL     1       5.153  -1.111   1.334  1.00  0.00    -0.228 OA
HETATM   45  O2  UNL     1       5.945   1.079   2.228  1.00  0.00    -0.228 OA
BRANCH  43  46
HETATM   46  C4  UNL     1       6.568   0.438  -0.285  1.00  0.00     0.167 C 
BRANCH  46  47
HETATM   47  C3  UNL     1       7.876  -0.147   0.032  1.00  0.00    -0.016 C 
HETATM   48  C2  UNL     1       8.229  -0.709   1.159  1.00  0.00    -0.034 C 
HETATM   49  C1  UNL     1       9.592  -1.261   1.340  1.00  0.00     0.036 C 
ENDBRANCH  46  47
ENDBRANCH  43  46
ENDBRANCH  42  43
ENDBRANCH  41  42
ENDBRANCH   1  41
TORSDOF 16
