REMARK  17 active torsions:
REMARK  status: ('A' for Active; 'I' for Inactive)
REMARK    1  A    between atoms: C2_2  and  C3_3 
REMARK    2  A    between atoms: C3_3  and  C5_5 
REMARK    3  A    between atoms: C5_5  and  N1_6 
REMARK    4  A    between atoms: N1_6  and  C6_7 
REMARK    5  A    between atoms: N1_6  and  C9_10 
REMARK    6  A    between atoms: C9_10  and  C10_11 
REMARK       I    between atoms: C10_11  and  N2_13 
REMARK    7  A    between atoms: N2_13  and  C11_15 
REMARK    8  A    between atoms: C11_15  and  C12_16 
REMARK    9  A    between atoms: C12_16  and  C13_17 
REMARK   10  A    between atoms: C13_17  and  C14_18 
REMARK   11  A    between atoms: C17_23  and  C18_24 
REMARK       I    between atoms: C18_24  and  N3_26 
REMARK   12  A    between atoms: N3_26  and  C19_28 
REMARK   13  A    between atoms: C19_28  and  C20_29 
REMARK   14  A    between atoms: C19_28  and  C22_31 
REMARK   15  A    between atoms: C22_31  and  N4_34 
REMARK   16  A    between atoms: C28_38  and  C29_39 
REMARK       I    between atoms: C29_39  and  N5_41 
REMARK   17  A    between atoms: N5_41  and  C30_43 
ROOT
HETATM    1  C9  UNL     1      -3.334  -0.205  -0.567  1.00  0.00     0.117 C 
HETATM    2  C15 UNL     1      -3.011   0.480  -1.851  1.00  0.00     0.042 C 
HETATM    3  C16 UNL     1      -1.594   1.068  -1.945  1.00  0.00     0.017 C 
HETATM    4  C17 UNL     1      -1.316   2.003  -0.830  1.00  0.00     0.078 C 
HETATM    5  C34 UNL     1      -1.550   1.282   0.445  1.00  0.00     0.017 C 
HETATM    6  C35 UNL     1      -2.001  -0.161   0.214  1.00  0.00     0.042 C 
ENDROOT
BRANCH   4   7
HETATM    7  C18 UNL     1       0.059   2.599  -0.971  1.00  0.00     0.222 C 
HETATM    8  O4  UNL     1       0.090   3.829  -0.617  1.00  0.00    -0.273 OA
HETATM    9  N3  UNL     1       1.166   1.914  -1.422  1.00  0.00    -0.354 N 
ATOM     10  H3  UNL     1       0.954   0.941  -1.641  1.00  0.00     0.163 HD
BRANCH   9  11
HETATM   11  C19 UNL     1       2.543   2.236  -1.658  1.00  0.00     0.111 C 
BRANCH  11  12
HETATM   12  C20 UNL     1       2.804   3.751  -1.547  1.00  0.00     0.023 C 
HETATM   13  C21 UNL     1       2.102   4.571  -2.572  1.00  0.00     0.007 C 
ENDBRANCH  11  12
BRANCH  11  14
HETATM   14  C22 UNL     1       3.470   1.522  -0.754  1.00  0.00     0.042 C 
HETATM   15  C23 UNL     1       3.223   1.999   0.663  1.00  0.00     0.040 C 
HETATM   16  C24 UNL     1       2.819   0.065  -0.649  1.00  0.00     0.040 C 
BRANCH  14  17
HETATM   17  N4  UNL     1       4.782   1.294  -1.044  1.00  0.00    -0.390 N 
HETATM   18  C25 UNL     1       5.805   2.180  -1.278  1.00  0.00     0.118 C 
HETATM   19  C26 UNL     1       6.999   1.392  -1.850  1.00  0.00     0.022 C 
HETATM   20  C27 UNL     1       6.460   0.019  -2.011  1.00  0.00     0.036 C 
HETATM   21  C28 UNL     1       5.324  -0.043  -0.956  1.00  0.00     0.172 C 
BRANCH  21  22
HETATM   22  C29 UNL     1       6.038  -0.228   0.326  1.00  0.00     0.240 C 
HETATM   23  O5  UNL     1       6.078   0.748   1.129  1.00  0.00    -0.271 OA
HETATM   24  N5  UNL     1       6.662  -1.472   0.642  1.00  0.00    -0.351 N 
ATOM     25  H5  UNL     1       6.616  -2.236  -0.032  1.00  0.00     0.163 HD
BRANCH  24  26
HETATM   26  C30 UNL     1       7.360  -1.677   1.897  1.00  0.00     0.022 C 
HETATM   27  C31 UNL     1       6.360  -1.530   3.008  1.00  0.00     0.037 C 
HETATM   28  C32 UNL     1       8.432  -0.616   2.085  1.00  0.00     0.037 C 
HETATM   29  C33 UNL     1       7.943  -3.060   1.914  1.00  0.00     0.037 C 
ENDBRANCH  24  26
ENDBRANCH  21  22
ENDBRANCH  14  17
ENDBRANCH  11  14
ENDBRANCH   9  11
ENDBRANCH   4   7
BRANCH   1  30
HETATM   30  N1  UNL     1      -3.872  -1.521  -0.649  1.00  0.00    -0.346 N 
BRANCH  30  31
HETATM   31  C5  UNL     1      -3.002  -2.547  -0.346  1.00  0.00     0.094 C 
BRANCH  31  32
HETATM   32  C3  UNL     1      -3.331  -3.810   0.358  1.00  0.00    -0.069 C 
HETATM   33  C4  UNL     1      -4.081  -4.866  -0.417  1.00  0.00     0.044 C 
BRANCH  32  34
HETATM   34  C2  UNL     1      -3.867  -3.679   1.761  1.00  0.00     0.030 C 
HETATM   35  C1  UNL     1      -3.769  -4.952   2.562  1.00  0.00     0.010 C 
ENDBRANCH  32  34
ENDBRANCH  31  32
ENDBRANCH  30  31
BRANCH  30  36
HETATM   36  C6  UNL     1      -4.921  -1.762  -1.547  1.00  0.00    -0.018 C 
HETATM   37  C7  UNL     1      -4.712  -2.135  -2.958  1.00  0.00     0.063 C 
HETATM   38  C8  UNL     1      -6.026  -0.734  -1.538  1.00  0.00     0.063 C 
ENDBRANCH  30  36
ENDBRANCH   1  30
BRANCH   1  39
HETATM   39  C10 UNL     1      -4.150   0.678   0.363  1.00  0.00     0.246 C 
HETATM   40  O1  UNL     1      -4.307   1.907   0.167  1.00  0.00    -0.271 OA
HETATM   41  N2  UNL     1      -4.764   0.137   1.496  1.00  0.00    -0.359 N 
ATOM     42  H2  UNL     1      -4.647  -0.858   1.686  1.00  0.00     0.162 HD
BRANCH  41  43
HETATM   43  C11 UNL     1      -5.569   0.938   2.424  1.00  0.00     0.123 C 
BRANCH  43  44
HETATM   44  C12 UNL     1      -6.783   1.534   1.779  1.00  0.00     0.030 C 
BRANCH  44  45
HETATM   45  C13 UNL     1      -7.544   2.362   2.791  1.00  0.00     0.114 C 
BRANCH  45  46
HETATM   46  C14 UNL     1      -6.762   3.507   3.292  1.00  0.00     0.172 C 
HETATM   47  O2  UNL     1      -7.180   4.135   4.293  1.00  0.00    -0.648 OA
HETATM   48  O3  UNL     1      -5.582   3.944   2.721  1.00  0.00    -0.648 OA
ENDBRANCH  45  46
ENDBRANCH  44  45
ENDBRANCH  43  44
ENDBRANCH  41  43
ENDBRANCH   1  39
TORSDOF 17
