REMARK  10 active torsions:
REMARK  status: ('A' for Active; 'I' for Inactive)
REMARK    1  A    between atoms: C2_2  and  C33_43 
REMARK    2  A    between atoms: C3_3  and  C4_4 
REMARK    3  A    between atoms: C20_25  and  O2_26 
REMARK    4  A    between atoms: O2_26  and  C21_27 
REMARK    5  A    between atoms: C21_27  and  C22_28 
REMARK    6  A    between atoms: C22_28  and  N3_29 
REMARK    7  A    between atoms: N3_29  and  C23_32 
REMARK    8  A    between atoms: C23_32  and  C24_33 
REMARK    9  A    between atoms: C24_33  and  C25_34 
REMARK   10  A    between atoms: C25_34  and  N4_35 
ROOT
HETATM    1  C4  UNL     1      -6.355   0.505  -0.567  1.00  0.00     0.116 C 
HETATM    2  N1  UNL     1      -7.163   1.604  -1.124  1.00  0.00    -0.335 N 
ATOM      3  H1  UNL     1      -7.961   1.440  -1.738  1.00  0.00     0.165 HD
HETATM    4  C5  UNL     1      -6.743   2.927  -0.737  1.00  0.00     0.317 C 
HETATM    5  O1  UNL     1      -7.405   3.904  -1.197  1.00  0.00    -0.247 OA
HETATM    6  N2  UNL     1      -5.633   3.128   0.122  1.00  0.00    -0.338 N 
ATOM      7  H2  UNL     1      -5.508   4.043   0.554  1.00  0.00     0.164 HD
HETATM    8  C6  UNL     1      -4.672   2.089   0.410  1.00  0.00     0.092 C 
HETATM    9  C7  UNL     1      -3.255   2.540   0.173  1.00  0.00     0.026 C 
HETATM   10  C8  UNL     1      -2.653   2.006  -1.073  1.00  0.00     0.012 C 
HETATM   11  C9  UNL     1      -2.680   0.473  -1.173  1.00  0.00    -0.036 C 
HETATM   12  C10 UNL     1      -2.817   0.236  -2.694  1.00  0.00     0.016 C 
HETATM   13  C11 UNL     1      -3.895  -0.113  -0.547  1.00  0.00     0.002 C 
HETATM   14  C12 UNL     1      -3.726  -0.729   0.790  1.00  0.00     0.006 C 
HETATM   15  C13 UNL     1      -2.353  -0.716   1.373  1.00  0.00     0.006 C 
HETATM   16  C14 UNL     1      -1.349  -1.059   0.354  1.00  0.00    -0.001 C 
HETATM   17  C15 UNL     1      -1.381  -0.049  -0.759  1.00  0.00    -0.001 C 
HETATM   18  C16 UNL     1      -0.548  -0.676  -1.892  1.00  0.00     0.007 C 
HETATM   19  C17 UNL     1       0.903  -0.815  -1.437  1.00  0.00     0.013 C 
HETATM   20  C18 UNL     1       0.948  -1.591  -0.189  1.00  0.00    -0.010 C 
HETATM   21  C19 UNL     1       0.796  -3.057  -0.400  1.00  0.00     0.018 C 
HETATM   22  C20 UNL     1       2.279  -1.409   0.581  1.00  0.00     0.130 C 
HETATM   23  C28 UNL     1       1.900  -2.038   1.890  1.00  0.00     0.033 C 
HETATM   24  C29 UNL     1       0.369  -2.004   1.986  1.00  0.00     0.013 C 
HETATM   25  C30 UNL     1       0.037  -1.036   0.907  1.00  0.00    -0.030 C 
HETATM   26  C31 UNL     1       0.512   0.310   1.321  1.00  0.00     0.016 C 
HETATM   27  C32 UNL     1      -4.943   0.980  -0.581  1.00  0.00     0.040 C 
ENDROOT
BRANCH  22  28
HETATM   28  O2  UNL     1       3.289  -2.088  -0.064  1.00  0.00    -0.383 OA
BRANCH  28  29
HETATM   29  C21 UNL     1       4.275  -1.297  -0.599  1.00  0.00     0.195 C 
BRANCH  29  30
HETATM   30  C22 UNL     1       5.026  -0.432   0.368  1.00  0.00     0.258 C 
BRANCH  30  31
HETATM   31  N3  UNL     1       6.006   0.346  -0.342  1.00  0.00    -0.073 N 
ATOM     32  H32 UNL     1       5.574   0.869  -1.104  1.00  0.00     0.277 HD
ATOM     33  H31 UNL     1       6.336   1.125   0.229  1.00  0.00     0.277 HD
BRANCH  31  34
HETATM   34  C23 UNL     1       7.094  -0.431  -0.815  1.00  0.00     0.234 C 
BRANCH  34  35
HETATM   35  C24 UNL     1       8.072   0.403  -1.625  1.00  0.00     0.057 C 
BRANCH  35  36
HETATM   36  C25 UNL     1       8.623   1.542  -0.845  1.00  0.00     0.273 C 
BRANCH  36  37
HETATM   37  N4  UNL     1       9.344   1.174   0.355  1.00  0.00     0.080 N 
HETATM   38  C26 UNL     1      10.561   0.497  -0.050  1.00  0.00     0.309 C 
HETATM   39  C27 UNL     1       9.767   2.429   0.991  1.00  0.00     0.309 C 
ENDBRANCH  36  37
ENDBRANCH  35  36
ENDBRANCH  34  35
ENDBRANCH  31  34
ENDBRANCH  30  31
ENDBRANCH  29  30
ENDBRANCH  28  29
ENDBRANCH  22  28
BRANCH   1  40
HETATM   40  C3  UNL     1      -6.922   0.238   0.752  1.00  0.00     0.012 C 
HETATM   41  C2  UNL     1      -7.864  -0.673   0.885  1.00  0.00     0.013 C 
HETATM   42  C1  UNL     1      -8.359  -1.440  -0.312  1.00  0.00     0.055 C 
BRANCH  41  43
HETATM   43  C33 UNL     1      -8.443  -0.954   2.181  1.00  0.00     0.204 C 
HETATM   44  O3  UNL     1      -8.066  -0.346   3.205  1.00  0.00    -0.644 OA
HETATM   45  O4  UNL     1      -9.433  -1.909   2.306  1.00  0.00    -0.644 OA
ENDBRANCH  41  43
ENDBRANCH   1  40
TORSDOF 10
