REMARK  11 active torsions:
REMARK  status: ('A' for Active; 'I' for Inactive)
REMARK    1  A    between atoms: C7_7  and  C8_8 
REMARK    2  A    between atoms: C15_19  and  O1_20 
REMARK    3  A    between atoms: C16_22  and  O2_23 
REMARK    4  A    between atoms: C19_27  and  C20_28 
REMARK    5  A    between atoms: C20_28  and  C22_30 
REMARK    6  A    between atoms: C22_30  and  C23_31 
REMARK    7  A    between atoms: C23_31  and  C24_32 
REMARK       I    between atoms: C24_32  and  N3_34 
REMARK    8  A    between atoms: N3_34  and  C25_36 
REMARK    9  A    between atoms: C25_36  and  C26_37 
REMARK   10  A    between atoms: C26_37  and  C27_38 
REMARK   11  A    between atoms: C27_38  and  N4_39 
ROOT
HETATM    1  C1  UNL     1      -5.268  -1.190  -3.384  1.00  0.00     0.098 C 
HETATM    2  C2  UNL     1      -5.463  -0.608  -2.325  1.00  0.00    -0.177 C 
HETATM    3  C3  UNL     1      -5.721   0.083  -1.027  1.00  0.00     0.019 C 
HETATM    4  C4  UNL     1      -6.388   1.346  -1.508  1.00  0.00     0.022 C 
HETATM    5  C5  UNL     1      -6.932   2.192  -0.404  1.00  0.00     0.002 C 
HETATM    6  C6  UNL     1      -8.105   1.436   0.129  1.00  0.00     0.012 C 
HETATM    7  C7  UNL     1      -7.814   0.030   0.482  1.00  0.00     0.055 C 
HETATM    8  C9  UNL     1      -6.700  -0.658  -0.173  1.00  0.00     0.016 C 
HETATM    9  C10 UNL     1      -6.038  -1.559   0.850  1.00  0.00     0.007 C 
HETATM   10  C11 UNL     1      -4.708  -2.017   0.299  1.00  0.00     0.006 C 
HETATM   11  C12 UNL     1      -3.811  -0.771   0.388  1.00  0.00    -0.004 C 
HETATM   12  C13 UNL     1      -4.388   0.360  -0.321  1.00  0.00     0.012 C 
HETATM   13  C14 UNL     1      -3.451   1.152  -1.188  1.00  0.00     0.041 C 
HETATM   14  C15 UNL     1      -2.343   1.744  -0.392  1.00  0.00     0.148 C 
HETATM   15  C16 UNL     1      -1.807   1.019   0.748  1.00  0.00     0.155 C 
HETATM   16  C17 UNL     1      -1.284  -0.362   0.648  1.00  0.00    -0.008 C 
HETATM   17  C18 UNL     1      -0.956  -0.722   2.109  1.00  0.00     0.019 C 
HETATM   18  C19 UNL     1      -0.177  -0.634  -0.264  1.00  0.00     0.001 C 
HETATM   19  C32 UNL     1      -0.544  -1.821  -1.133  1.00  0.00     0.006 C 
HETATM   20  C33 UNL     1      -2.053  -1.948  -1.040  1.00  0.00     0.006 C 
HETATM   21  C34 UNL     1      -2.457  -1.267   0.210  1.00  0.00     0.001 C 
ENDROOT
BRANCH   7  22
HETATM   22  C8  UNL     1      -7.835  -0.042   1.984  1.00  0.00     0.091 C 
HETATM   23  N1  UNL     1      -7.574   0.948   2.759  1.00  0.00    -0.391 N 
ATOM     24  H12 UNL     1      -7.355   1.814   2.267  1.00  0.00     0.157 HD
ATOM     25  H11 UNL     1      -7.588   0.899   3.778  1.00  0.00     0.157 HD
HETATM   26  N2  UNL     1      -8.143  -1.260   2.676  1.00  0.00    -0.088 NA
ENDBRANCH   7  22
BRANCH  14  27
HETATM   27  O1  UNL     1      -1.372   2.295  -1.265  1.00  0.00    -0.393 OA
ATOM     28  H1  UNL     1      -0.664   2.673  -0.757  1.00  0.00     0.210 HD
ENDBRANCH  14  27
BRANCH  15  29
HETATM   29  O2  UNL     1      -0.906   1.921   1.374  1.00  0.00    -0.392 OA
ATOM     30  H2  UNL     1      -0.556   1.447   2.119  1.00  0.00     0.210 HD
ENDBRANCH  15  29
BRANCH  18  31
HETATM   31  C20 UNL     1       1.228  -0.851   0.151  1.00  0.00    -0.010 C 
HETATM   32  C21 UNL     1       2.036  -1.120  -1.081  1.00  0.00     0.010 C 
BRANCH  31  33
HETATM   33  C22 UNL     1       1.881   0.069   1.048  1.00  0.00     0.037 C 
BRANCH  33  34
HETATM   34  C23 UNL     1       3.293  -0.131   1.450  1.00  0.00     0.048 C 
BRANCH  34  35
HETATM   35  C24 UNL     1       4.387   0.065   0.540  1.00  0.00     0.237 C 
HETATM   36  O3  UNL     1       4.313   0.773  -0.484  1.00  0.00    -0.269 OA
HETATM   37  N3  UNL     1       5.641  -0.561   0.779  1.00  0.00    -0.358 N 
ATOM     38  H3  UNL     1       5.739  -1.149   1.607  1.00  0.00     0.162 HD
BRANCH  37  39
HETATM   39  C25 UNL     1       6.780  -0.408  -0.088  1.00  0.00     0.124 C 
BRANCH  39  40
HETATM   40  C26 UNL     1       7.262   0.993  -0.245  1.00  0.00     0.050 C 
BRANCH  40  41
HETATM   41  C27 UNL     1       8.469   0.938  -1.192  1.00  0.00     0.274 C 
BRANCH  41  42
HETATM   42  N4  UNL     1       9.512   0.100  -0.624  1.00  0.00     0.088 N 
HETATM   43  C28 UNL     1      10.620   0.091  -1.560  1.00  0.00     0.272 C 
HETATM   44  C29 UNL     1      11.871   0.178  -0.759  1.00  0.00     0.032 C 
HETATM   45  C30 UNL     1      11.484   0.669   0.592  1.00  0.00     0.032 C 
HETATM   46  C31 UNL     1       9.995   0.746   0.566  1.00  0.00     0.272 C 
ENDBRANCH  41  42
ENDBRANCH  40  41
ENDBRANCH  39  40
ENDBRANCH  37  39
ENDBRANCH  34  35
ENDBRANCH  33  34
ENDBRANCH  31  33
ENDBRANCH  18  31
TORSDOF 11
