REMARK  12 active torsions:
REMARK  status: ('A' for Active; 'I' for Inactive)
REMARK    1  A    between atoms: C2_2  and  C3_3 
REMARK    2  A    between atoms: C3_3  and  C5_5 
REMARK    3  A    between atoms: C6_8  and  O1_9 
REMARK    4  A    between atoms: C7_11  and  C8_12 
REMARK    5  A    between atoms: C8_12  and  C9_13 
REMARK    6  A    between atoms: C13_20  and  C14_21 
REMARK    7  A    between atoms: C14_21  and  C15_22 
REMARK    8  A    between atoms: C19_28  and  C20_29 
REMARK    9  A    between atoms: C20_29  and  C21_30 
REMARK   10  A    between atoms: N5_39  and  C27_40 
REMARK   11  A    between atoms: C27_40  and  C28_41 
REMARK   12  A    between atoms: C31_44  and  O4_45 
ROOT
HETATM    1  C5  UNL     1      -3.253   0.976   0.590  1.00  0.00     0.066 C 
HETATM    2  N1  UNL     1      -2.689   2.098  -0.083  1.00  0.00    -0.338 N 
ATOM      3  H1  UNL     1      -3.233   2.941   0.101  1.00  0.00     0.167 HD
HETATM    4  C6  UNL     1      -1.622   2.375  -0.910  1.00  0.00     0.139 C 
HETATM    5  C7  UNL     1      -0.171   2.568  -0.691  1.00  0.00     0.159 C 
HETATM    6  N2  UNL     1       0.264   2.261   0.667  1.00  0.00    -0.347 N 
ATOM      7  H2  UNL     1      -0.336   2.599   1.419  1.00  0.00     0.163 HD
HETATM    8  C12 UNL     1       1.393   1.566   1.055  1.00  0.00     0.240 C 
HETATM    9  O2  UNL     1       1.593   1.376   2.307  1.00  0.00    -0.271 OA
HETATM   10  C13 UNL     1       2.447   0.989   0.170  1.00  0.00     0.170 C 
HETATM   11  N3  UNL     1       1.987  -0.134  -0.498  1.00  0.00    -0.404 N 
ATOM     12  H3  UNL     1       1.197  -0.037  -1.136  1.00  0.00     0.154 HD
HETATM   13  C18 UNL     1       2.574  -1.411  -0.328  1.00  0.00     0.167 C 
HETATM   14  C19 UNL     1       1.986  -2.327   0.685  1.00  0.00     0.007 C 
HETATM   15  N4  UNL     1       0.729  -1.921   1.282  1.00  0.00    -0.331 N 
ATOM     16  H4  UNL     1       0.823  -1.433   2.173  1.00  0.00     0.168 HD
HETATM   17  C24 UNL     1      -0.595  -2.083   0.847  1.00  0.00     0.244 C 
HETATM   18  O3  UNL     1      -1.301  -2.783   1.681  1.00  0.00    -0.271 OA
HETATM   19  C25 UNL     1      -1.287  -1.615  -0.337  1.00  0.00     0.179 C 
HETATM   20  C26 UNL     1      -0.906  -2.317  -1.637  1.00  0.00     0.043 C 
HETATM   21  N5  UNL     1      -2.759  -1.506  -0.257  1.00  0.00    -0.326 N 
HETATM   22  C31 UNL     1      -3.453  -0.271  -0.160  1.00  0.00     0.166 C 
ENDROOT
BRANCH   1  23
HETATM   23  C3  UNL     1      -2.819   0.816   2.035  1.00  0.00     0.036 C 
HETATM   24  C4  UNL     1      -3.647  -0.287   2.716  1.00  0.00     0.016 C 
BRANCH  23  25
HETATM   25  C2  UNL     1      -3.215   2.114   2.756  1.00  0.00     0.006 C 
HETATM   26  C1  UNL     1      -4.657   2.443   2.668  1.00  0.00     0.006 C 
ENDBRANCH  23  25
ENDBRANCH   1  23
BRANCH  22  27
HETATM   27  O4  UNL     1      -4.520  -0.235  -0.915  1.00  0.00    -0.344 OA
ATOM     28  H4  UNL     1      -4.649  -1.042  -1.400  1.00  0.00     0.219 HD
ENDBRANCH  22  27
BRANCH   4  29
HETATM   29  O1  UNL     1      -1.911   2.504  -2.173  1.00  0.00    -0.348 OA
ATOM     30  H1  UNL     1      -1.175   2.695  -2.743  1.00  0.00     0.219 HD
ENDBRANCH   4  29
BRANCH  21  31
HETATM   31  C27 UNL     1      -3.493  -2.781  -0.320  1.00  0.00     0.071 C 
BRANCH  31  32
HETATM   32  C28 UNL     1      -3.880  -3.387  -1.574  1.00  0.00     0.016 C 
HETATM   33  C29 UNL     1      -4.612  -4.693  -1.111  1.00  0.00     0.015 C 
HETATM   34  C30 UNL     1      -4.884  -2.794  -2.482  1.00  0.00     0.015 C 
ENDBRANCH  31  32
ENDBRANCH  21  31
BRANCH   5  35
HETATM   35  C8  UNL     1       0.158   4.033  -0.857  1.00  0.00     0.037 C 
BRANCH  35  36
HETATM   36  C9  UNL     1      -0.129   4.651  -2.166  1.00  0.00    -0.020 C 
HETATM   37  C10 UNL     1       0.645   3.962  -3.260  1.00  0.00     0.009 C 
HETATM   38  C11 UNL     1       0.470   6.087  -2.114  1.00  0.00     0.009 C 
ENDBRANCH  35  36
ENDBRANCH   5  35
BRANCH  10  39
HETATM   39  C14 UNL     1       3.774   0.835   0.877  1.00  0.00     0.038 C 
BRANCH  39  40
HETATM   40  C15 UNL     1       4.301   2.166   1.369  1.00  0.00    -0.020 C 
HETATM   41  C16 UNL     1       5.644   1.889   2.065  1.00  0.00     0.009 C 
HETATM   42  C17 UNL     1       4.622   3.098   0.220  1.00  0.00     0.009 C 
ENDBRANCH  39  40
ENDBRANCH  10  39
BRANCH  14  43
HETATM   43  C20 UNL     1       2.046  -3.795   0.326  1.00  0.00     0.058 C 
BRANCH  43  44
HETATM   44  C21 UNL     1       3.380  -4.388   0.127  1.00  0.00    -0.017 C 
HETATM   45  C22 UNL     1       4.309  -4.295   1.315  1.00  0.00     0.010 C 
HETATM   46  C23 UNL     1       4.023  -4.087  -1.184  1.00  0.00     0.010 C 
ENDBRANCH  43  44
ENDBRANCH  14  43
TORSDOF 12
