REMARK  1 active torsions:
REMARK  status: ('A' for Active; 'I' for Inactive)
REMARK    1  A    between atoms: C2_2  and  C3_3 
ROOT
HETATM    1  C1  UNL     1      -1.079  -1.248   0.609  1.00  0.00     0.026 C 
HETATM    2  C2  UNL     1      -0.270  -0.219  -0.142  1.00  0.00     0.047 C 
HETATM    3  C4  UNL     1       0.978  -0.670  -0.787  1.00  0.00     0.038 C 
HETATM    4  C5  UNL     1       1.503  -0.885   0.612  1.00  0.00     0.017 C 
HETATM    5  C6  UNL     1       0.805   0.452   0.674  1.00  0.00     0.038 C 
HETATM    6  C7  UNL     1       1.487   0.738  -0.606  1.00  0.00     0.180 C 
HETATM    7  F1  UNL     1       2.858   0.848  -0.495  1.00  0.00    -0.249 F 
ENDROOT
BRANCH   2   8
HETATM    8  C3  UNL     1      -1.140   0.730  -0.869  1.00  0.00     0.240 C 
HETATM    9  N1  UNL     1      -1.985   1.556  -0.081  1.00  0.00    -0.061 NA
HETATM   10  O1  UNL     1      -1.132   0.799  -2.126  1.00  0.00    -0.276 OA
ENDBRANCH   2   8
TORSDOF 1
