REMARK  1 active torsions:
REMARK  status: ('A' for Active; 'I' for Inactive)
REMARK       I    between atoms: N2_4  and  C3_6 
REMARK    1  A    between atoms: C3_6  and  C4_8 
ROOT
HETATM    1  C1  UNL     1      -3.069  -0.887   0.779  1.00  0.00     0.085 C 
HETATM    2  C2  UNL     1      -1.815  -0.145   0.569  1.00  0.00     0.091 C 
HETATM    3  N1  UNL     1      -1.829   1.103  -0.079  1.00  0.00    -0.088 NA
HETATM    4  N2  UNL     1      -0.714  -0.645   0.980  1.00  0.00    -0.319 N 
ATOM      5  H2  UNL     1      -0.716  -1.551   1.449  1.00  0.00     0.169 HD
HETATM    6  C3  UNL     1       0.513   0.045   0.792  1.00  0.00     0.226 C 
HETATM    7  O1  UNL     1       0.684   1.102   1.457  1.00  0.00    -0.273 OA
ENDROOT
BRANCH   6   8
HETATM    8  C4  UNL     1       1.537  -0.457  -0.138  1.00  0.00     0.078 A 
HETATM    9  C5  UNL     1       2.406   0.578  -0.835  1.00  0.00     0.015 A 
HETATM   10  C6  UNL     1       3.002  -0.329   0.218  1.00  0.00     0.015 A 
ENDBRANCH   6   8
TORSDOF 1
