REMARK  1 active torsions:
REMARK  status: ('A' for Active; 'I' for Inactive)
REMARK    1  A    between atoms: C2_2  and  C3_4 
ROOT
HETATM    1  C3  UNL     1      -0.142  -0.534  -0.025  1.00  0.00     0.250 A 
HETATM    2  C4  UNL     1      -1.415  -0.159   0.673  1.00  0.00     0.271 A 
HETATM    3  N1  UNL     1      -1.403  -0.788  -0.659  1.00  0.00    -0.062 N 
ATOM      4  H11 UNL     1      -1.841  -1.622  -1.050  1.00  0.00     0.278 HD
ATOM      5  H12 UNL     1      -1.803  -0.535  -1.563  1.00  0.00     0.278 HD
ENDROOT
BRANCH   1   6
HETATM    6  C2  UNL     1       0.715   0.564  -0.465  1.00  0.00     0.011 C 
HETATM    7  C1  UNL     1       1.952   0.674  -0.010  1.00  0.00     0.029 C 
HETATM    8 BR1  UNL     1       0.087   1.866  -1.699  1.00  0.00    -0.054 Br
ENDBRANCH   1   6
TORSDOF 1
