REMARK  1 active torsions:
REMARK  status: ('A' for Active; 'I' for Inactive)
REMARK    1  A    between atoms: C6_6  and  C7_7 
ROOT
HETATM    1  C1  UNL     1      -1.209  -1.500   0.489  1.00  0.00     0.011 C 
HETATM    2  C2  UNL     1      -0.608  -0.382  -0.303  1.00  0.00    -0.006 C 
HETATM    3  C3  UNL     1      -1.569   0.794  -0.247  1.00  0.00     0.005 C 
HETATM    4  C4  UNL     1      -0.743   2.033  -0.131  1.00  0.00     0.001 C 
HETATM    5  C5  UNL     1       0.672   1.550  -0.444  1.00  0.00     0.014 C 
HETATM    6  C6  UNL     1       0.642   0.188   0.262  1.00  0.00     0.079 C 
ENDROOT
BRANCH   6   7
HETATM    7  C7  UNL     1       1.865  -0.534  -0.076  1.00  0.00     0.235 C 
HETATM    8  N1  UNL     1       2.066  -1.894   0.277  1.00  0.00    -0.062 NA
HETATM    9  O1  UNL     1       2.814   0.024  -0.708  1.00  0.00    -0.276 OA
ENDBRANCH   6   7
TORSDOF 1
