REMARK  3 active torsions:
REMARK  status: ('A' for Active; 'I' for Inactive)
REMARK    1  A    between atoms: N1_2  and  N2_3 
REMARK    2  A    between atoms: N1_2  and  N3_6 
REMARK    3  A    between atoms: C2_8  and  C3_9 
ROOT
HETATM    1  N3  UNL     1      -0.634   0.365  -0.518  1.00  0.00    -0.294 N 
ATOM      2  H3  UNL     1      -0.279   0.722  -1.405  1.00  0.00     0.187 HD
HETATM    3  C2  UNL     1       0.159  -0.172   0.347  1.00  0.00     0.145 C 
ENDROOT
BRANCH   1   4
HETATM    4  N1  UNL     1      -1.980   0.442  -0.206  1.00  0.00    -0.246 N 
HETATM    5  C1  UNL     1      -2.807  -0.719  -0.222  1.00  0.00     0.199 C 
BRANCH   4   6
HETATM    6  N2  UNL     1      -2.500   1.684   0.125  1.00  0.00    -0.329 N 
ATOM      7  H22 UNL     1      -3.492   1.741   0.355  1.00  0.00     0.178 HD
ATOM      8  H21 UNL     1      -1.908   2.515   0.136  1.00  0.00     0.178 HD
ENDBRANCH   4   6
ENDBRANCH   1   4
BRANCH   3   9
HETATM    9  C3  UNL     1       1.587  -0.264   0.036  1.00  0.00     0.091 A 
HETATM   10  C4  UNL     1       2.569  -0.805   0.844  1.00  0.00     0.040 A 
HETATM   11  C5  UNL     1       3.778  -0.697   0.184  1.00  0.00     0.027 A 
HETATM   12  C6  UNL     1       3.466  -0.082  -1.020  1.00  0.00     0.142 A 
HETATM   13  O1  UNL     1       2.184   0.140  -1.040  1.00  0.00    -0.321 OA
ENDBRANCH   3   9
TORSDOF 3
