REMARK  3 active torsions:
REMARK  status: ('A' for Active; 'I' for Inactive)
REMARK    1  A    between atoms: N1_1  and  C1_4 
REMARK    2  A    between atoms: C3_6  and  N2_7 
REMARK    3  A    between atoms: N4_13  and  O1_14 
ROOT
HETATM    1  C1  UNL     1      -1.804   0.780  -0.378  1.00  0.00     0.128 A 
HETATM    2  C2  UNL     1      -0.443   0.601  -0.517  1.00  0.00     0.079 A 
HETATM    3  C3  UNL     1       0.149  -0.555  -0.048  1.00  0.00     0.037 A 
HETATM    4  C5  UNL     1      -0.685  -1.476   0.543  1.00  0.00     0.049 A 
HETATM    5  C6  UNL     1      -2.041  -1.254   0.660  1.00  0.00     0.127 A 
HETATM    6  N4  UNL     1      -2.613  -0.125   0.201  1.00  0.00    -0.220 N 
ENDROOT
BRANCH   3   7
HETATM    7  N2  UNL     1       1.557  -0.765  -0.179  1.00  0.00    -0.354 N 
HETATM    8  C4  UNL     1       2.401   0.181   0.102  1.00  0.00     0.190 C 
HETATM    9  N3  UNL     1       3.797   0.022  -0.011  1.00  0.00    -0.097 NA
ATOM     10  H2  UNL     1       1.903  -1.670  -0.497  1.00  0.00     0.166 HD
ENDBRANCH   3   7
BRANCH   1  11
HETATM   11  N1  UNL     1      -2.369   1.859  -0.815  1.00  0.00    -0.384 N 
ATOM     12  H12 UNL     1      -1.755   2.545  -1.254  1.00  0.00     0.157 HD
ATOM     13  H11 UNL     1      -3.375   1.991  -0.712  1.00  0.00     0.157 HD
ENDBRANCH   1  11
BRANCH   6  14
HETATM   14  O1  UNL     1      -3.976   0.088   0.324  1.00  0.00    -0.282 OA
ATOM     15  H1  UNL     1      -4.547  -0.551   0.733  1.00  0.00     0.245 HD
ENDBRANCH   6  14
TORSDOF 3
