REMARK  1 active torsions:
REMARK  status: ('A' for Active; 'I' for Inactive)
REMARK    1  A    between atoms: C3_3  and  C4_4 
ROOT
HETATM    1  C1  UNL     1       2.954  -0.459   1.077  1.00  0.00     0.012 C 
HETATM    2  C2  UNL     1       2.154  -0.588   0.169  1.00  0.00    -0.113 C 
HETATM    3  C3  UNL     1       1.204  -0.754  -0.936  1.00  0.00     0.133 C 
ENDROOT
BRANCH   3   4
HETATM    4  C4  UNL     1      -0.033   0.058  -0.672  1.00  0.00    -0.019 A 
HETATM    5  C5  UNL     1      -0.519   1.033  -1.418  1.00  0.00     0.064 A 
HETATM    6  C6  UNL     1      -1.738   1.583  -0.835  1.00  0.00     0.174 A 
HETATM    7  O1  UNL     1      -2.483   2.509  -1.241  1.00  0.00    -0.288 OA
HETATM    8  C7  UNL     1      -1.931   0.793   0.392  1.00  0.00     0.082 A 
HETATM    9  C8  UNL     1      -0.936  -0.078   0.463  1.00  0.00     0.057 A 
HETATM   10  N1  UNL     1      -0.743  -1.032   1.490  1.00  0.00    -0.102 NA
ENDBRANCH   3   4
TORSDOF 1
