REMARK  3 active torsions:
REMARK  status: ('A' for Active; 'I' for Inactive)
REMARK    1  A    between atoms: O1_1  and  N1_3 
REMARK    2  A    between atoms: C5_8  and  C6_9 
REMARK    3  A    between atoms: N2_10  and  O2_12 
ROOT
HETATM    1  N1  UNL     1      -0.693   1.276  -0.185  1.00  0.00    -0.235 N 
HETATM    2  C1  UNL     1      -1.942   0.920   0.177  1.00  0.00     0.123 A 
HETATM    3  C2  UNL     1      -2.237  -0.372   0.533  1.00  0.00     0.020 A 
HETATM    4  C3  UNL     1      -1.235  -1.305   0.517  1.00  0.00     0.004 A 
HETATM    5  C4  UNL     1       0.065  -0.934   0.140  1.00  0.00     0.033 A 
HETATM    6  C5  UNL     1       0.309   0.373  -0.208  1.00  0.00     0.079 A 
ENDROOT
BRANCH   6   7
HETATM    7  C6  UNL     1       1.632   0.830  -0.609  1.00  0.00     0.145 C 
HETATM    8  N2  UNL     1       2.676   0.139  -0.690  1.00  0.00    -0.278 N 
ATOM      9  H2  UNL     1       3.470   0.701  -0.996  1.00  0.00     0.193 HD
BRANCH   8  10
HETATM   10  O2  UNL     1       3.025  -1.110  -0.488  1.00  0.00    -0.290 OA
ATOM     11  H2  UNL     1       3.816  -1.633  -0.549  1.00  0.00     0.244 HD
ENDBRANCH   8  10
ENDBRANCH   6   7
BRANCH   1  12
HETATM   12  O1  UNL     1      -0.455   2.579  -0.532  1.00  0.00    -0.283 OA
ATOM     13  H1  UNL     1       0.425   2.830  -0.787  1.00  0.00     0.245 HD
ENDBRANCH   1  12
TORSDOF 3
