REMARK  2 active torsions:
REMARK  status: ('A' for Active; 'I' for Inactive)
REMARK    1  A    between atoms: C2_2  and  N1_3 
REMARK    2  A    between atoms: C4_8  and  N3_9 
ROOT
HETATM    1  N1  UNL     1       0.676   0.200   0.064  1.00  0.00    -0.226 N 
HETATM    2  C3  UNL     1       0.011  -0.954   0.188  1.00  0.00     0.348 A 
HETATM    3  O1  UNL     1       0.661  -2.009   0.370  1.00  0.00    -0.245 OA
HETATM    4  N2  UNL     1      -1.355  -1.007   0.121  1.00  0.00    -0.141 N 
ATOM      5  H2  UNL     1      -1.816  -1.911   0.221  1.00  0.00     0.189 HD
HETATM    6  C4  UNL     1      -2.108   0.080  -0.070  1.00  0.00     0.683 A 
HETATM    7  N4  UNL     1      -1.450   1.241  -0.194  1.00  0.00    -0.141 N 
ATOM      8  H4  UNL     1      -1.983   2.098  -0.341  1.00  0.00     0.189 HD
HETATM    9  C5  UNL     1      -0.116   1.309  -0.131  1.00  0.00     0.348 A 
HETATM   10  O2  UNL     1       0.465   2.421  -0.253  1.00  0.00    -0.245 OA
ENDROOT
BRANCH   6  11
HETATM   11  N3  UNL     1      -3.394   0.044  -0.135  1.00  0.00    -0.234 N 
ATOM     12  H32 UNL     1      -3.895  -0.840  -0.041  1.00  0.00     0.174 HD
ATOM     13  H31 UNL     1      -3.969   0.874  -0.281  1.00  0.00     0.174 HD
ENDBRANCH   6  11
BRANCH   1  14
HETATM   14  C2  UNL     1       2.072   0.370   0.095  1.00  0.00     0.096 C 
HETATM   15  C1  UNL     1       2.990  -0.540  -0.013  1.00  0.00     0.030 C 
ENDBRANCH   1  14
TORSDOF 2
