REMARK  2 active torsions:
REMARK  status: ('A' for Active; 'I' for Inactive)
REMARK    1  A    between atoms: N1_2  and  C2_4 
REMARK    2  A    between atoms: N2_11  and  N3_13 
ROOT
HETATM    1  C2  UNL     1       0.028  -0.147   0.338  1.00  0.00     0.059 A 
HETATM    2  C3  UNL     1      -0.087  -1.450   0.664  1.00  0.00     0.086 A 
HETATM    3  C4  UNL     1      -1.161  -2.299   0.213  1.00  0.00     0.174 A 
HETATM    4  O1  UNL     1      -1.190  -3.516   0.570  1.00  0.00    -0.288 OA
HETATM    5  C5  UNL     1      -2.192  -1.730  -0.646  1.00  0.00     0.057 A 
HETATM    6  C6  UNL     1      -2.116  -0.456  -0.989  1.00  0.00     0.037 A 
HETATM    7  C7  UNL     1      -0.990   0.402  -0.507  1.00  0.00     0.074 A 
HETATM    8  N2  UNL     1      -0.974   1.612  -0.871  1.00  0.00    -0.305 N 
ATOM      9  H2  UNL     1      -1.726   1.948  -1.473  1.00  0.00     0.186 HD
ENDROOT
BRANCH   1  10
HETATM   10  N1  UNL     1       1.099   0.579   0.824  1.00  0.00    -0.392 N 
HETATM   11  C1  UNL     1       2.477   0.484   0.410  1.00  0.00     0.146 C 
ATOM     12  H1  UNL     1       0.892   1.257   1.557  1.00  0.00     0.159 HD
ENDBRANCH   1  10
BRANCH   8  13
HETATM   13  N3  UNL     1       0.007   2.497  -0.495  1.00  0.00    -0.345 N 
ATOM     14  H32 UNL     1       0.751   2.144   0.107  1.00  0.00     0.176 HD
ATOM     15  H31 UNL     1       0.020   3.474  -0.789  1.00  0.00     0.176 HD
ENDBRANCH   8  13
TORSDOF 2
