REMARK  3 active torsions:
REMARK  status: ('A' for Active; 'I' for Inactive)
REMARK    1  A    between atoms: C3_3  and  N1_4 
REMARK    2  A    between atoms: N1_4  and  N2_6 
REMARK    3  A    between atoms: C6_9  and  N3_10 
ROOT
HETATM    1  C1  UNL     1       3.291   1.969  -0.372  1.00  0.00     0.018 C 
HETATM    2  C2  UNL     1       2.959   0.839  -0.090  1.00  0.00    -0.071 C 
HETATM    3  C3  UNL     1       2.571  -0.559   0.241  1.00  0.00     0.171 C 
ENDROOT
BRANCH   3   4
HETATM    4  N1  UNL     1       1.353  -0.905  -0.362  1.00  0.00    -0.294 N 
ATOM      5  H1  UNL     1       1.446  -1.579  -1.122  1.00  0.00     0.187 HD
BRANCH   4   6
HETATM    6  N2  UNL     1       0.050  -0.507  -0.123  1.00  0.00    -0.217 N 
HETATM    7  C4  UNL     1      -0.947  -0.970  -0.929  1.00  0.00     0.125 A 
HETATM    8  C5  UNL     1      -2.272  -0.645  -0.762  1.00  0.00     0.067 A 
HETATM    9  C6  UNL     1      -2.607   0.193   0.277  1.00  0.00     0.103 A 
HETATM   10  N4  UNL     1      -1.643   0.661   1.083  1.00  0.00    -0.293 N 
HETATM   11  C7  UNL     1      -0.357   0.303   0.864  1.00  0.00     0.346 A 
ATOM     12  H4  UNL     1      -1.878   1.283   1.856  1.00  0.00     0.172 HD
HETATM   13  O1  UNL     1       0.515   0.760   1.642  1.00  0.00    -0.245 OA
BRANCH   9  14
HETATM   14  N3  UNL     1      -3.838   0.560   0.517  1.00  0.00    -0.385 N 
ATOM     15  H32 UNL     1      -4.571   0.204  -0.096  1.00  0.00     0.157 HD
ATOM     16  H31 UNL     1      -4.086   1.181   1.287  1.00  0.00     0.157 HD
ENDBRANCH   9  14
ENDBRANCH   4   6
ENDBRANCH   3   4
TORSDOF 3
