REMARK  5 active torsions:
REMARK  status: ('A' for Active; 'I' for Inactive)
REMARK    1  A    between atoms: N3_11  and  C7_12 
REMARK    2  A    between atoms: C8_13  and  C9_14 
REMARK    3  A    between atoms: C14_21  and  N4_22 
REMARK       I    between atoms: N4_22  and  C15_24 
REMARK    4  A    between atoms: C15_24  and  C16_26 
REMARK    5  A    between atoms: C20_30  and  O2_31 
ROOT
HETATM    1  C9  UNL     1      -0.016  -0.228   0.411  1.00  0.00     0.014 C 
HETATM    2  C10 UNL     1       0.568  -0.773   1.685  1.00  0.00     0.022 C 
HETATM    3  C11 UNL     1       0.353  -2.245   1.812  1.00  0.00     0.080 C 
HETATM    4  C12 UNL     1      -1.104  -2.461   2.026  1.00  0.00     0.246 C 
HETATM    5  F1  UNL     1      -1.254  -2.866   3.366  1.00  0.00    -0.206 F 
HETATM    6  F2  UNL     1      -1.615  -3.566   1.325  1.00  0.00    -0.206 F 
HETATM    7  C13 UNL     1      -1.886  -1.227   1.834  1.00  0.00     0.111 C 
HETATM    8  C14 UNL     1      -1.549  -0.293   0.713  1.00  0.00     0.052 C 
HETATM    9  C19 UNL     1      -1.958   1.072   1.280  1.00  0.00     0.070 C 
HETATM   10  C20 UNL     1      -1.642   2.236   0.447  1.00  0.00     0.066 C 
HETATM   11  C21 UNL     1      -0.754   1.903  -0.706  1.00  0.00     0.050 C 
HETATM   12  C22 UNL     1       0.350   1.174   0.097  1.00  0.00     0.075 C 
HETATM   13  C23 UNL     1       0.601   2.175   1.133  1.00  0.00     0.251 C 
HETATM   14  F3  UNL     1       1.600   3.064   0.671  1.00  0.00    -0.206 F 
HETATM   15  F4  UNL     1       1.002   1.840   2.361  1.00  0.00    -0.206 F 
HETATM   16  C24 UNL     1      -0.632   3.081   1.260  1.00  0.00     0.117 C 
ENDROOT
BRANCH   1  17
HETATM   17  C8  UNL     1       0.317  -1.053  -0.771  1.00  0.00     0.003 C 
HETATM   18  C7  UNL     1       1.577  -1.419  -1.302  1.00  0.00     0.088 C 
BRANCH  18  19
HETATM   19  N3  UNL     1       2.574  -0.551  -1.841  1.00  0.00    -0.350 N 
HETATM   20  C4  UNL     1       3.835  -0.129  -1.412  1.00  0.00     0.062 A 
HETATM   21  C3  UNL     1       4.875  -0.163  -0.447  1.00  0.00     0.057 A 
HETATM   22  C5  UNL     1       3.996   0.660  -2.463  1.00  0.00     0.070 A 
HETATM   23  C2  UNL     1       6.007   0.598  -0.601  1.00  0.00     0.024 A 
HETATM   24  C1  UNL     1       7.050   0.512   0.446  1.00  0.00     0.070 C 
HETATM   25  N2  UNL     1       6.113   1.379  -1.686  1.00  0.00    -0.305 N 
HETATM   26  N1  UNL     1       5.155   1.417  -2.586  1.00  0.00    -0.301 N 
ATOM     27  H2  UNL     1       6.948   1.951  -1.815  1.00  0.00     0.186 HD
ATOM     28  H1  UNL     1       5.266   2.021  -3.400  1.00  0.00     0.186 HD
HETATM   29  C6  UNL     1       2.718   0.255  -3.007  1.00  0.00     0.189 A 
ENDBRANCH  18  19
ENDBRANCH   1  17
BRANCH   8  30
HETATM   30  N4  UNL     1      -2.349  -0.606  -0.404  1.00  0.00    -0.350 N 
HETATM   31  C15 UNL     1      -3.741  -0.646  -0.433  1.00  0.00     0.222 C 
HETATM   32  O1  UNL     1      -4.463  -0.401   0.529  1.00  0.00    -0.273 OA
ATOM     33  H4  UNL     1      -1.863  -0.824  -1.274  1.00  0.00     0.163 HD
BRANCH  31  34
HETATM   34  C16 UNL     1      -4.487  -1.006  -1.696  1.00  0.00     0.078 A 
HETATM   35  C17 UNL     1      -5.842  -0.453  -1.956  1.00  0.00     0.015 A 
HETATM   36  C18 UNL     1      -5.736  -1.840  -1.468  1.00  0.00     0.015 A 
ENDBRANCH  31  34
ENDBRANCH   8  30
BRANCH  10  37
HETATM   37  O2  UNL     1      -2.675   3.087   0.128  1.00  0.00    -0.390 OA
ATOM     38  H2  UNL     1      -2.470   3.841  -0.412  1.00  0.00     0.210 HD
ENDBRANCH  10  37
TORSDOF 5
