REMARK  6 active torsions:
REMARK  status: ('A' for Active; 'I' for Inactive)
REMARK    1  A    between atoms: C2_2  and  C3_3 
REMARK    2  A    between atoms: C4_4  and  C5_5 
REMARK    3  A    between atoms: C5_5  and  C6_6 
REMARK    4  A    between atoms: C7_9  and  N1_10 
REMARK    5  A    between atoms: N3_19  and  C13_20 
REMARK    6  A    between atoms: C16_24  and  N4_25 
ROOT
HETATM    1  C3  UNL     1      -1.858   1.446   0.085  1.00  0.00     0.090 C 
HETATM    2  C4  UNL     1      -3.284   0.888   0.216  1.00  0.00     0.038 C 
HETATM    3  C7  UNL     1      -3.079  -0.437   0.898  1.00  0.00     0.118 C 
HETATM    4  C12 UNL     1      -1.799  -0.943   0.368  1.00  0.00     0.150 C 
HETATM    5  N3  UNL     1      -1.002   0.291   0.202  1.00  0.00    -0.369 N 
ENDROOT
BRANCH   5   6
HETATM    6  C13 UNL     1       0.410   0.228   0.143  1.00  0.00     0.109 A 
HETATM    7  C14 UNL     1       1.120   0.525   1.320  1.00  0.00     0.148 A 
HETATM    8  F3  UNL     1       0.424   0.912   2.418  1.00  0.00    -0.203 F 
HETATM    9  C15 UNL     1       2.487   0.426   1.358  1.00  0.00     0.074 A 
HETATM   10  C16 UNL     1       3.225   0.040   0.274  1.00  0.00     0.043 A 
HETATM   11  C22 UNL     1       2.514  -0.253  -0.880  1.00  0.00     0.074 A 
HETATM   12  C23 UNL     1       1.157  -0.159  -0.928  1.00  0.00     0.148 A 
HETATM   13  F4  UNL     1       0.542  -0.522  -2.090  1.00  0.00    -0.203 F 
BRANCH  10  14
HETATM   14  N4  UNL     1       4.644  -0.051   0.310  1.00  0.00    -0.316 N 
HETATM   15  C17 UNL     1       5.262  -1.067   1.095  1.00  0.00     0.151 C 
HETATM   16  C18 UNL     1       6.202  -1.941   0.295  1.00  0.00     0.134 C 
HETATM   17  N5  UNL     1       7.230  -1.239  -0.394  1.00  0.00    -0.419 N 
HETATM   18  C19 UNL     1       7.510   0.088   0.043  1.00  0.00     0.123 C 
ATOM     19  H5  UNL     1       7.743  -1.666  -1.165  1.00  0.00     0.153 HD
HETATM   20  C20 UNL     1       6.732   1.087  -0.780  1.00  0.00     0.122 C 
HETATM   21  C21 UNL     1       5.303   0.936  -0.490  1.00  0.00     0.226 C 
HETATM   22  O2  UNL     1       4.524   1.788  -1.011  1.00  0.00    -0.273 OA
ENDBRANCH  10  14
ENDBRANCH   5   6
BRANCH   1  23
HETATM   23  C2  UNL     1      -1.684   2.112  -1.233  1.00  0.00     0.021 C 
HETATM   24  C1  UNL     1      -0.349   2.773  -1.383  1.00  0.00     0.007 C 
ENDBRANCH   1  23
BRANCH   2  25
HETATM   25  C5  UNL     1      -4.122   1.713   1.138  1.00  0.00     0.080 C 
BRANCH  25  26
HETATM   26  C6  UNL     1      -4.373   3.130   0.804  1.00  0.00     0.353 C 
HETATM   27  F1  UNL     1      -5.019   3.321  -0.395  1.00  0.00    -0.214 F 
HETATM   28  F2  UNL     1      -3.259   3.913   0.981  1.00  0.00    -0.214 F 
ENDBRANCH  25  26
ENDBRANCH   2  25
BRANCH   3  29
HETATM   29  N1  UNL     1      -4.180  -1.349   0.682  1.00  0.00    -0.301 N 
HETATM   30  C8  UNL     1      -4.408  -2.046  -0.443  1.00  0.00     0.120 A 
HETATM   31  C9  UNL     1      -5.562  -2.822  -0.260  1.00  0.00     0.025 A 
HETATM   32  C10 UNL     1      -6.159  -3.753  -1.273  1.00  0.00     0.070 C 
HETATM   33  N2  UNL     1      -5.963  -2.536   0.989  1.00  0.00    -0.311 N 
HETATM   34  C11 UNL     1      -5.131  -1.644   1.566  1.00  0.00     0.327 A 
ATOM     35  H2  UNL     1      -6.785  -2.938   1.440  1.00  0.00     0.170 HD
HETATM   36  O1  UNL     1      -5.288  -1.206   2.750  1.00  0.00    -0.246 OA
ENDBRANCH   3  29
TORSDOF 6
