REMARK  2 active torsions:
REMARK  status: ('A' for Active; 'I' for Inactive)
REMARK    1  A    between atoms: N2_8  and  C4_9 
REMARK    2  A    between atoms: C4_9  and  C5_10 
ROOT
HETATM    1  N1  UNL     1      -1.191  -1.366   1.592  1.00  0.00    -0.387 N 
ATOM      2  H11 UNL     1      -0.541  -1.879   2.188  1.00  0.00     0.157 HD
ATOM      3  H12 UNL     1      -1.934  -1.873   2.073  1.00  0.00     0.157 HD
HETATM    4  C1  UNL     1      -1.165  -0.500   0.684  1.00  0.00     0.109 C 
HETATM    5  C2  UNL     1      -2.102   0.240  -0.176  1.00  0.00     0.254 C 
HETATM    6  F1  UNL     1      -3.283  -0.346  -0.470  1.00  0.00    -0.239 F 
HETATM    7  C3  UNL     1      -0.957   0.021  -1.188  1.00  0.00     0.169 C 
HETATM    8  N2  UNL     1      -0.138   0.201   0.019  1.00  0.00    -0.363 N 
ENDROOT
BRANCH   8   9
HETATM    9  C4  UNL     1       1.098   0.779   0.422  1.00  0.00     0.155 C 
BRANCH   9  10
HETATM   10  C5  UNL     1       2.231  -0.035  -0.185  1.00  0.00     0.241 C 
HETATM   11  F2  UNL     1       2.076  -1.319   0.313  1.00  0.00    -0.254 F 
ENDBRANCH   9  10
ENDBRANCH   8   9
TORSDOF 2
