REMARK  1 active torsions:
REMARK  status: ('A' for Active; 'I' for Inactive)
REMARK    1  A    between atoms: C3_3  and  N1_4 
ROOT
HETATM    1  C1  UNL     1       2.391   0.333   0.750  1.00  0.00     0.023 C 
HETATM    2  C2  UNL     1       1.427  -0.036  -0.097  1.00  0.00     0.021 A 
HETATM    3  C3  UNL     1      -0.043   0.176  -0.513  1.00  0.00     0.296 A 
HETATM    4  C5  UNL     1       0.814  -0.783  -1.210  1.00  0.00     0.300 A 
HETATM    5  F1  UNL     1       1.288  -0.402  -2.460  1.00  0.00    -0.198 F 
HETATM    6  F2  UNL     1       0.740  -2.138  -1.040  1.00  0.00    -0.198 F 
ENDROOT
BRANCH   3   7
HETATM    7  N1  UNL     1      -0.916  -0.211   0.575  1.00  0.00    -0.065 N 
HETATM    8  C4  UNL     1      -2.296   0.099   0.366  1.00  0.00     0.268 C 
ATOM      9  H12 UNL     1      -0.803  -1.202   0.786  1.00  0.00     0.277 HD
ATOM     10  H11 UNL     1      -0.590   0.193   1.453  1.00  0.00     0.277 HD
ENDBRANCH   3   7
TORSDOF 1
