REMARK  6 active torsions:
REMARK  status: ('A' for Active; 'I' for Inactive)
REMARK    1  A    between atoms: C2_3  and  C3_4 
REMARK    2  A    between atoms: N3_7  and  C4_8 
REMARK    3  A    between atoms: C7_13  and  N5_14 
REMARK    4  A    between atoms: C8_17  and  N6_18 
REMARK    5  A    between atoms: C9_23  and  C10_24 
REMARK       I    between atoms: C10_24  and  N8_26 
REMARK    6  A    between atoms: N8_26  and  N9_28 
ROOT
HETATM    1  C3  UNL     1       0.151   0.031  -0.192  1.00  0.00     0.130 A 
HETATM    2  N2  UNL     1       1.272  -0.597   0.099  1.00  0.00    -0.288 N 
ATOM      3  H2  UNL     1       1.323  -1.480   0.606  1.00  0.00     0.187 HD
HETATM    4  N3  UNL     1       2.338   0.077  -0.359  1.00  0.00    -0.242 N 
HETATM    5  C7  UNL     1       1.890   1.167  -0.960  1.00  0.00     0.154 A 
HETATM    6  C8  UNL     1       0.539   1.193  -0.888  1.00  0.00     0.179 A 
ENDROOT
BRANCH   1   7
HETATM    7  C2  UNL     1      -1.239  -0.316   0.091  1.00  0.00     0.140 A 
HETATM    8  N1  UNL     1      -1.762  -1.364   0.721  1.00  0.00    -0.322 N 
HETATM    9  C1  UNL     1      -1.020  -2.470   1.307  1.00  0.00     0.159 C 
HETATM   10  C11 UNL     1      -3.124  -1.294   0.762  1.00  0.00     0.152 A 
HETATM   11  C9  UNL     1      -3.453  -0.127   0.116  1.00  0.00     0.145 A 
HETATM   12  N10 UNL     1      -4.006  -2.239   1.353  1.00  0.00    -0.080 NA
HETATM   13  N7  UNL     1      -2.311   0.446  -0.279  1.00  0.00    -0.333 N 
ATOM     14  H7  UNL     1      -2.249   1.329  -0.786  1.00  0.00     0.168 HD
BRANCH  11  15
HETATM   15  C10 UNL     1      -4.810   0.357  -0.080  1.00  0.00     0.289 C 
HETATM   16  O4  UNL     1      -5.804  -0.290   0.348  1.00  0.00    -0.264 OA
HETATM   17  N8  UNL     1      -5.084   1.576  -0.759  1.00  0.00    -0.271 N 
ATOM     18  H8  UNL     1      -4.300   2.122  -1.116  1.00  0.00     0.189 HD
BRANCH  17  19
HETATM   19  N9  UNL     1      -6.376   2.057  -0.958  1.00  0.00    -0.342 N 
ATOM     20  H92 UNL     1      -7.148   1.498  -0.594  1.00  0.00     0.176 HD
ATOM     21  H91 UNL     1      -6.573   2.931  -1.445  1.00  0.00     0.176 HD
ENDBRANCH  17  19
ENDBRANCH  11  15
ENDBRANCH   1   7
BRANCH   6  22
HETATM   22  N6  UNL     1      -0.344   2.190  -1.413  1.00  0.00    -0.109 N 
HETATM   23  O2  UNL     1      -0.920   3.047  -0.734  1.00  0.00    -0.532 OA
HETATM   24  O3  UNL     1      -0.528   2.158  -2.777  1.00  0.00    -0.532 OA
ENDBRANCH   6  22
BRANCH   4  25
HETATM   25  C4  UNL     1       3.657  -0.387  -0.177  1.00  0.00     0.272 C 
HETATM   26  C5  UNL     1       4.600   0.411   0.593  1.00  0.00     0.076 C 
HETATM   27  C6  UNL     1       5.930   0.056  -0.002  1.00  0.00     0.147 C 
HETATM   28  N4  UNL     1       5.557  -0.384  -1.306  1.00  0.00    -0.099 NA
HETATM   29  O1  UNL     1       4.250  -0.451  -1.441  1.00  0.00    -0.259 OA
ENDBRANCH   4  25
BRANCH   5  30
HETATM   30  N5  UNL     1       2.638   2.054  -1.520  1.00  0.00    -0.382 N 
ATOM     31  H52 UNL     1       3.656   2.034  -1.574  1.00  0.00     0.157 HD
ATOM     32  H51 UNL     1       2.293   2.894  -1.983  1.00  0.00     0.157 HD
ENDBRANCH   5  30
TORSDOF 6
