REMARK  8 active torsions:
REMARK  status: ('A' for Active; 'I' for Inactive)
REMARK    1  A    between atoms: N1_1  and  C1_4 
REMARK    2  A    between atoms: C2_7  and  N3_8 
REMARK    3  A    between atoms: C4_13  and  S1_14 
REMARK    4  A    between atoms: S1_14  and  C5_15 
REMARK    5  A    between atoms: C5_15  and  C6_16 
REMARK    6  A    between atoms: C6_16  and  N4_17 
REMARK    7  A    between atoms: C7_20  and  N6_21 
REMARK    8  A    between atoms: N7_24  and  N8_25 
ROOT
HETATM    1  C1  UNL     1      -4.538   2.121  -0.555  1.00  0.00     0.679 A 
HETATM    2  N2  UNL     1      -5.416   1.114  -0.391  1.00  0.00    -0.168 N 
ATOM      3  H2  UNL     1      -6.408   1.279  -0.564  1.00  0.00     0.186 HD
HETATM    4  C2  UNL     1      -5.009  -0.096  -0.006  1.00  0.00     0.226 A 
HETATM    5  C3  UNL     1      -3.660  -0.308   0.226  1.00  0.00     0.173 A 
HETATM    6  O3  UNL     1      -2.972  -1.342   0.600  1.00  0.00    -0.280 OA
HETATM    7  C4  UNL     1      -1.699  -1.062   0.686  1.00  0.00     0.189 A 
HETATM    8  N9  UNL     1      -1.542   0.219   0.354  1.00  0.00    -0.314 N 
ATOM      9  H9  UNL     1      -0.659   0.729   0.328  1.00  0.00     0.170 HD
HETATM   10  C9  UNL     1      -2.766   0.725   0.057  1.00  0.00     0.161 A 
HETATM   11  N10 UNL     1      -3.231   1.911  -0.330  1.00  0.00    -0.174 N 
ATOM     12  H10 UNL     1      -2.576   2.682  -0.459  1.00  0.00     0.186 HD
ENDROOT
BRANCH   7  13
HETATM   13  S1  UNL     1      -0.480  -2.270   1.176  1.00  0.00    -0.085 SA
BRANCH  13  14
HETATM   14  C5  UNL     1       1.178  -1.572   1.197  1.00  0.00     0.105 C 
BRANCH  14  15
HETATM   15  C6  UNL     1       1.549  -1.227  -0.246  1.00  0.00     0.165 C 
BRANCH  15  16
HETATM   16  N4  UNL     1       2.872  -0.661  -0.277  1.00  0.00    -0.226 N 
HETATM   17  N5  UNL     1       4.002  -1.316  -0.416  1.00  0.00    -0.124 N 
HETATM   18  C7  UNL     1       5.005  -0.429  -0.393  1.00  0.00     0.716 A 
ATOM     19  H5  UNL     1       4.099  -2.326  -0.523  1.00  0.00     0.206 HD
HETATM   20  N7  UNL     1       4.474   0.793  -0.236  1.00  0.00    -0.036 N 
HETATM   21  C8  UNL     1       3.152   0.641  -0.165  1.00  0.00     0.377 A 
HETATM   22  O4  UNL     1       2.314   1.572  -0.016  1.00  0.00    -0.242 OA
BRANCH  18  23
HETATM   23  N6  UNL     1       6.286  -0.693  -0.503  1.00  0.00    -0.231 N 
ATOM     24  H62 UNL     1       6.690  -1.622  -0.622  1.00  0.00     0.174 HD
ATOM     25  H61 UNL     1       7.050  -0.017  -0.485  1.00  0.00     0.174 HD
ENDBRANCH  18  23
BRANCH  20  26
HETATM   26  N8  UNL     1       5.203   1.984  -0.164  1.00  0.00    -0.320 N 
ATOM     27  H82 UNL     1       6.215   2.100  -0.218  1.00  0.00     0.178 HD
ATOM     28  H81 UNL     1       4.799   2.913  -0.045  1.00  0.00     0.178 HD
ENDBRANCH  20  26
ENDBRANCH  15  16
ENDBRANCH  14  15
ENDBRANCH  13  14
ENDBRANCH   7  13
BRANCH   4  29
HETATM   29  N3  UNL     1      -5.883  -1.192   0.183  1.00  0.00    -0.094 N 
HETATM   30  O1  UNL     1      -6.952  -1.280  -0.439  1.00  0.00    -0.530 OA
HETATM   31  O2  UNL     1      -5.552  -2.180   1.067  1.00  0.00    -0.530 OA
ENDBRANCH   4  29
BRANCH   1  32
HETATM   32  N1  UNL     1      -4.971   3.297  -0.935  1.00  0.00    -0.234 N 
ATOM     33  H12 UNL     1      -5.964   3.457  -1.106  1.00  0.00     0.174 HD
ATOM     34  H11 UNL     1      -4.306   4.060  -1.059  1.00  0.00     0.174 HD
ENDBRANCH   1  32
TORSDOF 8
