REMARK  9 active torsions:
REMARK  status: ('A' for Active; 'I' for Inactive)
REMARK    1  A    between atoms: N1_2  and  C2_4 
REMARK    2  A    between atoms: C4_8  and  O1_9 
REMARK    3  A    between atoms: C6_13  and  C7_14 
REMARK    4  A    between atoms: C9_18  and  O3_19 
REMARK    5  A    between atoms: C10_21  and  N5_22 
REMARK    6  A    between atoms: N5_22  and  N6_23 
REMARK    7  A    between atoms: N5_22  and  C11_26 
REMARK    8  A    between atoms: C11_26  and  C12_27 
REMARK       I    between atoms: C12_27  and  N7_29 
REMARK    9  A    between atoms: N7_29  and  N8_31 
ROOT
HETATM    1  C2  UNL     1       0.714  -1.571   0.079  1.00  0.00     0.133 A 
HETATM    2  N2  UNL     1      -0.514  -1.955  -0.276  1.00  0.00    -0.336 N 
ATOM      3  H2  UNL     1      -0.635  -2.888  -0.669  1.00  0.00     0.168 HD
HETATM    4  C3  UNL     1      -1.589  -1.180  -0.142  1.00  0.00     0.101 A 
HETATM    5  C4  UNL     1      -2.931  -1.370  -0.438  1.00  0.00     0.171 A 
HETATM    6  N3  UNL     1      -3.610  -0.266  -0.107  1.00  0.00    -0.325 N 
HETATM    7  C5  UNL     1      -5.044  -0.096  -0.272  1.00  0.00     0.159 C 
HETATM    8  C6  UNL     1      -2.718   0.636   0.402  1.00  0.00     0.117 A 
HETATM    9  C8  UNL     1      -1.437   0.093   0.394  1.00  0.00     0.063 A 
HETATM   10  C9  UNL     1      -0.165   0.497   0.766  1.00  0.00     0.113 A 
HETATM   11  C10 UNL     1       0.954  -0.306   0.625  1.00  0.00     0.133 A 
ENDROOT
BRANCH  11  12
HETATM   12  N5  UNL     1       2.265   0.023   1.025  1.00  0.00    -0.262 N 
BRANCH  12  13
HETATM   13  N6  UNL     1       2.465  -0.165   2.436  1.00  0.00    -0.338 N 
ATOM     14  H62 UNL     1       1.677  -0.501   2.990  1.00  0.00     0.177 HD
ATOM     15  H61 UNL     1       3.414   0.073   2.725  1.00  0.00     0.177 HD
ENDBRANCH  12  13
BRANCH  12  16
HETATM   16  C11 UNL     1       3.344   0.483   0.266  1.00  0.00     0.192 C 
BRANCH  16  17
HETATM   17  C12 UNL     1       3.250   1.629  -0.622  1.00  0.00     0.276 C 
HETATM   18  O4  UNL     1       2.271   2.360  -0.874  1.00  0.00    -0.265 OA
HETATM   19  N7  UNL     1       4.441   1.988  -1.318  1.00  0.00    -0.272 N 
ATOM     20  H7  UNL     1       5.289   1.442  -1.169  1.00  0.00     0.189 HD
BRANCH  19  21
HETATM   21  N8  UNL     1       4.472   3.053  -2.185  1.00  0.00    -0.342 N 
ATOM     22  H82 UNL     1       3.615   3.589  -2.323  1.00  0.00     0.176 HD
ATOM     23  H81 UNL     1       5.324   3.310  -2.683  1.00  0.00     0.176 HD
ENDBRANCH  19  21
ENDBRANCH  16  17
ENDBRANCH  12  16
ENDBRANCH  11  12
BRANCH   1  24
HETATM   24  N1  UNL     1       1.709  -2.353  -0.072  1.00  0.00    -0.379 N 
HETATM   25  C1  UNL     1       1.649  -3.675  -0.611  1.00  0.00     0.147 C 
ATOM     26  H1  UNL     1       2.624  -2.006   0.216  1.00  0.00     0.160 HD
ENDBRANCH   1  24
BRANCH  10  27
HETATM   27  O3  UNL     1      -0.013   1.760   1.308  1.00  0.00    -0.357 OA
ATOM     28  H3  UNL     1       0.859   2.037   1.563  1.00  0.00     0.217 HD
ENDBRANCH  10  27
BRANCH   8  29
HETATM   29  C7  UNL     1      -3.072   1.957   0.871  1.00  0.00     0.282 C 
HETATM   30  N4  UNL     1      -4.472   2.342   0.771  1.00  0.00    -0.056 NA
HETATM   31  O2  UNL     1      -2.334   2.825   1.357  1.00  0.00    -0.269 OA
ENDBRANCH   8  29
BRANCH   5  32
HETATM   32  O1  UNL     1      -3.457  -2.512  -0.984  1.00  0.00    -0.344 OA
ATOM     33  H1  UNL     1      -4.376  -2.642  -1.187  1.00  0.00     0.219 HD
ENDBRANCH   5  32
TORSDOF 9
