REMARK  6 active torsions:
REMARK  status: ('A' for Active; 'I' for Inactive)
REMARK    1  A    between atoms: N1_1  and  C1_4 
REMARK    2  A    between atoms: C4_10  and  N4_11 
REMARK    3  A    between atoms: C6_17  and  C7_18 
REMARK    4  A    between atoms: C8_21  and  N7_22 
REMARK       I    between atoms: N7_22  and  C9_24 
REMARK    5  A    between atoms: C9_24  and  C10_26 
REMARK    6  A    between atoms: C10_26  and  N8_27 
ROOT
HETATM    1  C1  UNL     1      -2.359  -1.122   0.918  1.00  0.00     0.058 C 
HETATM    2  C2  UNL     1      -3.530  -1.535   0.259  1.00  0.00     0.076 C 
HETATM    3  C3  UNL     1      -4.195  -0.915  -0.785  1.00  0.00     0.120 C 
HETATM    4  N2  UNL     1      -5.060  -1.745  -1.548  1.00  0.00    -0.083 NA
HETATM    5  N3  UNL     1      -4.095   0.402  -1.140  1.00  0.00    -0.329 N 
ATOM      6  H3  UNL     1      -4.894   0.811  -1.625  1.00  0.00     0.168 HD
HETATM    7  C4  UNL     1      -3.040   1.214  -0.910  1.00  0.00     0.129 C 
HETATM    8  C5  UNL     1      -1.785   0.865  -0.397  1.00  0.00     0.106 A 
HETATM    9  N5  UNL     1      -0.819   1.677  -0.799  1.00  0.00    -0.344 N 
ATOM     10  H5  UNL     1      -1.040   2.467  -1.405  1.00  0.00     0.166 HD
HETATM   11  C6  UNL     1       0.477   1.461  -0.404  1.00  0.00     0.143 A 
HETATM   12  C8  UNL     1       0.809   0.410   0.410  1.00  0.00     0.141 A 
HETATM   13  N12 UNL     1      -0.200  -0.429   0.823  1.00  0.00    -0.337 N 
ATOM     14  H12 UNL     1       0.007  -1.223   1.429  1.00  0.00     0.167 HD
HETATM   15  C11 UNL     1      -1.448  -0.197   0.426  1.00  0.00     0.091 A 
ENDROOT
BRANCH  12  16
HETATM   16  N7  UNL     1       2.130   0.131   0.851  1.00  0.00    -0.310 N 
HETATM   17  C9  UNL     1       2.382  -1.021   1.692  1.00  0.00     0.244 C 
HETATM   18  O2  UNL     1       1.504  -1.795   2.047  1.00  0.00    -0.271 OA
ATOM     19  H7  UNL     1       2.900   0.741   0.576  1.00  0.00     0.170 HD
BRANCH  17  20
HETATM   20  C10 UNL     1       3.795  -1.237   2.117  1.00  0.00     0.275 C 
BRANCH  20  21
HETATM   21  N8  UNL     1       4.600  -1.639   0.969  1.00  0.00    -0.194 N 
HETATM   22  N9  UNL     1       4.951  -2.756   0.390  1.00  0.00    -0.209 N 
HETATM   23  N10 UNL     1       5.635  -2.064  -0.520  1.00  0.00    -0.211 N 
ATOM     24  H9  UNL     1       4.775  -3.746   0.563  1.00  0.00     0.211 HD
HETATM   25  N11 UNL     1       5.285  -0.944   0.059  1.00  0.00    -0.209 N 
ATOM     26  H10 UNL     1       6.200  -2.307  -1.334  1.00  0.00     0.211 HD
ATOM     27  H11 UNL     1       5.462   0.046  -0.113  1.00  0.00     0.211 HD
ENDBRANCH  20  21
ENDBRANCH  17  20
ENDBRANCH  12  16
BRANCH  11  28
HETATM   28  C7  UNL     1       1.500   2.388  -0.886  1.00  0.00     0.285 C 
HETATM   29  N6  UNL     1       1.077   3.476  -1.738  1.00  0.00    -0.056 NA
HETATM   30  O1  UNL     1       2.714   2.373  -0.658  1.00  0.00    -0.269 OA
ENDBRANCH  11  28
BRANCH   1  31
HETATM   31  N1  UNL     1      -2.087  -1.606   2.059  1.00  0.00    -0.397 N 
ATOM     32  H12 UNL     1      -2.756  -2.286   2.420  1.00  0.00     0.156 HD
ATOM     33  H11 UNL     1      -1.237  -1.306   2.537  1.00  0.00     0.156 HD
ENDBRANCH   1  31
BRANCH   7  34
HETATM   34  N4  UNL     1      -3.201   2.453  -1.201  1.00  0.00    -0.384 N 
ATOM     35  H42 UNL     1      -4.115   2.707  -1.575  1.00  0.00     0.157 HD
ATOM     36  H41 UNL     1      -2.404   3.066  -1.027  1.00  0.00     0.157 HD
ENDBRANCH   7  34
TORSDOF 6
