REMARK  11 active torsions:
REMARK  status: ('A' for Active; 'I' for Inactive)
REMARK    1  A    between atoms: N1_2  and  C2_4 
REMARK    2  A    between atoms: C2_4  and  O1_5 
REMARK    3  A    between atoms: C2_4  and  C3_7 
REMARK    4  A    between atoms: N2_11  and  N3_12 
REMARK    5  A    between atoms: C7_15  and  N4_16 
REMARK    6  A    between atoms: N4_16  and  C8_18 
REMARK    7  A    between atoms: C8_18  and  C9_19 
REMARK    8  A    between atoms: C9_19  and  O2_20 
REMARK    9  A    between atoms: C11_25  and  C12_26 
REMARK   10  A    between atoms: C12_26  and  N6_27 
REMARK   11  A    between atoms: C12_26  and  O3_31 
ROOT
HETATM    1  C3  UNL     1       0.179   2.454  -0.414  1.00  0.00     0.135 A 
HETATM    2  C4  UNL     1      -0.028   1.105  -0.225  1.00  0.00     0.108 A 
HETATM    3  C5  UNL     1       1.168   0.410  -0.449  1.00  0.00     0.057 A 
HETATM    4  C6  UNL     1       2.091   1.345  -0.772  1.00  0.00     0.134 A 
HETATM    5  N2  UNL     1       1.521   2.549  -0.755  1.00  0.00    -0.267 N 
HETATM    6  C7  UNL     1       1.232  -0.972  -0.323  1.00  0.00     0.117 A 
HETATM    7  N5  UNL     1       0.100  -1.598   0.020  1.00  0.00    -0.325 N 
ATOM      8  H5  UNL     1       0.111  -2.613   0.121  1.00  0.00     0.169 HD
HETATM    9  C10 UNL     1      -1.047  -0.939   0.235  1.00  0.00     0.159 A 
HETATM   10  C11 UNL     1      -2.336  -1.367   0.596  1.00  0.00     0.128 A 
HETATM   11  N7  UNL     1      -3.104  -0.241   0.670  1.00  0.00    -0.282 N 
ATOM     12  H7  UNL     1      -4.095  -0.204   0.910  1.00  0.00     0.188 HD
HETATM   13  N8  UNL     1      -2.345   0.779   0.379  1.00  0.00    -0.234 N 
ATOM     14  H8  UNL     1      -2.666   1.747   0.359  1.00  0.00     0.209 HD
HETATM   15  N9  UNL     1      -1.121   0.405   0.116  1.00  0.00    -0.220 N 
ENDROOT
BRANCH  10  16
HETATM   16  C12 UNL     1      -2.696  -2.764   0.828  1.00  0.00     0.372 C 
BRANCH  16  17
HETATM   17  N6  UNL     1      -3.946  -3.143   0.201  1.00  0.00    -0.047 N 
ATOM     18  H63 UNL     1      -4.701  -2.521   0.491  1.00  0.00     0.277 HD
ATOM     19  H62 UNL     1      -3.930  -2.933  -0.797  1.00  0.00     0.277 HD
ATOM     20  H61 UNL     1      -4.197  -4.118   0.363  1.00  0.00     0.277 HD
ENDBRANCH  16  17
BRANCH  16  21
HETATM   21  O3  UNL     1      -2.763  -3.012   2.213  1.00  0.00    -0.365 OA
ATOM     22  H3  UNL     1      -2.997  -3.920   2.364  1.00  0.00     0.212 HD
ENDBRANCH  16  21
ENDBRANCH  10  16
BRANCH   6  23
HETATM   23  N4  UNL     1       2.350  -1.542  -0.539  1.00  0.00    -0.373 N 
ATOM     24  H4  UNL     1       3.136  -0.944  -0.793  1.00  0.00     0.161 HD
BRANCH  23  25
HETATM   25  C8  UNL     1       2.599  -2.948  -0.457  1.00  0.00     0.147 C 
BRANCH  25  26
HETATM   26  C9  UNL     1       4.044  -3.277  -0.173  1.00  0.00     0.183 C 
BRANCH  26  27
HETATM   27  O2  UNL     1       4.143  -4.672  -0.119  1.00  0.00    -0.399 OA
ATOM     28  H2  UNL     1       5.053  -4.879   0.060  1.00  0.00     0.209 HD
ENDBRANCH  26  27
ENDBRANCH  25  26
ENDBRANCH  23  25
ENDBRANCH   6  23
BRANCH   1  29
HETATM   29  C2  UNL     1      -0.646   3.616  -0.331  1.00  0.00     0.167 C 
BRANCH  29  30
HETATM   30  N1  UNL     1      -1.968   3.850  -0.029  1.00  0.00    -0.373 N 
HETATM   31  C1  UNL     1      -2.493   5.270  -0.045  1.00  0.00     0.148 C 
ATOM     32  H1  UNL     1      -2.588   3.074   0.203  1.00  0.00     0.161 HD
ENDBRANCH  29  30
BRANCH  29  33
HETATM   33  O1  UNL     1      -0.008   4.752  -0.605  1.00  0.00    -0.345 OA
ATOM     34  H1  UNL     1       0.905   4.590  -0.813  1.00  0.00     0.219 HD
ENDBRANCH  29  33
ENDBRANCH   1  29
BRANCH   5  35
HETATM   35  N3  UNL     1       2.256   3.705  -1.054  1.00  0.00    -0.338 N 
ATOM     36  H32 UNL     1       1.820   4.627  -1.041  1.00  0.00     0.177 HD
ATOM     37  H31 UNL     1       3.242   3.775  -1.305  1.00  0.00     0.177 HD
ENDBRANCH   5  35
TORSDOF 11
