REMARK  13 active torsions:
REMARK  status: ('A' for Active; 'I' for Inactive)
REMARK    1  A    between atoms: C2_2  and  C3_3 
REMARK    2  A    between atoms: C2_2  and  C14_21 
REMARK    3  A    between atoms: C3_3  and  C4_4 
REMARK    4  A    between atoms: C4_4  and  C5_5 
REMARK    5  A    between atoms: C8_8  and  O1_9 
REMARK    6  A    between atoms: O1_9  and  C9_10 
REMARK    7  A    between atoms: C9_10  and  C10_12 
REMARK    8  A    between atoms: C10_12  and  C11_13 
REMARK    9  A    between atoms: C10_12  and  N1_15 
REMARK   10  A    between atoms: C21_28  and  C22_29 
REMARK   11  A    between atoms: C22_29  and  C23_30 
REMARK   12  A    between atoms: C22_29  and  C24_32 
REMARK   13  A    between atoms: C30_41  and  O6_42 
ROOT
HETATM    1  C14 UNL     1       0.588  -0.477   1.135  1.00  0.00     0.043 C 
HETATM    2  C15 UNL     1       1.041   0.834   0.527  1.00  0.00     0.018 C 
HETATM    3  C16 UNL     1      -0.164   1.428  -0.109  1.00  0.00     0.040 C 
HETATM    4  C17 UNL     1      -1.239   0.362  -0.016  1.00  0.00    -0.049 C 
HETATM    5  C18 UNL     1      -0.772  -0.651   0.652  1.00  0.00    -0.065 C 
HETATM    6  C19 UNL     1      -1.706  -1.853   0.664  1.00  0.00     0.040 C 
HETATM    7  C20 UNL     1      -3.093  -1.518   0.814  1.00  0.00     0.040 C 
HETATM    8  C21 UNL     1      -3.580  -0.312  -0.016  1.00  0.00    -0.062 C 
HETATM    9  C33 UNL     1      -2.673   0.525  -0.369  1.00  0.00    -0.052 C 
HETATM   10  C34 UNL     1      -2.931   1.705  -1.257  1.00  0.00     0.049 C 
ENDROOT
BRANCH   1  11
HETATM   11  C2  UNL     1       1.598  -1.518   0.976  1.00  0.00    -0.081 C 
HETATM   12  C1  UNL     1       1.379  -2.656   0.383  1.00  0.00     0.015 C 
BRANCH  11  13
HETATM   13  C3  UNL     1       2.965  -1.250   1.544  1.00  0.00     0.038 C 
BRANCH  13  14
HETATM   14  C4  UNL     1       4.016  -2.154   1.071  1.00  0.00     0.034 C 
BRANCH  14  15
HETATM   15  C5  UNL     1       4.250  -1.986  -0.385  1.00  0.00     0.006 C 
HETATM   16  C6  UNL     1       5.476  -1.611  -0.762  1.00  0.00     0.055 A 
HETATM   17  C7  UNL     1       6.599  -1.354   0.154  1.00  0.00     0.132 A 
HETATM   18  O3  UNL     1       5.942  -1.388  -2.045  1.00  0.00    -0.325 OA
HETATM   19  C8  UNL     1       7.705  -0.971  -0.744  1.00  0.00     0.085 A 
HETATM   20  C13 UNL     1       7.271  -1.010  -1.973  1.00  0.00     0.175 A 
BRANCH  19  21
HETATM   21  O1  UNL     1       9.022  -0.614  -0.387  1.00  0.00    -0.279 OA
BRANCH  21  22
HETATM   22  C9  UNL     1       9.352   0.706  -0.126  1.00  0.00     0.296 C 
HETATM   23  O2  UNL     1       8.403   1.535  -0.234  1.00  0.00    -0.262 OA
BRANCH  22  24
HETATM   24  C10 UNL     1      10.709   1.151   0.255  1.00  0.00     0.298 C 
BRANCH  24  25
HETATM   25  C11 UNL     1      11.169   0.394   1.471  1.00  0.00     0.158 C 
HETATM   26 CL1  UNL     1      11.191  -1.340   1.090  1.00  0.00    -0.128 Cl
ENDBRANCH  24  25
BRANCH  24  27
HETATM   27  N1  UNL     1      10.775   2.582   0.460  1.00  0.00    -0.065 N 
HETATM   28  C12 UNL     1      10.488   3.341  -0.710  1.00  0.00     0.268 C 
ATOM     29  H12 UNL     1      10.168   2.864   1.230  1.00  0.00     0.277 HD
ATOM     30  H11 UNL     1      11.679   2.849   0.849  1.00  0.00     0.277 HD
ENDBRANCH  24  27
ENDBRANCH  22  24
ENDBRANCH  21  22
ENDBRANCH  19  21
ENDBRANCH  14  15
ENDBRANCH  13  14
ENDBRANCH  11  13
ENDBRANCH   1  11
BRANCH   8  31
HETATM   31  C22 UNL     1      -5.024  -0.304  -0.167  1.00  0.00     0.082 C 
BRANCH  31  32
HETATM   32  C23 UNL     1      -5.545  -0.638   1.238  1.00  0.00     0.240 C 
HETATM   33  O4  UNL     1      -5.791  -1.772   1.498  1.00  0.00    -0.306 OA
ENDBRANCH  31  32
BRANCH  31  34
HETATM   34  C24 UNL     1      -5.869   0.757  -0.671  1.00  0.00     0.020 C 
HETATM   35  C25 UNL     1      -5.786   1.996   0.212  1.00  0.00     0.034 C 
HETATM   36  C26 UNL     1      -7.104   2.099   0.901  1.00  0.00    -0.022 C 
HETATM   37  C27 UNL     1      -7.962   1.261   0.423  1.00  0.00    -0.062 C 
HETATM   38  C28 UNL     1      -9.388   0.944   0.722  1.00  0.00     0.137 C 
HETATM   39  C31 UNL     1      -7.348   0.482  -0.667  1.00  0.00     0.028 C 
HETATM   40  C29 UNL     1     -10.108   0.918  -0.615  1.00  0.00     0.223 C 
HETATM   41  O5  UNL     1     -11.356   0.909  -0.584  1.00  0.00    -0.273 OA
HETATM   42  N2  UNL     1      -9.391   0.905  -1.839  1.00  0.00    -0.334 N 
HETATM   43  C30 UNL     1      -7.959   1.145  -1.939  1.00  0.00     0.233 C 
ATOM     44  H2  UNL     1      -9.908   0.717  -2.698  1.00  0.00     0.165 HD
HETATM   45  C32 UNL     1      -7.781  -0.934  -0.729  1.00  0.00     0.025 C 
BRANCH  43  46
HETATM   46  O6  UNL     1      -7.702   2.492  -1.979  1.00  0.00    -0.376 OA
ATOM     47  H6  UNL     1      -6.767   2.649  -2.044  1.00  0.00     0.212 HD
ENDBRANCH  43  46
ENDBRANCH  31  34
ENDBRANCH   8  31
TORSDOF 13
