REMARK  13 active torsions:
REMARK  status: ('A' for Active; 'I' for Inactive)
REMARK    1  A    between atoms: C2_2  and  C3_3 
REMARK    2  A    between atoms: C3_3  and  C4_4 
REMARK    3  A    between atoms: C4_4  and  C5_5 
REMARK       I    between atoms: C5_5  and  N1_7 
REMARK    4  A    between atoms: N1_7  and  C6_9 
REMARK    5  A    between atoms: C6_9  and  C7_10 
REMARK    6  A    between atoms: C6_9  and  C22_33 
REMARK    7  A    between atoms: C7_10  and  O2_11 
REMARK    8  A    between atoms: C7_10  and  C8_13 
REMARK    9  A    between atoms: C8_13  and  C9_14 
REMARK   10  A    between atoms: C8_13  and  N3_24 
REMARK   11  A    between atoms: C9_14  and  C10_15 
REMARK       I    between atoms: N3_24  and  C17_26 
REMARK   12  A    between atoms: C17_26  and  O4_28 
REMARK   13  A    between atoms: O4_28  and  C18_29 
ROOT
HETATM    1  C10 UNL     1       2.716  -2.789   1.399  1.00  0.00    -0.035 A 
HETATM    2  C11 UNL     1       1.898  -3.923   1.447  1.00  0.00     0.010 A 
HETATM    3  C12 UNL     1       1.858  -4.786   2.508  1.00  0.00     0.024 A 
HETATM    4  C13 UNL     1       2.664  -4.536   3.595  1.00  0.00     0.035 A 
HETATM    5 CL1  UNL     1       2.640  -5.621   4.973  1.00  0.00    -0.084 Cl
HETATM    6  C14 UNL     1       3.494  -3.411   3.577  1.00  0.00     0.047 A 
HETATM    7  C15 UNL     1       3.517  -2.550   2.491  1.00  0.00     0.052 A 
HETATM    8  C16 UNL     1       4.414  -1.431   2.565  1.00  0.00     0.100 C 
HETATM    9  N2  UNL     1       5.154  -0.544   2.617  1.00  0.00    -0.191 NA
ENDROOT
BRANCH   1  10
HETATM   10  C9  UNL     1       2.729  -1.940   0.250  1.00  0.00     0.068 C 
BRANCH  10  11
HETATM   11  C8  UNL     1       2.027  -0.571   0.361  1.00  0.00     0.121 C 
BRANCH  11  12
HETATM   12  C7  UNL     1       0.600  -0.829   0.679  1.00  0.00     0.164 C 
BRANCH  12  13
HETATM   13  C6  UNL     1      -0.355   0.286   0.592  1.00  0.00     0.119 C 
BRANCH  13  14
HETATM   14  N1  UNL     1      -0.428   0.833  -0.784  1.00  0.00    -0.354 N 
HETATM   15  C5  UNL     1      -0.323   2.230  -1.040  1.00  0.00     0.217 C 
HETATM   16  O1  UNL     1      -0.163   3.060  -0.102  1.00  0.00    -0.274 OA
ATOM     17  H1  UNL     1      -0.557   0.192  -1.567  1.00  0.00     0.163 HD
BRANCH  15  18
HETATM   18  C4  UNL     1      -0.404   2.704  -2.437  1.00  0.00     0.103 C 
BRANCH  18  19
HETATM   19  C3  UNL     1      -0.398   4.173  -2.627  1.00  0.00     0.009 C 
BRANCH  19  20
HETATM   20  C2  UNL     1      -1.565   4.839  -1.987  1.00  0.00    -0.004 C 
HETATM   21  C1  UNL     1      -2.860   4.309  -2.567  1.00  0.00     0.005 C 
ENDBRANCH  19  20
ENDBRANCH  18  19
ENDBRANCH  15  18
ENDBRANCH  13  14
BRANCH  13  22
HETATM   22  C22 UNL     1      -1.797  -0.045   1.002  1.00  0.00     0.020 C 
HETATM   23  C23 UNL     1      -2.012  -0.558   2.355  1.00  0.00     0.012 C 
HETATM   24  C24 UNL     1      -2.342  -1.978   2.585  1.00  0.00    -0.008 C 
HETATM   25  C25 UNL     1      -3.642  -2.138   3.391  1.00  0.00     0.005 C 
HETATM   26  C28 UNL     1      -2.659  -2.777   1.360  1.00  0.00     0.019 C 
HETATM   27  C26 UNL     1      -4.381  -3.305   2.839  1.00  0.00     0.001 C 
HETATM   28  C27 UNL     1      -3.525  -3.942   1.789  1.00  0.00     0.007 C 
HETATM   29  C29 UNL     1      -3.405  -1.909   0.416  1.00  0.00     0.133 C 
HETATM   30  O5  UNL     1      -4.450  -1.216   0.972  1.00  0.00    -0.375 OA
HETATM   31  C33 UNL     1      -2.513  -0.793  -0.096  1.00  0.00     0.053 C 
HETATM   32  C30 UNL     1      -4.751  -0.154   0.142  1.00  0.00     0.175 C 
HETATM   33  C31 UNL     1      -5.461  -0.444  -1.131  1.00  0.00     0.203 C 
HETATM   34  C32 UNL     1      -3.579   0.034  -0.789  1.00  0.00     0.159 C 
HETATM   35  O6  UNL     1      -4.243  -0.664  -1.759  1.00  0.00    -0.380 OA
ENDBRANCH  13  22
ENDBRANCH  12  13
BRANCH  12  36
HETATM   36  O2  UNL     1       0.629  -1.297   2.018  1.00  0.00    -0.391 OA
ATOM     37  H2  UNL     1       1.246  -2.017   2.074  1.00  0.00     0.210 HD
ENDBRANCH  12  36
ENDBRANCH  11  12
BRANCH  11  38
HETATM   38  N3  UNL     1       2.250  -0.021  -0.989  1.00  0.00    -0.329 N 
HETATM   39  C17 UNL     1       3.269   0.969  -1.196  1.00  0.00     0.361 C 
HETATM   40  O3  UNL     1       3.939   1.332  -0.208  1.00  0.00    -0.238 OA
ATOM     41  H3  UNL     1       1.682  -0.343  -1.773  1.00  0.00     0.165 HD
BRANCH  39  42
HETATM   42  O4  UNL     1       3.519   1.513  -2.427  1.00  0.00    -0.294 OA
BRANCH  42  43
HETATM   43  C18 UNL     1       4.540   2.491  -2.586  1.00  0.00     0.061 C 
HETATM   44  C19 UNL     1       4.614   2.931  -4.034  1.00  0.00     0.046 C 
HETATM   45  C20 UNL     1       5.896   1.915  -2.212  1.00  0.00     0.046 C 
HETATM   46  C21 UNL     1       4.256   3.625  -1.652  1.00  0.00     0.046 C 
ENDBRANCH  42  43
ENDBRANCH  39  42
ENDBRANCH  11  38
ENDBRANCH  10  11
ENDBRANCH   1  10
TORSDOF 13
