REMARK  8 active torsions:
REMARK  status: ('A' for Active; 'I' for Inactive)
REMARK    1  A    between atoms: C2_2  and  C3_3 
REMARK    2  A    between atoms: C3_3  and  O1_4 
REMARK    3  A    between atoms: O1_4  and  C4_5 
REMARK    4  A    between atoms: C7_8  and  N1_9 
REMARK    5  A    between atoms: N1_9  and  C8_11 
REMARK    6  A    between atoms: C9_14  and  C10_15 
REMARK    7  A    between atoms: C18_27  and  C19_28 
REMARK    8  A    between atoms: C21_34  and  C22_35 
ROOT
HETATM    1  C8  UNL     1      -0.836  -0.686   1.273  1.00  0.00     0.683 A 
HETATM    2  N2  UNL     1      -0.645   0.557   0.840  1.00  0.00    -0.191 N 
ATOM      3  H2  UNL     1       0.302   0.925   0.748  1.00  0.00     0.184 HD
HETATM    4  C9  UNL     1      -1.703   1.332   0.522  1.00  0.00     0.061 A 
HETATM    5  C17 UNL     1      -2.978   0.850   0.641  1.00  0.00     0.062 A 
HETATM    6  C18 UNL     1      -3.176  -0.458   1.096  1.00  0.00     0.065 A 
HETATM    7  N7  UNL     1      -2.081  -1.165   1.391  1.00  0.00    -0.191 N 
ATOM      8  H7  UNL     1      -2.200  -2.122   1.724  1.00  0.00     0.184 HD
ENDROOT
BRANCH   6   9
HETATM    9  C19 UNL     1      -4.518  -0.999   1.232  1.00  0.00     0.037 A 
HETATM   10  C20 UNL     1      -5.518  -0.527   2.039  1.00  0.00     0.123 A 
HETATM   11  N5  UNL     1      -6.626  -1.309   1.880  1.00  0.00    -0.310 N 
HETATM   12  N6  UNL     1      -6.324  -2.245   0.996  1.00  0.00    -0.299 N 
ATOM     13  H5  UNL     1      -7.521  -1.193   2.355  1.00  0.00     0.186 HD
HETATM   14  C21 UNL     1      -5.032  -2.085   0.576  1.00  0.00     0.072 A 
ATOM     15  H6  UNL     1      -6.959  -2.976   0.676  1.00  0.00     0.187 HD
BRANCH  14  16
HETATM   16  C22 UNL     1      -4.289  -2.886  -0.385  1.00  0.00    -0.007 A 
HETATM   17  C23 UNL     1      -4.041  -4.231  -0.210  1.00  0.00     0.017 A 
HETATM   18  C24 UNL     1      -3.339  -4.987  -1.119  1.00  0.00     0.043 A 
HETATM   19  C25 UNL     1      -2.845  -4.404  -2.270  1.00  0.00     0.116 A 
HETATM   20  F1  UNL     1      -2.153  -5.145  -3.167  1.00  0.00    -0.206 F 
HETATM   21  C26 UNL     1      -3.079  -3.058  -2.472  1.00  0.00     0.043 A 
HETATM   22  C27 UNL     1      -3.793  -2.309  -1.538  1.00  0.00     0.017 A 
ENDBRANCH  14  16
ENDBRANCH   6   9
BRANCH   4  23
HETATM   23  C10 UNL     1      -1.508   2.694   0.047  1.00  0.00    -0.006 A 
HETATM   24  C11 UNL     1      -2.534   3.533  -0.286  1.00  0.00     0.016 A 
HETATM   25  C12 UNL     1      -2.282   4.835  -0.740  1.00  0.00     0.033 A 
HETATM   26  C13 UNL     1      -0.993   5.294  -0.859  1.00  0.00     0.060 A 
HETATM   27  N3  UNL     1      -0.458   6.472  -1.259  1.00  0.00    -0.351 N 
HETATM   28  C15 UNL     1       0.052   4.448  -0.523  1.00  0.00     0.060 A 
HETATM   29  C14 UNL     1       0.879   6.368  -1.177  1.00  0.00     0.181 A 
ATOM     30  H3  UNL     1      -0.978   7.293  -1.568  1.00  0.00     0.166 HD
HETATM   31  N4  UNL     1       1.182   5.144  -0.732  1.00  0.00    -0.350 N 
ATOM     32  H4  UNL     1       2.127   4.792  -0.575  1.00  0.00     0.166 HD
HETATM   33  C16 UNL     1      -0.225   3.167  -0.077  1.00  0.00     0.045 A 
ENDBRANCH   4  23
BRANCH   1  34
HETATM   34  N1  UNL     1       0.173  -1.435   1.581  1.00  0.00    -0.192 N 
ATOM     35  H1  UNL     1      -0.017  -2.382   1.908  1.00  0.00     0.184 HD
BRANCH  34  36
HETATM   36  C7  UNL     1       1.526  -1.022   1.492  1.00  0.00     0.049 A 
HETATM   37  C6  UNL     1       2.010   0.135   2.009  1.00  0.00     0.033 A 
HETATM   38  C5  UNL     1       3.338   0.453   1.877  1.00  0.00     0.039 A 
HETATM   39  C4  UNL     1       4.258  -0.378   1.216  1.00  0.00     0.068 A 
HETATM   40  C29 UNL     1       3.757  -1.548   0.697  1.00  0.00     0.039 A 
HETATM   41  C28 UNL     1       2.396  -1.860   0.840  1.00  0.00     0.033 A 
BRANCH  39  42
HETATM   42  O1  UNL     1       5.544   0.051   1.156  1.00  0.00    -0.351 OA
BRANCH  42  43
HETATM   43  C3  UNL     1       6.684  -0.453   0.598  1.00  0.00     0.175 C 
BRANCH  43  44
HETATM   44  C2  UNL     1       6.606  -0.555  -0.899  1.00  0.00     0.022 C 
HETATM   45  C1  UNL     1       7.895  -1.130  -1.481  1.00  0.00     0.007 C 
ENDBRANCH  43  44
ENDBRANCH  42  43
ENDBRANCH  39  42
ENDBRANCH  34  36
ENDBRANCH   1  34
TORSDOF 8
