REMARK  8 active torsions:
REMARK  status: ('A' for Active; 'I' for Inactive)
REMARK    1  A    between atoms: S1_2  and  N1_4 
REMARK    2  A    between atoms: S1_2  and  C21_33 
REMARK    3  A    between atoms: N1_4  and  C1_6 
REMARK    4  A    between atoms: C3_8  and  C4_9 
REMARK    5  A    between atoms: C4_9  and  S2_10 
REMARK    6  A    between atoms: C4_9  and  C10_18 
REMARK    7  A    between atoms: S2_10  and  C5_11 
REMARK    8  A    between atoms: C20_30  and  O3_31 
ROOT
HETATM    1  C1  UNL     1       1.849  -1.331  -1.309  1.00  0.00     0.076 A 
HETATM    2  C2  UNL     1       0.650  -1.035  -0.700  1.00  0.00     0.041 A 
HETATM    3  C3  UNL     1      -0.414  -0.583  -1.450  1.00  0.00    -0.037 A 
HETATM    4  C18 UNL     1      -0.258  -0.435  -2.804  1.00  0.00     0.011 A 
HETATM    5  C19 UNL     1       0.931  -0.725  -3.436  1.00  0.00     0.039 A 
HETATM    6  C20 UNL     1       1.986  -1.174  -2.690  1.00  0.00     0.092 A 
ENDROOT
BRANCH   3   7
HETATM    7  C4  UNL     1      -1.739  -0.248  -0.854  1.00  0.00     0.122 C 
BRANCH   7   8
HETATM    8  S2  UNL     1      -1.422   0.859   0.519  1.00  0.00    -0.098 SA
BRANCH   8   9
HETATM    9  C5  UNL     1      -0.786   2.411  -0.154  1.00  0.00     0.070 A 
HETATM   10  C6  UNL     1      -0.460   3.475   0.659  1.00  0.00     0.037 A 
HETATM   11  C7  UNL     1       0.018   4.633   0.122  1.00  0.00     0.004 A 
HETATM   12  C8  UNL     1       0.185   4.765  -1.242  1.00  0.00     0.017 A 
HETATM   13  C9  UNL     1      -0.141   3.703  -2.040  1.00  0.00     0.089 A 
HETATM   14  N2  UNL     1      -0.610   2.572  -1.491  1.00  0.00    -0.361 N 
ATOM     15  H2  UNL     1      -0.846   1.795  -2.108  1.00  0.00     0.165 HD
ENDBRANCH   8   9
ENDBRANCH   7   8
BRANCH   7  16
HETATM   16  C10 UNL     1      -2.527  -1.438  -0.557  1.00  0.00    -0.012 A 
HETATM   17  C11 UNL     1      -2.415  -2.599  -1.290  1.00  0.00     0.098 A 
HETATM   18  N3  UNL     1      -3.255  -3.487  -0.740  1.00  0.00    -0.365 N 
HETATM   19  C12 UNL     1      -3.895  -2.944   0.305  1.00  0.00     0.043 A 
ATOM     20  H3  UNL     1      -3.389  -4.443  -1.071  1.00  0.00     0.165 HD
HETATM   21  C13 UNL     1      -4.839  -3.489   1.148  1.00  0.00     0.030 A 
HETATM   22  C17 UNL     1      -3.433  -1.645   0.419  1.00  0.00    -0.000 A 
HETATM   23  C14 UNL     1      -5.380  -2.745   2.167  1.00  0.00     0.002 A 
HETATM   24  C15 UNL     1      -4.932  -1.447   2.298  1.00  0.00     0.001 A 
HETATM   25  C16 UNL     1      -3.989  -0.897   1.459  1.00  0.00     0.014 A 
ENDBRANCH   7  16
ENDBRANCH   3   7
BRANCH   1  26
HETATM   26  N1  UNL     1       2.954  -1.819  -0.580  1.00  0.00    -0.278 N 
ATOM     27  H1  UNL     1       3.678  -2.296  -1.117  1.00  0.00     0.179 HD
BRANCH  26  28
HETATM   28  S1  UNL     1       3.211  -1.699   1.099  1.00  0.00     0.263 S 
HETATM   29  O1  UNL     1       2.062  -2.397   1.781  1.00  0.00    -0.200 OA
HETATM   30  O2  UNL     1       4.459  -2.499   1.463  1.00  0.00    -0.200 OA
BRANCH  28  31
HETATM   31  C21 UNL     1       3.334  -0.095   1.712  1.00  0.00     0.080 A 
HETATM   32  C22 UNL     1       2.283   0.614   2.217  1.00  0.00     0.027 A 
HETATM   33  C23 UNL     1       2.440   1.891   2.697  1.00  0.00     0.025 A 
HETATM   34  C24 UNL     1       3.679   2.483   2.675  1.00  0.00     0.034 A 
HETATM   35 CL1  UNL     1       3.882   4.111   3.287  1.00  0.00    -0.084 Cl
HETATM   36  C25 UNL     1       4.770   1.799   2.171  1.00  0.00     0.025 A 
HETATM   37  C26 UNL     1       4.584   0.519   1.696  1.00  0.00     0.027 A 
ENDBRANCH  28  31
ENDBRANCH  26  28
ENDBRANCH   1  26
BRANCH   6  38
HETATM   38  O3  UNL     1       3.182  -1.465  -3.328  1.00  0.00    -0.358 OA
ATOM     39  H3  UNL     1       3.275  -1.358  -4.267  1.00  0.00     0.217 HD
ENDBRANCH   6  38
TORSDOF 8
