REMARK  7 active torsions:
REMARK  status: ('A' for Active; 'I' for Inactive)
REMARK    1  A    between atoms: N1_2  and  C2_3 
REMARK    2  A    between atoms: N1_2  and  C9_11 
REMARK    3  A    between atoms: C2_3  and  C3_4 
REMARK    4  A    between atoms: C9_11  and  C10_12 
REMARK    5  A    between atoms: C12_14  and  O1_15 
REMARK    6  A    between atoms: O1_15  and  C13_16 
REMARK    7  A    between atoms: C22_32  and  C23_33 
ROOT
HETATM    1  C10 UNL     1      -1.333   0.411  -1.846  1.00  0.00    -0.027 A 
HETATM    2  C11 UNL     1      -0.073  -0.085  -2.181  1.00  0.00     0.046 A 
HETATM    3  C12 UNL     1       1.084   0.570  -1.817  1.00  0.00     0.077 A 
HETATM    4  C21 UNL     1       0.988   1.745  -1.105  1.00  0.00     0.052 A 
HETATM    5  C22 UNL     1      -0.239   2.286  -0.744  1.00  0.00     0.011 A 
HETATM    6  C30 UNL     1      -1.363   1.592  -1.132  1.00  0.00     0.024 A 
ENDROOT
BRANCH   3   7
HETATM    7  O1  UNL     1       2.294   0.009  -2.189  1.00  0.00    -0.311 OA
BRANCH   7   8
HETATM    8  C13 UNL     1       2.977  -0.899  -1.390  1.00  0.00     0.077 A 
HETATM    9  C14 UNL     1       2.714  -2.242  -1.545  1.00  0.00     0.039 A 
HETATM   10  C15 UNL     1       3.399  -3.123  -0.746  1.00  0.00     0.033 A 
HETATM   11  C16 UNL     1       4.316  -2.644   0.175  1.00  0.00     0.047 A 
HETATM   12  N2  UNL     1       4.995  -3.515   0.967  1.00  0.00    -0.352 N 
HETATM   13  C19 UNL     1       4.577  -1.304   0.328  1.00  0.00     0.037 A 
HETATM   14  C17 UNL     1       5.882  -3.044   1.857  1.00  0.00     0.182 A 
ATOM     15  H2  UNL     1       4.832  -4.519   0.886  1.00  0.00     0.166 HD
HETATM   16  N3  UNL     1       6.136  -1.726   2.006  1.00  0.00    -0.338 N 
HETATM   17  C18 UNL     1       5.489  -0.826   1.244  1.00  0.00     0.112 A 
ATOM     18  H3  UNL     1       6.818  -1.413   2.696  1.00  0.00     0.168 HD
HETATM   19  N4  UNL     1       5.708   0.444   1.359  1.00  0.00    -0.385 N 
ATOM     20  H42 UNL     1       6.383   0.798   2.037  1.00  0.00     0.157 HD
ATOM     21  H41 UNL     1       5.217   1.126   0.781  1.00  0.00     0.157 HD
HETATM   22  C20 UNL     1       3.890  -0.417  -0.474  1.00  0.00     0.054 A 
ENDBRANCH   7   8
ENDBRANCH   3   7
BRANCH   1  23
HETATM   23  C9  UNL     1      -2.564  -0.310  -2.247  1.00  0.00     0.311 C 
BRANCH  23  24
HETATM   24  N1  UNL     1      -3.137  -1.118  -1.212  1.00  0.00     0.092 N 
HETATM   25  C1  UNL     1      -4.331  -1.746  -1.784  1.00  0.00     0.310 C 
BRANCH  24  26
HETATM   26  C2  UNL     1      -2.180  -2.098  -0.785  1.00  0.00     0.310 C 
BRANCH  26  27
HETATM   27  C3  UNL     1      -2.751  -3.020   0.247  1.00  0.00    -0.030 A 
HETATM   28  C4  UNL     1      -3.382  -4.169  -0.147  1.00  0.00     0.010 A 
HETATM   29  C5  UNL     1      -3.911  -5.025   0.787  1.00  0.00     0.024 A 
HETATM   30  C6  UNL     1      -3.819  -4.748   2.134  1.00  0.00     0.034 A 
HETATM   31 CL1  UNL     1      -4.502  -5.855   3.318  1.00  0.00    -0.084 Cl
HETATM   32  C7  UNL     1      -3.177  -3.581   2.496  1.00  0.00     0.024 A 
HETATM   33  C8  UNL     1      -2.649  -2.726   1.580  1.00  0.00     0.010 A 
ENDBRANCH  26  27
ENDBRANCH  24  26
ENDBRANCH  23  24
ENDBRANCH   1  23
BRANCH   5  34
HETATM   34  C23 UNL     1      -0.310   3.531   0.009  1.00  0.00     0.116 A 
HETATM   35  N5  UNL     1      -1.447   4.129   0.403  1.00  0.00    -0.340 N 
HETATM   36  C24 UNL     1      -1.168   5.257   1.077  1.00  0.00     0.060 A 
ATOM     37  H5  UNL     1      -2.386   3.777   0.217  1.00  0.00     0.167 HD
HETATM   38  C25 UNL     1      -1.945   6.221   1.681  1.00  0.00     0.032 A 
HETATM   39  C29 UNL     1       0.207   5.382   1.113  1.00  0.00     0.060 A 
HETATM   40  C26 UNL     1      -1.380   7.315   2.326  1.00  0.00     0.002 A 
HETATM   41  C27 UNL     1      -0.011   7.437   2.361  1.00  0.00     0.002 A 
HETATM   42  C28 UNL     1       0.771   6.484   1.763  1.00  0.00     0.032 A 
HETATM   43  N6  UNL     1       0.685   4.312   0.453  1.00  0.00    -0.340 N 
ATOM     44  H6  UNL     1       1.676   4.120   0.309  1.00  0.00     0.167 HD
ENDBRANCH   5  34
TORSDOF 7
