REMARK  9 active torsions:
REMARK  status: ('A' for Active; 'I' for Inactive)
REMARK    1  A    between atoms: C2_2  and  C3_3 
REMARK    2  A    between atoms: C3_3  and  C4_4 
REMARK    3  A    between atoms: C5_7  and  C6_8 
REMARK    4  A    between atoms: C6_8  and  C7_9 
REMARK    5  A    between atoms: C8_10  and  C9_11 
REMARK    6  A    between atoms: C9_11  and  C10_12 
REMARK    7  A    between atoms: C10_12  and  O1_13 
REMARK    8  A    between atoms: N3_18  and  C12_19 
REMARK    9  A    between atoms: C14_23  and  C15_24 
ROOT
HETATM    1  C4  UNL     1      -0.162   2.002   0.640  1.00  0.00     0.038 A 
HETATM    2  N1  UNL     1      -1.492   1.938   0.778  1.00  0.00    -0.347 N 
ATOM      3  H1  UNL     1      -2.133   2.698   0.552  1.00  0.00     0.167 HD
HETATM    4  C5  UNL     1      -1.868   0.746   1.251  1.00  0.00     0.087 A 
HETATM    5  N4  UNL     1      -0.722   0.066   1.404  1.00  0.00    -0.343 N 
ATOM      6  H4  UNL     1      -0.676  -0.891   1.753  1.00  0.00     0.167 HD
HETATM    7  C14 UNL     1       0.366   0.785   1.046  1.00  0.00     0.067 A 
ENDROOT
BRANCH   7   8
HETATM    8  C15 UNL     1       1.762   0.400   0.998  1.00  0.00     0.002 A 
HETATM    9  C16 UNL     1       2.675   1.260   1.606  1.00  0.00     0.023 A 
HETATM   10  C17 UNL     1       4.011   1.052   1.577  1.00  0.00    -0.037 A 
HETATM   11  C18 UNL     1       4.980   1.986   2.232  1.00  0.00     0.050 C 
HETATM   12  C19 UNL     1       4.456  -0.089   0.901  1.00  0.00     0.067 A 
HETATM   13 CL1  UNL     1       6.187  -0.336   0.866  1.00  0.00    -0.081 Cl
HETATM   14  C20 UNL     1       3.625  -0.990   0.275  1.00  0.00     0.065 A 
HETATM   15  C21 UNL     1       2.236  -0.700   0.344  1.00  0.00    -0.017 A 
HETATM   16  N6  UNL     1       4.142  -2.160  -0.353  1.00  0.00    -0.340 N 
HETATM   17  C22 UNL     1       1.311  -1.549  -0.414  1.00  0.00     0.049 C 
HETATM   18  C23 UNL     1       1.771  -3.010  -0.276  1.00  0.00     0.081 C 
HETATM   19  C24 UNL     1       3.150  -3.050  -0.922  1.00  0.00     0.077 C 
HETATM   20  N5  UNL     1       3.402  -3.797  -1.882  1.00  0.00    -0.389 N 
ATOM     21  H52 UNL     1       2.704  -4.423  -2.283  1.00  0.00     0.157 HD
ATOM     22  H51 UNL     1       4.325  -3.824  -2.315  1.00  0.00     0.157 HD
HETATM   23  C25 UNL     1       5.527  -2.438  -0.404  1.00  0.00     0.158 C 
ENDBRANCH   7   8
BRANCH   1  24
HETATM   24  C3  UNL     1       0.557   3.160   0.104  1.00  0.00     0.059 C 
BRANCH  24  25
HETATM   25  C2  UNL     1       0.986   2.913  -1.356  1.00  0.00     0.002 C 
HETATM   26  C1  UNL     1       1.711   4.167  -1.797  1.00  0.00     0.005 C 
ENDBRANCH  24  25
ENDBRANCH   1  24
BRANCH   4  27
HETATM   27  C6  UNL     1      -3.242   0.298   1.574  1.00  0.00     0.136 C 
BRANCH  27  28
HETATM   28  C7  UNL     1      -4.002  -0.202   0.440  1.00  0.00     0.043 A 
HETATM   29  C8  UNL     1      -3.900  -1.419  -0.194  1.00  0.00    -0.015 A 
HETATM   30  C11 UNL     1      -4.850  -1.413  -1.194  1.00  0.00     0.116 A 
HETATM   31  N2  UNL     1      -5.486  -0.235  -1.145  1.00  0.00    -0.309 N 
HETATM   32  N3  UNL     1      -4.988   0.517  -0.160  1.00  0.00    -0.296 N 
ATOM     33  H2  UNL     1      -6.241   0.047  -1.770  1.00  0.00     0.186 HD
BRANCH  29  34
HETATM   34  C9  UNL     1      -2.958  -2.549   0.121  1.00  0.00     0.068 C 
BRANCH  34  35
HETATM   35  C10 UNL     1      -3.321  -3.742  -0.738  1.00  0.00     0.168 C 
BRANCH  35  36
HETATM   36  O1  UNL     1      -4.617  -4.191  -0.512  1.00  0.00    -0.401 OA
ATOM     37  H1  UNL     1      -4.845  -4.939  -1.051  1.00  0.00     0.209 HD
ENDBRANCH  35  36
ENDBRANCH  34  35
ENDBRANCH  29  34
BRANCH  32  38
HETATM   38  C12 UNL     1      -5.494   1.839   0.116  1.00  0.00     0.144 C 
HETATM   39  C13 UNL     1      -4.802   2.896  -0.675  1.00  0.00     0.028 C 
ENDBRANCH  32  38
ENDBRANCH  27  28
ENDBRANCH   4  27
TORSDOF 9
