REMARK  11 active torsions:
REMARK  status: ('A' for Active; 'I' for Inactive)
REMARK    1  A    between atoms: C2_2  and  O1_4 
REMARK    2  A    between atoms: O1_4  and  C3_5 
REMARK    3  A    between atoms: C13_16  and  C14_17 
REMARK    4  A    between atoms: C14_17  and  O3_18 
REMARK    5  A    between atoms: C15_20  and  C16_21 
REMARK    6  A    between atoms: C17_22  and  C18_23 
REMARK    7  A    between atoms: C18_23  and  C20_25 
REMARK    8  A    between atoms: C18_23  and  C21_28 
REMARK    9  A    between atoms: C20_25  and  O4_26 
REMARK   10  A    between atoms: C21_28  and  C22_29 
REMARK   11  A    between atoms: C22_29  and  O5_30 
ROOT
HETATM    1  C3  UNL     1       6.366   1.026  -0.734  1.00  0.00     0.163 C 
HETATM    2  C4  UNL     1       5.264   2.009  -0.630  1.00  0.00     0.036 C 
HETATM    3  C5  UNL     1       3.920   1.484  -1.161  1.00  0.00     0.017 C 
HETATM    4  C6  UNL     1       3.517   0.314  -0.328  1.00  0.00    -0.004 C 
HETATM    5  C7  UNL     1       3.693   0.852   1.168  1.00  0.00     0.021 C 
HETATM    6  C8  UNL     1       4.558  -0.717  -0.496  1.00  0.00    -0.035 C 
HETATM    7  C9  UNL     1       4.282  -1.990  -0.295  1.00  0.00     0.009 C 
HETATM    8  C10 UNL     1       2.927  -2.370   0.035  1.00  0.00     0.033 C 
HETATM    9  C11 UNL     1       1.933  -1.516   0.074  1.00  0.00     0.055 C 
HETATM   10  O2  UNL     1       0.754  -2.167   0.482  1.00  0.00    -0.354 OA
HETATM   11  C12 UNL     1      -0.314  -1.500   1.203  1.00  0.00     0.186 C 
HETATM   12  C13 UNL     1      -0.912  -0.535   0.259  1.00  0.00     0.067 C 
HETATM   13  C23 UNL     1      -0.224   0.787   0.107  1.00  0.00     0.014 C 
HETATM   14  C24 UNL     1       1.234   0.807   0.452  1.00  0.00     0.018 C 
HETATM   15  C25 UNL     1       2.110  -0.097  -0.323  1.00  0.00     0.016 C 
HETATM   16  C26 UNL     1       1.595  -0.059  -1.812  1.00  0.00     0.023 C 
HETATM   17  C27 UNL     1       5.922  -0.411  -0.977  1.00  0.00     0.229 C 
HETATM   18  F2  UNL     1       6.781  -1.343  -0.462  1.00  0.00    -0.242 F 
ENDROOT
BRANCH  12  19
HETATM   19  C14 UNL     1      -2.371  -0.424   0.450  1.00  0.00     0.057 C 
HETATM   20  C15 UNL     1      -3.206  -1.107  -0.370  1.00  0.00     0.097 C 
BRANCH  19  21
HETATM   21  O3  UNL     1      -2.947   0.352   1.435  1.00  0.00    -0.364 OA
ATOM     22  H3  UNL     1      -3.886   0.423   1.558  1.00  0.00     0.217 HD
ENDBRANCH  19  21
BRANCH  20  23
HETATM   23  C16 UNL     1      -4.581  -1.019  -0.221  1.00  0.00    -0.075 C 
HETATM   24  C17 UNL     1      -5.775  -0.942  -0.091  1.00  0.00    -0.090 C 
BRANCH  24  25
HETATM   25  C18 UNL     1      -7.194  -0.856   0.057  1.00  0.00     0.043 C 
HETATM   26  C19 UNL     1      -7.824  -2.010  -0.738  1.00  0.00     0.031 C 
BRANCH  25  27
HETATM   27  C20 UNL     1      -7.610  -1.022   1.511  1.00  0.00     0.186 C 
BRANCH  27  28
HETATM   28  O4  UNL     1      -7.073  -0.022   2.305  1.00  0.00    -0.399 OA
ATOM     29  H4  UNL     1      -7.333  -0.126   3.213  1.00  0.00     0.209 HD
ENDBRANCH  27  28
ENDBRANCH  25  27
BRANCH  25  30
HETATM   30  C21 UNL     1      -7.651   0.470  -0.528  1.00  0.00     0.050 C 
BRANCH  30  31
HETATM   31  C22 UNL     1      -9.110   0.722  -0.459  1.00  0.00     0.165 C 
BRANCH  31  32
HETATM   32  O5  UNL     1      -9.675   0.774   0.783  1.00  0.00    -0.401 OA
ATOM     33  H5  UNL     1     -10.610   0.936   0.827  1.00  0.00     0.209 HD
ENDBRANCH  31  32
ENDBRANCH  30  31
ENDBRANCH  25  30
ENDBRANCH  24  25
ENDBRANCH  20  23
ENDBRANCH  12  19
BRANCH   1  34
HETATM   34  O1  UNL     1       7.348   1.073   0.234  1.00  0.00    -0.349 OA
BRANCH  34  35
HETATM   35  C2  UNL     1       8.615   1.378  -0.167  1.00  0.00     0.303 C 
HETATM   36  C1  UNL     1       9.455   2.153   0.797  1.00  0.00     0.076 C 
HETATM   37  F1  UNL     1       9.245   0.055  -0.137  1.00  0.00    -0.220 F 
ENDBRANCH  34  35
ENDBRANCH   1  34
TORSDOF 11
