REMARK  8 active torsions:
REMARK  status: ('A' for Active; 'I' for Inactive)
REMARK    1  A    between atoms: C4_4  and  C5_5 
REMARK    2  A    between atoms: C8_10  and  C9_11 
REMARK    3  A    between atoms: C9_11  and  N2_12 
REMARK    4  A    between atoms: C9_11  and  C21_33 
REMARK    5  A    between atoms: N2_12  and  C10_14 
REMARK    6  A    between atoms: C10_14  and  C11_15 
REMARK    7  A    between atoms: C15_20  and  C16_21 
REMARK    8  A    between atoms: C18_25  and  N4_26 
ROOT
HETATM    1  N2  UNL     1       0.080  -0.174   0.171  1.00  0.00    -0.409 N 
ATOM      2  H2  UNL     1       0.166   0.683  -0.375  1.00  0.00     0.154 HD
ENDROOT
BRANCH   1   3
HETATM    3  C9  UNL     1      -1.143  -0.873   0.242  1.00  0.00     0.114 C 
BRANCH   3   4
HETATM    4  C8  UNL     1      -2.250  -0.074  -0.375  1.00  0.00    -0.019 A 
HETATM    5  C7  UNL     1      -2.044   0.613  -1.549  1.00  0.00     0.096 A 
HETATM    6  N1  UNL     1      -3.055   1.314  -2.071  1.00  0.00    -0.374 N 
HETATM    7  C6  UNL     1      -4.253   1.346  -1.458  1.00  0.00     0.100 A 
ATOM      8  H1  UNL     1      -2.918   1.829  -2.941  1.00  0.00     0.164 HD
HETATM    9  C5  UNL     1      -4.505   0.675  -0.284  1.00  0.00    -0.009 A 
HETATM   10  C24 UNL     1      -3.488  -0.056   0.281  1.00  0.00     0.024 A 
BRANCH   9  11
HETATM   11  C4  UNL     1      -5.842   0.723   0.381  1.00  0.00    -0.017 A 
HETATM   12  C3  UNL     1      -6.649   1.809   0.315  1.00  0.00     0.027 A 
HETATM   13  C2  UNL     1      -7.848   1.733   0.964  1.00  0.00    -0.021 A 
HETATM   14  C1  UNL     1      -8.898   2.814   1.024  1.00  0.00     0.056 C 
HETATM   15  S1  UNL     1      -7.832   0.176   1.644  1.00  0.00    -0.106 SA
HETATM   16  C25 UNL     1      -6.310  -0.349   1.095  1.00  0.00     0.062 A 
ENDBRANCH   9  11
ENDBRANCH   3   4
BRANCH   3  17
HETATM   17  C21 UNL     1      -1.223  -2.247  -0.307  1.00  0.00     0.004 C 
HETATM   18  C22 UNL     1      -1.043  -2.279  -1.806  1.00  0.00     0.012 C 
HETATM   19  C23 UNL     1      -0.441  -3.305   0.389  1.00  0.00     0.012 C 
ENDBRANCH   3  17
ENDBRANCH   1   3
BRANCH   1  20
HETATM   20  C10 UNL     1       1.201  -0.710   0.894  1.00  0.00     0.153 C 
BRANCH  20  21
HETATM   21  C11 UNL     1       2.385   0.226   0.733  1.00  0.00    -0.037 A 
HETATM   22  C12 UNL     1       2.142   1.562   0.975  1.00  0.00     0.051 A 
HETATM   23  C13 UNL     1       3.219   2.427   0.830  1.00  0.00     0.117 A 
HETATM   24  F1  UNL     1       2.979   3.740   1.069  1.00  0.00    -0.206 F 
HETATM   25  C14 UNL     1       4.470   1.967   0.462  1.00  0.00     0.054 A 
HETATM   26  C15 UNL     1       4.707   0.629   0.220  1.00  0.00    -0.020 A 
HETATM   27  C20 UNL     1       3.632  -0.234   0.365  1.00  0.00     0.021 A 
BRANCH  26  28
HETATM   28  C16 UNL     1       6.011   0.107  -0.170  1.00  0.00     0.006 A 
HETATM   29  C17 UNL     1       6.163  -1.004  -0.984  1.00  0.00     0.119 A 
HETATM   30  N3  UNL     1       7.397  -1.435  -1.308  1.00  0.00    -0.201 N 
HETATM   31  C18 UNL     1       8.522  -0.819  -0.866  1.00  0.00     0.675 A 
ATOM     32  H3  UNL     1       7.489  -2.255  -1.908  1.00  0.00     0.183 HD
HETATM   33  N5  UNL     1       8.408   0.261  -0.076  1.00  0.00    -0.201 N 
HETATM   34  C19 UNL     1       7.191   0.699   0.254  1.00  0.00     0.119 A 
ATOM     35  H5  UNL     1       9.240   0.740   0.267  1.00  0.00     0.183 HD
BRANCH  31  36
HETATM   36  N4  UNL     1       9.690  -1.240  -1.181  1.00  0.00    -0.234 N 
ATOM     37  H42 UNL     1       9.777  -2.060  -1.781  1.00  0.00     0.174 HD
ATOM     38  H41 UNL     1      10.536  -0.777  -0.849  1.00  0.00     0.174 HD
ENDBRANCH  31  36
ENDBRANCH  26  28
ENDBRANCH  20  21
ENDBRANCH   1  20
TORSDOF 8
