REMARK  9 active torsions:
REMARK  status: ('A' for Active; 'I' for Inactive)
REMARK    1  A    between atoms: N1_2  and  C2_4 
REMARK    2  A    between atoms: C5_9  and  N3_10 
REMARK    3  A    between atoms: N3_10  and  C6_12 
REMARK    4  A    between atoms: C8_15  and  O2_16 
REMARK    5  A    between atoms: N4_19  and  S1_20 
REMARK    6  A    between atoms: S1_20  and  C10_22 
REMARK    7  A    between atoms: S1_20  and  O5_26 
REMARK    8  A    between atoms: C10_22  and  O4_23 
REMARK    9  A    between atoms: O5_26  and  N6_27 
ROOT
HETATM    1  O4  UNL     1      -1.389  -3.058  -0.216  1.00  0.00    -0.268 OA
HETATM    2  C11 UNL     1      -1.230  -4.380  -0.386  1.00  0.00     0.229 C 
HETATM    3  N5  UNL     1      -1.087  -5.504  -0.511  1.00  0.00    -0.164 NA
ENDROOT
BRANCH   1   4
HETATM    4  C10 UNL     1      -1.079  -2.421   1.050  1.00  0.00     0.339 C 
BRANCH   4   5
HETATM    5  S1  UNL     1      -1.346  -0.641   1.114  1.00  0.00     0.212 S 
HETATM    6  O3  UNL     1      -0.747  -0.511   2.753  1.00  0.00    -0.216 OA
BRANCH   5   7
HETATM    7  N4  UNL     1      -0.117  -0.399  -0.375  1.00  0.00    -0.064 N 
HETATM    8  C2  UNL     1      -0.701  -0.303  -1.578  1.00  0.00     0.694 A 
HETATM    9  N2  UNL     1       0.051  -0.130  -2.654  1.00  0.00    -0.201 N 
HETATM   10  C3  UNL     1       1.378  -0.053  -2.541  1.00  0.00     0.110 A 
ATOM     11  H2  UNL     1      -0.386  -0.055  -3.573  1.00  0.00     0.183 HD
HETATM   12  C4  UNL     1       1.961  -0.154  -1.310  1.00  0.00     0.068 A 
HETATM   13  C5  UNL     1       1.184  -0.335  -0.176  1.00  0.00     0.141 A 
BRANCH   8  14
HETATM   14  N1  UNL     1      -1.978  -0.380  -1.736  1.00  0.00    -0.229 N 
HETATM   15  C1  UNL     1      -2.577  -0.282  -3.041  1.00  0.00     0.165 C 
ATOM     16  H1  UNL     1      -2.576  -0.513  -0.920  1.00  0.00     0.177 HD
ENDBRANCH   8  14
BRANCH  13  17
HETATM   17  N3  UNL     1       1.820  -0.418   1.084  1.00  0.00    -0.339 N 
ATOM     18  H3  UNL     1       1.231  -0.694   1.870  1.00  0.00     0.167 HD
BRANCH  17  19
HETATM   19  C6  UNL     1       3.165  -0.165   1.377  1.00  0.00     0.061 A 
HETATM   20  C7  UNL     1       3.889  -0.854   2.357  1.00  0.00     0.174 A 
HETATM   21  O1  UNL     1       5.096  -0.365   2.437  1.00  0.00    -0.298 OA
HETATM   22  C8  UNL     1       5.258   0.611   1.587  1.00  0.00     0.184 A 
HETATM   23  C9  UNL     1       4.058   0.762   0.903  1.00  0.00     0.095 A 
BRANCH  22  24
HETATM   24  O2  UNL     1       6.400   1.397   1.357  1.00  0.00    -0.341 OA
ATOM     25  H2  UNL     1       6.518   2.108   0.738  1.00  0.00     0.220 HD
ENDBRANCH  22  24
ENDBRANCH  17  19
ENDBRANCH  13  17
ENDBRANCH   5   7
BRANCH   5  26
HETATM   26  O5  UNL     1      -1.550   0.951   1.141  1.00  0.00    -0.163 OA
BRANCH  26  27
HETATM   27  N6  UNL     1      -1.970   1.931   0.342  1.00  0.00    -0.224 N 
HETATM   28  C12 UNL     1      -3.027   2.623   0.698  1.00  0.00     0.222 C 
HETATM   29  N7  UNL     1      -3.715   2.341   1.907  1.00  0.00    -0.065 NA
HETATM   30  N8  UNL     1      -3.533   3.675  -0.091  1.00  0.00    -0.065 NA
ATOM     31  H6  UNL     1      -1.480   2.139  -0.528  1.00  0.00     0.198 HD
ENDBRANCH  26  27
ENDBRANCH   5  26
ENDBRANCH   4   5
ENDBRANCH   1   4
TORSDOF 9
