REMARK  14 active torsions:
REMARK  status: ('A' for Active; 'I' for Inactive)
REMARK    1  A    between atoms: O1_2  and  C2_3 
REMARK    2  A    between atoms: C5_6  and  O2_7 
REMARK    3  A    between atoms: O2_7  and  C6_8 
REMARK    4  A    between atoms: C6_8  and  C7_9 
REMARK    5  A    between atoms: C7_9  and  C8_10 
REMARK    6  A    between atoms: C8_10  and  N1_11 
REMARK    7  A    between atoms: N2_14  and  C11_15 
REMARK    8  A    between atoms: C11_15  and  O3_17 
REMARK    9  A    between atoms: O3_17  and  C12_18 
REMARK   10  A    between atoms: C12_18  and  C13_19 
REMARK   11  A    between atoms: C13_19  and  C14_20 
REMARK   12  A    between atoms: C14_20  and  C15_21 
REMARK   13  A    between atoms: C15_21  and  N3_22 
REMARK       I    between atoms: N3_22  and  C16_24 
REMARK       I    between atoms: C16_24  and  N4_26 
REMARK   14  A    between atoms: N4_26  and  C17_28 
ROOT
HETATM    1  O3  UNL     1      -1.371   0.829  -2.048  1.00  0.00    -0.327 OA
ENDROOT
BRANCH   1   2
HETATM    2  C11 UNL     1      -0.342   1.510  -1.496  1.00  0.00     0.212 C 
HETATM    3  S1  UNL     1      -0.554   3.036  -0.887  1.00  0.00    -0.033 SA
BRANCH   2   4
HETATM    4  N2  UNL     1       0.967   0.930  -1.423  1.00  0.00    -0.349 N 
HETATM    5  C10 UNL     1       1.175  -0.389  -1.945  1.00  0.00     0.156 C 
HETATM    6  C9  UNL     1       2.040  -1.158  -0.943  1.00  0.00     0.292 C 
HETATM    7  N1  UNL     1       3.241  -0.431  -0.647  1.00  0.00     0.091 N 
HETATM    8  C25 UNL     1       2.918   0.789   0.011  1.00  0.00     0.292 C 
HETATM    9  C24 UNL     1       2.035   1.683  -0.848  1.00  0.00     0.156 C 
BRANCH   7  10
HETATM   10  C8  UNL     1       4.272  -1.221  -0.075  1.00  0.00     0.274 C 
BRANCH  10  11
HETATM   11  C7  UNL     1       5.540  -0.413   0.224  1.00  0.00     0.057 C 
BRANCH  11  12
HETATM   12  C6  UNL     1       6.044   0.176  -1.056  1.00  0.00     0.179 C 
BRANCH  12  13
HETATM   13  O2  UNL     1       7.198   0.951  -0.938  1.00  0.00    -0.336 OA
BRANCH  13  14
HETATM   14  C5  UNL     1       8.431   0.526  -0.495  1.00  0.00     0.141 A 
HETATM   15  C4  UNL     1       9.501   1.432  -0.429  1.00  0.00     0.059 A 
HETATM   16  C3  UNL     1      10.748   1.042   0.008  1.00  0.00     0.042 A 
HETATM   17  C2  UNL     1      10.999  -0.252   0.398  1.00  0.00     0.083 A 
HETATM   18  C26 UNL     1       9.925  -1.126   0.323  1.00  0.00     0.126 A 
HETATM   19  N7  UNL     1       8.718  -0.724  -0.106  1.00  0.00    -0.344 N 
ATOM     20  H7  UNL     1       7.969  -1.416  -0.138  1.00  0.00     0.167 HD
BRANCH  17  21
HETATM   21  O1  UNL     1      12.225  -0.716   0.846  1.00  0.00    -0.355 OA
HETATM   22  C1  UNL     1      13.374   0.076   0.962  1.00  0.00     0.210 C 
ENDBRANCH  17  21
ENDBRANCH  13  14
ENDBRANCH  12  13
ENDBRANCH  11  12
ENDBRANCH  10  11
ENDBRANCH   7  10
ENDBRANCH   2   4
ENDBRANCH   1   2
BRANCH   1  23
HETATM   23  C12 UNL     1      -2.523   0.298  -1.517  1.00  0.00     0.178 C 
BRANCH  23  24
HETATM   24  C13 UNL     1      -2.431  -0.736  -0.483  1.00  0.00     0.028 C 
BRANCH  24  25
HETATM   25  C14 UNL     1      -1.821  -0.471   0.817  1.00  0.00     0.022 C 
BRANCH  25  26
HETATM   26  C15 UNL     1      -2.415   0.579   1.683  1.00  0.00     0.124 C 
BRANCH  26  27
HETATM   27  N3  UNL     1      -3.787   0.404   2.052  1.00  0.00    -0.343 N 
HETATM   28  C16 UNL     1      -4.258  -0.697   2.758  1.00  0.00     0.322 C 
HETATM   29  O4  UNL     1      -3.555  -1.658   3.154  1.00  0.00    -0.247 OA
HETATM   30  N4  UNL     1      -5.660  -0.781   3.086  1.00  0.00    -0.289 N 
ATOM     31  H4  UNL     1      -5.955  -0.985   4.041  1.00  0.00     0.172 HD
ATOM     32  H3  UNL     1      -4.455   1.126   1.782  1.00  0.00     0.164 HD
BRANCH  30  33
HETATM   33  C17 UNL     1      -6.554  -0.592   2.141  1.00  0.00     0.153 A 
HETATM   34  N5  UNL     1      -7.876  -0.634   2.272  1.00  0.00    -0.339 N 
HETATM   35  C18 UNL     1      -8.616  -0.418   1.204  1.00  0.00     0.027 A 
ATOM     36  H5  UNL     1      -8.306  -0.828   3.176  1.00  0.00     0.168 HD
HETATM   37  C19 UNL     1      -7.976  -0.164   0.025  1.00  0.00     0.026 A 
HETATM   38  C23 UNL     1     -10.144  -0.421   1.165  1.00  0.00     0.077 C 
HETATM   39  S2  UNL     1      -6.336  -0.244   0.489  1.00  0.00    -0.055 SA
HETATM   40  C20 UNL     1      -8.657   0.105  -1.280  1.00  0.00     0.164 C 
HETATM   41  N6  UNL     1     -10.060   0.008  -1.162  1.00  0.00    -0.412 N 
HETATM   42  C21 UNL     1     -10.670  -1.204  -1.597  1.00  0.00     0.143 C 
HETATM   43  C22 UNL     1     -10.532   0.546   0.070  1.00  0.00     0.122 C 
ENDBRANCH  30  33
ENDBRANCH  26  27
ENDBRANCH  25  26
ENDBRANCH  24  25
ENDBRANCH  23  24
ENDBRANCH   1  23
TORSDOF 14
