REMARK  13 active torsions:
REMARK  status: ('A' for Active; 'I' for Inactive)
REMARK    1  A    between atoms: S1_2  and  C2_3 
REMARK    2  A    between atoms: C2_3  and  C3_4 
REMARK    3  A    between atoms: C3_4  and  C4_5 
REMARK    4  A    between atoms: C4_5  and  N1_6 
REMARK    5  A    between atoms: C4_5  and  C10_15 
REMARK       I    between atoms: N1_6  and  C5_8 
REMARK    6  A    between atoms: C5_8  and  O2_10 
REMARK    7  A    between atoms: O2_10  and  C6_11 
REMARK       I    between atoms: C10_15  and  N2_17 
REMARK    8  A    between atoms: N2_17  and  C11_19 
REMARK    9  A    between atoms: C11_19  and  C12_20 
REMARK   10  A    between atoms: C12_20  and  N3_21 
REMARK   11  A    between atoms: N5_26  and  C16_27 
REMARK   12  A    between atoms: C16_27  and  C17_28 
REMARK   13  A    between atoms: C17_28  and  C18_29 
ROOT
HETATM    1  N3  UNL     1      -0.653  -1.148   0.378  1.00  0.00     0.092 N 
HETATM    2  C13 UNL     1      -1.240   0.067  -0.065  1.00  0.00     0.288 C 
HETATM    3  C14 UNL     1      -2.717   0.148  -0.113  1.00  0.00     0.138 C 
HETATM    4  N4  UNL     1      -3.450  -0.381   0.987  1.00  0.00    -0.252 NA
HETATM    5  C15 UNL     1      -2.863  -0.057   2.268  1.00  0.00     0.130 C 
HETATM    6  N5  UNL     1      -3.744  -1.751   0.833  1.00  0.00    -0.248 NA
HETATM    7  C26 UNL     1      -2.503  -2.474   1.232  1.00  0.00     0.138 C 
HETATM    8  C27 UNL     1      -1.462  -2.277   0.124  1.00  0.00     0.288 C 
ENDROOT
BRANCH   1   9
HETATM    9  C12 UNL     1       0.687  -1.208  -0.105  1.00  0.00     0.292 C 
BRANCH   9  10
HETATM   10  C11 UNL     1       1.470  -2.436   0.193  1.00  0.00     0.152 C 
BRANCH  10  11
HETATM   11  N2  UNL     1       2.827  -2.351  -0.329  1.00  0.00    -0.358 N 
HETATM   12  C10 UNL     1       3.788  -1.401   0.073  1.00  0.00     0.240 C 
HETATM   13  O3  UNL     1       3.528  -0.542   0.947  1.00  0.00    -0.271 OA
ATOM     14  H2  UNL     1       3.103  -3.030  -1.039  1.00  0.00     0.162 HD
BRANCH  12  15
HETATM   15  C4  UNL     1       5.169  -1.372  -0.527  1.00  0.00     0.179 C 
BRANCH  15  16
HETATM   16  C3  UNL     1       5.740  -2.756  -0.420  1.00  0.00     0.045 C 
BRANCH  16  17
HETATM   17  C2  UNL     1       7.089  -2.926  -1.047  1.00  0.00     0.076 C 
BRANCH  17  18
HETATM   18  S1  UNL     1       8.382  -1.903  -0.367  1.00  0.00    -0.173 SA
HETATM   19  C1  UNL     1       8.817  -2.321   1.341  1.00  0.00     0.089 C 
ENDBRANCH  17  18
ENDBRANCH  16  17
ENDBRANCH  15  16
BRANCH  15  20
HETATM   20  N1  UNL     1       5.975  -0.380   0.106  1.00  0.00    -0.324 N 
HETATM   21  C5  UNL     1       6.449   0.813  -0.494  1.00  0.00     0.362 C 
HETATM   22  O1  UNL     1       6.190   1.106  -1.669  1.00  0.00    -0.238 OA
ATOM     23  H1  UNL     1       6.234  -0.544   1.079  1.00  0.00     0.165 HD
BRANCH  21  24
HETATM   24  O2  UNL     1       7.223   1.680   0.245  1.00  0.00    -0.294 OA
BRANCH  24  25
HETATM   25  C6  UNL     1       7.746   2.889  -0.221  1.00  0.00     0.061 C 
HETATM   26  C7  UNL     1       8.653   2.759  -1.408  1.00  0.00     0.046 C 
HETATM   27  C8  UNL     1       8.625   3.436   0.917  1.00  0.00     0.046 C 
HETATM   28  C9  UNL     1       6.659   3.924  -0.424  1.00  0.00     0.046 C 
ENDBRANCH  24  25
ENDBRANCH  21  24
ENDBRANCH  15  20
ENDBRANCH  12  15
ENDBRANCH  10  11
ENDBRANCH   9  10
ENDBRANCH   1   9
BRANCH   6  29
HETATM   29  C16 UNL     1      -4.837  -2.233   1.601  1.00  0.00     0.114 C 
BRANCH  29  30
HETATM   30  C17 UNL     1      -6.152  -2.102   1.017  1.00  0.00     0.080 C 
BRANCH  30  31
HETATM   31  C18 UNL     1      -6.729  -0.776   0.737  1.00  0.00     0.052 A 
HETATM   32  N6  UNL     1      -7.947  -0.645   0.109  1.00  0.00    -0.356 N 
HETATM   33  C19 UNL     1      -8.416   0.517  -0.091  1.00  0.00     0.023 A 
ATOM     34  H6  UNL     1      -8.465  -1.471  -0.191  1.00  0.00     0.166 HD
HETATM   35  C20 UNL     1      -7.696   1.611   0.323  1.00  0.00     0.007 A 
HETATM   36  C25 UNL     1      -9.773   0.691  -0.779  1.00  0.00     0.058 C 
HETATM   37  S2  UNL     1      -6.337   0.848   1.002  1.00  0.00    -0.079 SA
HETATM   38  C21 UNL     1      -7.984   3.080   0.220  1.00  0.00     0.048 C 
HETATM   39  C22 UNL     1      -8.798   3.333  -1.056  1.00  0.00     0.005 C 
HETATM   40  C23 UNL     1      -8.498   2.335  -2.130  1.00  0.00     0.001 C 
HETATM   41  C24 UNL     1      -9.532   1.237  -2.167  1.00  0.00     0.006 C 
ENDBRANCH  30  31
ENDBRANCH  29  30
ENDBRANCH   6  29
TORSDOF 13
