REMARK  13 active torsions:
REMARK  status: ('A' for Active; 'I' for Inactive)
REMARK    1  A    between atoms: O1_2  and  N1_3 
REMARK    2  A    between atoms: C5_8  and  O3_9 
REMARK    3  A    between atoms: C16_23  and  O6_24 
REMARK    4  A    between atoms: O6_24  and  C17_25 
REMARK    5  A    between atoms: C17_25  and  C19_27 
REMARK       I    between atoms: C19_27  and  N2_29 
REMARK       I    between atoms: N2_29  and  C20_31 
REMARK    6  A    between atoms: C20_31  and  C21_33 
REMARK    7  A    between atoms: C21_33  and  C22_34 
REMARK    8  A    between atoms: C22_34  and  C23_35 
REMARK    9  A    between atoms: C23_35  and  C24_36 
REMARK   10  A    between atoms: C24_36  and  C25_37 
REMARK   11  A    between atoms: C25_37  and  C26_38 
REMARK   12  A    between atoms: C26_38  and  C27_39 
REMARK   13  A    between atoms: C27_39  and  S1_40 
ROOT
HETATM    1  N1  UNL     1      -2.579  -1.960   1.541  1.00  0.00    -0.218 N 
HETATM    2  C2  UNL     1      -2.728  -1.603   2.892  1.00  0.00     0.244 C 
HETATM    3  O2  UNL     1      -1.856  -1.750   3.780  1.00  0.00    -0.271 OA
HETATM    4  C3  UNL     1      -4.082  -1.061   2.939  1.00  0.00     0.120 C 
HETATM    5  C4  UNL     1      -4.140  -0.283   1.580  1.00  0.00     0.027 A 
HETATM    6  C5  UNL     1      -3.963   1.141   1.711  1.00  0.00     0.135 A 
HETATM    7  C6  UNL     1      -5.282   0.574   1.482  1.00  0.00     0.043 A 
HETATM    8  C7  UNL     1      -6.207   0.628   0.379  1.00  0.00     0.096 C 
HETATM    9  C8  UNL     1      -6.745  -0.745  -0.022  1.00  0.00     0.137 C 
HETATM   10  O4  UNL     1      -7.546  -1.319   0.671  1.00  0.00    -0.297 OA
HETATM   11  C9  UNL     1      -6.275  -1.369  -1.273  1.00  0.00     0.111 C 
HETATM   12  C10 UNL     1      -5.139  -0.619  -1.894  1.00  0.00     0.135 C 
HETATM   13  O5  UNL     1      -4.889   0.651  -1.490  1.00  0.00    -0.374 OA
HETATM   14  C11 UNL     1      -5.935   1.338  -0.902  1.00  0.00     0.065 C 
HETATM   15  C12 UNL     1      -5.729   2.810  -0.811  1.00  0.00     0.046 C 
HETATM   16  C13 UNL     1      -7.200   1.158  -1.766  1.00  0.00     0.046 C 
HETATM   17  C14 UNL     1      -3.912  -1.421  -1.809  1.00  0.00     0.042 C 
HETATM   18  C15 UNL     1      -4.134  -2.937  -1.940  1.00  0.00     0.015 C 
HETATM   19  C16 UNL     1      -2.995  -1.116  -0.611  1.00  0.00     0.161 C 
HETATM   20  C29 UNL     1      -3.611  -1.269   0.708  1.00  0.00     0.159 C 
ENDROOT
BRANCH  19  21
HETATM   21  O6  UNL     1      -2.233  -0.064  -0.898  1.00  0.00    -0.342 OA
BRANCH  21  22
HETATM   22  C17 UNL     1      -0.971  -0.129  -1.341  1.00  0.00     0.111 C 
HETATM   23  C18 UNL     1      -0.710   0.423  -2.722  1.00  0.00     0.082 C 
BRANCH  22  24
HETATM   24  C19 UNL     1       0.095   0.242  -0.380  1.00  0.00     0.276 C 
HETATM   25  O7  UNL     1      -0.139   0.512   0.806  1.00  0.00    -0.265 OA
HETATM   26  N2  UNL     1       1.438   0.290  -0.835  1.00  0.00    -0.292 N 
HETATM   27  C20 UNL     1       2.539   0.597   0.013  1.00  0.00     0.224 C 
ATOM     28  H2  UNL     1       1.624   0.095  -1.819  1.00  0.00     0.172 HD
HETATM   29  O8  UNL     1       2.313   0.818   1.229  1.00  0.00    -0.273 OA
BRANCH  27  30
HETATM   30  C21 UNL     1       3.928   0.658  -0.511  1.00  0.00     0.103 C 
BRANCH  30  31
HETATM   31  C22 UNL     1       4.907   0.889   0.604  1.00  0.00     0.009 C 
BRANCH  31  32
HETATM   32  C23 UNL     1       6.326   0.971   0.060  1.00  0.00     0.000 C 
BRANCH  32  33
HETATM   33  C24 UNL     1       7.305   1.177   1.179  1.00  0.00     0.000 C 
BRANCH  33  34
HETATM   34  C25 UNL     1       8.739   1.307   0.723  1.00  0.00     0.001 C 
BRANCH  34  35
HETATM   35  C26 UNL     1       9.214   0.113  -0.040  1.00  0.00     0.010 C 
BRANCH  35  36
HETATM   36  C27 UNL     1      10.634   0.219  -0.530  1.00  0.00     0.073 C 
BRANCH  36  37
HETATM   37  S1  UNL     1      11.873   0.394   0.726  1.00  0.00    -0.173 SA
HETATM   38  C28 UNL     1      11.834   1.952   1.598  1.00  0.00     0.089 C 
ENDBRANCH  36  37
ENDBRANCH  35  36
ENDBRANCH  34  35
ENDBRANCH  33  34
ENDBRANCH  32  33
ENDBRANCH  31  32
ENDBRANCH  30  31
ENDBRANCH  27  30
ENDBRANCH  22  24
ENDBRANCH  21  22
ENDBRANCH  19  21
BRANCH   1  39
HETATM   39  O1  UNL     1      -1.647  -2.812   1.012  1.00  0.00    -0.280 OA
HETATM   40  C1  UNL     1      -1.209  -3.720   1.973  1.00  0.00     0.238 C 
ENDBRANCH   1  39
BRANCH   6  41
HETATM   41  O3  UNL     1      -3.264   1.937   0.825  1.00  0.00    -0.394 OA
ATOM     42  H3  UNL     1      -3.147   2.876   0.911  1.00  0.00     0.210 HD
ENDBRANCH   6  41
TORSDOF 13
