REMARK  11 active torsions:
REMARK  status: ('A' for Active; 'I' for Inactive)
REMARK    1  A    between atoms: C2_2  and  C3_3 
REMARK    2  A    between atoms: C3_3  and  C5_5 
REMARK    3  A    between atoms: C7_7  and  C8_8 
REMARK    4  A    between atoms: C8_8  and  N1_9 
REMARK    5  A    between atoms: C15_18  and  O1_19 
REMARK    6  A    between atoms: C17_21  and  C18_22 
REMARK    7  A    between atoms: C19_23  and  N4_24 
REMARK    8  A    between atoms: C24_32  and  C25_33 
REMARK       I    between atoms: C25_33  and  N6_35 
REMARK    9  A    between atoms: N6_35  and  C26_37 
REMARK   10  A    between atoms: C26_37  and  C27_38 
REMARK   11  A    between atoms: C27_38  and  O4_39 
ROOT
HETATM    1  C5  UNL     1      -2.105   0.954  -0.495  1.00  0.00    -0.009 A 
HETATM    2  C6  UNL     1      -3.179   0.619   0.272  1.00  0.00     0.021 A 
HETATM    3  C7  UNL     1      -3.073  -0.154   1.419  1.00  0.00    -0.013 A 
HETATM    4  C14 UNL     1      -1.792  -0.568   1.741  1.00  0.00     0.109 A 
HETATM    5  N3  UNL     1      -0.706  -0.256   1.006  1.00  0.00    -0.285 N 
HETATM    6  C15 UNL     1       0.621  -0.589   1.181  1.00  0.00     0.179 A 
HETATM    7  C17 UNL     1       1.293  -0.027   0.156  1.00  0.00     0.115 A 
HETATM    8  N8  UNL     1       0.381   0.621  -0.602  1.00  0.00    -0.336 N 
ATOM      9  H8  UNL     1       0.607   1.140  -1.450  1.00  0.00     0.168 HD
HETATM   10  C30 UNL     1      -0.854   0.499  -0.105  1.00  0.00     0.121 A 
ENDROOT
BRANCH   7  11
HETATM   11  C18 UNL     1       2.722  -0.001  -0.151  1.00  0.00     0.093 A 
HETATM   12  C19 UNL     1       3.470   1.195  -0.129  1.00  0.00     0.070 A 
HETATM   13  C23 UNL     1       4.746   0.847  -0.519  1.00  0.00     0.067 A 
HETATM   14  C24 UNL     1       4.793  -0.484  -0.770  1.00  0.00     0.105 A 
HETATM   15  N7  UNL     1       3.555  -0.974  -0.540  1.00  0.00    -0.343 N 
HETATM   16  C29 UNL     1       3.216  -2.371  -0.747  1.00  0.00     0.157 C 
BRANCH  12  17
HETATM   17  N4  UNL     1       2.971   2.467   0.228  1.00  0.00    -0.296 N 
HETATM   18  C20 UNL     1       2.654   3.556  -0.663  1.00  0.00     0.153 C 
HETATM   19  C21 UNL     1       2.359   4.749   0.182  1.00  0.00     0.144 C 
HETATM   20  N5  UNL     1       2.167   4.228   1.506  1.00  0.00    -0.341 N 
HETATM   21  C22 UNL     1       2.696   2.921   1.534  1.00  0.00     0.323 C 
ATOM     22  H5  UNL     1       1.727   4.716   2.286  1.00  0.00     0.164 HD
HETATM   23  O2  UNL     1       2.895   2.253   2.574  1.00  0.00    -0.247 OA
ENDBRANCH  12  17
BRANCH  14  24
HETATM   24  C25 UNL     1       5.983  -1.276  -1.238  1.00  0.00     0.268 C 
HETATM   25  O3  UNL     1       5.817  -2.529  -1.293  1.00  0.00    -0.266 OA
HETATM   26  N6  UNL     1       7.129  -0.556  -1.560  1.00  0.00    -0.354 N 
ATOM     27  H6  UNL     1       7.016   0.451  -1.443  1.00  0.00     0.162 HD
BRANCH  26  28
HETATM   28  C26 UNL     1       8.419  -0.922  -2.015  1.00  0.00     0.149 C 
BRANCH  28  29
HETATM   29  C27 UNL     1       9.231  -1.768  -1.119  1.00  0.00     0.186 C 
BRANCH  29  30
HETATM   30  O4  UNL     1       8.757  -2.998  -0.837  1.00  0.00    -0.394 OA
HETATM   31  C28 UNL     1       8.808  -3.861  -1.941  1.00  0.00     0.201 C 
ENDBRANCH  29  30
ENDBRANCH  28  29
ENDBRANCH  26  28
ENDBRANCH  14  24
ENDBRANCH   7  11
BRANCH   6  32
HETATM   32  O1  UNL     1       1.041  -1.349   2.248  1.00  0.00    -0.339 OA
HETATM   33  C16 UNL     1       1.240  -2.692   2.396  1.00  0.00     0.211 C 
ENDBRANCH   6  32
BRANCH   1  34
HETATM   34  C3  UNL     1      -2.244   1.759  -1.688  1.00  0.00     0.018 C 
HETATM   35  C4  UNL     1      -1.274   2.915  -1.808  1.00  0.00     0.015 C 
BRANCH  34  36
HETATM   36  C2  UNL     1      -3.613   2.306  -1.946  1.00  0.00     0.004 C 
HETATM   37  C1  UNL     1      -4.015   3.384  -0.977  1.00  0.00     0.006 C 
ENDBRANCH  34  36
ENDBRANCH   1  34
BRANCH   3  38
HETATM   38  C8  UNL     1      -4.202  -0.553   2.279  1.00  0.00     0.312 C 
BRANCH  38  39
HETATM   39  N1  UNL     1      -5.489  -0.520   1.673  1.00  0.00     0.096 N 
HETATM   40  C9  UNL     1      -5.534  -1.474   0.592  1.00  0.00     0.303 C 
HETATM   41  C10 UNL     1      -6.926  -1.449  -0.038  1.00  0.00     0.302 C 
HETATM   42  N2  UNL     1      -7.833  -1.917   0.969  1.00  0.00     0.087 N 
HETATM   43  C11 UNL     1      -9.127  -2.298   0.462  1.00  0.00     0.310 C 
HETATM   44  C12 UNL     1      -7.866  -0.987   2.050  1.00  0.00     0.302 C 
HETATM   45  C13 UNL     1      -6.476  -0.901   2.657  1.00  0.00     0.303 C 
ENDBRANCH  38  39
ENDBRANCH   3  38
TORSDOF 11
