REMARK  12 active torsions:
REMARK  status: ('A' for Active; 'I' for Inactive)
REMARK    1  A    between atoms: O1_2  and  C2_3 
REMARK    2  A    between atoms: C2_3  and  C3_4 
REMARK    3  A    between atoms: C3_4  and  C4_5 
REMARK    4  A    between atoms: C4_5  and  N1_6 
REMARK    5  A    between atoms: C9_11  and  C10_12 
REMARK    6  A    between atoms: C13_15  and  O2_16 
REMARK    7  A    between atoms: O2_16  and  C14_17 
REMARK    8  A    between atoms: C14_17  and  C15_18 
REMARK    9  A    between atoms: C15_18  and  N2_19 
REMARK   10  A    between atoms: N4_30  and  C22_31 
REMARK   11  A    between atoms: C22_31  and  C23_32 
REMARK   12  A    between atoms: C30_39  and  O5_40 
ROOT
HETATM    1  N1  UNL     1      -1.488  -0.992  -0.345  1.00  0.00    -0.291 N 
HETATM    2  C5  UNL     1      -1.889   0.120  -0.918  1.00  0.00     0.062 A 
HETATM    3  C6  UNL     1      -1.072   1.184  -1.359  1.00  0.00    -0.014 A 
HETATM    4  C7  UNL     1       0.243   1.037  -1.198  1.00  0.00    -0.036 A 
HETATM    5  C8  UNL     1       1.151   2.139  -1.660  1.00  0.00     0.050 C 
HETATM    6  C9  UNL     1       0.775  -0.105  -0.618  1.00  0.00     0.051 A 
HETATM    7  C19 UNL     1      -0.108  -1.070  -0.214  1.00  0.00     0.263 A 
HETATM    8  O3  UNL     1       0.295  -2.133   0.324  1.00  0.00    -0.267 OA
HETATM    9  C20 UNL     1      -1.593   2.538  -1.778  1.00  0.00     0.145 C 
HETATM   10  C21 UNL     1      -2.643   3.026  -0.844  1.00  0.00     0.232 C 
HETATM   11  O4  UNL     1      -2.457   4.193  -0.459  1.00  0.00    -0.272 OA
HETATM   12  N4  UNL     1      -3.855   2.455  -0.265  1.00  0.00    -0.290 N 
HETATM   13  C26 UNL     1      -4.231   1.110  -0.609  1.00  0.00     0.123 A 
HETATM   14  C27 UNL     1      -3.329   0.116  -1.084  1.00  0.00     0.035 A 
HETATM   15  C28 UNL     1      -3.720  -1.071  -1.598  1.00  0.00     0.004 A 
HETATM   16  C29 UNL     1      -2.719  -1.762  -2.454  1.00  0.00     0.054 C 
HETATM   17  C30 UNL     1      -5.088  -1.269  -1.601  1.00  0.00     0.149 A 
HETATM   18  N5  UNL     1      -5.965  -0.348  -1.144  1.00  0.00    -0.302 N 
ATOM     19  H5  UNL     1      -6.965  -0.548  -1.168  1.00  0.00     0.171 HD
HETATM   20  C31 UNL     1      -5.535   0.823  -0.660  1.00  0.00     0.275 A 
HETATM   21  O6  UNL     1      -6.286   1.727  -0.223  1.00  0.00    -0.266 OA
ENDROOT
BRANCH   6  22
HETATM   22  C10 UNL     1       2.218  -0.251  -0.460  1.00  0.00    -0.004 A 
HETATM   23  C11 UNL     1       3.001  -0.741  -1.496  1.00  0.00     0.018 A 
HETATM   24  C12 UNL     1       4.354  -0.855  -1.293  1.00  0.00     0.057 A 
HETATM   25  C13 UNL     1       4.867  -0.476  -0.068  1.00  0.00     0.141 A 
HETATM   26  N3  UNL     1       4.096  -0.006   0.918  1.00  0.00    -0.346 N 
HETATM   27  C18 UNL     1       2.777   0.113   0.744  1.00  0.00     0.102 A 
ATOM     28  H3  UNL     1       4.517   0.263   1.807  1.00  0.00     0.167 HD
BRANCH  25  29
HETATM   29  O2  UNL     1       6.252  -0.583   0.164  1.00  0.00    -0.334 OA
BRANCH  29  30
HETATM   30  C14 UNL     1       6.769  -0.199   1.404  1.00  0.00     0.207 C 
BRANCH  30  31
HETATM   31  C15 UNL     1       8.262  -0.414   1.385  1.00  0.00     0.298 C 
BRANCH  31  32
HETATM   32  N2  UNL     1       8.830   0.390   0.333  1.00  0.00     0.082 N 
HETATM   33  C16 UNL     1      10.266   0.155   0.347  1.00  0.00     0.309 C 
HETATM   34  C17 UNL     1       8.597   1.783   0.667  1.00  0.00     0.309 C 
ENDBRANCH  31  32
ENDBRANCH  30  31
ENDBRANCH  29  30
ENDBRANCH  25  29
ENDBRANCH   6  22
BRANCH   1  35
HETATM   35  C4  UNL     1      -2.321  -1.896   0.347  1.00  0.00     0.075 C 
BRANCH  35  36
HETATM   36  C3  UNL     1      -2.475  -3.339   0.292  1.00  0.00     0.071 C 
BRANCH  36  37
HETATM   37  C2  UNL     1      -3.552  -3.647   1.368  1.00  0.00     0.172 C 
BRANCH  37  38
HETATM   38  O1  UNL     1      -3.799  -4.970   1.457  1.00  0.00    -0.396 OA
HETATM   39  C1  UNL     1      -4.281  -5.634   0.368  1.00  0.00     0.201 C 
ENDBRANCH  37  38
ENDBRANCH  36  37
ENDBRANCH  35  36
ENDBRANCH   1  35
BRANCH  12  40
HETATM   40  C22 UNL     1      -4.706   3.104   0.614  1.00  0.00     0.078 C 
BRANCH  40  41
HETATM   41  C23 UNL     1      -4.452   2.924   2.098  1.00  0.00     0.025 A 
HETATM   42  C24 UNL     1      -3.234   3.297   2.804  1.00  0.00     0.010 A 
HETATM   43  C25 UNL     1      -4.501   4.032   3.042  1.00  0.00     0.010 A 
ENDBRANCH  40  41
ENDBRANCH  12  40
BRANCH  17  44
HETATM   44  O5  UNL     1      -5.522  -2.499  -2.116  1.00  0.00    -0.346 OA
ATOM     45  H5  UNL     1      -6.462  -2.635  -2.118  1.00  0.00     0.219 HD
ENDBRANCH  17  44
TORSDOF 12
