REMARK  12 active torsions:
REMARK  status: ('A' for Active; 'I' for Inactive)
REMARK    1  A    between atoms: N1_4  and  C4_5 
REMARK    2  A    between atoms: C4_5  and  C5_6 
REMARK    3  A    between atoms: C5_6  and  N2_7 
REMARK    4  A    between atoms: N3_15  and  C12_16 
REMARK    5  A    between atoms: C15_19  and  C16_20 
REMARK    6  A    between atoms: C16_20  and  N4_21 
REMARK    7  A    between atoms: N4_21  and  C17_23 
REMARK    8  A    between atoms: C18_26  and  N6_27 
REMARK    9  A    between atoms: C28_39  and  O2_40 
REMARK   10  A    between atoms: O2_40  and  C29_41 
REMARK   11  A    between atoms: C29_41  and  C32_44 
REMARK   12  A    between atoms: C32_44  and  N8_45 
ROOT
HETATM    1  C12 UNL     1       0.654  -0.824  -0.079  1.00  0.00     0.065 A 
HETATM    2  C13 UNL     1      -0.007   0.348   0.367  1.00  0.00     0.033 A 
HETATM    3  C14 UNL     1      -1.356   0.442   0.537  1.00  0.00     0.011 A 
HETATM    4  C15 UNL     1      -2.126  -0.678   0.256  1.00  0.00    -0.038 A 
HETATM    5  C27 UNL     1      -1.509  -1.819  -0.172  1.00  0.00     0.048 A 
HETATM    6  C28 UNL     1      -0.101  -1.919  -0.349  1.00  0.00     0.097 A 
ENDROOT
BRANCH   4   7
HETATM    7  C16 UNL     1      -3.605  -0.555   0.419  1.00  0.00     0.160 C 
BRANCH   7   8
HETATM    8  N4  UNL     1      -4.029   0.813   0.212  1.00  0.00    -0.371 N 
ATOM      9  H4  UNL     1      -3.350   1.574   0.221  1.00  0.00     0.161 HD
BRANCH   8  10
HETATM   10  C17 UNL     1      -5.277   1.051   0.016  1.00  0.00     0.125 A 
HETATM   11  N5  UNL     1      -6.230   0.095  -0.010  1.00  0.00    -0.176 N 
HETATM   12  C18 UNL     1      -7.541   0.354  -0.216  1.00  0.00     0.681 A 
ATOM     13  H5  UNL     1      -5.946  -0.874   0.133  1.00  0.00     0.186 HD
HETATM   14  N7  UNL     1      -7.892   1.641  -0.402  1.00  0.00    -0.195 N 
HETATM   15  C21 UNL     1      -6.971   2.644  -0.385  1.00  0.00     0.036 A 
ATOM     16  H7  UNL     1      -8.873   1.870  -0.560  1.00  0.00     0.184 HD
HETATM   17  C22 UNL     1      -5.640   2.367  -0.175  1.00  0.00     0.009 A 
HETATM   18  C26 UNL     1      -7.354   4.062  -0.597  1.00  0.00     0.058 C 
HETATM   19  C23 UNL     1      -4.691   3.510  -0.165  1.00  0.00     0.044 C 
HETATM   20  C24 UNL     1      -5.292   4.525   0.790  1.00  0.00     0.005 C 
HETATM   21  C25 UNL     1      -6.702   4.898   0.475  1.00  0.00     0.006 C 
BRANCH  12  22
HETATM   22  N6  UNL     1      -8.514  -0.696  -0.249  1.00  0.00    -0.226 N 
HETATM   23  C19 UNL     1      -9.249  -1.018  -1.470  1.00  0.00     0.168 C 
HETATM   24  C20 UNL     1      -8.796  -1.488   0.930  1.00  0.00     0.168 C 
ENDBRANCH  12  22
ENDBRANCH   8  10
ENDBRANCH   7   8
ENDBRANCH   4   7
BRANCH   6  25
HETATM   25  O2  UNL     1       0.330  -3.106  -0.764  1.00  0.00    -0.337 OA
BRANCH  25  26
HETATM   26  C29 UNL     1       0.577  -4.346  -0.253  1.00  0.00     0.084 C 
HETATM   27  C30 UNL     1       1.536  -4.568   0.836  1.00  0.00     0.048 C 
HETATM   28  C31 UNL     1       1.074  -5.207  -1.449  1.00  0.00     0.048 C 
BRANCH  26  29
HETATM   29  C32 UNL     1      -0.731  -5.057   0.153  1.00  0.00     0.267 C 
BRANCH  29  30
HETATM   30  N8  UNL     1      -0.368  -6.355   0.659  1.00  0.00    -0.076 N 
ATOM     31  H83 UNL     1       0.195  -6.897   0.003  1.00  0.00     0.274 HD
ATOM     32  H82 UNL     1       0.316  -6.313   1.415  1.00  0.00     0.274 HD
ATOM     33  H81 UNL     1      -1.233  -6.825   0.927  1.00  0.00     0.274 HD
ENDBRANCH  29  30
ENDBRANCH  26  29
ENDBRANCH  25  26
ENDBRANCH   6  25
BRANCH   1  34
HETATM   34  N3  UNL     1       2.037  -0.649  -0.271  1.00  0.00    -0.365 N 
HETATM   35  C2  UNL     1       3.100  -1.187   0.497  1.00  0.00     0.119 C 
HETATM   36  C1  UNL     1       4.026  -1.943  -0.451  1.00  0.00     0.038 C 
HETATM   37  C3  UNL     1       3.831  -0.019   1.121  1.00  0.00     0.088 C 
HETATM   38  N1  UNL     1       3.963   1.146   0.379  1.00  0.00    -0.366 N 
HETATM   39  C10 UNL     1       3.410   1.276  -0.902  1.00  0.00     0.083 C 
HETATM   40  C11 UNL     1       2.500   0.203  -1.387  1.00  0.00     0.168 C 
BRANCH  38  41
HETATM   41  C4  UNL     1       5.198   1.869   0.545  1.00  0.00     0.171 C 
BRANCH  41  42
HETATM   42  C5  UNL     1       6.396   1.149  -0.024  1.00  0.00     0.078 C 
BRANCH  42  43
HETATM   43  N2  UNL     1       7.615   1.833   0.142  1.00  0.00    -0.388 N 
HETATM   44  C6  UNL     1       7.825   3.046  -0.549  1.00  0.00     0.148 C 
HETATM   45  C7  UNL     1       8.898   3.819   0.218  1.00  0.00     0.187 C 
HETATM   46  O1  UNL     1      10.005   3.027   0.453  1.00  0.00    -0.388 OA
HETATM   47  C8  UNL     1       9.768   1.888   1.191  1.00  0.00     0.187 C 
HETATM   48  C9  UNL     1       8.268   1.760   1.394  1.00  0.00     0.148 C 
ENDBRANCH  42  43
ENDBRANCH  41  42
ENDBRANCH  38  41
ENDBRANCH   1  34
TORSDOF 12
