REMARK  12 active torsions:
REMARK  status: ('A' for Active; 'I' for Inactive)
REMARK    1  A    between atoms: O1_2  and  C2_3 
REMARK    2  A    between atoms: C2_3  and  C3_5 
REMARK    3  A    between atoms: C3_5  and  C4_6 
REMARK    4  A    between atoms: C3_5  and  N1_13 
REMARK    5  A    between atoms: C4_6  and  C5_7 
REMARK    6  A    between atoms: C5_7  and  C6_8 
REMARK       I    between atoms: N1_13  and  C11_15 
REMARK    7  A    between atoms: C11_15  and  C12_17 
REMARK    8  A    between atoms: N2_21  and  C16_22 
REMARK    9  A    between atoms: C16_22  and  C17_23 
REMARK   10  A    between atoms: C17_23  and  C18_24 
REMARK   11  A    between atoms: C21_27  and  N3_28 
REMARK       I    between atoms: N3_28  and  C22_30 
REMARK   12  A    between atoms: C22_30  and  C23_32 
ROOT
HETATM    1  C12 UNL     1      -2.181   1.542  -0.791  1.00  0.00     0.314 C 
HETATM    2  C13 UNL     1      -2.361   2.151  -2.160  1.00  0.00     0.047 C 
HETATM    3  C14 UNL     1      -1.607   3.450  -2.153  1.00  0.00     0.033 C 
HETATM    4  C15 UNL     1      -1.311   3.678  -0.691  1.00  0.00     0.273 C 
HETATM    5  N2  UNL     1      -1.294   2.395  -0.067  1.00  0.00     0.102 N 
ENDROOT
BRANCH   5   6
HETATM    6  C16 UNL     1      -0.036   1.878   0.295  1.00  0.00     0.276 C 
BRANCH   6   7
HETATM    7  C17 UNL     1       0.916   1.625  -0.831  1.00  0.00     0.062 C 
BRANCH   7   8
HETATM    8  C18 UNL     1       2.242   1.080  -0.411  1.00  0.00     0.133 C 
HETATM    9  C19 UNL     1       3.011   1.952   0.521  1.00  0.00     0.035 C 
HETATM   10  C20 UNL     1       4.264   1.276   0.966  1.00  0.00     0.038 C 
HETATM   11  C21 UNL     1       4.627   0.081   0.109  1.00  0.00     0.184 C 
HETATM   12  C28 UNL     1       3.477  -0.852   0.198  1.00  0.00     0.282 C 
HETATM   13  O7  UNL     1       3.682  -2.054   0.381  1.00  0.00    -0.263 OA
HETATM   14  O8  UNL     1       2.213  -0.253   0.061  1.00  0.00    -0.314 OA
BRANCH  11  15
HETATM   15  N3  UNL     1       5.860  -0.444   0.594  1.00  0.00    -0.347 N 
HETATM   16  C22 UNL     1       7.065  -0.374  -0.190  1.00  0.00     0.222 C 
HETATM   17  O4  UNL     1       6.986   0.170  -1.326  1.00  0.00    -0.273 OA
ATOM     18  H3  UNL     1       5.889  -0.879   1.516  1.00  0.00     0.163 HD
BRANCH  16  19
HETATM   19  C23 UNL     1       8.346  -0.904   0.283  1.00  0.00     0.079 C 
HETATM   20  C24 UNL     1       8.320  -2.380   0.563  1.00  0.00     0.029 C 
HETATM   21  C25 UNL     1       9.332  -2.650   1.658  1.00  0.00     0.141 C 
HETATM   22  S1  UNL     1      10.888  -1.988   1.117  1.00  0.00     0.144 S 
HETATM   23  O5  UNL     1      11.875  -3.120   1.059  1.00  0.00    -0.228 OA
HETATM   24  O6  UNL     1      11.335  -0.913   2.062  1.00  0.00    -0.228 OA
HETATM   25  C26 UNL     1      10.672  -1.380  -0.539  1.00  0.00     0.141 C 
HETATM   26  C27 UNL     1       9.413  -0.603  -0.729  1.00  0.00     0.029 C 
ENDBRANCH  16  19
ENDBRANCH  11  15
ENDBRANCH   7   8
ENDBRANCH   6   7
ENDBRANCH   5   6
BRANCH   1  27
HETATM   27  C11 UNL     1      -3.517   1.648  -0.110  1.00  0.00     0.252 C 
HETATM   28  N1  UNL     1      -4.600   0.919  -0.634  1.00  0.00    -0.345 N 
ATOM     29  H1  UNL     1      -4.470   0.332  -1.458  1.00  0.00     0.163 HD
HETATM   30  O3  UNL     1      -3.701   2.361   0.906  1.00  0.00    -0.271 OA
BRANCH  28  31
HETATM   31  C3  UNL     1      -5.893   1.003  -0.003  1.00  0.00     0.184 C 
BRANCH  31  32
HETATM   32  C2  UNL     1      -6.901   1.619  -0.908  1.00  0.00     0.281 C 
HETATM   33  O2  UNL     1      -6.526   1.972  -2.054  1.00  0.00    -0.263 OA
BRANCH  32  34
HETATM   34  O1  UNL     1      -8.224   1.824  -0.564  1.00  0.00    -0.325 OA
HETATM   35  C1  UNL     1      -9.182   2.399  -1.401  1.00  0.00     0.213 C 
ENDBRANCH  32  34
ENDBRANCH  31  32
BRANCH  31  36
HETATM   36  C4  UNL     1      -6.327  -0.400   0.359  1.00  0.00     0.036 C 
BRANCH  36  37
HETATM   37  C5  UNL     1      -5.284  -0.995   1.276  1.00  0.00     0.007 C 
BRANCH  37  38
HETATM   38  C6  UNL     1      -5.644  -2.405   1.691  1.00  0.00    -0.014 C 
HETATM   39  C7  UNL     1      -6.960  -2.468   2.428  1.00  0.00     0.004 C 
HETATM   40  C8  UNL     1      -7.962  -3.058   1.484  1.00  0.00     0.000 C 
HETATM   41  C9  UNL     1      -7.196  -3.669   0.348  1.00  0.00     0.000 C 
HETATM   42  C10 UNL     1      -5.752  -3.332   0.520  1.00  0.00     0.004 C 
ENDBRANCH  37  38
ENDBRANCH  36  37
ENDBRANCH  31  36
ENDBRANCH  28  31
ENDBRANCH   1  27
TORSDOF 12
