REMARK  15 active torsions:
REMARK  status: ('A' for Active; 'I' for Inactive)
REMARK    1  A    between atoms: C2_2  and  C3_3 
REMARK    2  A    between atoms: C3_3  and  C4_4 
REMARK    3  A    between atoms: C4_4  and  C5_5 
REMARK    4  A    between atoms: C5_5  and  C6_6 
REMARK    5  A    between atoms: C6_6  and  O1_7 
REMARK    6  A    between atoms: C6_6  and  C22_33 
REMARK    7  A    between atoms: O1_7  and  C7_8 
REMARK    8  A    between atoms: C7_8  and  C8_10 
REMARK    9  A    between atoms: C8_10  and  N1_11 
REMARK       I    between atoms: N1_11  and  C9_13 
REMARK   10  A    between atoms: C9_13  and  C10_15 
REMARK       I    between atoms: N2_17  and  C12_19 
REMARK   11  A    between atoms: C12_19  and  C13_21 
REMARK       I    between atoms: N3_25  and  C17_26 
REMARK   12  A    between atoms: C17_26  and  O6_28 
REMARK   13  A    between atoms: O6_28  and  C18_29 
REMARK   14  A    between atoms: N4_35  and  C24_36 
REMARK   15  A    between atoms: C27_40  and  N5_41 
ROOT
HETATM    1  C8  UNL     1      -0.110  -0.582  -0.059  1.00  0.00     0.234 C 
ENDROOT
BRANCH   1   2
HETATM    2  C7  UNL     1      -1.240  -0.129   0.808  1.00  0.00     0.277 C 
HETATM    3  O2  UNL     1      -1.288  -0.283   2.036  1.00  0.00    -0.263 OA
BRANCH   2   4
HETATM    4  O1  UNL     1      -2.292   0.503   0.178  1.00  0.00    -0.304 OA
BRANCH   4   5
HETATM    5  C6  UNL     1      -3.426   0.965   0.988  1.00  0.00     0.206 C 
BRANCH   5   6
HETATM    6  C5  UNL     1      -3.571   2.416   0.859  1.00  0.00     0.011 C 
BRANCH   6   7
HETATM    7  C4  UNL     1      -4.556   3.210   1.552  1.00  0.00    -0.005 C 
BRANCH   7   8
HETATM    8  C3  UNL     1      -5.992   3.252   1.403  1.00  0.00    -0.027 C 
BRANCH   8   9
HETATM    9  C2  UNL     1      -6.639   3.767   0.180  1.00  0.00     0.022 C 
HETATM   10  C1  UNL     1      -6.383   3.107  -1.128  1.00  0.00     0.009 C 
ENDBRANCH   8   9
ENDBRANCH   7   8
ENDBRANCH   6   7
ENDBRANCH   5   6
BRANCH   5  11
HETATM   11  C22 UNL     1      -4.533   0.152   0.477  1.00  0.00     0.060 A 
HETATM   12  C23 UNL     1      -5.498  -0.428   1.255  1.00  0.00     0.122 A 
HETATM   13  N4  UNL     1      -6.448  -1.201   0.728  1.00  0.00    -0.320 N 
HETATM   14  C26 UNL     1      -6.462  -1.418  -0.607  1.00  0.00     0.291 A 
HETATM   15  O7  UNL     1      -7.361  -2.147  -1.087  1.00  0.00    -0.264 OA
HETATM   16  C27 UNL     1      -5.518  -0.862  -1.441  1.00  0.00     0.171 A 
HETATM   17  N6  UNL     1      -4.581  -0.092  -0.871  1.00  0.00    -0.338 N 
ATOM     18  H6  UNL     1      -3.871   0.332  -1.468  1.00  0.00     0.167 HD
BRANCH  13  19
HETATM   19  C24 UNL     1      -7.487  -1.824   1.569  1.00  0.00     0.127 C 
HETATM   20  C25 UNL     1      -8.660  -0.850   1.644  1.00  0.00     0.027 C 
ENDBRANCH  13  19
BRANCH  16  21
HETATM   21  N5  UNL     1      -5.548  -1.082  -2.711  1.00  0.00    -0.376 N 
HETATM   22  C28 UNL     1      -4.544  -0.487  -3.572  1.00  0.00     0.148 C 
ATOM     23  H5  UNL     1      -6.277  -1.674  -3.110  1.00  0.00     0.160 HD
ENDBRANCH  16  21
ENDBRANCH   5  11
ENDBRANCH   4   5
ENDBRANCH   2   4
ENDBRANCH   1   2
BRANCH   1  24
HETATM   24  N1  UNL     1       0.951  -1.215   0.701  1.00  0.00    -0.347 N 
HETATM   25  C9  UNL     1       2.075  -1.692   0.004  1.00  0.00     0.264 C 
HETATM   26  O3  UNL     1       2.179  -1.584  -1.261  1.00  0.00    -0.266 OA
ATOM     27  H1  UNL     1       0.883  -1.312   1.714  1.00  0.00     0.163 HD
BRANCH  25  28
HETATM   28  C10 UNL     1       3.162  -2.330   0.733  1.00  0.00     0.076 C 
HETATM   29  C11 UNL     1       3.118  -2.476   2.207  1.00  0.00     0.074 C 
HETATM   30  N2  UNL     1       4.187  -2.769   0.060  1.00  0.00    -0.324 N 
HETATM   31  C12 UNL     1       5.272  -3.397   0.706  1.00  0.00     0.245 C 
ATOM     32  H2  UNL     1       4.205  -2.656  -0.954  1.00  0.00     0.169 HD
HETATM   33  O4  UNL     1       5.036  -4.376   1.476  1.00  0.00    -0.271 OA
BRANCH  31  34
HETATM   34  C13 UNL     1       6.676  -2.963   0.524  1.00  0.00     0.181 C 
HETATM   35  C14 UNL     1       7.488  -4.063  -0.137  1.00  0.00     0.037 C 
HETATM   36  C15 UNL     1       7.387  -3.799  -1.605  1.00  0.00     0.022 C 
HETATM   37  C16 UNL     1       6.996  -2.361  -1.705  1.00  0.00     0.129 C 
HETATM   38  N3  UNL     1       6.780  -1.837  -0.384  1.00  0.00    -0.315 N 
HETATM   39  C17 UNL     1       6.691  -0.471  -0.045  1.00  0.00     0.364 C 
HETATM   40  O5  UNL     1       6.499  -0.115   1.164  1.00  0.00    -0.238 OA
BRANCH  39  41
HETATM   41  O6  UNL     1       6.799   0.556  -0.959  1.00  0.00    -0.294 OA
BRANCH  41  42
HETATM   42  C18 UNL     1       6.717   1.922  -0.661  1.00  0.00     0.061 C 
HETATM   43  C19 UNL     1       5.417   2.338  -0.046  1.00  0.00     0.046 C 
HETATM   44  C20 UNL     1       7.829   2.332   0.276  1.00  0.00     0.046 C 
HETATM   45  C21 UNL     1       6.873   2.696  -1.973  1.00  0.00     0.046 C 
ENDBRANCH  41  42
ENDBRANCH  39  41
ENDBRANCH  31  34
ENDBRANCH  25  28
ENDBRANCH   1  24
TORSDOF 15
