REMARK  11 active torsions:
REMARK  status: ('A' for Active; 'I' for Inactive)
REMARK    1  A    between atoms: C2_2  and  C3_3 
REMARK    2  A    between atoms: C3_3  and  N1_4 
REMARK    3  A    between atoms: N2_7  and  C6_8 
REMARK    4  A    between atoms: C6_8  and  C7_9 
REMARK    5  A    between atoms: C7_9  and  C8_10 
REMARK    6  A    between atoms: C8_10  and  N3_11 
REMARK       I    between atoms: N3_11  and  C9_13 
REMARK    7  A    between atoms: C9_13  and  C10_15 
REMARK    8  A    between atoms: C10_15  and  S1_16 
REMARK    9  A    between atoms: S1_16  and  C11_17 
REMARK   10  A    between atoms: C12_22  and  C13_23 
REMARK   11  A    between atoms: N6_25  and  C15_26 
ROOT
HETATM    1  C11 UNL     1      -0.888   1.282   0.163  1.00  0.00     0.161 A 
HETATM    2  N4  UNL     1      -0.482   0.288  -0.618  1.00  0.00    -0.278 N 
ATOM      3  H4  UNL     1       0.482   0.108  -0.898  1.00  0.00     0.189 HD
HETATM    4  N5  UNL     1      -1.540  -0.433  -0.974  1.00  0.00    -0.283 N 
ATOM      5  H5  UNL     1      -1.532  -1.259  -1.572  1.00  0.00     0.188 HD
HETATM    6  C12 UNL     1      -2.630   0.127  -0.400  1.00  0.00     0.137 A 
HETATM    7  N8  UNL     1      -2.218   1.176   0.294  1.00  0.00    -0.320 N 
ATOM      8  H8  UNL     1      -2.814   1.800   0.838  1.00  0.00     0.169 HD
ENDROOT
BRANCH   6   9
HETATM    9  C13 UNL     1      -3.993  -0.397  -0.570  1.00  0.00     0.076 A 
HETATM   10  C14 UNL     1      -4.286  -1.498  -1.326  1.00  0.00     0.110 A 
HETATM   11  N6  UNL     1      -5.551  -1.955  -1.466  1.00  0.00    -0.355 N 
HETATM   12  C17 UNL     1      -6.547  -1.299  -0.839  1.00  0.00     0.049 A 
HETATM   13  C18 UNL     1      -7.828  -1.772  -0.999  1.00  0.00     0.031 A 
HETATM   14  C22 UNL     1      -6.308  -0.155  -0.044  1.00  0.00     0.049 A 
HETATM   15  C19 UNL     1      -8.865  -1.142  -0.394  1.00  0.00     0.010 A 
HETATM   16  C20 UNL     1      -8.631  -0.046   0.369  1.00  0.00    -0.049 A 
HETATM   17  C21 UNL     1      -7.352   0.507   0.588  1.00  0.00    -0.034 A 
HETATM   18  C28 UNL     1      -9.904   0.495   0.932  1.00  0.00     0.069 C 
HETATM   19  C24 UNL     1      -6.915   1.652   1.363  1.00  0.00     0.070 C 
HETATM   20  C25 UNL     1      -8.229   2.222   1.997  1.00  0.00     0.276 C 
HETATM   21  N7  UNL     1      -9.078   2.803   1.020  1.00  0.00     0.084 N 
HETATM   22  C26 UNL     1      -9.531   4.130   1.331  1.00  0.00     0.309 C 
HETATM   23  C27 UNL     1     -10.116   1.939   0.536  1.00  0.00     0.276 C 
HETATM   24  C23 UNL     1      -5.023   0.291   0.086  1.00  0.00     0.200 A 
HETATM   25  O2  UNL     1      -4.744   1.295   0.773  1.00  0.00    -0.286 OA
BRANCH  11  26
HETATM   26  C15 UNL     1      -5.783  -3.144  -2.281  1.00  0.00     0.124 C 
HETATM   27  C16 UNL     1      -6.079  -2.751  -3.720  1.00  0.00     0.027 C 
ENDBRANCH  11  26
ENDBRANCH   6   9
BRANCH   1  28
HETATM   28  S1  UNL     1       0.161   2.520   0.889  1.00  0.00    -0.083 SA
BRANCH  28  29
HETATM   29  C10 UNL     1       1.877   2.264   0.429  1.00  0.00     0.185 C 
BRANCH  29  30
HETATM   30  C9  UNL     1       2.431   1.002   1.013  1.00  0.00     0.227 C 
HETATM   31  N3  UNL     1       3.784   0.628   0.787  1.00  0.00    -0.360 N 
ATOM     32  H3  UNL     1       4.382   1.228   0.219  1.00  0.00     0.162 HD
HETATM   33  O1  UNL     1       1.691   0.268   1.710  1.00  0.00    -0.273 OA
BRANCH  31  34
HETATM   34  C8  UNL     1       4.321  -0.575   1.342  1.00  0.00     0.124 C 
BRANCH  34  35
HETATM   35  C7  UNL     1       5.779  -0.745   0.971  1.00  0.00     0.039 C 
BRANCH  35  36
HETATM   36  C6  UNL     1       6.257  -2.025   1.586  1.00  0.00     0.118 C 
BRANCH  36  37
HETATM   37  N2  UNL     1       7.641  -2.326   1.328  1.00  0.00    -0.409 N 
HETATM   38  C5  UNL     1       8.559  -1.449   1.967  1.00  0.00     0.147 C 
HETATM   39  C4  UNL     1       9.152  -0.379   1.117  1.00  0.00     0.291 C 
HETATM   40  N1  UNL     1       9.271  -0.721  -0.284  1.00  0.00     0.091 N 
HETATM   41  C30 UNL     1       9.292  -2.140  -0.493  1.00  0.00     0.291 C 
HETATM   42  C29 UNL     1       7.932  -2.668  -0.026  1.00  0.00     0.147 C 
BRANCH  40  43
HETATM   43  C3  UNL     1      10.366  -0.016  -0.922  1.00  0.00     0.272 C 
BRANCH  43  44
HETATM   44  C2  UNL     1       9.961   1.458  -0.954  1.00  0.00     0.026 C 
HETATM   45  C1  UNL     1      11.061   2.246  -1.607  1.00  0.00     0.007 C 
ENDBRANCH  43  44
ENDBRANCH  40  43
ENDBRANCH  36  37
ENDBRANCH  35  36
ENDBRANCH  34  35
ENDBRANCH  31  34
ENDBRANCH  29  30
ENDBRANCH  28  29
ENDBRANCH   1  28
TORSDOF 11
