REMARK  6 active torsions:
REMARK  status: ('A' for Active; 'I' for Inactive)
REMARK    1  A    between atoms: N1_1  and  C1_5 
REMARK    2  A    between atoms: C1_5  and  C2_6 
REMARK    3  A    between atoms: C2_6  and  C3_7 
REMARK    4  A    between atoms: C3_7  and  C4_8 
REMARK    5  A    between atoms: C7_14  and  C8_15 
REMARK    6  A    between atoms: C8_15  and  N3_16 
ROOT
HETATM    1  C4  UNL     1       0.322  -0.208  -0.049  1.00  0.00     0.012 C 
HETATM    2  C5  UNL     1       0.361   1.287   0.022  1.00  0.00     0.237 C 
HETATM    3  N2  UNL     1      -0.902   1.897  -0.319  1.00  0.00    -0.074 N 
ATOM      4  H21 UNL     1      -0.802   2.880  -0.572  1.00  0.00     0.277 HD
ATOM      5  H22 UNL     1      -1.506   2.018   0.494  1.00  0.00     0.277 HD
HETATM    6  C6  UNL     1      -1.530   1.132  -1.352  1.00  0.00     0.238 C 
HETATM    7  C7  UNL     1      -2.089  -0.150  -0.758  1.00  0.00     0.037 C 
HETATM    8  C9  UNL     1      -1.076  -0.761   0.163  1.00  0.00     0.014 C 
ENDROOT
BRANCH   1   9
HETATM    9  C3  UNL     1       1.181  -0.754   1.080  1.00  0.00     0.008 C 
BRANCH   9  10
HETATM   10  C2  UNL     1       2.584  -0.267   0.919  1.00  0.00     0.027 C 
BRANCH  10  11
HETATM   11  C1  UNL     1       3.224  -0.687  -0.373  1.00  0.00     0.229 C 
BRANCH  11  12
HETATM   12  N1  UNL     1       4.583  -0.120  -0.348  1.00  0.00    -0.079 N 
ATOM     13  H13 UNL     1       4.603   0.888  -0.191  1.00  0.00     0.274 HD
ATOM     14  H12 UNL     1       5.120  -0.382   0.478  1.00  0.00     0.274 HD
ATOM     15  H11 UNL     1       5.018  -0.405  -1.226  1.00  0.00     0.274 HD
ENDBRANCH  11  12
ENDBRANCH  10  11
ENDBRANCH   9  10
ENDBRANCH   1   9
BRANCH   7  16
HETATM   16  C8  UNL     1      -3.379   0.203  -0.050  1.00  0.00     0.236 C 
BRANCH  16  17
HETATM   17  N3  UNL     1      -3.980  -0.977   0.549  1.00  0.00    -0.079 N 
ATOM     18  H33 UNL     1      -4.117  -1.720  -0.137  1.00  0.00     0.274 HD
ATOM     19  H32 UNL     1      -3.329  -1.458   1.169  1.00  0.00     0.274 HD
ATOM     20  H31 UNL     1      -4.850  -0.739   1.026  1.00  0.00     0.274 HD
ENDBRANCH  16  17
ENDBRANCH   7  16
TORSDOF 6
