REMARK  6 active torsions:
REMARK  status: ('A' for Active; 'I' for Inactive)
REMARK    1  A    between atoms: N1_1  and  C1_5 
REMARK    2  A    between atoms: C1_5  and  C2_6 
REMARK    3  A    between atoms: C2_6  and  C3_7 
REMARK    4  A    between atoms: C3_7  and  C4_8 
REMARK    5  A    between atoms: C4_8  and  N2_9 
REMARK    6  A    between atoms: N2_9  and  C5_11 
ROOT
HETATM    1  N2  UNL     1      -0.482  -0.993  -0.237  1.00  0.00    -0.375 N 
ATOM      2  H2  UNL     1      -0.265  -1.421   0.663  1.00  0.00     0.161 HD
ENDROOT
BRANCH   1   3
HETATM    3  C4  UNL     1       0.427  -1.258  -1.312  1.00  0.00     0.121 C 
BRANCH   3   4
HETATM    4  C3  UNL     1       1.844  -1.313  -0.726  1.00  0.00     0.021 C 
BRANCH   4   5
HETATM    5  C2  UNL     1       2.094   0.036  -0.101  1.00  0.00     0.029 C 
BRANCH   5   6
HETATM    6  C1  UNL     1       3.471   0.120   0.521  1.00  0.00     0.229 C 
BRANCH   6   7
HETATM    7  N1  UNL     1       3.596   1.434   1.080  1.00  0.00    -0.079 N 
ATOM      8  H13 UNL     1       3.415   2.176   0.405  1.00  0.00     0.274 HD
ATOM      9  H12 UNL     1       2.846   1.666   1.732  1.00  0.00     0.274 HD
ATOM     10  H11 UNL     1       4.524   1.491   1.499  1.00  0.00     0.274 HD
ENDBRANCH   6   7
ENDBRANCH   5   6
ENDBRANCH   4   5
ENDBRANCH   3   4
ENDBRANCH   1   3
BRANCH   1  11
HETATM   11  C5  UNL     1      -1.531  -0.279  -0.292  1.00  0.00     0.125 A 
HETATM   12  N3  UNL     1      -1.981   0.362  -1.382  1.00  0.00    -0.351 N 
HETATM   13  C6  UNL     1      -3.113   1.101  -1.344  1.00  0.00     0.090 A 
ATOM     14  H3  UNL     1      -1.459   0.290  -2.256  1.00  0.00     0.166 HD
HETATM   15  C7  UNL     1      -3.860   1.237  -0.198  1.00  0.00     0.019 A 
HETATM   16  C8  UNL     1      -3.428   0.593   0.939  1.00  0.00     0.032 A 
HETATM   17  C9  UNL     1      -2.275  -0.153   0.879  1.00  0.00     0.090 A 
HETATM   18  N4  UNL     1      -1.844  -0.811   2.062  1.00  0.00    -0.098 NA
ENDBRANCH   1  11
TORSDOF 6
