REMARK  4 active torsions:
REMARK  status: ('A' for Active; 'I' for Inactive)
REMARK    1  A    between atoms: C8_8  and  C9_9 
REMARK    2  A    between atoms: C9_9  and  C12_12 
REMARK    3  A    between atoms: C14_14  and  C16_16 
REMARK    4  A    between atoms: N1_20  and  O2_22 
ROOT
HETATM    1  C12 UNL     1       0.631   0.518   0.044  1.00  0.00     0.013 C 
HETATM    2  C13 UNL     1       1.751   0.068  -0.765  1.00  0.00     0.080 C 
HETATM    3  C14 UNL     1       2.814  -0.720  -0.023  1.00  0.00     0.064 C 
HETATM    4  C15 UNL     1       2.635  -2.183  -0.433  1.00  0.00     0.030 C 
HETATM    5  C18 UNL     1       2.714  -0.643   1.428  1.00  0.00     0.048 C 
HETATM    6  N1  UNL     1       3.699  -1.161   2.114  1.00  0.00    -0.274 N 
ATOM      7  H1  UNL     1       4.475  -1.586   1.606  1.00  0.00     0.193 HD
HETATM    8  C19 UNL     1       1.572  -0.020   2.117  1.00  0.00     0.126 C 
HETATM    9  C20 UNL     1       1.890   1.382   2.601  1.00  0.00     0.038 C 
HETATM   10  N2  UNL     1       0.375  -0.047   1.304  1.00  0.00    -0.383 N 
ATOM     11  H2  UNL     1      -0.525  -0.422   1.603  1.00  0.00     0.160 HD
ENDROOT
BRANCH   1  12
HETATM   12  C9  UNL     1      -0.622   0.686  -0.845  1.00  0.00    -0.031 C 
HETATM   13  C10 UNL     1      -0.334   1.019  -2.045  1.00  0.00    -0.021 C 
HETATM   14  C11 UNL     1      -1.201   1.382  -3.166  1.00  0.00     0.036 C 
BRANCH  12  15
HETATM   15  C8  UNL     1      -1.899   0.562  -0.216  1.00  0.00     0.052 C 
HETATM   16  C2  UNL     1      -2.186  -0.777   0.411  1.00  0.00    -0.080 C 
HETATM   17  C1  UNL     1      -1.694  -1.934   0.077  1.00  0.00     0.015 C 
HETATM   18  C3  UNL     1      -3.187  -0.725   1.509  1.00  0.00     0.034 C 
HETATM   19  C4  UNL     1      -3.840   0.635   1.539  1.00  0.00     0.005 C 
HETATM   20  C5  UNL     1      -4.188   1.239   0.236  1.00  0.00     0.005 C 
HETATM   21  C6  UNL     1      -3.167   0.883  -0.896  1.00  0.00    -0.006 C 
HETATM   22  C7  UNL     1      -3.811  -0.366  -1.540  1.00  0.00     0.011 C 
ENDBRANCH  12  15
ENDBRANCH   1  12
BRANCH   3  23
HETATM   23  C16 UNL     1       4.185  -0.343  -0.447  1.00  0.00     0.137 C 
HETATM   24  C17 UNL     1       4.638  -0.509  -1.871  1.00  0.00     0.092 C 
HETATM   25  O1  UNL     1       4.943   0.108   0.392  1.00  0.00    -0.297 OA
ENDBRANCH   3  23
BRANCH   6  26
HETATM   26  O2  UNL     1       3.738  -1.160   3.470  1.00  0.00    -0.290 OA
ATOM     27  H2  UNL     1       4.454  -1.536   3.968  1.00  0.00     0.244 HD
ENDBRANCH   6  26
TORSDOF 4
