REMARK  7 active torsions:
REMARK  status: ('A' for Active; 'I' for Inactive)
REMARK    1  A    between atoms: C2_2  and  N1_5 
REMARK       I    between atoms: N1_5  and  C5_7 
REMARK    2  A    between atoms: C5_7  and  O2_9 
REMARK    3  A    between atoms: O2_9  and  C6_10 
REMARK    4  A    between atoms: C6_10  and  O3_11 
REMARK    5  A    between atoms: O3_11  and  C7_12 
REMARK       I    between atoms: C7_12  and  N2_14 
REMARK    6  A    between atoms: N2_14  and  C8_16 
REMARK    7  A    between atoms: C11_19  and  C12_20 
ROOT
HETATM    1  C7  UNL     1       0.135  -0.514  -0.331  1.00  0.00     0.367 C 
HETATM    2  O4  UNL     1      -0.376  -1.621  -0.029  1.00  0.00    -0.238 OA
HETATM    3  N2  UNL     1      -0.644   0.607  -0.542  1.00  0.00    -0.303 N 
ATOM      4  H2  UNL     1      -0.181   1.489  -0.760  1.00  0.00     0.171 HD
ENDROOT
BRANCH   1   5
HETATM    5  O3  UNL     1       1.526  -0.474  -0.444  1.00  0.00    -0.277 OA
BRANCH   5   6
HETATM    6  C6  UNL     1       2.264  -1.684  -0.199  1.00  0.00     0.361 C 
BRANCH   6   7
HETATM    7  O2  UNL     1       3.609  -1.590  -0.376  1.00  0.00    -0.278 OA
BRANCH   7   8
HETATM    8  C5  UNL     1       4.446  -0.733   0.276  1.00  0.00     0.363 C 
HETATM    9  N1  UNL     1       5.840  -0.833  -0.051  1.00  0.00    -0.329 N 
ATOM     10  H1  UNL     1       6.127  -1.527  -0.741  1.00  0.00     0.165 HD
HETATM   11  O1  UNL     1       3.985   0.069   1.097  1.00  0.00    -0.238 OA
BRANCH   9  12
HETATM   12  C2  UNL     1       6.842  -0.011   0.540  1.00  0.00     0.024 C 
HETATM   13  C1  UNL     1       6.595   1.434   0.215  1.00  0.00     0.037 C 
HETATM   14  C3  UNL     1       8.211  -0.385  -0.042  1.00  0.00     0.037 C 
HETATM   15  C4  UNL     1       6.845  -0.211   2.031  1.00  0.00     0.037 C 
ENDBRANCH   9  12
ENDBRANCH   7   8
ENDBRANCH   6   7
ENDBRANCH   5   6
ENDBRANCH   1   5
BRANCH   3  16
HETATM   16  C8  UNL     1      -2.052   0.585  -0.469  1.00  0.00     0.036 A 
HETATM   17  C9  UNL     1      -2.750  -0.524  -0.878  1.00  0.00     0.030 A 
HETATM   18  C10 UNL     1      -4.149  -0.575  -0.796  1.00  0.00     0.010 A 
HETATM   19  C11 UNL     1      -4.879   0.476  -0.307  1.00  0.00    -0.051 A 
HETATM   20  C16 UNL     1      -4.162   1.583   0.100  1.00  0.00     0.010 A 
HETATM   21  C17 UNL     1      -2.780   1.654   0.027  1.00  0.00     0.030 A 
BRANCH  19  22
HETATM   22  C12 UNL     1      -6.359   0.397  -0.238  1.00  0.00    -0.024 C 
HETATM   23  C13 UNL     1      -6.829  -0.896  -0.863  1.00  0.00     0.019 C 
HETATM   24  C14 UNL     1      -6.894   0.529   1.162  1.00  0.00     0.019 C 
HETATM   25  C15 UNL     1      -6.880   1.509  -1.140  1.00  0.00     0.019 C 
ENDBRANCH  19  22
ENDBRANCH   3  16
TORSDOF 7
