REMARK  5 active torsions:
REMARK  status: ('A' for Active; 'I' for Inactive)
REMARK    1  A    between atoms: C4_4  and  N1_5 
REMARK       I    between atoms: N1_5  and  C5_7 
REMARK    2  A    between atoms: C5_7  and  O2_9 
REMARK    3  A    between atoms: O2_9  and  C6_10 
REMARK    4  A    between atoms: C11_17  and  C12_18 
REMARK    5  A    between atoms: C12_18  and  N3_20 
ROOT
HETATM    1  C1  UNL     1       0.875  -2.512  -0.276  1.00  0.00     0.049 C 
HETATM    2  C2  UNL     1       0.489  -1.270  -0.965  1.00  0.00    -0.049 A 
HETATM    3  C3  UNL     1      -0.784  -0.772  -0.719  1.00  0.00     0.056 A 
HETATM    4  C4  UNL     1      -1.226   0.369  -1.319  1.00  0.00     0.109 A 
HETATM    5  N2  UNL     1      -0.356   1.000  -2.175  1.00  0.00    -0.352 N 
ATOM      6  H2  UNL     1      -0.659   1.856  -2.639  1.00  0.00     0.166 HD
HETATM    7  C10 UNL     1       0.876   0.532  -2.423  1.00  0.00     0.099 A 
HETATM    8  C11 UNL     1       1.333  -0.620  -1.821  1.00  0.00    -0.015 A 
ENDROOT
BRANCH   8   9
HETATM    9  C12 UNL     1       2.709  -1.153  -2.097  1.00  0.00     0.114 C 
HETATM   10  C13 UNL     1       3.482  -0.242  -3.022  1.00  0.00     0.037 C 
BRANCH   9  11
HETATM   11  N3  UNL     1       3.358  -1.403  -0.876  1.00  0.00    -0.372 N 
HETATM   12  C14 UNL     1       3.929  -0.704  -0.013  1.00  0.00     0.073 C 
HETATM   13  C15 UNL     1       4.095   0.755  -0.050  1.00  0.00     0.076 C 
HETATM   14  N4  UNL     1       4.482  -1.391   1.132  1.00  0.00    -0.380 N 
HETATM   15  C16 UNL     1       4.358   1.356   1.307  1.00  0.00     0.009 C 
HETATM   16  C17 UNL     1       5.277   0.603   2.185  1.00  0.00     0.020 C 
HETATM   17  C18 UNL     1       5.637  -0.769   1.749  1.00  0.00     0.121 C 
ATOM     18  H4  UNL     1       4.084  -2.261   1.485  1.00  0.00     0.160 HD
ATOM     19  H3  UNL     1       3.364  -2.395  -0.637  1.00  0.00     0.161 HD
ENDBRANCH   9  11
ENDBRANCH   8   9
BRANCH   4  20
HETATM   20  N1  UNL     1      -2.486   0.951  -1.140  1.00  0.00    -0.288 N 
HETATM   21  C5  UNL     1      -3.541   0.511  -0.335  1.00  0.00     0.367 C 
HETATM   22  O1  UNL     1      -3.557  -0.493   0.380  1.00  0.00    -0.238 OA
ATOM     23  H1  UNL     1      -2.657   1.808  -1.666  1.00  0.00     0.172 HD
BRANCH  21  24
HETATM   24  O2  UNL     1      -4.728   1.272  -0.315  1.00  0.00    -0.294 OA
BRANCH  24  25
HETATM   25  C6  UNL     1      -5.817   0.876   0.475  1.00  0.00     0.061 C 
HETATM   26  C7  UNL     1      -5.464   0.809   1.945  1.00  0.00     0.046 C 
HETATM   27  C8  UNL     1      -6.891   1.945   0.320  1.00  0.00     0.046 C 
HETATM   28  C9  UNL     1      -6.398  -0.446   0.063  1.00  0.00     0.046 C 
ENDBRANCH  24  25
ENDBRANCH  21  24
ENDBRANCH   4  20
TORSDOF 5
