REMARK  2 active torsions:
REMARK  status: ('A' for Active; 'I' for Inactive)
REMARK       I    between atoms: N1_2  and  C2_4 
REMARK       I    between atoms: C2_4  and  N3_8 
REMARK    1  A    between atoms: N3_8  and  N4_10 
REMARK    2  A    between atoms: N4_10  and  C3_11 
ROOT
HETATM    1  C1  UNL     1       3.993   1.180  -0.054  1.00  0.00     0.165 C 
HETATM    2  N1  UNL     1       3.749  -0.132   0.515  1.00  0.00    -0.230 N 
ATOM      3  H1  UNL     1       4.252  -0.400   1.361  1.00  0.00     0.177 HD
HETATM    4  C2  UNL     1       2.836  -1.061  -0.060  1.00  0.00     0.682 C 
HETATM    5  N2  UNL     1       3.281  -1.917  -0.904  1.00  0.00    -0.234 N 
ATOM      6  H21 UNL     1       2.627  -2.583  -1.316  1.00  0.00     0.174 HD
ATOM      7  H22 UNL     1       4.261  -1.964  -1.183  1.00  0.00     0.174 HD
HETATM    8  N3  UNL     1       1.465  -0.995   0.330  1.00  0.00    -0.137 N 
ATOM      9  H3  UNL     1       1.048  -1.691   0.948  1.00  0.00     0.201 HD
ENDROOT
BRANCH   8  10
HETATM   10  N4  UNL     1       0.728   0.070  -0.178  1.00  0.00    -0.121 NA
BRANCH  10  11
HETATM   11  C3  UNL     1      -0.610   0.133   0.382  1.00  0.00     0.100 C 
HETATM   12  C4  UNL     1      -1.316  -1.140   0.046  1.00  0.00     0.023 C 
HETATM   13  C5  UNL     1      -2.766  -0.965  -0.285  1.00  0.00     0.002 C 
HETATM   14  C6  UNL     1      -3.408   0.201   0.420  1.00  0.00     0.000 C 
HETATM   15  C7  UNL     1      -2.710   1.499   0.181  1.00  0.00     0.002 C 
HETATM   16  C8  UNL     1      -1.271   1.354  -0.206  1.00  0.00     0.023 C 
ENDBRANCH  10  11
ENDBRANCH   8  10
TORSDOF 2
