REMARK  2 active torsions:
REMARK  status: ('A' for Active; 'I' for Inactive)
REMARK    1  A    between atoms: C2_4  and  N2_5 
REMARK       I    between atoms: N2_5  and  C3_7 
REMARK       I    between atoms: C3_7  and  N4_11 
REMARK    2  A    between atoms: N4_11  and  C4_13 
ROOT
HETATM    1  N2  UNL     1       2.302  -0.805  -0.838  1.00  0.00    -0.189 N 
ATOM      2  H2  UNL     1       2.034  -0.889  -1.819  1.00  0.00     0.184 HD
HETATM    3  C3  UNL     1       1.313  -1.085   0.161  1.00  0.00     0.672 C 
HETATM    4  N3  UNL     1       1.729  -1.234   1.355  1.00  0.00    -0.235 N 
ATOM      5  H31 UNL     1       1.025  -1.433   2.066  1.00  0.00     0.174 HD
ATOM      6  H32 UNL     1       2.707  -1.166   1.635  1.00  0.00     0.174 HD
HETATM    7  N4  UNL     1      -0.059  -1.180  -0.232  1.00  0.00    -0.222 N 
ATOM      8  H4  UNL     1      -0.248  -1.606  -1.139  1.00  0.00     0.178 HD
ENDROOT
BRANCH   1   9
HETATM    9  C2  UNL     1       3.616  -0.422  -0.542  1.00  0.00     0.193 C 
HETATM   10  N1  UNL     1       3.943   0.820  -0.518  1.00  0.00    -0.390 N 
HETATM   11  C1  UNL     1       5.278   1.258  -0.219  1.00  0.00     0.147 C 
ATOM     12  H1  UNL     1       3.229   1.520  -0.718  1.00  0.00     0.159 HD
ENDBRANCH   1   9
BRANCH   7  13
HETATM   13  C4  UNL     1      -1.170  -0.746   0.504  1.00  0.00     0.099 C 
HETATM   14  C5  UNL     1      -1.273   0.689   0.858  1.00  0.00     0.026 C 
HETATM   15  C6  UNL     1      -2.081   1.425  -0.216  1.00  0.00     0.002 C 
HETATM   16  C7  UNL     1      -3.538   1.050  -0.039  1.00  0.00     0.000 C 
HETATM   17  C8  UNL     1      -3.622  -0.401   0.388  1.00  0.00     0.002 C 
HETATM   18  C9  UNL     1      -2.445  -1.118  -0.226  1.00  0.00     0.026 C 
ENDBRANCH   7  13
TORSDOF 2
