REMARK  8 active torsions:
REMARK  status: ('A' for Active; 'I' for Inactive)
REMARK    1  A    between atoms: O1_2  and  C2_3 
REMARK       I    between atoms: C2_3  and  N1_5 
REMARK    2  A    between atoms: N1_5  and  C3_7 
REMARK    3  A    between atoms: C5_11  and  O3_12 
REMARK    4  A    between atoms: C7_14  and  O4_15 
REMARK    5  A    between atoms: C12_20  and  O5_21 
REMARK    6  A    between atoms: O5_21  and  C13_22 
REMARK    7  A    between atoms: C13_22  and  C14_23 
REMARK    8  A    between atoms: C18_27  and  N3_28 
ROOT
HETATM    1  C3  UNL     1      -2.472   1.838   0.218  1.00  0.00     0.680 C 
HETATM    2  N2  UNL     1      -3.167   0.745   0.432  1.00  0.00    -0.218 N 
ATOM      3  H2  UNL     1      -4.055   0.762   0.934  1.00  0.00     0.178 HD
HETATM    4  C4  UNL     1      -2.618  -0.459  -0.071  1.00  0.00     0.139 C 
HETATM    5  C5  UNL     1      -3.110  -1.706   0.642  1.00  0.00     0.173 C 
HETATM    6  C7  UNL     1      -1.932  -2.662   0.607  1.00  0.00     0.156 C 
HETATM    7  C9  UNL     1      -0.866  -1.913  -0.222  1.00  0.00     0.023 C 
HETATM    8  C10 UNL     1      -1.294  -2.105  -1.665  1.00  0.00     0.013 C 
HETATM    9  C11 UNL     1      -1.138  -0.523   0.292  1.00  0.00     0.067 C 
HETATM   10  C12 UNL     1      -0.315   0.576  -0.173  1.00  0.00     0.244 C 
HETATM   11  N4  UNL     1      -1.252   1.689  -0.486  1.00  0.00    -0.199 N 
ATOM     12  H4  UNL     1      -1.012   2.356  -1.220  1.00  0.00     0.180 HD
ENDROOT
BRANCH  10  13
HETATM   13  O5  UNL     1       0.583   0.403  -1.178  1.00  0.00    -0.365 OA
BRANCH  13  14
HETATM   14  C13 UNL     1       1.839   0.893  -1.001  1.00  0.00     0.175 C 
BRANCH  14  15
HETATM   15  C14 UNL     1       2.656   0.401   0.127  1.00  0.00     0.011 C 
HETATM   16  C15 UNL     1       2.957  -1.075   0.128  1.00  0.00     0.007 C 
HETATM   17  C16 UNL     1       4.309  -1.238   0.829  1.00  0.00     0.002 C 
HETATM   18  C17 UNL     1       5.369  -0.832  -0.154  1.00  0.00     0.033 C 
HETATM   19  C18 UNL     1       4.906   0.445  -0.814  1.00  0.00     0.184 C 
HETATM   20  C19 UNL     1       3.972   1.194   0.099  1.00  0.00     0.039 C 
BRANCH  19  21
HETATM   21  N3  UNL     1       6.058   1.247  -1.185  1.00  0.00    -0.075 N 
ATOM     22  H33 UNL     1       6.674   1.425  -0.392  1.00  0.00     0.274 HD
ATOM     23  H32 UNL     1       6.716   0.729  -1.768  1.00  0.00     0.274 HD
ATOM     24  H31 UNL     1       5.745   2.109  -1.631  1.00  0.00     0.274 HD
ENDBRANCH  19  21
ENDBRANCH  14  15
ENDBRANCH  13  14
ENDBRANCH  10  13
BRANCH   1  25
HETATM   25  N1  UNL     1      -2.963   3.072   0.690  1.00  0.00    -0.135 N 
HETATM   26  C2  UNL     1      -2.345   4.328   0.554  1.00  0.00     0.378 C 
HETATM   27  O2  UNL     1      -1.246   4.430  -0.034  1.00  0.00    -0.238 OA
ATOM     28  H1  UNL     1      -3.857   3.052   1.180  1.00  0.00     0.189 HD
BRANCH  26  29
HETATM   29  O1  UNL     1      -2.953   5.485   1.076  1.00  0.00    -0.308 OA
HETATM   30  C1  UNL     1      -2.307   6.737   0.923  1.00  0.00     0.215 C 
ENDBRANCH  26  29
ENDBRANCH   1  25
BRANCH   5  31
HETATM   31  O3  UNL     1      -4.218  -2.264   0.054  1.00  0.00    -0.386 OA
HETATM   32  C6  UNL     1      -5.258  -2.268   1.004  1.00  0.00     0.202 C 
ENDBRANCH   5  31
BRANCH   6  33
HETATM   33  O4  UNL     1      -2.222  -3.812  -0.112  1.00  0.00    -0.388 OA
HETATM   34  C8  UNL     1      -1.924  -4.973   0.580  1.00  0.00     0.202 C 
ENDBRANCH   6  33
TORSDOF 8
