REMARK  8 active torsions:
REMARK  status: ('A' for Active; 'I' for Inactive)
REMARK    1  A    between atoms: C2_2  and  N1_3 
REMARK    2  A    between atoms: C3_4  and  O1_5 
REMARK    3  A    between atoms: C4_7  and  C5_8 
REMARK    4  A    between atoms: C5_8  and  C6_9 
REMARK    5  A    between atoms: C7_12  and  O4_13 
REMARK    6  A    between atoms: C8_15  and  S1_16 
REMARK    7  A    between atoms: S1_16  and  C9_17 
REMARK    8  A    between atoms: C9_17  and  C10_18 
REMARK       I    between atoms: C10_18  and  N2_20 
ROOT
HETATM    1  N1  UNL     1       3.206  -1.093   0.126  1.00  0.00    -0.320 N 
HETATM    2  C3  UNL     1       4.208  -0.155   0.181  1.00  0.00     0.152 A 
HETATM    3  C4  UNL     1       4.200   0.580  -0.975  1.00  0.00     0.039 A 
HETATM    4  C7  UNL     1       3.171   0.065  -1.728  1.00  0.00     0.110 A 
HETATM    5  C8  UNL     1       2.559  -0.981  -1.021  1.00  0.00     0.112 A 
ENDROOT
BRANCH   5   6
HETATM    6  S1  UNL     1       1.157  -1.831  -1.622  1.00  0.00    -0.076 SA
BRANCH   6   7
HETATM    7  C9  UNL     1      -0.421  -1.071  -1.463  1.00  0.00     0.126 C 
BRANCH   7   8
HETATM    8  C10 UNL     1      -1.009  -0.874  -0.153  1.00  0.00     0.250 C 
HETATM    9  O5  UNL     1      -0.456  -1.219   0.896  1.00  0.00    -0.268 OA
HETATM   10  N2  UNL     1      -2.311  -0.250   0.006  1.00  0.00    -0.340 N 
HETATM   11  C11 UNL     1      -3.028   0.184  -1.181  1.00  0.00     0.163 C 
HETATM   12  C15 UNL     1      -2.882  -0.062   1.306  1.00  0.00     0.117 C 
HETATM   13  C12 UNL     1      -4.488   0.413  -0.839  1.00  0.00     0.331 C 
HETATM   14  N3  UNL     1      -4.614   1.357   0.244  1.00  0.00     0.013 N 
HETATM   15  C13 UNL     1      -6.048   1.408   0.571  1.00  0.00     0.356 C 
HETATM   16  O6  UNL     1      -4.313   2.579  -0.267  1.00  0.00    -0.065 OA
HETATM   17  C14 UNL     1      -3.871   1.046   1.417  1.00  0.00     0.336 C 
HETATM   18  C16 UNL     1      -3.481  -1.331   1.874  1.00  0.00     0.034 C 
ENDBRANCH   7   8
ENDBRANCH   6   7
ENDBRANCH   5   6
BRANCH   1  19
HETATM   19  C2  UNL     1       3.010  -2.067   1.217  1.00  0.00     0.127 C 
HETATM   20  C1  UNL     1       3.891  -3.292   0.914  1.00  0.00     0.027 C 
ENDBRANCH   1  19
BRANCH   4  21
HETATM   21  O4  UNL     1       2.842   0.549  -2.981  1.00  0.00    -0.357 OA
ATOM     22  H4  UNL     1       2.131   0.193  -3.501  1.00  0.00     0.217 HD
ENDBRANCH   4  21
BRANCH   2  23
HETATM   23  O1  UNL     1       5.092   0.026   1.237  1.00  0.00    -0.345 OA
ATOM     24  H1  UNL     1       5.785   0.675   1.275  1.00  0.00     0.219 HD
ENDBRANCH   2  23
BRANCH   3  25
HETATM   25  C5  UNL     1       5.131   1.690  -1.294  1.00  0.00     0.159 C 
BRANCH  25  26
HETATM   26  C6  UNL     1       4.806   2.937  -0.599  1.00  0.00     0.177 C 
HETATM   27  O2  UNL     1       3.828   3.027   0.177  1.00  0.00    -0.648 OA
HETATM   28  O3  UNL     1       5.617   4.048  -0.815  1.00  0.00    -0.648 OA
ENDBRANCH  25  26
ENDBRANCH   3  25
TORSDOF 8
