REMARK  9 active torsions:
REMARK  status: ('A' for Active; 'I' for Inactive)
REMARK    1  A    between atoms: C4_4  and  C5_5 
REMARK    2  A    between atoms: C4_4  and  C18_23 
REMARK    3  A    between atoms: C5_5  and  C6_6 
REMARK    4  A    between atoms: C7_8  and  C8_9 
REMARK    5  A    between atoms: C8_9  and  O2_10 
REMARK    6  A    between atoms: C8_9  and  C9_12 
REMARK    7  A    between atoms: C10_14  and  C11_15 
REMARK    8  A    between atoms: C18_23  and  O5_24 
REMARK    9  A    between atoms: C18_23  and  O6_26 
ROOT
HETATM    1  C6  UNL     1       1.803   1.267  -0.290  1.00  0.00     0.155 A 
HETATM    2  O1  UNL     1       2.211   2.511  -0.696  1.00  0.00    -0.373 OA
HETATM    3  C7  UNL     1       1.200   1.853  -1.545  1.00  0.00     0.182 A 
ENDROOT
BRANCH   3   4
HETATM    4  C8  UNL     1      -0.147   2.494  -1.516  1.00  0.00     0.181 C 
BRANCH   4   5
HETATM    5  O2  UNL     1      -0.012   3.814  -1.962  1.00  0.00    -0.390 OA
ATOM      6  H2  UNL     1      -0.870   4.222  -1.944  1.00  0.00     0.210 HD
ENDBRANCH   4   5
BRANCH   4   7
HETATM    7  C9  UNL     1      -0.834   2.402  -0.197  1.00  0.00     0.185 A 
HETATM    8  O3  UNL     1      -2.208   2.990  -0.337  1.00  0.00    -0.370 OA
HETATM    9  C10 UNL     1      -2.096   1.677   0.047  1.00  0.00     0.182 A 
BRANCH   9  10
HETATM   10  C11 UNL     1      -2.613   0.573  -0.815  1.00  0.00     0.154 C 
HETATM   11  C12 UNL     1      -4.087   0.711  -1.125  1.00  0.00     0.042 C 
HETATM   12  C13 UNL     1      -4.582  -0.701  -0.890  1.00  0.00     0.018 C 
HETATM   13  C14 UNL     1      -6.005  -0.737  -0.426  1.00  0.00     0.013 C 
HETATM   14  C15 UNL     1      -3.614  -1.162   0.195  1.00  0.00     0.057 C 
HETATM   15  C16 UNL     1      -3.959  -0.592   1.533  1.00  0.00     0.046 C 
HETATM   16  C17 UNL     1      -3.633  -2.665   0.291  1.00  0.00     0.046 C 
HETATM   17  O4  UNL     1      -2.418  -0.684  -0.268  1.00  0.00    -0.373 OA
ENDBRANCH   9  10
ENDBRANCH   4   7
ENDBRANCH   3   4
BRANCH   1  18
HETATM   18  C5  UNL     1       2.562   0.019  -0.451  1.00  0.00     0.064 C 
BRANCH  18  19
HETATM   19  C4  UNL     1       3.895  -0.126   0.194  1.00  0.00     0.120 A 
HETATM   20  C3  UNL     1       4.357  -1.515  -0.169  1.00  0.00     0.030 A 
HETATM   21  C2  UNL     1       4.532  -2.203   0.915  1.00  0.00     0.050 A 
HETATM   22  C1  UNL     1       4.989  -3.641   1.043  1.00  0.00     0.076 C 
HETATM   23  O8  UNL     1       4.239  -1.437   2.027  1.00  0.00    -0.283 OA
HETATM   24  C19 UNL     1       3.847  -0.171   1.659  1.00  0.00     0.281 A 
HETATM   25  O7  UNL     1       3.523   0.732   2.469  1.00  0.00    -0.263 OA
BRANCH  19  26
HETATM   26  C18 UNL     1       4.983   0.785  -0.311  1.00  0.00     0.276 C 
BRANCH  26  27
HETATM   27  O5  UNL     1       6.156   0.342   0.370  1.00  0.00    -0.370 OA
ATOM     28  H5  UNL     1       6.842   0.917   0.051  1.00  0.00     0.212 HD
ENDBRANCH  26  27
BRANCH  26  29
HETATM   29  O6  UNL     1       4.834   2.112  -0.003  1.00  0.00    -0.370 OA
ATOM     30  H6  UNL     1       5.520   2.687  -0.322  1.00  0.00     0.212 HD
ENDBRANCH  26  29
ENDBRANCH  19  26
ENDBRANCH  18  19
ENDBRANCH   1  18
TORSDOF 9
