REMARK  8 active torsions:
REMARK  status: ('A' for Active; 'I' for Inactive)
REMARK    1  A    between atoms: C2_2  and  C3_3 
REMARK    2  A    between atoms: C3_3  and  C4_4 
REMARK    3  A    between atoms: C4_4  and  C5_5 
REMARK    4  A    between atoms: C5_5  and  O1_6 
REMARK    5  A    between atoms: O1_6  and  C6_7 
REMARK    6  A    between atoms: C7_14  and  C8_15 
REMARK       I    between atoms: C8_15  and  N4_17 
REMARK    7  A    between atoms: C13_24  and  O3_25 
REMARK    8  A    between atoms: C14_27  and  O4_28 
ROOT
HETATM    1  C8  UNL     1       0.023  -1.982  -0.712  1.00  0.00     0.278 C 
HETATM    2  O2  UNL     1       0.458  -2.822   0.110  1.00  0.00    -0.265 OA
HETATM    3  N4  UNL     1      -1.379  -1.977  -0.942  1.00  0.00    -0.319 N 
ATOM      4  H4  UNL     1      -1.775  -2.651  -1.598  1.00  0.00     0.169 HD
HETATM    5  C9  UNL     1      -2.162  -1.151  -0.350  1.00  0.00     0.059 C 
HETATM    6  C10 UNL     1      -1.690  -0.127   0.625  1.00  0.00     0.139 C 
HETATM    7  S1  UNL     1      -3.055   0.174   1.788  1.00  0.00    -0.156 SA
HETATM    8  C11 UNL     1      -4.399   1.000   0.893  1.00  0.00     0.067 C 
HETATM    9  C12 UNL     1      -5.679   0.767   1.650  1.00  0.00     0.050 C 
HETATM   10  C13 UNL     1      -6.683   0.235   0.671  1.00  0.00     0.149 C 
HETATM   11  C14 UNL     1      -6.075   0.500  -0.684  1.00  0.00     0.162 C 
HETATM   12  C15 UNL     1      -4.589   0.445  -0.493  1.00  0.00     0.098 C 
HETATM   13  S2  UNL     1      -3.914  -1.207  -0.695  1.00  0.00    -0.107 SA
ENDROOT
BRANCH   1  14
HETATM   14  C7  UNL     1       0.904  -1.053  -1.403  1.00  0.00     0.170 A 
HETATM   15  C6  UNL     1       2.302  -0.979  -1.243  1.00  0.00     0.193 A 
HETATM   16  N1  UNL     1       2.742   0.001  -2.051  1.00  0.00    -0.263 N 
HETATM   17  N2  UNL     1       1.699   0.505  -2.671  1.00  0.00    -0.240 N 
ATOM     18  H1  UNL     1       3.711   0.300  -2.163  1.00  0.00     0.190 HD
HETATM   19  N3  UNL     1       0.592  -0.110  -2.298  1.00  0.00    -0.277 N 
ATOM     20  H2  UNL     1       1.739   1.267  -3.348  1.00  0.00     0.208 HD
ATOM     21  H3  UNL     1      -0.347   0.100  -2.637  1.00  0.00     0.189 HD
BRANCH  15  22
HETATM   22  O1  UNL     1       2.958  -1.813  -0.396  1.00  0.00    -0.333 OA
BRANCH  22  23
HETATM   23  C5  UNL     1       4.218  -2.034   0.017  1.00  0.00     0.177 C 
BRANCH  23  24
HETATM   24  C4  UNL     1       4.991  -1.029   0.779  1.00  0.00     0.027 C 
BRANCH  24  25
HETATM   25  C3  UNL     1       5.243   0.300   0.189  1.00  0.00     0.002 C 
BRANCH  25  26
HETATM   26  C2  UNL     1       6.125   1.058   1.224  1.00  0.00    -0.004 C 
HETATM   27  C1  UNL     1       6.430   2.441   0.689  1.00  0.00     0.005 C 
ENDBRANCH  25  26
ENDBRANCH  24  25
ENDBRANCH  23  24
ENDBRANCH  22  23
ENDBRANCH  15  22
ENDBRANCH   1  14
BRANCH  11  28
HETATM   28  O4  UNL     1      -6.536  -0.397  -1.646  1.00  0.00    -0.392 OA
ATOM     29  H4  UNL     1      -6.153  -0.230  -2.499  1.00  0.00     0.210 HD
ENDBRANCH  11  28
BRANCH  10  30
HETATM   30  O3  UNL     1      -6.863  -1.114   0.901  1.00  0.00    -0.393 OA
ATOM     31  H3  UNL     1      -7.499  -1.451   0.281  1.00  0.00     0.210 HD
ENDBRANCH  10  30
TORSDOF 8
