REMARK  4 active torsions:
REMARK  status: ('A' for Active; 'I' for Inactive)
REMARK    1  A    between atoms: C2_2  and  C3_3 
REMARK    2  A    between atoms: C3_3  and  C4_5 
REMARK    3  A    between atoms: C5_7  and  O3_8 
REMARK    4  A    between atoms: C8_11  and  O4_12 
ROOT
HETATM    1  C4  UNL     1       1.493   0.253  -0.416  1.00  0.00     0.203 C 
HETATM    2  O2  UNL     1       1.213   1.162  -1.467  1.00  0.00    -0.348 OA
HETATM    3  C5  UNL     1       0.808   2.334  -0.827  1.00  0.00     0.262 C 
HETATM    4  C7  UNL     1      -0.555   2.208  -0.199  1.00  0.00     0.099 C 
HETATM    5  C8  UNL     1      -0.461   1.010   0.753  1.00  0.00     0.075 C 
HETATM    6  C9  UNL     1      -1.588   0.886   1.672  1.00  0.00     0.024 C 
HETATM    7  C10 UNL     1      -1.265  -0.111   2.766  1.00  0.00     0.013 C 
HETATM    8  C11 UNL     1      -2.936   0.597   1.147  1.00  0.00     0.088 C 
HETATM    9  C12 UNL     1      -3.059  -0.649   0.388  1.00  0.00     0.156 C 
HETATM   10  O5  UNL     1      -3.431  -1.632   1.021  1.00  0.00    -0.295 OA
HETATM   11  C13 UNL     1      -2.818  -0.983  -1.043  1.00  0.00     0.191 C 
HETATM   12  C14 UNL     1      -2.343  -2.419  -1.073  1.00  0.00     0.042 C 
HETATM   13  C15 UNL     1      -0.854  -2.219  -0.838  1.00  0.00     0.035 C 
HETATM   14  C16 UNL     1      -0.587  -0.735  -1.106  1.00  0.00     0.132 C 
HETATM   15  O6  UNL     1      -1.783  -0.206  -1.492  1.00  0.00    -0.372 OA
HETATM   16  C17 UNL     1       0.084  -0.162   0.067  1.00  0.00     0.086 C 
ENDROOT
BRANCH   1  17
HETATM   17  C3  UNL     1       2.288  -0.882  -0.868  1.00  0.00     0.155 C 
HETATM   18  O1  UNL     1       2.626  -0.970  -2.025  1.00  0.00    -0.295 OA
BRANCH  17  19
HETATM   19  C2  UNL     1       2.710  -1.958   0.054  1.00  0.00     0.076 C 
HETATM   20  C1  UNL     1       3.524  -3.031  -0.635  1.00  0.00     0.013 C 
ENDBRANCH  17  19
ENDBRANCH   1  17
BRANCH   3  21
HETATM   21  O3  UNL     1       0.961   3.452  -1.613  1.00  0.00    -0.366 OA
HETATM   22  C6  UNL     1       1.897   4.354  -1.153  1.00  0.00     0.204 C 
ENDBRANCH   3  21
BRANCH   5  23
HETATM   23  O4  UNL     1       0.578   1.441   1.643  1.00  0.00    -0.389 OA
ATOM     24  H4  UNL     1       0.636   0.699   2.233  1.00  0.00     0.210 HD
ENDBRANCH   5  23
TORSDOF 4
