REMARK  3 active torsions:
REMARK  status: ('A' for Active; 'I' for Inactive)
REMARK    1  A    between atoms: O1_2  and  C2_3 
REMARK    2  A    between atoms: C2_3  and  C3_5 
REMARK    3  A    between atoms: C17_22  and  O5_23 
ROOT
HETATM    1  C3  UNL     1       0.476   1.553   0.545  1.00  0.00     0.124 C 
HETATM    2  C4  UNL     1       1.965   1.283   0.639  1.00  0.00     0.052 C 
HETATM    3  C5  UNL     1       2.321  -0.049   0.095  1.00  0.00     0.155 C 
HETATM    4  O3  UNL     1       3.273  -0.743   0.838  1.00  0.00    -0.348 OA
HETATM    5  C6  UNL     1       2.959  -2.088   0.709  1.00  0.00     0.158 C 
HETATM    6  C7  UNL     1       2.951  -2.803   2.044  1.00  0.00     0.078 C 
HETATM    7  C8  UNL     1       3.962  -2.699  -0.240  1.00  0.00     0.078 C 
HETATM    8  O4  UNL     1       1.714  -2.194   0.139  1.00  0.00    -0.347 OA
HETATM    9  C9  UNL     1       1.123  -0.977   0.353  1.00  0.00     0.163 C 
HETATM   10  C10 UNL     1       0.044  -0.599  -0.583  1.00  0.00     0.087 C 
HETATM   11  C11 UNL     1      -1.279  -0.896   0.010  1.00  0.00     0.233 C 
HETATM   12  C12 UNL     1      -1.840  -2.245  -0.217  1.00  0.00     0.038 C 
HETATM   13  C13 UNL     1      -3.340  -1.904  -0.133  1.00  0.00     0.037 C 
HETATM   14  C14 UNL     1      -3.411  -0.385  -0.366  1.00  0.00     0.219 C 
HETATM   15  C15 UNL     1      -4.539  -0.169  -1.352  1.00  0.00     0.043 C 
HETATM   16  N1  UNL     1      -2.132  -0.112  -0.909  1.00  0.00     0.101 N 
HETATM   17  C16 UNL     1      -1.599   1.188  -0.718  1.00  0.00     0.312 C 
HETATM   18  C17 UNL     1      -0.085   0.923  -0.722  1.00  0.00     0.105 C 
ENDROOT
BRANCH   1  19
HETATM   19  C2  UNL     1       0.155   2.992   0.628  1.00  0.00     0.265 C 
HETATM   20  O2  UNL     1      -0.583   3.434   1.547  1.00  0.00    -0.265 OA
BRANCH  19  21
HETATM   21  O1  UNL     1       0.627   3.938  -0.272  1.00  0.00    -0.326 OA
HETATM   22  C1  UNL     1       0.307   5.320  -0.176  1.00  0.00     0.213 C 
ENDBRANCH  19  21
ENDBRANCH   1  19
BRANCH  18  23
HETATM   23  O5  UNL     1       0.526   1.402  -1.852  1.00  0.00    -0.387 OA
ATOM     24  H5  UNL     1       0.176   1.009  -2.643  1.00  0.00     0.210 HD
ENDBRANCH  18  23
TORSDOF 3
