REMARK  14 active torsions:
REMARK  status: ('A' for Active; 'I' for Inactive)
REMARK    1  A    between atoms: C2_2  and  C3_3 
REMARK    2  A    between atoms: C3_3  and  C4_4 
REMARK    3  A    between atoms: C4_4  and  C5_5 
REMARK    4  A    between atoms: C5_5  and  C6_6 
REMARK    5  A    between atoms: C6_6  and  C7_7 
REMARK    6  A    between atoms: C7_7  and  C8_8 
REMARK    7  A    between atoms: C8_8  and  C9_9 
REMARK    8  A    between atoms: C9_9  and  C10_10 
REMARK    9  A    between atoms: C12_13  and  C13_14 
REMARK       I    between atoms: C13_14  and  N1_16 
REMARK   10  A    between atoms: N1_16  and  S1_18 
REMARK   11  A    between atoms: S1_18  and  C14_21 
REMARK   12  A    between atoms: C18_25  and  C19_26 
REMARK   13  A    between atoms: C20_29  and  O7_30 
REMARK   14  A    between atoms: C24_35  and  C25_36 
ROOT
HETATM    1  C10 UNL     1       0.155  -0.895  -0.913  1.00  0.00     0.079 C 
HETATM    2  C11 UNL     1      -0.120   0.414  -0.272  1.00  0.00     0.168 C 
HETATM    3  O1  UNL     1      -1.001   1.105  -1.110  1.00  0.00    -0.367 OA
HETATM    4  C12 UNL     1      -2.277   0.615  -1.139  1.00  0.00     0.220 C 
HETATM    5  C17 UNL     1      -2.663  -0.082   0.141  1.00  0.00     0.051 C 
HETATM    6  C18 UNL     1      -2.099   0.837   1.239  1.00  0.00     0.131 C 
HETATM    7  C20 UNL     1      -0.803   0.057   1.036  1.00  0.00     0.105 C 
HETATM    8  C21 UNL     1      -1.664  -1.108   0.617  1.00  0.00     0.071 C 
HETATM    9  C22 UNL     1      -0.935  -1.862  -0.422  1.00  0.00     0.178 C 
HETATM   10  C23 UNL     1      -1.783  -2.471  -1.523  1.00  0.00     0.088 C 
HETATM   11  C24 UNL     1      -1.580  -3.798  -0.819  1.00  0.00     0.332 C 
HETATM   12  N2  UNL     1      -0.449  -3.172  -0.153  1.00  0.00     0.108 N 
HETATM   13  C26 UNL     1      -0.355  -3.642   1.183  1.00  0.00     0.311 C 
ENDROOT
BRANCH   4  14
HETATM   14  C13 UNL     1      -3.195   1.813  -1.218  1.00  0.00     0.260 C 
HETATM   15  O2  UNL     1      -2.765   2.989  -1.247  1.00  0.00    -0.270 OA
HETATM   16  N1  UNL     1      -4.611   1.629  -1.262  1.00  0.00    -0.252 N 
ATOM     17  H1  UNL     1      -4.985   0.680  -1.240  1.00  0.00     0.181 HD
BRANCH  16  18
HETATM   18  S1  UNL     1      -5.697   2.942  -1.350  1.00  0.00     0.237 S 
HETATM   19  O3  UNL     1      -4.970   4.194  -0.882  1.00  0.00    -0.205 OA
HETATM   20  O4  UNL     1      -6.180   3.208  -2.752  1.00  0.00    -0.205 OA
BRANCH  18  21
HETATM   21  C14 UNL     1      -7.108   2.725  -0.301  1.00  0.00     0.130 A 
HETATM   22  C15 UNL     1      -7.856   4.026   0.061  1.00  0.00     0.023 A 
HETATM   23  C16 UNL     1      -7.043   3.245   1.088  1.00  0.00     0.023 A 
ENDBRANCH  18  21
ENDBRANCH  16  18
ENDBRANCH   4  14
BRANCH   6  24
HETATM   24  C19 UNL     1      -2.711   0.559   2.537  1.00  0.00     0.180 C 
HETATM   25  O5  UNL     1      -2.111   0.209   3.568  1.00  0.00    -0.648 OA
HETATM   26  O6  UNL     1      -4.111   0.702   2.623  1.00  0.00    -0.648 OA
ENDBRANCH   6  24
BRANCH   1  27
HETATM   27  C9  UNL     1       1.499  -1.486  -0.791  1.00  0.00    -0.021 C 
BRANCH  27  28
HETATM   28  C8  UNL     1       2.691  -0.841  -1.333  1.00  0.00    -0.030 C 
BRANCH  28  29
HETATM   29  C7  UNL     1       3.195   0.454  -0.860  1.00  0.00     0.027 C 
BRANCH  29  30
HETATM   30  C6  UNL     1       3.588   0.477   0.604  1.00  0.00     0.004 C 
BRANCH  30  31
HETATM   31  C5  UNL     1       4.667  -0.504   0.931  1.00  0.00     0.000 C 
BRANCH  31  32
HETATM   32  C4  UNL     1       5.948  -0.287   0.182  1.00  0.00     0.000 C 
BRANCH  32  33
HETATM   33  C3  UNL     1       6.535   1.092   0.462  1.00  0.00    -0.000 C 
BRANCH  33  34
HETATM   34  C2  UNL     1       7.820   1.249  -0.320  1.00  0.00    -0.005 C 
HETATM   35  C1  UNL     1       8.353   2.642   0.003  1.00  0.00     0.005 C 
ENDBRANCH  33  34
ENDBRANCH  32  33
ENDBRANCH  31  32
ENDBRANCH  30  31
ENDBRANCH  29  30
ENDBRANCH  28  29
ENDBRANCH  27  28
ENDBRANCH   1  27
BRANCH   7  36
HETATM   36  O7  UNL     1      -0.006  -0.059   2.121  1.00  0.00    -0.386 OA
ATOM     37  H7  UNL     1      -0.433  -0.282   2.939  1.00  0.00     0.210 HD
ENDBRANCH   7  36
BRANCH  11  38
HETATM   38  C25 UNL     1      -1.174  -4.948  -1.669  1.00  0.00     0.418 C 
HETATM   39  F1  UNL     1      -1.025  -6.092  -0.887  1.00  0.00    -0.169 F 
HETATM   40  F2  UNL     1      -2.137  -5.278  -2.615  1.00  0.00    -0.169 F 
HETATM   41  F3  UNL     1       0.020  -4.787  -2.338  1.00  0.00    -0.169 F 
ENDBRANCH  11  38
TORSDOF 14
