REMARK  19 active torsions:
REMARK  status: ('A' for Active; 'I' for Inactive)
REMARK    1  A    between atoms: C2_2  and  O1_3 
REMARK    2  A    between atoms: O1_3  and  C3_4 
REMARK    3  A    between atoms: C3_4  and  C4_6 
REMARK    4  A    between atoms: C4_6  and  N1_7 
REMARK    5  A    between atoms: C4_6  and  C24_42 
REMARK       I    between atoms: N1_7  and  C5_9 
REMARK    6  A    between atoms: C5_9  and  C6_11 
REMARK    7  A    between atoms: C6_11  and  N2_12 
REMARK    8  A    between atoms: N2_12  and  C7_14 
REMARK    9  A    between atoms: C7_14  and  O4_15 
REMARK   10  A    between atoms: C7_14  and  C8_17 
REMARK   11  A    between atoms: C8_17  and  C9_18 
REMARK   12  A    between atoms: C8_17  and  C17_32 
REMARK   13  A    between atoms: C9_18  and  C10_19 
REMARK   14  A    between atoms: C9_18  and  N3_23 
REMARK   15  A    between atoms: C10_19  and  C11_20 
REMARK   16  A    between atoms: N3_23  and  C15_25 
REMARK   17  A    between atoms: C15_25  and  O5_26 
REMARK   18  A    between atoms: C15_25  and  C16_28 
REMARK   19  A    between atoms: C22_37  and  C23_38 
ROOT
HETATM    1  N2  UNL     1       0.052   0.299   1.444  1.00  0.00    -0.355 N 
ATOM      2  H2  UNL     1       0.340   1.134   0.933  1.00  0.00     0.162 HD
ENDROOT
BRANCH   1   3
HETATM    3  C6  UNL     1       1.102  -0.343   2.182  1.00  0.00     0.125 A 
HETATM    4  C21 UNL     1       1.071  -1.607   2.881  1.00  0.00     0.058 A 
HETATM    5  C22 UNL     1       1.090  -0.278   3.672  1.00  0.00     0.134 A 
BRANCH   3   6
HETATM    6  C5  UNL     1       2.512   0.090   1.702  1.00  0.00     0.247 C 
HETATM    7  N1  UNL     1       2.839  -0.015   0.348  1.00  0.00    -0.344 N 
ATOM      8  H1  UNL     1       2.119  -0.380  -0.276  1.00  0.00     0.163 HD
HETATM    9  O3  UNL     1       3.335   0.512   2.548  1.00  0.00    -0.271 OA
BRANCH   7  10
HETATM   10  C4  UNL     1       4.086   0.341  -0.240  1.00  0.00     0.191 C 
BRANCH  10  11
HETATM   11  C3  UNL     1       3.982   0.945  -1.588  1.00  0.00     0.282 C 
HETATM   12  O2  UNL     1       2.828   1.124  -2.120  1.00  0.00    -0.263 OA
BRANCH  11  13
HETATM   13  O1  UNL     1       5.058   1.335  -2.340  1.00  0.00    -0.320 OA
BRANCH  13  14
HETATM   14  C2  UNL     1       4.954   1.901  -3.637  1.00  0.00     0.174 C 
HETATM   15  C1  UNL     1       6.395   2.126  -4.107  1.00  0.00     0.034 C 
ENDBRANCH  13  14
ENDBRANCH  11  13
ENDBRANCH  10  11
BRANCH  10  16
HETATM   16  C24 UNL     1       5.147  -0.740  -0.260  1.00  0.00    -0.022 C 
HETATM   17  C25 UNL     1       5.358  -1.462   1.032  1.00  0.00     0.017 C 
HETATM   18  C26 UNL     1       6.515  -0.049  -0.532  1.00  0.00     0.017 C 
HETATM   19  C27 UNL     1       4.998  -1.738  -1.354  1.00  0.00     0.017 C 
ENDBRANCH  10  16
ENDBRANCH   7  10
ENDBRANCH   3   6
BRANCH   5  20
HETATM   20  C23 UNL     1       0.006  -0.169   4.651  1.00  0.00     0.394 C 
HETATM   21  F4  UNL     1      -0.827   0.925   4.544  1.00  0.00    -0.171 F 
HETATM   22  F5  UNL     1       0.653   0.129   5.932  1.00  0.00    -0.171 F 
HETATM   23  F6  UNL     1      -0.721  -1.286   4.950  1.00  0.00    -0.171 F 
ENDBRANCH   5  20
ENDBRANCH   1   3
BRANCH   1  24
HETATM   24  C7  UNL     1      -1.301  -0.030   1.309  1.00  0.00     0.122 C 
BRANCH  24  25
HETATM   25  O4  UNL     1      -1.544  -1.165   1.926  1.00  0.00    -0.349 OA
ATOM     26  H4  UNL     1      -2.463  -1.388   1.834  1.00  0.00     0.219 HD
ENDBRANCH  24  25
BRANCH  24  27
HETATM   27  C8  UNL     1      -2.448   0.612   0.660  1.00  0.00     0.113 C 
BRANCH  27  28
HETATM   28  C9  UNL     1      -3.291  -0.355  -0.089  1.00  0.00     0.004 C 
BRANCH  28  29
HETATM   29  C10 UNL     1      -4.475   0.162  -0.792  1.00  0.00     0.057 C 
BRANCH  29  30
HETATM   30  C11 UNL     1      -5.269  -0.937  -1.518  1.00  0.00    -0.017 C 
HETATM   31  C12 UNL     1      -6.499  -0.249  -2.164  1.00  0.00     0.010 C 
HETATM   32  C13 UNL     1      -4.470  -1.430  -2.725  1.00  0.00     0.010 C 
ENDBRANCH  29  30
ENDBRANCH  28  29
BRANCH  28  33
HETATM   33  N3  UNL     1      -3.544  -1.627   0.546  1.00  0.00    -0.335 N 
HETATM   34  C14 UNL     1      -2.901  -2.854  -0.105  1.00  0.00     0.158 C 
BRANCH  33  35
HETATM   35  C15 UNL     1      -4.295  -1.999   1.635  1.00  0.00     0.227 C 
BRANCH  35  36
HETATM   36  O5  UNL     1      -4.239  -3.292   1.900  1.00  0.00    -0.343 OA
ATOM     37  H5  UNL     1      -4.758  -3.549   2.653  1.00  0.00     0.219 HD
ENDBRANCH  35  36
BRANCH  35  38
HETATM   38  C16 UNL     1      -5.133  -1.291   2.546  1.00  0.00     0.456 C 
HETATM   39  F1  UNL     1      -5.758  -2.213   3.471  1.00  0.00    -0.163 F 
HETATM   40  F2  UNL     1      -4.501  -0.429   3.442  1.00  0.00    -0.163 F 
HETATM   41  F3  UNL     1      -6.228  -0.641   2.021  1.00  0.00    -0.163 F 
ENDBRANCH  35  38
ENDBRANCH  33  35
ENDBRANCH  28  33
ENDBRANCH  27  28
BRANCH  27  42
HETATM   42  C17 UNL     1      -2.076   1.886   0.009  1.00  0.00    -0.035 C 
HETATM   43  C18 UNL     1      -1.477   2.774   1.128  1.00  0.00     0.015 C 
HETATM   44  C19 UNL     1      -1.062   1.788  -1.090  1.00  0.00     0.015 C 
HETATM   45  C20 UNL     1      -3.247   2.777  -0.445  1.00  0.00     0.015 C 
ENDBRANCH  27  42
ENDBRANCH  24  27
ENDBRANCH   1  24
TORSDOF 19
