REMARK  14 active torsions:
REMARK  status: ('A' for Active; 'I' for Inactive)
REMARK    1  A    between atoms: C7_9  and  N2_10 
REMARK    2  A    between atoms: N2_10  and  C8_11 
REMARK    3  A    between atoms: C8_11  and  C9_12 
REMARK    4  A    between atoms: C9_12  and  N3_13 
REMARK    5  A    between atoms: N3_13  and  C11_15 
REMARK    6  A    between atoms: C11_15  and  C12_16 
REMARK    7  A    between atoms: C12_16  and  N4_17 
REMARK    8  A    between atoms: N4_17  and  C14_19 
REMARK    9  A    between atoms: C14_19  and  C15_20 
REMARK   10  A    between atoms: C15_20  and  C16_21 
REMARK   11  A    between atoms: C16_21  and  N5_22 
REMARK       I    between atoms: N5_22  and  C17_24 
REMARK   12  A    between atoms: C17_24  and  C18_26 
REMARK   13  A    between atoms: C18_26  and  C19_27 
REMARK   14  A    between atoms: C23_35  and  C24_36 
ROOT
HETATM    1  C1  UNL     1      -4.692  -4.667  -2.991  1.00  0.00     0.068 C 
HETATM    2  C2  UNL     1      -4.631  -3.298  -2.402  1.00  0.00     0.010 A 
HETATM    3  C3  UNL     1      -5.700  -2.577  -1.965  1.00  0.00     0.056 A 
HETATM    4  C4  UNL     1      -5.274  -1.354  -1.477  1.00  0.00     0.065 A 
HETATM    5  N1  UNL     1      -5.981  -0.334  -0.953  1.00  0.00    -0.357 N 
ATOM      6  H1  UNL     1      -6.995  -0.404  -0.867  1.00  0.00     0.166 HD
HETATM    7  C5  UNL     1      -5.346   0.770  -0.546  1.00  0.00     0.020 A 
HETATM    8  C6  UNL     1      -3.980   0.856  -0.663  1.00  0.00     0.008 A 
HETATM    9  C7  UNL     1      -3.208  -0.189  -1.203  1.00  0.00     0.143 A 
HETATM   10  C20 UNL     1      -3.893  -1.341  -1.628  1.00  0.00     0.103 A 
HETATM   11  N6  UNL     1      -3.549  -2.514  -2.181  1.00  0.00    -0.351 N 
HETATM   12  C21 UNL     1      -2.213  -2.943  -2.532  1.00  0.00     0.156 C 
HETATM   13  C22 UNL     1      -3.213   2.064  -0.256  1.00  0.00     0.057 C 
HETATM   14  C23 UNL     1      -3.235   2.091   1.251  1.00  0.00     0.098 C 
HETATM   15  C25 UNL     1      -4.481   1.625   1.870  1.00  0.00     0.022 C 
HETATM   16  C26 UNL     1      -5.810   2.040   1.458  1.00  0.00    -0.042 C 
HETATM   17  C27 UNL     1      -6.216   3.454   1.836  1.00  0.00     0.015 C 
HETATM   18  C28 UNL     1      -6.789   1.144   2.261  1.00  0.00     0.015 C 
HETATM   19  C29 UNL     1      -6.246   1.827   0.042  1.00  0.00     0.066 C 
ENDROOT
BRANCH   9  20
HETATM   20  N2  UNL     1      -2.015  -0.089  -1.229  1.00  0.00    -0.417 NA
BRANCH  20  21
HETATM   21  C8  UNL     1      -0.690  -0.234  -1.378  1.00  0.00     0.185 C 
BRANCH  21  22
HETATM   22  C9  UNL     1       0.275   0.793  -0.812  1.00  0.00     0.331 C 
BRANCH  22  23
HETATM   23  N3  UNL     1       1.651   0.438  -1.075  1.00  0.00     0.094 N 
HETATM   24  C10 UNL     1       1.889   0.549  -2.520  1.00  0.00     0.310 C 
BRANCH  23  25
HETATM   25  C11 UNL     1       1.947  -0.938  -0.720  1.00  0.00     0.317 C 
BRANCH  25  26
HETATM   26  C12 UNL     1       3.440  -1.176  -0.800  1.00  0.00     0.092 C 
BRANCH  26  27
HETATM   27  N4  UNL     1       4.202  -0.400   0.074  1.00  0.00    -0.376 N 
HETATM   28  C13 UNL     1       4.124  -0.604   1.462  1.00  0.00     0.154 C 
BRANCH  27  29
HETATM   29  C14 UNL     1       5.078   0.586  -0.395  1.00  0.00     0.064 C 
BRANCH  29  30
HETATM   30  C15 UNL     1       6.283   0.071  -1.159  1.00  0.00     0.064 C 
BRANCH  30  31
HETATM   31  C16 UNL     1       7.163  -0.838  -0.343  1.00  0.00     0.128 C 
BRANCH  31  32
HETATM   32  N5  UNL     1       7.687  -0.159   0.836  1.00  0.00    -0.361 N 
HETATM   33  C17 UNL     1       8.536  -0.814   1.760  1.00  0.00     0.226 C 
HETATM   34  O1  UNL     1       8.830  -2.027   1.523  1.00  0.00    -0.273 OA
ATOM     35  H5  UNL     1       7.435   0.816   1.000  1.00  0.00     0.162 HD
BRANCH  33  36
HETATM   36  C18 UNL     1       9.079  -0.149   2.962  1.00  0.00     0.220 C 
BRANCH  36  37
HETATM   37  C19 UNL     1       9.932  -1.066   3.789  1.00  0.00     0.396 C 
HETATM   38  F1  UNL     1      10.418  -0.397   4.904  1.00  0.00    -0.171 F 
HETATM   39  F2  UNL     1      11.009  -1.556   3.076  1.00  0.00    -0.171 F 
HETATM   40  F3  UNL     1       9.157  -2.113   4.287  1.00  0.00    -0.171 F 
ENDBRANCH  36  37
ENDBRANCH  33  36
ENDBRANCH  31  32
ENDBRANCH  30  31
ENDBRANCH  29  30
ENDBRANCH  27  29
ENDBRANCH  26  27
ENDBRANCH  25  26
ENDBRANCH  23  25
ENDBRANCH  22  23
ENDBRANCH  21  22
ENDBRANCH  20  21
ENDBRANCH   9  20
BRANCH  14  41
HETATM   41  C24 UNL     1      -2.661   3.394   1.739  1.00  0.00     0.391 C 
HETATM   42  F4  UNL     1      -2.654   3.479   3.116  1.00  0.00    -0.171 F 
HETATM   43  F5  UNL     1      -3.182   4.507   1.132  1.00  0.00    -0.171 F 
HETATM   44  F6  UNL     1      -1.305   3.379   1.367  1.00  0.00    -0.171 F 
ENDBRANCH  14  41
TORSDOF 14
