REMARK  17 active torsions:
REMARK  status: ('A' for Active; 'I' for Inactive)
REMARK    1  A    between atoms: C2_2  and  C3_3 
REMARK    2  A    between atoms: C3_3  and  N1_4 
REMARK    3  A    between atoms: N1_4  and  C4_6 
REMARK    4  A    between atoms: C5_9  and  N3_10 
REMARK    5  A    between atoms: N4_13  and  C8_14 
REMARK    6  A    between atoms: C8_14  and  O1_15 
REMARK    7  A    between atoms: C8_14  and  C9_17 
REMARK    8  A    between atoms: C9_17  and  C10_18 
REMARK    9  A    between atoms: C18_29  and  C19_30 
REMARK   10  A    between atoms: C20_34  and  N6_35 
REMARK   11  A    between atoms: N6_35  and  C21_37 
REMARK   12  A    between atoms: C21_37  and  C22_38 
REMARK   13  A    between atoms: C22_38  and  C23_39 
REMARK   14  A    between atoms: C23_39  and  C24_40 
REMARK   15  A    between atoms: C24_40  and  C25_41 
REMARK   16  A    between atoms: C25_41  and  C26_42 
REMARK   17  A    between atoms: C26_42  and  C27_43 
ROOT
HETATM    1  C4  UNL     1       1.249   3.004  -0.446  1.00  0.00     0.681 A 
HETATM    2  N2  UNL     1       0.075   2.435  -0.117  1.00  0.00    -0.176 N 
ATOM      3  H2  UNL     1      -0.765   3.013  -0.095  1.00  0.00     0.186 HD
HETATM    4  C5  UNL     1      -0.027   1.107   0.189  1.00  0.00     0.138 A 
HETATM    5  C18 UNL     1       1.072   0.301   0.175  1.00  0.00     0.136 A 
HETATM    6  C20 UNL     1       2.298   0.882  -0.164  1.00  0.00     0.136 A 
HETATM    7  N7  UNL     1       2.328   2.175  -0.453  1.00  0.00    -0.176 N 
ATOM      8  H7  UNL     1       3.231   2.581  -0.700  1.00  0.00     0.186 HD
ENDROOT
BRANCH   4   9
HETATM    9  N3  UNL     1      -1.379   0.701   0.492  1.00  0.00    -0.363 N 
HETATM   10  C6  UNL     1      -2.296   0.616  -0.628  1.00  0.00     0.144 C 
HETATM   11  C7  UNL     1      -3.703   1.041  -0.098  1.00  0.00     0.144 C 
HETATM   12  N4  UNL     1      -3.917   0.130   0.977  1.00  0.00    -0.360 N 
HETATM   13  C16 UNL     1      -3.204   0.519   2.176  1.00  0.00     0.144 C 
HETATM   14  C17 UNL     1      -1.712   0.408   1.857  1.00  0.00     0.144 C 
BRANCH  12  15
HETATM   15  C8  UNL     1      -4.763  -0.979   0.966  1.00  0.00     0.143 C 
BRANCH  15  16
HETATM   16  O1  UNL     1      -4.530  -1.883   1.891  1.00  0.00    -0.347 OA
ATOM     17  H1  UNL     1      -5.106  -2.638   1.884  1.00  0.00     0.219 HD
ENDBRANCH  15  16
BRANCH  15  18
HETATM   18  C9  UNL     1      -5.881  -1.299   0.085  1.00  0.00     0.101 C 
HETATM   19  C13 UNL     1      -6.242  -2.823   0.353  1.00  0.00     0.049 C 
HETATM   20  C14 UNL     1      -5.516  -3.601  -0.725  1.00  0.00     0.106 C 
HETATM   21  C15 UNL     1      -5.201  -2.620  -1.778  1.00  0.00     0.218 C 
HETATM   22  O2  UNL     1      -4.646  -2.884  -2.868  1.00  0.00    -0.274 OA
HETATM   23  N5  UNL     1      -5.643  -1.382  -1.308  1.00  0.00    -0.344 N 
ATOM     24  H5  UNL     1      -5.786  -0.586  -1.930  1.00  0.00     0.163 HD
BRANCH  18  25
HETATM   25  C10 UNL     1      -7.167  -0.572   0.369  1.00  0.00     0.014 C 
HETATM   26  C11 UNL     1      -7.647  -0.856   1.799  1.00  0.00     0.012 C 
HETATM   27  C12 UNL     1      -8.287  -0.982  -0.567  1.00  0.00     0.012 C 
ENDBRANCH  18  25
ENDBRANCH  15  18
ENDBRANCH  12  15
ENDBRANCH   4   9
BRANCH   5  28
HETATM   28  C19 UNL     1       1.016  -1.108   0.555  1.00  0.00     0.424 C 
HETATM   29  F1  UNL     1       0.038  -1.846  -0.093  1.00  0.00    -0.166 F 
HETATM   30  F2  UNL     1       2.214  -1.667  -0.034  1.00  0.00    -0.166 F 
HETATM   31  F3  UNL     1       1.180  -1.385   1.879  1.00  0.00    -0.166 F 
ENDBRANCH   5  28
BRANCH   1  32
HETATM   32  N1  UNL     1       1.319   4.252  -0.728  1.00  0.00    -0.226 N 
ATOM     33  H1  UNL     1       0.446   4.778  -0.689  1.00  0.00     0.177 HD
BRANCH  32  34
HETATM   34  C3  UNL     1       2.478   4.977  -1.088  1.00  0.00     0.137 C 
BRANCH  34  35
HETATM   35  C2  UNL     1       2.497   6.353  -0.452  1.00  0.00     0.016 C 
HETATM   36  C1  UNL     1       2.495   6.300   1.048  1.00  0.00     0.006 C 
ENDBRANCH  34  35
ENDBRANCH  32  34
ENDBRANCH   1  32
BRANCH   6  37
HETATM   37  N6  UNL     1       3.388   0.161  -0.165  1.00  0.00    -0.375 N 
ATOM     38  H6  UNL     1       3.314  -0.826   0.083  1.00  0.00     0.161 HD
BRANCH  37  39
HETATM   39  C21 UNL     1       4.675   0.680  -0.494  1.00  0.00     0.121 C 
BRANCH  39  40
HETATM   40  C22 UNL     1       5.408   0.065  -1.614  1.00  0.00     0.020 C 
BRANCH  40  41
HETATM   41  C23 UNL     1       5.942  -1.302  -1.398  1.00  0.00     0.002 C 
BRANCH  41  42
HETATM   42  C24 UNL     1       6.981  -1.232  -0.307  1.00  0.00     0.000 C 
BRANCH  42  43
HETATM   43  C25 UNL     1       7.717  -2.511  -0.142  1.00  0.00     0.009 C 
BRANCH  43  44
HETATM   44  C26 UNL     1       6.836  -3.657   0.198  1.00  0.00     0.117 C 
BRANCH  44  45
HETATM   45  C27 UNL     1       7.667  -4.942   0.376  1.00  0.00     0.387 C 
HETATM   46  F4  UNL     1       6.800  -5.955   0.674  1.00  0.00    -0.171 F 
HETATM   47  F5  UNL     1       8.487  -4.722   1.474  1.00  0.00    -0.171 F 
HETATM   48  F6  UNL     1       8.411  -5.243  -0.719  1.00  0.00    -0.171 F 
ENDBRANCH  44  45
ENDBRANCH  43  44
ENDBRANCH  42  43
ENDBRANCH  41  42
ENDBRANCH  40  41
ENDBRANCH  39  40
ENDBRANCH  37  39
ENDBRANCH   6  37
TORSDOF 17
