REMARK  12 active torsions:
REMARK  status: ('A' for Active; 'I' for Inactive)
REMARK    1  A    between atoms: C2_2  and  C3_3 
REMARK    2  A    between atoms: C2_2  and  N4_30 
REMARK    3  A    between atoms: C3_3  and  N1_4 
REMARK    4  A    between atoms: C7_8  and  C8_9 
REMARK       I    between atoms: C8_9  and  N2_11 
REMARK    5  A    between atoms: N2_11  and  C9_13 
REMARK    6  A    between atoms: C9_13  and  C10_14 
REMARK    7  A    between atoms: C13_17  and  O2_18 
REMARK    8  A    between atoms: O2_18  and  C14_19 
REMARK    9  A    between atoms: C14_19  and  C15_20 
REMARK   10  A    between atoms: C15_20  and  N3_21 
REMARK       I    between atoms: N4_30  and  C22_32 
REMARK   11  A    between atoms: C22_32  and  C23_34 
REMARK   12  A    between atoms: C23_34  and  C24_35 
ROOT
HETATM    1  N1  UNL     1      -0.586  -1.079  -0.358  1.00  0.00     0.104 N 
HETATM    2  C4  UNL     1      -0.731   0.248  -0.837  1.00  0.00     0.273 C 
HETATM    3  C5  UNL     1       0.385   0.486  -1.843  1.00  0.00     0.033 C 
HETATM    4  C6  UNL     1       0.745  -0.874  -2.335  1.00  0.00     0.047 C 
HETATM    5  C7  UNL     1       0.388  -1.760  -1.193  1.00  0.00     0.314 C 
ENDROOT
BRANCH   5   6
HETATM    6  C8  UNL     1       1.509  -2.226  -0.377  1.00  0.00     0.251 C 
HETATM    7  O1  UNL     1       2.442  -2.940  -0.894  1.00  0.00    -0.271 OA
HETATM    8  N2  UNL     1       1.631  -1.930   0.991  1.00  0.00    -0.355 N 
ATOM      9  H2  UNL     1       0.910  -1.358   1.431  1.00  0.00     0.162 HD
BRANCH   8  10
HETATM   10  C9  UNL     1       2.733  -2.399   1.806  1.00  0.00     0.161 C 
BRANCH  10  11
HETATM   11  C10 UNL     1       3.932  -1.601   1.530  1.00  0.00    -0.039 A 
HETATM   12  C11 UNL     1       3.921  -0.478   0.744  1.00  0.00     0.011 A 
HETATM   13  C12 UNL     1       5.097   0.240   0.519  1.00  0.00     0.039 A 
HETATM   14  C13 UNL     1       6.279  -0.154   1.071  1.00  0.00     0.090 A 
HETATM   15  C20 UNL     1       6.298  -1.302   1.876  1.00  0.00     0.068 A 
HETATM   16 CL1  UNL     1       7.780  -1.871   2.621  1.00  0.00    -0.081 Cl
HETATM   17  C21 UNL     1       5.130  -2.000   2.089  1.00  0.00     0.035 A 
BRANCH  14  18
HETATM   18  O2  UNL     1       7.478   0.475   0.914  1.00  0.00    -0.348 OA
BRANCH  18  19
HETATM   19  C14 UNL     1       7.651   1.636   0.146  1.00  0.00     0.206 C 
BRANCH  19  20
HETATM   20  C15 UNL     1       9.048   2.133   0.122  1.00  0.00     0.299 C 
BRANCH  20  21
HETATM   21  N3  UNL     1      10.056   1.307  -0.412  1.00  0.00     0.094 N 
HETATM   22  C16 UNL     1      11.361   1.913  -0.298  1.00  0.00     0.298 C 
HETATM   23  C17 UNL     1      12.344   1.201  -1.180  1.00  0.00     0.198 C 
HETATM   24  O3  UNL     1      12.356  -0.149  -0.758  1.00  0.00    -0.388 OA
HETATM   25  C18 UNL     1      11.141  -0.739  -1.006  1.00  0.00     0.198 C 
HETATM   26  C19 UNL     1      10.103  -0.059  -0.090  1.00  0.00     0.298 C 
ENDBRANCH  20  21
ENDBRANCH  19  20
ENDBRANCH  18  19
ENDBRANCH  14  18
ENDBRANCH  10  11
ENDBRANCH   8  10
ENDBRANCH   5   6
BRANCH   1  27
HETATM   27  C3  UNL     1      -1.791  -1.821  -0.248  1.00  0.00     0.298 C 
BRANCH  27  28
HETATM   28  C2  UNL     1      -2.779  -1.430   0.789  1.00  0.00     0.108 C 
HETATM   29  C1  UNL     1      -2.144  -1.510   2.159  1.00  0.00     0.034 C 
BRANCH  28  30
HETATM   30  N4  UNL     1      -3.400  -0.142   0.646  1.00  0.00    -0.355 N 
HETATM   31  C22 UNL     1      -4.807  -0.011   0.408  1.00  0.00     0.218 C 
HETATM   32  O4  UNL     1      -5.475  -1.056   0.330  1.00  0.00    -0.274 OA
ATOM     33  H4  UNL     1      -2.826   0.698   0.716  1.00  0.00     0.162 HD
BRANCH  31  34
HETATM   34  C23 UNL     1      -5.404   1.299   0.267  1.00  0.00     0.107 C 
BRANCH  34  35
HETATM   35  C24 UNL     1      -6.933   1.260   0.102  1.00  0.00    -0.006 C 
HETATM   36  C25 UNL     1      -7.601   0.641   1.265  1.00  0.00     0.005 C 
HETATM   37  C26 UNL     1      -8.607  -0.416   1.037  1.00  0.00     0.000 C 
HETATM   38  C27 UNL     1     -10.027   0.069   0.865  1.00  0.00     0.000 C 
HETATM   39  C28 UNL     1     -10.217   1.077  -0.203  1.00  0.00     0.000 C 
HETATM   40  C29 UNL     1     -10.185   0.479  -1.587  1.00  0.00     0.000 C 
HETATM   41  C30 UNL     1      -9.392   1.289  -2.566  1.00  0.00     0.000 C 
HETATM   42  C31 UNL     1      -8.112   1.841  -2.039  1.00  0.00     0.000 C 
HETATM   43  C32 UNL     1      -7.316   0.788  -1.256  1.00  0.00     0.005 C 
ENDBRANCH  34  35
ENDBRANCH  31  34
ENDBRANCH  28  30
ENDBRANCH  27  28
ENDBRANCH   1  27
TORSDOF 12
