REMARK  16 active torsions:
REMARK  status: ('A' for Active; 'I' for Inactive)
REMARK    1  A    between atoms: C2_2  and  C3_3 
REMARK    2  A    between atoms: C3_3  and  C4_4 
REMARK    3  A    between atoms: C4_4  and  C5_5 
REMARK    4  A    between atoms: C10_10  and  O1_12 
REMARK    5  A    between atoms: C12_14  and  O2_15 
REMARK    6  A    between atoms: O2_15  and  C13_16 
REMARK    7  A    between atoms: C15_19  and  C16_20 
REMARK       I    between atoms: C16_20  and  N1_22 
REMARK    8  A    between atoms: N1_22  and  C17_24 
REMARK    9  A    between atoms: C17_24  and  C18_25 
REMARK   10  A    between atoms: C18_25  and  C19_26 
REMARK   11  A    between atoms: C19_26  and  C20_27 
REMARK   12  A    between atoms: C20_27  and  C21_28 
REMARK   13  A    between atoms: C21_28  and  C22_29 
REMARK   14  A    between atoms: C22_29  and  N2_30 
REMARK       I    between atoms: N2_30  and  C23_32 
REMARK   15  A    between atoms: C28_39  and  C29_40 
REMARK   16  A    between atoms: C29_40  and  O7_42 
ROOT
HETATM    1  C5  UNL     1      -3.047  -0.496   2.467  1.00  0.00     0.061 C 
HETATM    2  C6  UNL     1      -2.514  -1.940   2.449  1.00  0.00     0.046 C 
HETATM    3  C7  UNL     1      -2.697   0.051   3.841  1.00  0.00     0.038 C 
HETATM    4  C8  UNL     1      -1.205   0.074   4.008  1.00  0.00     0.006 C 
HETATM    5  C9  UNL     1      -0.656   1.492   3.843  1.00  0.00     0.040 C 
HETATM    6  C10 UNL     1       0.483   1.547   2.867  1.00  0.00     0.084 C 
HETATM    7  C11 UNL     1       1.461   2.590   3.370  1.00  0.00     0.049 C 
HETATM    8  C12 UNL     1       0.069   1.913   1.483  1.00  0.00     0.204 C 
HETATM    9  C15 UNL     1      -0.090   0.696   0.557  1.00  0.00     0.249 C 
HETATM   10  O6  UNL     1      -1.196   0.725  -0.195  1.00  0.00    -0.338 OA
HETATM   11  C25 UNL     1      -2.372   0.154   0.267  1.00  0.00     0.166 C 
HETATM   12  C26 UNL     1      -3.432   0.938  -0.551  1.00  0.00     0.069 C 
HETATM   13  C27 UNL     1      -3.001   0.590  -1.951  1.00  0.00     0.013 C 
HETATM   14  C28 UNL     1      -2.636  -0.850  -1.856  1.00  0.00     0.019 C 
HETATM   15  C31 UNL     1      -2.494  -1.185  -0.384  1.00  0.00     0.075 C 
HETATM   16  O8  UNL     1      -2.504   0.298   1.568  1.00  0.00    -0.344 OA
ENDROOT
BRANCH   9  17
HETATM   17  C16 UNL     1       1.123   0.698  -0.348  1.00  0.00     0.249 C 
HETATM   18  O4  UNL     1       2.250   0.750   0.227  1.00  0.00    -0.271 OA
HETATM   19  N1  UNL     1       1.080   0.650  -1.743  1.00  0.00    -0.359 N 
ATOM     20  H1  UNL     1       0.174   0.602  -2.210  1.00  0.00     0.162 HD
BRANCH  19  21
HETATM   21  C17 UNL     1       2.267   0.666  -2.534  1.00  0.00     0.122 C 
BRANCH  21  22
HETATM   22  C18 UNL     1       3.198  -0.487  -2.290  1.00  0.00     0.020 C 
BRANCH  22  23
HETATM   23  C19 UNL     1       4.390  -0.279  -3.211  1.00  0.00     0.002 C 
BRANCH  23  24
HETATM   24  C20 UNL     1       5.429  -1.369  -3.078  1.00  0.00     0.002 C 
BRANCH  24  25
HETATM   25  C21 UNL     1       6.538  -1.037  -4.024  1.00  0.00     0.020 C 
BRANCH  25  26
HETATM   26  C22 UNL     1       7.664  -2.009  -4.045  1.00  0.00     0.122 C 
BRANCH  26  27
HETATM   27  N2  UNL     1       8.259  -2.094  -2.732  1.00  0.00    -0.361 N 
HETATM   28  C23 UNL     1       9.358  -2.966  -2.527  1.00  0.00     0.213 C 
HETATM   29  C24 UNL     1       9.966  -3.049  -1.176  1.00  0.00     0.117 C 
HETATM   30  O5  UNL     1       9.790  -3.646  -3.487  1.00  0.00    -0.274 OA
ATOM     31  H2  UNL     1       7.893  -1.534  -1.962  1.00  0.00     0.162 HD
ENDBRANCH  26  27
ENDBRANCH  25  26
ENDBRANCH  24  25
ENDBRANCH  23  24
ENDBRANCH  22  23
ENDBRANCH  21  22
ENDBRANCH  19  21
ENDBRANCH   9  17
BRANCH   8  32
HETATM   32  O2  UNL     1      -1.076   2.750   1.439  1.00  0.00    -0.310 OA
BRANCH  32  33
HETATM   33  C13 UNL     1      -1.084   4.046   0.970  1.00  0.00     0.255 C 
HETATM   34  C14 UNL     1      -2.287   4.910   0.929  1.00  0.00     0.126 C 
HETATM   35  O3  UNL     1      -0.003   4.526   0.548  1.00  0.00    -0.266 OA
ENDBRANCH  32  33
ENDBRANCH   8  32
BRANCH   6  36
HETATM   36  O1  UNL     1       1.155   0.315   2.820  1.00  0.00    -0.387 OA
ATOM     37  H1  UNL     1       1.876   0.350   2.202  1.00  0.00     0.210 HD
ENDBRANCH   6  36
BRANCH  14  38
HETATM   38  C29 UNL     1      -3.616  -1.753  -2.569  1.00  0.00     0.118 C 
HETATM   39  C30 UNL     1      -5.015  -1.672  -2.058  1.00  0.00     0.040 C 
BRANCH  38  40
HETATM   40  O7  UNL     1      -3.175  -3.056  -2.554  1.00  0.00    -0.396 OA
ATOM     41  H7  UNL     1      -3.791  -3.624  -3.002  1.00  0.00     0.210 HD
ENDBRANCH  38  40
ENDBRANCH  14  38
BRANCH   1  42
HETATM   42  C4  UNL     1      -4.549  -0.668   2.517  1.00  0.00     0.041 C 
BRANCH  42  43
HETATM   43  C3  UNL     1      -5.364   0.558   2.604  1.00  0.00     0.029 C 
BRANCH  43  44
HETATM   44  C2  UNL     1      -6.812   0.239   2.655  1.00  0.00    -0.037 C 
HETATM   45  C1  UNL     1      -7.604   0.688   1.701  1.00  0.00     0.007 C 
ENDBRANCH  43  44
ENDBRANCH  42  43
ENDBRANCH   1  42
TORSDOF 16
