REMARK  16 active torsions:
REMARK  status: ('A' for Active; 'I' for Inactive)
REMARK    1  A    between atoms: C2_2  and  C3_3 
REMARK    2  A    between atoms: C3_3  and  C4_4 
REMARK    3  A    between atoms: C4_4  and  C5_5 
REMARK    4  A    between atoms: C5_5  and  C6_6 
REMARK    5  A    between atoms: C6_6  and  N1_7 
REMARK       I    between atoms: N1_7  and  C7_9 
REMARK    6  A    between atoms: C7_9  and  C8_11 
REMARK    7  A    between atoms: C8_11  and  C9_12 
REMARK    8  A    between atoms: C9_12  and  C10_13 
REMARK    9  A    between atoms: C13_16  and  O2_17 
REMARK   10  A    between atoms: O2_17  and  C14_18 
REMARK   11  A    between atoms: C17_22  and  O4_23 
REMARK   12  A    between atoms: C19_26  and  C20_27 
REMARK   13  A    between atoms: C19_26  and  C23_32 
REMARK   14  A    between atoms: C20_27  and  O5_28 
REMARK   15  A    between atoms: O5_28  and  C21_29 
REMARK   16  A    between atoms: C32_41  and  O7_42 
ROOT
HETATM    1  C10 UNL     1       0.561  -1.376  -0.860  1.00  0.00     0.053 C 
HETATM    2  C11 UNL     1      -0.633  -0.474  -0.434  1.00  0.00     0.009 C 
HETATM    3  C12 UNL     1      -0.214   0.195   0.797  1.00  0.00     0.039 C 
HETATM    4  C13 UNL     1      -1.327   0.716   1.691  1.00  0.00     0.139 C 
HETATM    5  C16 UNL     1      -2.489   0.833   0.765  1.00  0.00     0.050 C 
HETATM    6  C17 UNL     1      -3.657   1.581   1.228  1.00  0.00     0.126 C 
HETATM    7  C18 UNL     1      -4.828   0.677   0.851  1.00  0.00     0.044 C 
HETATM    8  C19 UNL     1      -4.250  -0.114  -0.384  1.00  0.00    -0.008 C 
HETATM    9  C26 UNL     1      -3.005  -0.531   0.252  1.00  0.00     0.017 C 
HETATM   10  C27 UNL     1      -1.924  -1.316  -0.375  1.00  0.00    -0.004 C 
HETATM   11  C28 UNL     1      -2.203  -1.796  -1.792  1.00  0.00     0.019 C 
HETATM   12  C29 UNL     1      -1.438  -2.566   0.316  1.00  0.00     0.074 C 
HETATM   13  C30 UNL     1      -2.385  -3.384   1.135  1.00  0.00     0.047 C 
HETATM   14  C31 UNL     1      -0.632  -3.458  -0.573  1.00  0.00     0.107 C 
HETATM   15  C32 UNL     1       0.497  -2.579  -0.018  1.00  0.00     0.169 C 
HETATM   16  O8  UNL     1      -0.291  -2.416   1.075  1.00  0.00    -0.343 OA
ENDROOT
BRANCH   1  17
HETATM   17  C9  UNL     1       1.809  -0.589  -0.858  1.00  0.00     0.019 C 
BRANCH  17  18
HETATM   18  C8  UNL     1       3.059  -1.292  -1.289  1.00  0.00     0.103 C 
BRANCH  18  19
HETATM   19  C7  UNL     1       4.234  -0.364  -1.280  1.00  0.00     0.217 C 
HETATM   20  N1  UNL     1       5.509  -0.848  -1.657  1.00  0.00    -0.361 N 
ATOM     21  H1  UNL     1       5.579  -1.829  -1.928  1.00  0.00     0.162 HD
HETATM   22  O1  UNL     1       4.070   0.811  -0.943  1.00  0.00    -0.274 OA
BRANCH  20  23
HETATM   23  C6  UNL     1       6.704  -0.070  -1.687  1.00  0.00     0.122 C 
BRANCH  23  24
HETATM   24  C5  UNL     1       7.001   0.452  -0.301  1.00  0.00     0.020 C 
BRANCH  24  25
HETATM   25  C4  UNL     1       8.292   1.271  -0.385  1.00  0.00     0.002 C 
BRANCH  25  26
HETATM   26  C3  UNL     1       8.599   1.799   1.005  1.00  0.00    -0.000 C 
BRANCH  26  27
HETATM   27  C2  UNL     1       9.853   2.618   1.027  1.00  0.00    -0.005 C 
HETATM   28  C1  UNL     1       9.820   3.822   0.139  1.00  0.00     0.005 C 
ENDBRANCH  26  27
ENDBRANCH  25  26
ENDBRANCH  24  25
ENDBRANCH  23  24
ENDBRANCH  20  23
ENDBRANCH  18  19
ENDBRANCH  17  18
ENDBRANCH   1  17
BRANCH  15  29
HETATM   29  O7  UNL     1       1.628  -3.299   0.303  1.00  0.00    -0.365 OA
ATOM     30  H7  UNL     1       1.587  -4.077   0.847  1.00  0.00     0.213 HD
ENDBRANCH  15  29
BRANCH   4  31
HETATM   31  O2  UNL     1      -1.496   0.041   2.874  1.00  0.00    -0.316 OA
BRANCH  31  32
HETATM   32  C14 UNL     1      -1.230   0.614   4.100  1.00  0.00     0.255 C 
HETATM   33  C15 UNL     1      -1.448  -0.176   5.347  1.00  0.00     0.126 C 
HETATM   34  O3  UNL     1      -0.804   1.794   4.253  1.00  0.00    -0.266 OA
ENDBRANCH  31  32
ENDBRANCH   4  31
BRANCH   8  35
HETATM   35  C20 UNL     1      -4.176   1.021  -1.395  1.00  0.00     0.189 C 
BRANCH  35  36
HETATM   36  O5  UNL     1      -5.437   1.627  -1.645  1.00  0.00    -0.321 OA
BRANCH  36  37
HETATM   37  C21 UNL     1      -5.630   2.663  -2.508  1.00  0.00     0.254 C 
HETATM   38  C22 UNL     1      -6.958   3.290  -2.761  1.00  0.00     0.126 C 
HETATM   39  O6  UNL     1      -4.643   3.128  -3.135  1.00  0.00    -0.266 OA
ENDBRANCH  36  37
ENDBRANCH  35  36
ENDBRANCH   8  35
BRANCH   8  40
HETATM   40  C23 UNL     1      -5.337  -1.078  -0.674  1.00  0.00    -0.012 C 
HETATM   41  C24 UNL     1      -5.735  -2.003   0.454  1.00  0.00     0.010 C 
HETATM   42  C25 UNL     1      -6.660  -0.490  -1.136  1.00  0.00     0.010 C 
ENDBRANCH   8  40
BRANCH   6  43
HETATM   43  O4  UNL     1      -3.652   1.832   2.600  1.00  0.00    -0.395 OA
ATOM     44  H4  UNL     1      -4.411   2.318   2.901  1.00  0.00     0.210 HD
ENDBRANCH   6  43
TORSDOF 16
