REMARK  14 active torsions:
REMARK  status: ('A' for Active; 'I' for Inactive)
REMARK    1  A    between atoms: C5_5  and  C6_6 
REMARK       I    between atoms: C6_6  and  N1_8 
REMARK    2  A    between atoms: N1_8  and  C7_10 
REMARK    3  A    between atoms: C7_10  and  C8_11 
REMARK    4  A    between atoms: C7_10  and  C12_19 
REMARK    5  A    between atoms: C8_11  and  C9_12 
REMARK    6  A    between atoms: C9_12  and  C10_13 
REMARK    7  A    between atoms: C10_13  and  C11_14 
REMARK    8  A    between atoms: C11_14  and  N2_15 
REMARK       I    between atoms: C12_19  and  N3_21 
REMARK    9  A    between atoms: N3_21  and  C13_23 
REMARK   10  A    between atoms: C13_23  and  C14_24 
REMARK   11  A    between atoms: C14_24  and  C15_25 
REMARK   12  A    between atoms: C15_25  and  N4_26 
REMARK   13  A    between atoms: C22_36  and  C23_37 
REMARK   14  A    between atoms: C23_37  and  C24_38 
ROOT
HETATM    1  C6  UNL     1      -0.560   1.459   1.394  1.00  0.00     0.269 C 
HETATM    2  O1  UNL     1       0.026   1.860   2.377  1.00  0.00    -0.266 OA
HETATM    3  N1  UNL     1       0.236   1.411   0.169  1.00  0.00    -0.342 N 
ATOM      4  H1  UNL     1      -0.205   1.074  -0.687  1.00  0.00     0.163 HD
ENDROOT
BRANCH   3   5
HETATM    5  C7  UNL     1       1.604   1.816   0.120  1.00  0.00     0.177 C 
BRANCH   5   6
HETATM    6  C8  UNL     1       1.865   2.800  -0.993  1.00  0.00     0.035 C 
BRANCH   6   7
HETATM    7  C9  UNL     1       0.994   4.006  -0.729  1.00  0.00     0.004 C 
BRANCH   7   8
HETATM    8  C10 UNL     1       1.135   5.091  -1.753  1.00  0.00     0.027 C 
BRANCH   8   9
HETATM    9  C11 UNL     1       0.757   4.571  -3.115  1.00  0.00     0.229 C 
BRANCH   9  10
HETATM   10  N2  UNL     1       0.898   5.647  -4.095  1.00  0.00    -0.079 N 
ATOM     11  H23 UNL     1       0.367   6.479  -3.837  1.00  0.00     0.274 HD
ATOM     12  H22 UNL     1       1.830   6.062  -4.083  1.00  0.00     0.274 HD
ATOM     13  H21 UNL     1       0.642   5.295  -5.017  1.00  0.00     0.274 HD
ENDBRANCH   9  10
ENDBRANCH   8   9
ENDBRANCH   7   8
ENDBRANCH   6   7
ENDBRANCH   5   6
BRANCH   5  14
HETATM   14  C12 UNL     1       2.530   0.644   0.084  1.00  0.00     0.240 C 
HETATM   15  O2  UNL     1       2.005  -0.494   0.098  1.00  0.00    -0.271 OA
HETATM   16  N3  UNL     1       3.939   0.753   0.039  1.00  0.00    -0.359 N 
ATOM     17  H3  UNL     1       4.372   1.676   0.021  1.00  0.00     0.162 HD
BRANCH  16  18
HETATM   18  C13 UNL     1       4.765  -0.414   0.019  1.00  0.00     0.124 C 
BRANCH  18  19
HETATM   19  C14 UNL     1       4.577  -1.342  -1.139  1.00  0.00     0.050 C 
BRANCH  19  20
HETATM   20  C15 UNL     1       5.548  -2.519  -0.926  1.00  0.00     0.274 C 
BRANCH  20  21
HETATM   21  N4  UNL     1       6.890  -1.943  -0.915  1.00  0.00     0.092 N 
HETATM   22  C16 UNL     1       7.872  -2.967  -0.566  1.00  0.00     0.298 C 
HETATM   23  C17 UNL     1       8.056  -3.969  -1.670  1.00  0.00     0.198 C 
HETATM   24  O3  UNL     1       8.336  -3.357  -2.889  1.00  0.00    -0.388 OA
HETATM   25  C18 UNL     1       8.521  -1.985  -2.762  1.00  0.00     0.198 C 
HETATM   26  C19 UNL     1       7.207  -1.401  -2.242  1.00  0.00     0.298 C 
ENDBRANCH  20  21
ENDBRANCH  19  20
ENDBRANCH  18  19
ENDBRANCH  16  18
ENDBRANCH   5  14
ENDBRANCH   3   5
BRANCH   1  27
HETATM   27  C5  UNL     1      -1.946   1.034   1.340  1.00  0.00     0.112 A 
HETATM   28  C4  UNL     1      -2.648   0.615   2.447  1.00  0.00     0.011 A 
HETATM   29  C3  UNL     1      -2.078   0.546   3.672  1.00  0.00     0.039 A 
HETATM   30  C29 UNL     1      -4.023   0.296   2.301  1.00  0.00     0.007 A 
HETATM   31  C2  UNL     1      -2.824   0.176   4.770  1.00  0.00     0.006 A 
HETATM   32  C1  UNL     1      -2.202   0.102   6.138  1.00  0.00     0.068 C 
HETATM   33  N6  UNL     1      -4.104  -0.107   4.603  1.00  0.00    -0.363 N 
HETATM   34  C30 UNL     1      -4.769  -0.064   3.393  1.00  0.00     0.017 A 
ATOM     35  H6  UNL     1      -4.640  -0.377   5.428  1.00  0.00     0.165 HD
HETATM   36  C31 UNL     1      -6.215  -0.225   3.400  1.00  0.00     0.069 C 
HETATM   37  C22 UNL     1      -4.597   0.402   1.050  1.00  0.00    -0.022 A 
HETATM   38  C20 UNL     1      -3.837   0.846  -0.062  1.00  0.00     0.013 A 
HETATM   39  N5  UNL     1      -2.570   1.131   0.146  1.00  0.00    -0.354 N 
HETATM   40  C21 UNL     1      -4.467   1.095  -1.359  1.00  0.00     0.068 C 
ATOM     41  H5  UNL     1      -2.019   1.448  -0.652  1.00  0.00     0.166 HD
BRANCH  37  42
HETATM   42  C23 UNL     1      -5.917  -0.099   0.734  1.00  0.00     0.046 C 
BRANCH  42  43
HETATM   43  C24 UNL     1      -5.617  -1.376  -0.121  1.00  0.00    -0.010 C 
HETATM   44  C25 UNL     1      -6.941  -2.018  -0.552  1.00  0.00     0.005 C 
HETATM   45  C26 UNL     1      -6.498  -3.349  -1.115  1.00  0.00     0.000 C 
HETATM   46  C27 UNL     1      -5.375  -3.755  -0.198  1.00  0.00     0.000 C 
HETATM   47  C28 UNL     1      -5.058  -2.542   0.682  1.00  0.00     0.005 C 
ENDBRANCH  42  43
ENDBRANCH  37  42
ENDBRANCH   1  27
TORSDOF 14
