REMARK  15 active torsions:
REMARK  status: ('A' for Active; 'I' for Inactive)
REMARK    1  A    between atoms: C2_2  and  C3_3 
REMARK    2  A    between atoms: C3_3  and  N1_4 
REMARK    3  A    between atoms: C4_5  and  S1_6 
REMARK    4  A    between atoms: S1_6  and  C5_7 
REMARK    5  A    between atoms: C5_7  and  C6_8 
REMARK    6  A    between atoms: C6_8  and  C7_9 
REMARK    7  A    between atoms: C7_9  and  C8_10 
REMARK    8  A    between atoms: N2_14  and  C12_15 
REMARK    9  A    between atoms: C12_15  and  C13_16 
REMARK   10  A    between atoms: N3_18  and  C15_19 
REMARK   11  A    between atoms: C15_19  and  C16_20 
REMARK       I    between atoms: N4_22  and  C18_24 
REMARK   12  A    between atoms: C20_35  and  N9_36 
REMARK       I    between atoms: N9_36  and  C21_38 
REMARK   13  A    between atoms: C21_38  and  C22_40 
REMARK   14  A    between atoms: C22_40  and  C23_41 
REMARK   15  A    between atoms: C22_40  and  C25_43 
ROOT
HETATM    1  C6  UNL     1      -0.175   1.385  -1.218  1.00  0.00     0.017 C 
ENDROOT
BRANCH   1   2
HETATM    2  C5  UNL     1       0.123   1.940   0.113  1.00  0.00     0.083 C 
BRANCH   2   3
HETATM    3  S1  UNL     1       1.728   2.424   0.564  1.00  0.00    -0.092 SA
BRANCH   3   4
HETATM    4  C4  UNL     1       3.031   1.279   0.746  1.00  0.00     0.177 A 
HETATM    5  N1  UNL     1       4.071   0.898   0.009  1.00  0.00    -0.159 N 
HETATM    6  C20 UNL     1       4.796  -0.071   0.670  1.00  0.00     0.703 A 
HETATM    7  N8  UNL     1       4.175  -0.274   1.828  1.00  0.00    -0.130 N 
HETATM    8  N7  UNL     1       3.130   0.508   1.901  1.00  0.00    -0.265 N 
ATOM      9  H8  UNL     1       4.468  -0.936   2.547  1.00  0.00     0.205 HD
ATOM     10  H7  UNL     1       2.483   0.547   2.688  1.00  0.00     0.189 HD
BRANCH   5  11
HETATM   11  C3  UNL     1       4.467   1.349  -1.279  1.00  0.00     0.149 C 
BRANCH  11  12
HETATM   12  C2  UNL     1       4.281   0.502  -2.461  1.00  0.00     0.016 C 
HETATM   13  C1  UNL     1       2.925   0.059  -2.810  1.00  0.00     0.006 C 
ENDBRANCH  11  12
ENDBRANCH   5  11
BRANCH   6  14
HETATM   14  N9  UNL     1       5.862  -0.639   0.210  1.00  0.00    -0.158 N 
HETATM   15  C21 UNL     1       6.540  -1.622   0.956  1.00  0.00     0.240 C 
HETATM   16  O2  UNL     1       5.927  -2.596   1.488  1.00  0.00    -0.272 OA
ATOM     17  H9  UNL     1       6.218  -0.371  -0.708  1.00  0.00     0.187 HD
BRANCH  15  18
HETATM   18  C22 UNL     1       8.008  -1.514   1.120  1.00  0.00     0.078 C 
BRANCH  18  19
HETATM   19  C23 UNL     1       8.624  -1.545  -0.271  1.00  0.00     0.009 C 
HETATM   20  C24 UNL     1       8.285  -2.830  -0.990  1.00  0.00     0.006 C 
ENDBRANCH  18  19
BRANCH  18  21
HETATM   21  C25 UNL     1       8.337  -0.221   1.796  1.00  0.00     0.009 C 
HETATM   22  C26 UNL     1       7.707  -0.117   3.159  1.00  0.00     0.006 C 
ENDBRANCH  18  21
ENDBRANCH  15  18
ENDBRANCH   6  14
ENDBRANCH   3   4
ENDBRANCH   2   3
ENDBRANCH   1   2
BRANCH   1  23
HETATM   23  C7  UNL     1      -1.638   1.041  -1.469  1.00  0.00     0.058 C 
BRANCH  23  24
HETATM   24  C8  UNL     1      -2.548   2.191  -1.339  1.00  0.00     0.011 A 
HETATM   25  C9  UNL     1      -2.742   3.080  -2.392  1.00  0.00     0.026 A 
HETATM   26  C10 UNL     1      -3.637   4.050  -2.002  1.00  0.00     0.019 A 
HETATM   27  C11 UNL     1      -3.977   3.732  -0.712  1.00  0.00     0.091 A 
HETATM   28  N2  UNL     1      -3.310   2.604  -0.329  1.00  0.00    -0.358 N 
BRANCH  28  29
HETATM   29  C12 UNL     1      -3.516   2.001   0.947  1.00  0.00     0.162 C 
BRANCH  29  30
HETATM   30  C13 UNL     1      -4.701   1.124   1.087  1.00  0.00     0.160 C 
HETATM   31  C14 UNL     1      -4.802  -0.064   0.207  1.00  0.00     0.160 C 
HETATM   32  N3  UNL     1      -6.165  -0.456   0.476  1.00  0.00    -0.347 N 
HETATM   33  C19 UNL     1      -6.871   0.773   0.682  1.00  0.00     0.295 C 
HETATM   34  O1  UNL     1      -5.913   1.769   0.875  1.00  0.00    -0.363 OA
BRANCH  32  35
HETATM   35  C15 UNL     1      -6.657  -1.770   0.526  1.00  0.00     0.082 C 
HETATM   36  N4  UNL     1      -7.745  -2.177  -0.030  1.00  0.00    -0.321 N 
HETATM   37  C18 UNL     1      -8.659  -1.459  -0.782  1.00  0.00     0.187 C 
ATOM     38  H4  UNL     1      -7.963  -3.165   0.102  1.00  0.00     0.169 HD
HETATM   39  N5  UNL     1      -8.469  -1.260  -2.036  1.00  0.00    -0.373 N 
HETATM   40  N6  UNL     1      -9.829  -0.930  -0.185  1.00  0.00    -0.064 NA
ATOM     41  H52 UNL     1      -7.626  -1.641  -2.466  1.00  0.00     0.158 HD
ATOM     42  H51 UNL     1      -9.142  -0.731  -2.590  1.00  0.00     0.158 HD
BRANCH  35  43
HETATM   43  C16 UNL     1      -5.904  -2.850   1.275  1.00  0.00     0.072 C 
HETATM   44  C17 UNL     1      -6.605  -4.164   1.195  1.00  0.00     0.013 C 
ENDBRANCH  35  43
ENDBRANCH  32  35
ENDBRANCH  29  30
ENDBRANCH  28  29
ENDBRANCH  23  24
ENDBRANCH   1  23
TORSDOF 15
