REMARK  15 active torsions:
REMARK  status: ('A' for Active; 'I' for Inactive)
REMARK    1  A    between atoms: C2_2  and  C3_4 
REMARK    2  A    between atoms: C3_4  and  C4_5 
REMARK    3  A    between atoms: C4_5  and  C5_6 
REMARK    4  A    between atoms: C5_6  and  N1_7 
REMARK    5  A    between atoms: C5_6  and  C11_16 
REMARK       I    between atoms: N1_7  and  C6_9 
REMARK    6  A    between atoms: C6_9  and  O3_11 
REMARK    7  A    between atoms: O3_11  and  C7_12 
REMARK       I    between atoms: C11_16  and  N2_18 
REMARK    8  A    between atoms: N2_18  and  C12_20 
REMARK    9  A    between atoms: C12_20  and  C14_22 
REMARK       I    between atoms: C14_22  and  N3_24 
REMARK   10  A    between atoms: C16_26  and  O6_27 
REMARK   11  A    between atoms: O6_27  and  C17_28 
REMARK   12  A    between atoms: C17_28  and  C18_29 
REMARK   13  A    between atoms: C18_29  and  C19_30 
REMARK   14  A    between atoms: C19_30  and  C20_31 
REMARK   15  A    between atoms: C27_38  and  C28_39 
ROOT
HETATM    1  C12 UNL     1      -1.535   0.693   1.036  1.00  0.00     0.172 C 
HETATM    2  C13 UNL     1      -0.961   1.865   1.743  1.00  0.00     0.042 C 
ENDROOT
BRANCH   1   3
HETATM    3  N2  UNL     1      -2.893   0.379   1.516  1.00  0.00    -0.346 N 
HETATM    4  C11 UNL     1      -3.849  -0.103   0.616  1.00  0.00     0.241 C 
HETATM    5  O4  UNL     1      -3.400  -0.256  -0.587  1.00  0.00    -0.271 OA
ATOM      6  H2  UNL     1      -3.134   0.512   2.498  1.00  0.00     0.163 HD
BRANCH   4   7
HETATM    7  C5  UNL     1      -5.238  -0.449   0.791  1.00  0.00     0.179 C 
BRANCH   7   8
HETATM    8  C4  UNL     1      -5.728  -1.227   1.922  1.00  0.00     0.042 C 
BRANCH   8   9
HETATM    9  C3  UNL     1      -5.412  -0.865   3.322  1.00  0.00     0.080 C 
BRANCH   9  10
HETATM   10  C2  UNL     1      -5.878   0.441   3.788  1.00  0.00     0.123 C 
HETATM   11  C1  UNL     1      -5.747   0.876   5.191  1.00  0.00     0.091 C 
HETATM   12  O1  UNL     1      -6.392   1.224   3.004  1.00  0.00    -0.298 OA
ENDBRANCH   9  10
ENDBRANCH   8   9
ENDBRANCH   7   8
BRANCH   7  13
HETATM   13  N1  UNL     1      -5.788  -1.095  -0.433  1.00  0.00    -0.324 N 
HETATM   14  C6  UNL     1      -6.744  -0.437  -1.245  1.00  0.00     0.362 C 
HETATM   15  O2  UNL     1      -7.124   0.728  -0.917  1.00  0.00    -0.238 OA
ATOM     16  H1  UNL     1      -5.470  -2.029  -0.691  1.00  0.00     0.165 HD
BRANCH  14  17
HETATM   17  O3  UNL     1      -7.287  -0.990  -2.382  1.00  0.00    -0.294 OA
BRANCH  17  18
HETATM   18  C7  UNL     1      -8.236  -0.359  -3.199  1.00  0.00     0.061 C 
HETATM   19  C8  UNL     1      -7.710   0.948  -3.800  1.00  0.00     0.046 C 
HETATM   20  C9  UNL     1      -8.542  -1.256  -4.387  1.00  0.00     0.046 C 
HETATM   21  C10 UNL     1      -9.543  -0.046  -2.544  1.00  0.00     0.046 C 
ENDBRANCH  17  18
ENDBRANCH  14  17
ENDBRANCH   7  13
ENDBRANCH   4   7
ENDBRANCH   1   3
BRANCH   1  22
HETATM   22  C14 UNL     1      -0.624  -0.463   1.070  1.00  0.00     0.243 C 
HETATM   23  O5  UNL     1      -1.098  -1.553   1.520  1.00  0.00    -0.271 OA
HETATM   24  N3  UNL     1       0.722  -0.384   0.618  1.00  0.00    -0.335 N 
HETATM   25  C15 UNL     1       1.421   0.794   0.166  1.00  0.00     0.159 C 
HETATM   26  C27 UNL     1       1.587  -1.569   0.488  1.00  0.00     0.179 C 
HETATM   27  C16 UNL     1       2.821   0.327  -0.219  1.00  0.00     0.141 C 
HETATM   28  C26 UNL     1       2.534  -1.102  -0.612  1.00  0.00     0.068 C 
BRANCH  27  29
HETATM   29  O6  UNL     1       3.368   1.036  -1.245  1.00  0.00    -0.384 OA
BRANCH  29  30
HETATM   30  C17 UNL     1       4.617   1.541  -0.871  1.00  0.00     0.168 C 
BRANCH  30  31
HETATM   31  C18 UNL     1       5.613   0.445  -0.639  1.00  0.00     0.027 C 
BRANCH  31  32
HETATM   32  C19 UNL     1       6.968   0.974  -0.188  1.00  0.00     0.007 C 
BRANCH  32  33
HETATM   33  C20 UNL     1       7.949  -0.163  -0.000  1.00  0.00    -0.014 C 
HETATM   34  C21 UNL     1       9.264   0.397   0.469  1.00  0.00     0.004 C 
HETATM   35  C22 UNL     1       9.868   1.328  -0.536  1.00  0.00     0.000 C 
HETATM   36  C23 UNL     1       9.996   0.752  -1.911  1.00  0.00     0.000 C 
HETATM   37  C24 UNL     1       8.739   0.052  -2.370  1.00  0.00     0.000 C 
HETATM   38  C25 UNL     1       8.219  -0.889  -1.305  1.00  0.00     0.004 C 
ENDBRANCH  32  33
ENDBRANCH  31  32
ENDBRANCH  30  31
ENDBRANCH  29  30
ENDBRANCH  27  29
BRANCH  26  39
HETATM   39  C28 UNL     1       2.262  -1.789   1.757  1.00  0.00     0.254 C 
HETATM   40  N4  UNL     1       3.223  -2.845   1.928  1.00  0.00    -0.060 NA
HETATM   41  O7  UNL     1       2.006  -1.051   2.734  1.00  0.00    -0.275 OA
ENDBRANCH  26  39
ENDBRANCH   1  22
TORSDOF 15
