REMARK  14 active torsions:
REMARK  status: ('A' for Active; 'I' for Inactive)
REMARK       I    between atoms: C2_2  and  N1_4 
REMARK    1  A    between atoms: C3_6  and  C4_7 
REMARK    2  A    between atoms: C3_6  and  C8_12 
REMARK    3  A    between atoms: C8_12  and  N2_13 
REMARK    4  A    between atoms: C8_12  and  C28_42 
REMARK       I    between atoms: N2_13  and  C9_15 
REMARK    5  A    between atoms: C9_15  and  C10_17 
REMARK    6  A    between atoms: C10_17  and  C11_18 
REMARK       I    between atoms: C11_18  and  N3_20 
REMARK    7  A    between atoms: N3_20  and  C12_21 
REMARK    8  A    between atoms: C12_21  and  C13_22 
REMARK    9  A    between atoms: C12_21  and  C20_29 
REMARK   10  A    between atoms: C13_22  and  C14_23 
REMARK       I    between atoms: C20_29  and  N4_31 
REMARK   11  A    between atoms: N4_31  and  C21_33 
REMARK   12  A    between atoms: C21_33  and  C23_35 
REMARK   13  A    between atoms: C23_35  and  O7_37 
REMARK   14  A    between atoms: O7_37  and  C24_38 
ROOT
HETATM    1  C11 UNL     1       0.682   1.092  -0.122  1.00  0.00     0.301 C 
HETATM    2  O4  UNL     1       1.021   1.427   1.027  1.00  0.00    -0.257 OA
HETATM    3  N3  UNL     1      -0.618   1.157  -0.618  1.00  0.00    -0.365 NA
ENDROOT
BRANCH   1   4
HETATM    4  C10 UNL     1       1.823   0.581  -0.966  1.00  0.00     0.221 C 
BRANCH   4   5
HETATM    5  C9  UNL     1       2.795  -0.062  -0.082  1.00  0.00     0.228 C 
HETATM    6  N2  UNL     1       3.985  -0.646  -0.625  1.00  0.00    -0.350 N 
ATOM      7  H2  UNL     1       4.190  -0.600  -1.623  1.00  0.00     0.163 HD
HETATM    8  O3  UNL     1       2.601  -0.121   1.174  1.00  0.00    -0.273 OA
BRANCH   6   9
HETATM    9  C8  UNL     1       4.880  -1.299   0.292  1.00  0.00     0.140 C 
BRANCH   9  10
HETATM   10  C3  UNL     1       6.198  -0.642   0.481  1.00  0.00     0.069 C 
HETATM   11  N1  UNL     1       6.406  -0.200   1.634  1.00  0.00    -0.327 N 
HETATM   12  C2  UNL     1       7.272   0.406   2.453  1.00  0.00     0.218 C 
ATOM     13  H1  UNL     1       5.560  -0.376   2.176  1.00  0.00     0.168 HD
HETATM   14  C1  UNL     1       7.996  -0.401   3.500  1.00  0.00     0.117 C 
HETATM   15  O1  UNL     1       7.537   1.638   2.419  1.00  0.00    -0.274 OA
BRANCH  10  16
HETATM   16  C4  UNL     1       7.234  -0.534  -0.535  1.00  0.00     0.099 A 
HETATM   17  C5  UNL     1       8.518  -0.142  -0.335  1.00  0.00     0.041 A 
HETATM   18  C6  UNL     1       9.149  -0.180  -1.589  1.00  0.00     0.027 A 
HETATM   19  C7  UNL     1       8.175  -0.601  -2.452  1.00  0.00     0.142 A 
HETATM   20  O2  UNL     1       7.076  -0.794  -1.794  1.00  0.00    -0.321 OA
ENDBRANCH  10  16
ENDBRANCH   9  10
BRANCH   9  21
HETATM   21  C28 UNL     1       4.850  -2.752   0.043  1.00  0.00     0.006 C 
HETATM   22  C29 UNL     1       5.523  -3.325  -1.141  1.00  0.00     0.012 C 
HETATM   23  C30 UNL     1       5.204  -3.576   1.298  1.00  0.00     0.012 C 
ENDBRANCH   9  21
ENDBRANCH   6   9
ENDBRANCH   4   5
ENDBRANCH   1   4
BRANCH   3  24
HETATM   24  C12 UNL     1      -1.873   1.219  -1.096  1.00  0.00     0.178 C 
BRANCH  24  25
HETATM   25  C13 UNL     1      -2.453   2.398  -1.752  1.00  0.00     0.053 C 
BRANCH  25  26
HETATM   26  C14 UNL     1      -2.575   3.701  -1.101  1.00  0.00    -0.076 C 
HETATM   27  C15 UNL     1      -3.358   3.817   0.158  1.00  0.00     0.034 C 
HETATM   28  C16 UNL     1      -3.077   5.077   0.939  1.00  0.00     0.004 C 
HETATM   29  C17 UNL     1      -2.950   6.211  -0.019  1.00  0.00     0.001 C 
HETATM   30  C18 UNL     1      -1.702   6.044  -0.827  1.00  0.00     0.004 C 
HETATM   31  C19 UNL     1      -1.387   4.630  -1.183  1.00  0.00     0.034 C 
ENDBRANCH  25  26
ENDBRANCH  24  25
BRANCH  24  32
HETATM   32  C20 UNL     1      -2.875   0.531  -0.173  1.00  0.00     0.283 C 
HETATM   33  O5  UNL     1      -2.415   0.075   0.915  1.00  0.00    -0.265 OA
HETATM   34  N4  UNL     1      -4.243   0.377  -0.462  1.00  0.00    -0.341 N 
ATOM     35  H4  UNL     1      -4.632   0.738  -1.333  1.00  0.00     0.163 HD
BRANCH  34  36
HETATM   36  C21 UNL     1      -5.108  -0.316   0.516  1.00  0.00     0.180 C 
HETATM   37  C22 UNL     1      -6.349   0.496   0.673  1.00  0.00     0.043 C 
BRANCH  36  38
HETATM   38  C23 UNL     1      -5.437  -1.652  -0.063  1.00  0.00     0.282 C 
HETATM   39  O6  UNL     1      -5.122  -2.010  -1.215  1.00  0.00    -0.263 OA
BRANCH  38  40
HETATM   40  O7  UNL     1      -6.131  -2.545   0.746  1.00  0.00    -0.310 OA
BRANCH  40  41
HETATM   41  C24 UNL     1      -6.496  -3.833   0.353  1.00  0.00     0.060 C 
HETATM   42  C25 UNL     1      -7.403  -3.819  -0.845  1.00  0.00     0.045 C 
HETATM   43  C26 UNL     1      -5.272  -4.698   0.101  1.00  0.00     0.045 C 
HETATM   44  C27 UNL     1      -7.247  -4.468   1.518  1.00  0.00     0.045 C 
ENDBRANCH  40  41
ENDBRANCH  38  40
ENDBRANCH  36  38
ENDBRANCH  34  36
ENDBRANCH  24  32
ENDBRANCH   3  24
TORSDOF 14
