REMARK  16 active torsions:
REMARK  status: ('A' for Active; 'I' for Inactive)
REMARK    1  A    between atoms: O1_2  and  C2_3 
REMARK    2  A    between atoms: C2_3  and  C3_4 
REMARK    3  A    between atoms: C3_4  and  C4_5 
REMARK    4  A    between atoms: C4_5  and  C5_6 
REMARK    5  A    between atoms: C4_5  and  O5_36 
REMARK    6  A    between atoms: C5_6  and  C6_7 
REMARK    7  A    between atoms: C6_7  and  C7_8 
REMARK    8  A    between atoms: C7_8  and  C8_9 
REMARK    9  A    between atoms: C9_10  and  O2_11 
REMARK   10  A    between atoms: C19_22  and  O3_23 
REMARK   11  A    between atoms: O5_36  and  C30_37 
REMARK   12  A    between atoms: C30_37  and  C31_38 
REMARK   13  A    between atoms: C31_38  and  O6_39 
REMARK   14  A    between atoms: O6_39  and  C32_40 
REMARK   15  A    between atoms: C32_40  and  C33_41 
REMARK   16  A    between atoms: C33_41  and  O7_42 
ROOT
HETATM    1  C8  UNL     1       0.799   0.375   1.671  1.00  0.00     0.042 C 
HETATM    2  C9  UNL     1       1.353  -0.874   2.196  1.00  0.00     0.126 C 
HETATM    3  C10 UNL     1       0.400  -1.328   3.309  1.00  0.00     0.033 C 
HETATM    4  C11 UNL     1      -0.888  -1.643   2.514  1.00  0.00     0.012 C 
HETATM    5  C12 UNL     1      -1.614  -0.335   2.205  1.00  0.00    -0.033 C 
HETATM    6  C13 UNL     1      -2.517  -0.145   3.357  1.00  0.00     0.016 C 
HETATM    7  C14 UNL     1      -0.588   0.731   2.146  1.00  0.00     0.004 C 
HETATM    8  C15 UNL     1      -0.963   1.959   1.362  1.00  0.00     0.006 C 
HETATM    9  C16 UNL     1      -2.427   2.041   1.011  1.00  0.00     0.006 C 
HETATM   10  C17 UNL     1      -2.762   0.778   0.241  1.00  0.00     0.001 C 
HETATM   11  C18 UNL     1      -2.297  -0.474   0.850  1.00  0.00     0.028 C 
HETATM   12  C19 UNL     1      -3.191  -1.624   0.667  1.00  0.00     0.123 C 
HETATM   13  C20 UNL     1      -4.687  -1.322   0.718  1.00  0.00     0.038 C 
HETATM   14  C21 UNL     1      -4.881  -0.353  -0.453  1.00  0.00     0.012 C 
HETATM   15  C22 UNL     1      -6.267  -0.353  -0.908  1.00  0.00     0.018 C 
HETATM   16  C23 UNL     1      -6.425  -1.538  -1.893  1.00  0.00     0.023 C 
HETATM   17  C24 UNL     1      -7.315  -0.600   0.149  1.00  0.00     0.023 C 
HETATM   18  C25 UNL     1      -6.599   0.835  -1.754  1.00  0.00     0.135 C 
HETATM   19  O4  UNL     1      -7.661   0.847  -2.321  1.00  0.00    -0.297 OA
HETATM   20  C26 UNL     1      -5.682   1.986  -1.919  1.00  0.00     0.080 C 
HETATM   21  C27 UNL     1      -4.280   1.698  -1.512  1.00  0.00     0.017 C 
HETATM   22  C28 UNL     1      -4.195   0.938  -0.196  1.00  0.00    -0.035 C 
HETATM   23  C29 UNL     1      -4.933   1.853   0.770  1.00  0.00     0.016 C 
ENDROOT
BRANCH   1  24
HETATM   24  C7  UNL     1       1.680   1.517   1.996  1.00  0.00    -0.019 C 
BRANCH  24  25
HETATM   25  C6  UNL     1       3.016   1.731   1.550  1.00  0.00    -0.005 C 
BRANCH  25  26
HETATM   26  C5  UNL     1       4.043   1.406   0.896  1.00  0.00     0.004 C 
BRANCH  26  27
HETATM   27  C4  UNL     1       4.541   0.342   0.014  1.00  0.00     0.146 C 
BRANCH  27  28
HETATM   28  C3  UNL     1       4.946  -0.936   0.627  1.00  0.00     0.062 C 
BRANCH  28  29
HETATM   29  C2  UNL     1       5.515  -1.900  -0.378  1.00  0.00     0.169 C 
BRANCH  29  30
HETATM   30  O1  UNL     1       4.802  -2.243  -1.439  1.00  0.00    -0.396 OA
HETATM   31  C1  UNL     1       3.586  -2.804  -1.377  1.00  0.00     0.201 C 
ENDBRANCH  29  30
ENDBRANCH  28  29
ENDBRANCH  27  28
BRANCH  27  32
HETATM   32  O5  UNL     1       5.665   0.893  -0.642  1.00  0.00    -0.380 OA
BRANCH  32  33
HETATM   33  C30 UNL     1       5.494   1.146  -1.964  1.00  0.00     0.194 C 
BRANCH  33  34
HETATM   34  C31 UNL     1       6.718   1.792  -2.592  1.00  0.00     0.193 C 
BRANCH  34  35
HETATM   35  O6  UNL     1       7.860   1.041  -2.522  1.00  0.00    -0.387 OA
BRANCH  35  36
HETATM   36  C32 UNL     1       7.828  -0.159  -3.213  1.00  0.00     0.193 C 
BRANCH  36  37
HETATM   37  C33 UNL     1       7.624   0.068  -4.704  1.00  0.00     0.190 C 
BRANCH  37  38
HETATM   38  O7  UNL     1       8.666   0.843  -5.228  1.00  0.00    -0.399 OA
ATOM     39  H7  UNL     1       8.539   0.985  -6.159  1.00  0.00     0.209 HD
ENDBRANCH  37  38
ENDBRANCH  36  37
ENDBRANCH  35  36
ENDBRANCH  34  35
ENDBRANCH  33  34
ENDBRANCH  32  33
ENDBRANCH  27  32
ENDBRANCH  26  27
ENDBRANCH  25  26
ENDBRANCH  24  25
ENDBRANCH   1  24
BRANCH   2  40
HETATM   40  O2  UNL     1       1.318  -1.962   1.290  1.00  0.00    -0.395 OA
ATOM     41  H2  UNL     1       1.678  -2.773   1.631  1.00  0.00     0.210 HD
ENDBRANCH   2  40
BRANCH  12  42
HETATM   42  O3  UNL     1      -2.921  -2.762   1.397  1.00  0.00    -0.395 OA
ATOM     43  H3  UNL     1      -3.500  -3.506   1.279  1.00  0.00     0.210 HD
ENDBRANCH  12  42
TORSDOF 16
