REMARK  17 active torsions:
REMARK  status: ('A' for Active; 'I' for Inactive)
REMARK    1  A    between atoms: C2_2  and  C3_3 
REMARK    2  A    between atoms: C3_3  and  C5_5 
REMARK    3  A    between atoms: C5_5  and  C6_6 
REMARK    4  A    between atoms: C6_6  and  C7_7 
REMARK    5  A    between atoms: C7_7  and  N1_8 
REMARK    6  A    between atoms: C7_7  and  C23_35 
REMARK    7  A    between atoms: N1_8  and  C8_10 
REMARK    8  A    between atoms: C8_10  and  O1_11 
REMARK    9  A    between atoms: C8_10  and  C15_23 
REMARK   10  A    between atoms: O1_11  and  C9_12 
REMARK   11  A    between atoms: C9_12  and  C10_13 
REMARK   12  A    between atoms: C13_16  and  N2_17 
REMARK       I    between atoms: C15_23  and  N3_25 
REMARK   13  A    between atoms: C18_28  and  C19_29 
REMARK   14  A    between atoms: C19_29  and  O4_31 
REMARK   15  A    between atoms: C23_35  and  O5_36 
REMARK   16  A    between atoms: C23_35  and  N4_38 
REMARK   17  A    between atoms: N4_38  and  C24_40 
ROOT
HETATM    1  C8  UNL     1       0.965  -0.067   0.240  1.00  0.00     0.310 C 
ENDROOT
BRANCH   1   2
HETATM    2  N1  UNL     1      -0.172  -0.787   0.534  1.00  0.00    -0.378 N 
ATOM      3  H1  UNL     1      -0.024  -1.786   0.679  1.00  0.00     0.157 HD
BRANCH   2   4
HETATM    4  C7  UNL     1      -1.481  -0.366   0.663  1.00  0.00     0.153 C 
BRANCH   4   5
HETATM    5  C6  UNL     1      -2.238  -1.327   1.587  1.00  0.00     0.033 C 
BRANCH   5   6
HETATM    6  C5  UNL     1      -1.666  -1.362   2.994  1.00  0.00     0.007 C 
BRANCH   6   7
HETATM    7  C3  UNL     1      -1.738  -0.023   3.653  1.00  0.00    -0.019 C 
HETATM    8  C4  UNL     1      -3.169   0.490   3.743  1.00  0.00     0.010 C 
BRANCH   7   9
HETATM    9  C2  UNL     1      -1.165  -0.018   5.041  1.00  0.00    -0.000 C 
HETATM   10  C1  UNL     1      -1.179   1.405   5.618  1.00  0.00     0.005 C 
ENDBRANCH   7   9
ENDBRANCH   6   7
ENDBRANCH   5   6
ENDBRANCH   4   5
BRANCH   4  11
HETATM   11  C23 UNL     1      -2.230  -0.388  -0.627  1.00  0.00     0.134 C 
BRANCH  11  12
HETATM   12  O5  UNL     1      -1.512   0.052  -1.624  1.00  0.00    -0.348 OA
ATOM     13  H5  UNL     1      -1.989   0.038  -2.445  1.00  0.00     0.219 HD
ENDBRANCH  11  12
BRANCH  11  14
HETATM   14  N4  UNL     1      -3.536  -0.809  -0.840  1.00  0.00    -0.368 N 
ATOM     15  H4  UNL     1      -4.050  -1.164  -0.034  1.00  0.00     0.161 HD
BRANCH  14  16
HETATM   16  C24 UNL     1      -4.237  -0.786  -2.124  1.00  0.00     0.083 C 
HETATM   17  C25 UNL     1      -3.679  -1.888  -3.049  1.00  0.00     0.025 C 
HETATM   18  C26 UNL     1      -4.298  -1.645  -4.398  1.00  0.00     0.002 C 
HETATM   19  C27 UNL     1      -5.808  -1.753  -4.357  1.00  0.00     0.000 C 
HETATM   20  C28 UNL     1      -6.400  -0.891  -3.277  1.00  0.00     0.002 C 
HETATM   21  C29 UNL     1      -5.695  -1.010  -1.968  1.00  0.00     0.025 C 
ENDBRANCH  14  16
ENDBRANCH  11  14
ENDBRANCH   4  11
ENDBRANCH   2   4
ENDBRANCH   1   2
BRANCH   1  22
HETATM   22  O1  UNL     1       0.808   1.337   0.206  1.00  0.00    -0.358 OA
BRANCH  22  23
HETATM   23  C9  UNL     1       1.378   1.935  -0.881  1.00  0.00     0.176 C 
BRANCH  23  24
HETATM   24  C10 UNL     1       1.187   3.413  -1.021  1.00  0.00     0.019 C 
HETATM   25  C11 UNL     1      -0.264   3.785  -1.149  1.00  0.00     0.010 C 
HETATM   26  C12 UNL     1      -0.479   5.080  -1.865  1.00  0.00     0.044 C 
HETATM   27  C13 UNL     1       0.621   6.077  -1.776  1.00  0.00     0.244 C 
HETATM   28  S1  UNL     1       1.412   5.937  -0.158  1.00  0.00    -0.136 SA
HETATM   29  C14 UNL     1       1.811   4.203   0.134  1.00  0.00     0.082 C 
BRANCH  27  30
HETATM   30  N2  UNL     1       1.549   6.085  -2.880  1.00  0.00    -0.066 N 
ATOM     31  H23 UNL     1       1.936   5.151  -3.016  1.00  0.00     0.275 HD
ATOM     32  H22 UNL     1       1.044   6.202  -3.758  1.00  0.00     0.275 HD
ATOM     33  H21 UNL     1       2.303   6.769  -2.819  1.00  0.00     0.275 HD
ENDBRANCH  27  30
ENDBRANCH  23  24
ENDBRANCH  22  23
ENDBRANCH   1  22
BRANCH   1  34
HETATM   34  C15 UNL     1       2.035  -0.390   1.256  1.00  0.00     0.268 C 
HETATM   35  O2  UNL     1       1.723  -0.340   2.461  1.00  0.00    -0.268 OA
HETATM   36  N3  UNL     1       3.359  -0.751   0.923  1.00  0.00    -0.348 N 
HETATM   37  C16 UNL     1       4.328  -1.041   2.005  1.00  0.00     0.127 C 
HETATM   38  C22 UNL     1       3.906  -0.932  -0.400  1.00  0.00     0.127 C 
HETATM   39  C17 UNL     1       5.167  -2.210   1.564  1.00  0.00     0.034 C 
HETATM   40  C18 UNL     1       4.472  -3.144   0.606  1.00  0.00     0.088 C 
HETATM   41  C21 UNL     1       4.048  -2.431  -0.663  1.00  0.00     0.034 C 
BRANCH  40  42
HETATM   42  C19 UNL     1       5.457  -4.176   0.181  1.00  0.00     0.262 C 
HETATM   43  O3  UNL     1       5.278  -5.389   0.422  1.00  0.00    -0.265 OA
BRANCH  42  44
HETATM   44  O4  UNL     1       6.622  -3.835  -0.506  1.00  0.00    -0.326 OA
HETATM   45  C20 UNL     1       7.593  -4.748  -0.934  1.00  0.00     0.213 C 
ENDBRANCH  42  44
ENDBRANCH  40  42
ENDBRANCH   1  34
TORSDOF 17
