REMARK  14 active torsions:
REMARK  status: ('A' for Active; 'I' for Inactive)
REMARK    1  A    between atoms: C2_2  and  C4_4 
REMARK    2  A    between atoms: C6_6  and  O1_7 
REMARK    3  A    between atoms: C9_10  and  O2_11 
REMARK    4  A    between atoms: C12_14  and  C13_15 
REMARK    5  A    between atoms: C13_15  and  O3_18 
REMARK    6  A    between atoms: C16_20  and  N1_21 
REMARK       I    between atoms: N1_21  and  C17_23 
REMARK    7  A    between atoms: C17_23  and  C18_25 
REMARK    8  A    between atoms: C18_25  and  N2_26 
REMARK    9  A    between atoms: C18_25  and  C23_35 
REMARK       I    between atoms: N2_26  and  C19_28 
REMARK   10  A    between atoms: C19_28  and  O6_30 
REMARK   11  A    between atoms: O6_30  and  C20_31 
REMARK   12  A    between atoms: C20_31  and  C21_32 
REMARK   13  A    between atoms: C21_32  and  O7_33 
REMARK   14  A    between atoms: C29_41  and  C30_42 
ROOT
HETATM    1  C4  UNL     1      -2.682   1.149  -2.143  1.00  0.00     0.022 C 
HETATM    2  C5  UNL     1      -3.706   0.776  -1.132  1.00  0.00     0.048 C 
HETATM    3  C6  UNL     1      -3.276   0.800   0.285  1.00  0.00     0.075 C 
HETATM    4  C8  UNL     1      -2.157  -0.325   0.336  1.00  0.00     0.073 C 
HETATM    5  C9  UNL     1      -1.900  -0.343   1.759  1.00  0.00     0.130 C 
HETATM    6  C11 UNL     1      -3.402  -0.449   2.275  1.00  0.00     0.043 C 
HETATM    7  C12 UNL     1      -4.239   0.090   1.178  1.00  0.00     0.057 C 
HETATM    8  C16 UNL     1      -1.129  -0.224  -0.690  1.00  0.00     0.098 C 
HETATM    9  C29 UNL     1      -1.288   0.870  -1.734  1.00  0.00     0.017 C 
ENDROOT
BRANCH   8  10
HETATM   10  N1  UNL     1       0.239  -0.223  -0.270  1.00  0.00    -0.354 N 
HETATM   11  C17 UNL     1       1.036  -1.299   0.296  1.00  0.00     0.241 C 
HETATM   12  O4  UNL     1       0.414  -2.348   0.553  1.00  0.00    -0.271 OA
ATOM     13  H1  UNL     1       0.728   0.665  -0.385  1.00  0.00     0.162 HD
BRANCH  11  14
HETATM   14  C18 UNL     1       2.454  -1.105   0.527  1.00  0.00     0.183 C 
BRANCH  14  15
HETATM   15  N2  UNL     1       3.115  -0.546   1.633  1.00  0.00    -0.323 N 
HETATM   16  C19 UNL     1       4.039   0.570   1.322  1.00  0.00     0.361 C 
HETATM   17  O5  UNL     1       4.013   0.907   0.075  1.00  0.00    -0.238 OA
ATOM     18  H2  UNL     1       2.969  -0.885   2.584  1.00  0.00     0.165 HD
BRANCH  16  19
HETATM   19  O6  UNL     1       4.847   1.212   2.115  1.00  0.00    -0.302 OA
BRANCH  19  20
HETATM   20  C20 UNL     1       5.731   2.241   2.123  1.00  0.00     0.207 C 
BRANCH  20  21
HETATM   21  C21 UNL     1       6.476   2.653   0.892  1.00  0.00     0.193 C 
BRANCH  21  22
HETATM   22  O7  UNL     1       5.544   3.137  -0.069  1.00  0.00    -0.394 OA
HETATM   23  C22 UNL     1       6.168   3.600  -1.217  1.00  0.00     0.201 C 
ENDBRANCH  21  22
ENDBRANCH  20  21
ENDBRANCH  19  20
ENDBRANCH  16  19
ENDBRANCH  14  15
BRANCH  14  24
HETATM   24  C23 UNL     1       3.058  -2.592   0.437  1.00  0.00     0.018 C 
HETATM   25  C24 UNL     1       4.499  -2.541   0.825  1.00  0.00     0.007 C 
HETATM   26  C25 UNL     1       5.242  -3.766   0.335  1.00  0.00     0.000 C 
HETATM   27  C26 UNL     1       4.318  -4.887  -0.007  1.00  0.00     0.000 C 
HETATM   28  C27 UNL     1       3.278  -4.528  -1.027  1.00  0.00     0.000 C 
HETATM   29  C28 UNL     1       2.951  -3.046  -0.980  1.00  0.00     0.007 C 
ENDBRANCH  14  24
ENDBRANCH  11  14
ENDBRANCH   8  10
BRANCH   9  30
HETATM   30  C30 UNL     1      -0.492   0.633  -2.962  1.00  0.00     0.003 C 
HETATM   31  C31 UNL     1       0.978   0.388  -2.883  1.00  0.00     0.005 C 
ENDBRANCH   9  30
BRANCH   3  32
HETATM   32  O1  UNL     1      -2.634   1.873   0.767  1.00  0.00    -0.384 OA
HETATM   33  C7  UNL     1      -3.062   3.127   0.670  1.00  0.00     0.202 C 
ENDBRANCH   3  32
BRANCH   5  34
HETATM   34  O2  UNL     1      -1.376   0.780   2.363  1.00  0.00    -0.390 OA
HETATM   35  C10 UNL     1      -0.823   0.562   3.603  1.00  0.00     0.202 C 
ENDBRANCH   5  34
BRANCH   1  36
HETATM   36  C2  UNL     1      -3.148   0.616  -3.449  1.00  0.00    -0.088 C 
HETATM   37  C1  UNL     1      -3.481   1.487  -4.424  1.00  0.00     0.014 C 
HETATM   38  C3  UNL     1      -3.328  -0.818  -3.741  1.00  0.00     0.043 C 
ENDBRANCH   1  36
BRANCH   7  39
HETATM   39  C13 UNL     1      -5.373   0.840   1.767  1.00  0.00     0.057 C 
HETATM   40  C14 UNL     1      -6.148  -0.199   2.618  1.00  0.00     0.045 C 
HETATM   41  C15 UNL     1      -6.396   1.342   0.788  1.00  0.00     0.045 C 
BRANCH  39  42
HETATM   42  O3  UNL     1      -4.987   1.780   2.708  1.00  0.00    -0.390 OA
ATOM     43  H3  UNL     1      -5.714   2.261   3.086  1.00  0.00     0.210 HD
ENDBRANCH  39  42
ENDBRANCH   7  39
TORSDOF 14
