REMARK  14 active torsions:
REMARK  status: ('A' for Active; 'I' for Inactive)
REMARK    1  A    between atoms: N1_2  and  C2_4 
REMARK    2  A    between atoms: C4_6  and  N2_7 
REMARK       I    between atoms: N3_14  and  C8_15 
REMARK    3  A    between atoms: C8_15  and  C9_17 
REMARK    4  A    between atoms: C9_17  and  O2_18 
REMARK    5  A    between atoms: O2_18  and  C10_19 
REMARK    6  A    between atoms: C10_19  and  C11_21 
REMARK    7  A    between atoms: C11_21  and  C12_22 
REMARK    8  A    between atoms: C11_21  and  N4_29 
REMARK    9  A    between atoms: C12_22  and  C13_23 
REMARK       I    between atoms: N4_29  and  C19_31 
REMARK   10  A    between atoms: C19_31  and  C20_33 
REMARK   11  A    between atoms: C20_33  and  C21_34 
REMARK   12  A    between atoms: C21_34  and  C22_35 
REMARK   13  A    between atoms: C22_35  and  C23_36 
REMARK   14  A    between atoms: C23_36  and  C24_37 
ROOT
HETATM    1  C10 UNL     1       0.553  -1.704  -0.924  1.00  0.00     0.282 C 
HETATM    2  O3  UNL     1       0.601  -0.490  -1.327  1.00  0.00    -0.263 OA
ENDROOT
BRANCH   1   3
HETATM    3  O2  UNL     1      -0.614  -2.362  -1.213  1.00  0.00    -0.310 OA
BRANCH   3   4
HETATM    4  C9  UNL     1      -1.662  -1.676  -1.896  1.00  0.00     0.281 C 
BRANCH   4   5
HETATM    5  C8  UNL     1      -2.242  -0.620  -1.028  1.00  0.00     0.244 C 
HETATM    6  N3  UNL     1      -3.216   0.328  -1.514  1.00  0.00    -0.350 N 
HETATM    7  C7  UNL     1      -3.541   0.272  -2.904  1.00  0.00     0.126 C 
HETATM    8  C27 UNL     1      -3.780   1.216  -0.523  1.00  0.00     0.132 C 
HETATM    9  C6  UNL     1      -4.771   1.055  -3.270  1.00  0.00     0.027 C 
HETATM   10  C5  UNL     1      -5.665   1.135  -2.071  1.00  0.00     0.025 C 
HETATM   11  C4  UNL     1      -6.906   1.971  -2.279  1.00  0.00     0.190 C 
HETATM   12  C28 UNL     1      -4.930   1.994  -1.036  1.00  0.00     0.032 C 
HETATM   13  C3  UNL     1      -7.306   2.273  -0.826  1.00  0.00     0.058 C 
HETATM   14  C2  UNL     1      -6.023   2.260  -0.023  1.00  0.00     0.084 C 
HETATM   15  O1  UNL     1      -1.834  -0.594   0.181  1.00  0.00    -0.271 OA
BRANCH  11  16
HETATM   16  N2  UNL     1      -7.868   1.142  -2.945  1.00  0.00    -0.075 N 
ATOM     17  H23 UNL     1      -8.038   0.282  -2.423  1.00  0.00     0.274 HD
ATOM     18  H22 UNL     1      -8.802   1.549  -2.897  1.00  0.00     0.274 HD
ATOM     19  H21 UNL     1      -7.603   0.942  -3.909  1.00  0.00     0.274 HD
ENDBRANCH  11  16
BRANCH  14  20
HETATM   20  N1  UNL     1      -5.819   3.551   0.547  1.00  0.00    -0.421 N 
HETATM   21  C1  UNL     1      -6.812   3.978   1.483  1.00  0.00     0.140 C 
ATOM     22  H1  UNL     1      -5.017   4.132   0.303  1.00  0.00     0.153 HD
ENDBRANCH  14  20
ENDBRANCH   4   5
ENDBRANCH   3   4
ENDBRANCH   1   3
BRANCH   1  23
HETATM   23  C11 UNL     1       1.729  -2.213  -0.222  1.00  0.00     0.184 C 
BRANCH  23  24
HETATM   24  C12 UNL     1       2.260  -3.530  -0.649  1.00  0.00     0.040 C 
BRANCH  24  25
HETATM   25  C13 UNL     1       1.299  -4.670  -0.508  1.00  0.00    -0.012 C 
HETATM   26  C14 UNL     1       0.814  -4.908   0.896  1.00  0.00     0.005 C 
HETATM   27  C15 UNL     1       1.872  -5.453   1.803  1.00  0.00     0.000 C 
HETATM   28  C16 UNL     1       2.286  -6.817   1.232  1.00  0.00     0.000 C 
HETATM   29  C17 UNL     1       2.914  -6.542  -0.112  1.00  0.00     0.000 C 
HETATM   30  C18 UNL     1       1.919  -5.954  -1.075  1.00  0.00     0.005 C 
ENDBRANCH  24  25
ENDBRANCH  23  24
BRANCH  23  31
HETATM   31  N4  UNL     1       2.770  -1.192  -0.246  1.00  0.00    -0.347 N 
HETATM   32  C19 UNL     1       3.136  -0.519   0.929  1.00  0.00     0.218 C 
HETATM   33  O4  UNL     1       2.583  -0.766   2.029  1.00  0.00    -0.274 OA
ATOM     34  H4  UNL     1       3.236  -0.965  -1.125  1.00  0.00     0.163 HD
BRANCH  32  35
HETATM   35  C20 UNL     1       4.209   0.514   0.868  1.00  0.00     0.103 C 
BRANCH  35  36
HETATM   36  C21 UNL     1       4.398   1.101   2.241  1.00  0.00     0.009 C 
BRANCH  36  37
HETATM   37  C22 UNL     1       5.509   2.151   2.257  1.00  0.00     0.002 C 
BRANCH  37  38
HETATM   38  C23 UNL     1       5.146   3.250   1.321  1.00  0.00     0.016 C 
BRANCH  38  39
HETATM   39  C24 UNL     1       6.151   4.352   1.228  1.00  0.00     0.059 C 
HETATM   40  C25 UNL     1       6.342   4.979   2.567  1.00  0.00     0.027 C 
HETATM   41  C26 UNL     1       7.304   6.153   2.383  1.00  0.00     0.087 C 
HETATM   42  S1  UNL     1       8.865   5.287   1.898  1.00  0.00    -0.097 SA
HETATM   43  S2  UNL     1       7.833   3.675   0.875  1.00  0.00    -0.093 SA
ENDBRANCH  38  39
ENDBRANCH  37  38
ENDBRANCH  36  37
ENDBRANCH  35  36
ENDBRANCH  32  35
ENDBRANCH  23  31
ENDBRANCH   1  23
TORSDOF 14
