REMARK  18 active torsions:
REMARK  status: ('A' for Active; 'I' for Inactive)
REMARK    1  A    between atoms: O1_2  and  C2_3 
REMARK    2  A    between atoms: C2_3  and  C3_5 
REMARK    3  A    between atoms: C3_5  and  C4_6 
REMARK    4  A    between atoms: C4_6  and  C5_7 
REMARK    5  A    between atoms: C5_7  and  C6_8 
REMARK    6  A    between atoms: C6_8  and  C7_9 
REMARK    7  A    between atoms: C6_8  and  C18_29 
REMARK    8  A    between atoms: C7_9  and  C8_10 
REMARK    9  A    between atoms: C8_10  and  O3_11 
REMARK   10  A    between atoms: C8_10  and  C9_13 
REMARK   11  A    between atoms: C10_14  and  C11_15 
REMARK   12  A    between atoms: C13_18  and  O5_19 
REMARK   13  A    between atoms: N1_22  and  C15_23 
REMARK   14  A    between atoms: C15_23  and  C16_24 
REMARK   15  A    between atoms: C18_29  and  C19_30 
REMARK   16  A    between atoms: C19_30  and  C21_32 
REMARK   17  A    between atoms: C21_32  and  C22_33 
REMARK   18  A    between atoms: C22_33  and  C23_34 
ROOT
HETATM    1  C6  UNL     1       0.775   1.067  -0.900  1.00  0.00    -0.012 C 
ENDROOT
BRANCH   1   2
HETATM    2  C5  UNL     1       1.243   2.423  -1.207  1.00  0.00     0.005 C 
BRANCH   2   3
HETATM    3  C4  UNL     1       0.367   3.053  -2.283  1.00  0.00     0.010 C 
BRANCH   3   4
HETATM    4  C3  UNL     1       0.809   4.449  -2.615  1.00  0.00     0.111 C 
BRANCH   4   5
HETATM    5  C2  UNL     1      -0.046   5.033  -3.649  1.00  0.00     0.258 C 
HETATM    6  O2  UNL     1      -0.992   4.349  -4.118  1.00  0.00    -0.265 OA
BRANCH   5   7
HETATM    7  O1  UNL     1       0.105   6.308  -4.164  1.00  0.00    -0.326 OA
HETATM    8  C1  UNL     1      -0.749   6.834  -5.168  1.00  0.00     0.213 C 
ENDBRANCH   5   7
ENDBRANCH   4   5
ENDBRANCH   3   4
ENDBRANCH   2   3
ENDBRANCH   1   2
BRANCH   1   9
HETATM    9  C7  UNL     1       1.653   0.421   0.155  1.00  0.00     0.040 C 
BRANCH   9  10
HETATM   10  C8  UNL     1       3.092   0.261  -0.181  1.00  0.00     0.141 C 
BRANCH  10  11
HETATM   11  O3  UNL     1       3.775   1.448  -0.405  1.00  0.00    -0.392 OA
ATOM     12  H3  UNL     1       4.695   1.346  -0.620  1.00  0.00     0.210 HD
ENDBRANCH  10  11
BRANCH  10  13
HETATM   13  C9  UNL     1       3.840  -0.458   0.891  1.00  0.00     0.002 C 
HETATM   14  C10 UNL     1       4.176  -1.714   0.721  1.00  0.00    -0.007 C 
BRANCH  14  15
HETATM   15  C11 UNL     1       4.914  -2.552   1.691  1.00  0.00     0.172 C 
HETATM   16  C12 UNL     1       5.251  -1.900   2.953  1.00  0.00     0.173 C 
HETATM   17  O4  UNL     1       4.380  -1.466   3.675  1.00  0.00    -0.294 OA
HETATM   18  C13 UNL     1       6.673  -1.771   3.348  1.00  0.00     0.206 C 
HETATM   19  C14 UNL     1       7.435  -3.057   3.141  1.00  0.00     0.166 C 
HETATM   20  N1  UNL     1       7.246  -3.499   1.784  1.00  0.00    -0.338 N 
HETATM   21  C17 UNL     1       6.170  -2.991   1.029  1.00  0.00     0.235 C 
HETATM   22  O8  UNL     1       6.307  -2.919  -0.238  1.00  0.00    -0.272 OA
BRANCH  18  23
HETATM   23  O5  UNL     1       7.322  -0.766   2.626  1.00  0.00    -0.386 OA
ATOM     24  H5  UNL     1       8.234  -0.683   2.879  1.00  0.00     0.210 HD
ENDBRANCH  18  23
BRANCH  20  25
HETATM   25  C15 UNL     1       8.135  -4.468   1.151  1.00  0.00     0.239 C 
BRANCH  25  26
HETATM   26  C16 UNL     1       9.248  -3.785   0.481  1.00  0.00     0.191 C 
HETATM   27  O6  UNL     1       9.312  -2.534   0.517  1.00  0.00    -0.647 OA
HETATM   28  O7  UNL     1      10.240  -4.473  -0.196  1.00  0.00    -0.647 OA
ENDBRANCH  25  26
ENDBRANCH  20  25
ENDBRANCH  14  15
ENDBRANCH  10  13
ENDBRANCH   9  10
ENDBRANCH   1   9
BRANCH   1  29
HETATM   29  C18 UNL     1      -0.668   0.901  -0.480  1.00  0.00     0.009 C 
BRANCH  29  30
HETATM   30  C19 UNL     1      -1.130   1.521   0.756  1.00  0.00    -0.018 C 
HETATM   31  C20 UNL     1      -1.042   3.007   0.913  1.00  0.00     0.010 C 
BRANCH  30  32
HETATM   32  C21 UNL     1      -2.658   1.253   0.843  1.00  0.00     0.005 C 
BRANCH  32  33
HETATM   33  C22 UNL     1      -2.998  -0.185   0.871  1.00  0.00     0.005 C 
BRANCH  33  34
HETATM   34  C23 UNL     1      -4.493  -0.350   0.994  1.00  0.00    -0.006 C 
HETATM   35  C24 UNL     1      -4.884  -1.815   1.025  1.00  0.00    -0.010 C 
HETATM   36  C25 UNL     1      -6.090  -1.968   1.874  1.00  0.00     0.005 C 
HETATM   37  C30 UNL     1      -4.962  -2.423  -0.332  1.00  0.00     0.009 C 
HETATM   38  C26 UNL     1      -7.389  -1.964   1.127  1.00  0.00     0.005 C 
HETATM   39  C27 UNL     1      -7.458  -0.904   0.059  1.00  0.00    -0.014 C 
HETATM   40  C28 UNL     1      -7.057  -1.510  -1.249  1.00  0.00     0.009 C 
HETATM   41  C33 UNL     1      -6.752   0.352   0.416  1.00  0.00     0.009 C 
HETATM   42  C29 UNL     1      -5.552  -1.559  -1.388  1.00  0.00    -0.013 C 
HETATM   43  C31 UNL     1      -5.062  -0.135  -1.380  1.00  0.00     0.010 C 
HETATM   44  C32 UNL     1      -5.300   0.418   0.007  1.00  0.00    -0.009 C 
ENDBRANCH  33  34
ENDBRANCH  32  33
ENDBRANCH  30  32
ENDBRANCH  29  30
ENDBRANCH   1  29
TORSDOF 18
