REMARK  16 active torsions:
REMARK  status: ('A' for Active; 'I' for Inactive)
REMARK    1  A    between atoms: C2_2  and  O1_3 
REMARK    2  A    between atoms: O1_3  and  C3_4 
REMARK    3  A    between atoms: C4_5  and  N1_6 
REMARK    4  A    between atoms: C8_14  and  C9_15 
REMARK       I    between atoms: C9_15  and  N3_17 
REMARK    5  A    between atoms: N3_17  and  C10_19 
REMARK    6  A    between atoms: C16_25  and  O4_26 
REMARK    7  A    between atoms: C18_28  and  C19_29 
REMARK       I    between atoms: C19_29  and  N4_31 
REMARK    8  A    between atoms: N4_31  and  C20_33 
REMARK    9  A    between atoms: C20_33  and  C21_34 
REMARK   10  A    between atoms: C21_34  and  C22_35 
REMARK   11  A    between atoms: C22_35  and  C23_36 
REMARK   12  A    between atoms: C23_36  and  C24_37 
REMARK   13  A    between atoms: C24_37  and  C25_38 
REMARK   14  A    between atoms: C25_38  and  C26_39 
REMARK   15  A    between atoms: C26_39  and  C27_40 
REMARK   16  A    between atoms: C27_40  and  N5_41 
ROOT
HETATM    1  C3  UNL     1       2.902   0.175   0.933  1.00  0.00     0.114 A 
HETATM    2  C4  UNL     1       4.074   0.807   1.126  1.00  0.00     0.072 A 
HETATM    3  C14 UNL     1       4.677   0.616   2.382  1.00  0.00     0.035 A 
HETATM    4  C15 UNL     1       4.127  -0.154   3.376  1.00  0.00     0.040 A 
HETATM    5  C16 UNL     1       2.927  -0.779   3.155  1.00  0.00     0.086 A 
HETATM    6  C18 UNL     1       2.284  -0.625   1.919  1.00  0.00     0.101 A 
ENDROOT
BRANCH   6   7
HETATM    7  C19 UNL     1       0.971  -1.202   1.791  1.00  0.00     0.268 C 
HETATM    8  O5  UNL     1       0.704  -2.381   2.216  1.00  0.00    -0.266 OA
HETATM    9  N4  UNL     1      -0.165  -0.539   1.194  1.00  0.00    -0.292 N 
ATOM     10  H4  UNL     1      -0.014   0.413   0.860  1.00  0.00     0.178 HD
BRANCH   9  11
HETATM   11  C20 UNL     1      -1.403  -1.044   1.032  1.00  0.00    -0.068 C 
BRANCH  11  12
HETATM   12  C21 UNL     1      -2.712  -1.590   0.851  1.00  0.00     0.104 C 
BRANCH  12  13
HETATM   13  C22 UNL     1      -3.757  -0.886   1.707  1.00  0.00     0.013 C 
BRANCH  13  14
HETATM   14  C23 UNL     1      -5.111  -1.449   1.542  1.00  0.00     0.001 C 
BRANCH  14  15
HETATM   15  C24 UNL     1      -5.648  -1.264   0.152  1.00  0.00     0.000 C 
BRANCH  15  16
HETATM   16  C25 UNL     1      -7.011  -1.965   0.136  1.00  0.00     0.002 C 
BRANCH  16  17
HETATM   17  C26 UNL     1      -7.740  -1.815  -1.172  1.00  0.00     0.030 C 
BRANCH  17  18
HETATM   18  C27 UNL     1      -8.025  -0.321  -1.329  1.00  0.00     0.272 C 
BRANCH  18  19
HETATM   19  N5  UNL     1      -8.753  -0.116  -2.547  1.00  0.00     0.088 N 
HETATM   20  C28 UNL     1     -10.093  -0.695  -2.528  1.00  0.00     0.272 C 
HETATM   21  C29 UNL     1     -10.925  -0.152  -1.382  1.00  0.00     0.030 C 
HETATM   22  C30 UNL     1     -11.092   1.342  -1.631  1.00  0.00     0.003 C 
HETATM   23  C31 UNL     1      -9.721   1.956  -1.734  1.00  0.00     0.030 C 
HETATM   24  C32 UNL     1      -8.904   1.321  -2.823  1.00  0.00     0.272 C 
ENDBRANCH  18  19
ENDBRANCH  17  18
ENDBRANCH  16  17
ENDBRANCH  15  16
ENDBRANCH  14  15
ENDBRANCH  13  14
ENDBRANCH  12  13
ENDBRANCH  11  12
ENDBRANCH   9  11
ENDBRANCH   6   7
BRANCH   1  25
HETATM   25  O1  UNL     1       2.204   0.226  -0.259  1.00  0.00    -0.348 OA
BRANCH  25  26
HETATM   26  C2  UNL     1       2.191  -0.871  -1.131  1.00  0.00     0.171 C 
HETATM   27  C1  UNL     1       3.454  -1.444  -1.619  1.00  0.00     0.034 C 
ENDBRANCH  25  26
ENDBRANCH   1  25
BRANCH   5  28
HETATM   28  O4  UNL     1       2.300  -1.568   4.099  1.00  0.00    -0.355 OA
HETATM   29  C17 UNL     1       2.740  -1.862   5.380  1.00  0.00     0.210 C 
ENDBRANCH   5  28
BRANCH   2  30
HETATM   30  N1  UNL     1       4.627   1.762   0.230  1.00  0.00    -0.298 N 
HETATM   31  C5  UNL     1       4.362   3.129   0.726  1.00  0.00     0.251 C 
HETATM   32  O2  UNL     1       3.238   3.364   1.306  1.00  0.00    -0.271 OA
HETATM   33  C6  UNL     1       5.362   4.205   0.566  1.00  0.00     0.335 C 
HETATM   34  N2  UNL     1       6.206   3.958  -0.600  1.00  0.00    -0.064 N 
HETATM   35  C7  UNL     1       5.472   3.129  -1.539  1.00  0.00     0.268 C 
ATOM     36  H22 UNL     1       6.547   4.820  -1.025  1.00  0.00     0.277 HD
ATOM     37  H21 UNL     1       7.110   3.557  -0.350  1.00  0.00     0.277 HD
HETATM   38  C8  UNL     1       5.318   1.687  -0.966  1.00  0.00     0.210 C 
BRANCH  38  39
HETATM   39  C9  UNL     1       6.646   1.110  -1.087  1.00  0.00     0.243 C 
HETATM   40  O3  UNL     1       7.136   1.194  -2.281  1.00  0.00    -0.271 OA
HETATM   41  N3  UNL     1       7.468   0.488  -0.139  1.00  0.00    -0.351 N 
ATOM     42  H3  UNL     1       7.145   0.386   0.823  1.00  0.00     0.163 HD
BRANCH  41  43
HETATM   43  C10 UNL     1       8.782  -0.014  -0.520  1.00  0.00     0.022 C 
HETATM   44  C11 UNL     1       9.564   1.181  -1.007  1.00  0.00     0.037 C 
HETATM   45  C12 UNL     1       9.497  -0.640   0.663  1.00  0.00     0.037 C 
HETATM   46  C13 UNL     1       8.742  -1.044  -1.611  1.00  0.00     0.037 C 
ENDBRANCH  41  43
ENDBRANCH  38  39
ENDBRANCH   2  30
TORSDOF 16
