REMARK  15 active torsions:
REMARK  status: ('A' for Active; 'I' for Inactive)
REMARK    1  A    between atoms: C2_2  and  C3_3 
REMARK    2  A    between atoms: C3_3  and  C4_4 
REMARK    3  A    between atoms: C4_4  and  C5_5 
REMARK    4  A    between atoms: C5_5  and  C6_6 
REMARK    5  A    between atoms: C6_6  and  C7_7 
REMARK    6  A    between atoms: C7_7  and  C8_8 
REMARK    7  A    between atoms: C8_8  and  C9_9 
REMARK    8  A    between atoms: C9_9  and  C10_10 
REMARK    9  A    between atoms: C10_10  and  C11_11 
REMARK   10  A    between atoms: C11_11  and  N1_12 
REMARK   11  A    between atoms: N1_12  and  S1_14 
REMARK   12  A    between atoms: S1_14  and  N2_17 
REMARK       I    between atoms: N2_17  and  C12_19 
REMARK   13  A    between atoms: N4_21  and  C13_23 
REMARK   14  A    between atoms: C23_35  and  C25_37 
REMARK   15  A    between atoms: C25_37  and  O5_39 
ROOT
HETATM    1  N2  UNL     1       0.067   3.918   0.573  1.00  0.00    -0.241 N 
ATOM      2  H2  UNL     1      -0.002   4.899   0.304  1.00  0.00     0.183 HD
HETATM    3  C12 UNL     1      -0.957   3.031   0.170  1.00  0.00     0.201 C 
HETATM    4  N3  UNL     1      -1.389   3.080  -1.170  1.00  0.00    -0.063 NA
HETATM    5  N4  UNL     1      -1.467   2.200   1.039  1.00  0.00    -0.337 N 
ATOM      6  H4  UNL     1      -1.115   2.206   1.996  1.00  0.00     0.164 HD
ENDROOT
BRANCH   5   7
HETATM    7  C13 UNL     1      -2.502   1.284   0.687  1.00  0.00     0.226 C 
HETATM    8  O3  UNL     1      -3.713   1.541   1.376  1.00  0.00    -0.366 OA
HETATM    9  C14 UNL     1      -4.687   0.897   0.567  1.00  0.00     0.176 C 
HETATM   10  C15 UNL     1      -4.623  -0.549   0.882  1.00  0.00     0.022 C 
HETATM   11  C16 UNL     1      -3.229  -1.112   0.719  1.00  0.00    -0.000 C 
HETATM   12  C27 UNL     1      -5.554  -1.457   0.187  1.00  0.00     0.047 C 
HETATM   13  C17 UNL     1      -3.007  -1.811  -0.591  1.00  0.00     0.006 C 
HETATM   14  C28 UNL     1      -2.141  -0.118   1.056  1.00  0.00     0.035 C 
HETATM   15  C18 UNL     1      -3.912  -1.333  -1.711  1.00  0.00     0.007 C 
HETATM   16  C19 UNL     1      -5.304  -1.595  -1.299  1.00  0.00     0.026 C 
HETATM   17  C20 UNL     1      -6.378  -0.810  -1.950  1.00  0.00     0.224 C 
HETATM   18  C21 UNL     1      -5.928   0.156  -3.005  1.00  0.00     0.043 C 
HETATM   19  N5  UNL     1      -7.108  -0.163  -0.861  1.00  0.00     0.108 N 
HETATM   20  C22 UNL     1      -8.441   0.192  -1.205  1.00  0.00     0.312 C 
HETATM   21  C23 UNL     1      -7.004  -1.134   0.207  1.00  0.00     0.246 C 
HETATM   22  C24 UNL     1      -7.740  -2.427  -0.164  1.00  0.00     0.061 C 
HETATM   23  C29 UNL     1      -0.826  -0.467   0.420  1.00  0.00     0.015 C 
BRANCH  21  24
HETATM   24  C25 UNL     1      -7.562  -0.705   1.482  1.00  0.00     0.298 C 
HETATM   25  O4  UNL     1      -7.443  -1.489   2.462  1.00  0.00    -0.262 OA
BRANCH  24  26
HETATM   26  O5  UNL     1      -8.207   0.486   1.708  1.00  0.00    -0.324 OA
HETATM   27  C26 UNL     1      -8.718   0.811   2.999  1.00  0.00     0.213 C 
ENDBRANCH  24  26
ENDBRANCH  21  24
ENDBRANCH   5   7
BRANCH   1  28
HETATM   28  S1  UNL     1       1.424   3.410   1.498  1.00  0.00     0.321 S 
HETATM   29  O1  UNL     1       1.846   4.613   2.324  1.00  0.00    -0.182 OA
HETATM   30  O2  UNL     1       1.056   2.314   2.438  1.00  0.00    -0.182 OA
BRANCH  28  31
HETATM   31  N1  UNL     1       2.748   2.915   0.508  1.00  0.00    -0.302 N 
ATOM     32  H1  UNL     1       3.487   3.528   0.163  1.00  0.00     0.173 HD
BRANCH  31  33
HETATM   33  C11 UNL     1       2.647   1.493   0.242  1.00  0.00     0.133 C 
BRANCH  33  34
HETATM   34  C10 UNL     1       3.799   1.022  -0.629  1.00  0.00     0.020 C 
BRANCH  34  35
HETATM   35  C9  UNL     1       5.075   1.303   0.096  1.00  0.00     0.002 C 
BRANCH  35  36
HETATM   36  C8  UNL     1       6.241   0.864  -0.731  1.00  0.00     0.000 C 
BRANCH  36  37
HETATM   37  C7  UNL     1       6.161  -0.598  -1.002  1.00  0.00     0.000 C 
BRANCH  37  38
HETATM   38  C6  UNL     1       7.362  -1.006  -1.834  1.00  0.00     0.000 C 
BRANCH  38  39
HETATM   39  C5  UNL     1       8.670  -0.740  -1.163  1.00  0.00     0.000 C 
BRANCH  39  40
HETATM   40  C4  UNL     1       8.768  -1.494   0.141  1.00  0.00     0.000 C 
BRANCH  40  41
HETATM   41  C3  UNL     1      10.079  -1.233   0.824  1.00  0.00    -0.000 C 
BRANCH  41  42
HETATM   42  C2  UNL     1      11.266  -1.646  -0.004  1.00  0.00    -0.005 C 
HETATM   43  C1  UNL     1      12.516  -1.333   0.790  1.00  0.00     0.005 C 
ENDBRANCH  41  42
ENDBRANCH  40  41
ENDBRANCH  39  40
ENDBRANCH  38  39
ENDBRANCH  37  38
ENDBRANCH  36  37
ENDBRANCH  35  36
ENDBRANCH  34  35
ENDBRANCH  33  34
ENDBRANCH  31  33
ENDBRANCH  28  31
ENDBRANCH   1  28
TORSDOF 15
