REMARK  13 active torsions:
REMARK  status: ('A' for Active; 'I' for Inactive)
REMARK    1  A    between atoms: O1_2  and  C2_3 
REMARK    2  A    between atoms: C2_3  and  C3_4 
REMARK    3  A    between atoms: C3_4  and  N1_5 
REMARK    4  A    between atoms: N1_5  and  C4_7 
REMARK    5  A    between atoms: C18_21  and  C19_22 
REMARK    6  A    between atoms: C19_22  and  C21_24 
REMARK    7  A    between atoms: C21_24  and  C22_25 
REMARK    8  A    between atoms: C24_27  and  O2_28 
REMARK    9  A    between atoms: C25_30  and  O3_31 
REMARK   10  A    between atoms: C26_33  and  O4_34 
REMARK   11  A    between atoms: O4_34  and  C27_35 
REMARK   12  A    between atoms: C27_35  and  O5_36 
REMARK   13  A    between atoms: C29_38  and  O6_39 
ROOT
HETATM    1  C4  UNL     1       6.447  -0.334   0.718  1.00  0.00     0.077 C 
HETATM    2  C5  UNL     1       5.823  -1.127  -0.410  1.00  0.00     0.025 C 
HETATM    3  C6  UNL     1       4.541  -1.740   0.035  1.00  0.00     0.012 C 
HETATM    4  C7  UNL     1       3.714  -0.898   0.936  1.00  0.00    -0.036 C 
HETATM    5  C8  UNL     1       3.847  -1.465   2.358  1.00  0.00     0.016 C 
HETATM    6  C9  UNL     1       4.103   0.536   1.013  1.00  0.00    -0.004 C 
HETATM    7  C10 UNL     1       3.662   1.394  -0.128  1.00  0.00     0.006 C 
HETATM    8  C11 UNL     1       2.161   1.254  -0.351  1.00  0.00     0.006 C 
HETATM    9  C12 UNL     1       1.943  -0.237  -0.656  1.00  0.00    -0.005 C 
HETATM   10  C13 UNL     1       2.232  -0.964   0.617  1.00  0.00    -0.002 C 
HETATM   11  C14 UNL     1       1.724  -2.365   0.627  1.00  0.00     0.006 C 
HETATM   12  C15 UNL     1       0.204  -2.272   0.421  1.00  0.00     0.010 C 
HETATM   13  C16 UNL     1      -0.007  -1.805  -0.984  1.00  0.00    -0.036 C 
HETATM   14  C17 UNL     1       0.346  -2.871  -2.019  1.00  0.00     0.016 C 
HETATM   15  C18 UNL     1      -1.308  -1.091  -1.260  1.00  0.00    -0.002 C 
HETATM   16  C31 UNL     1      -0.568   0.196  -0.860  1.00  0.00     0.011 C 
HETATM   17  C32 UNL     1       0.679  -0.525  -1.322  1.00  0.00    -0.001 C 
HETATM   18  C33 UNL     1       5.582   0.751   1.246  1.00  0.00     0.030 C 
ENDROOT
BRANCH  15  19
HETATM   19  C19 UNL     1      -2.461  -1.418  -0.381  1.00  0.00    -0.013 C 
HETATM   20  C20 UNL     1      -2.824  -2.880  -0.450  1.00  0.00     0.010 C 
BRANCH  19  21
HETATM   21  C21 UNL     1      -3.638  -0.559  -0.865  1.00  0.00     0.012 C 
BRANCH  21  22
HETATM   22  C22 UNL     1      -4.880  -0.816  -0.030  1.00  0.00     0.020 C 
HETATM   23  C23 UNL     1      -4.546  -0.464   1.388  1.00  0.00     0.041 C 
HETATM   24  C24 UNL     1      -5.724  -0.313   2.285  1.00  0.00     0.150 C 
HETATM   25  C25 UNL     1      -6.969   0.160   1.598  1.00  0.00     0.178 C 
HETATM   26  C26 UNL     1      -6.559   1.003   0.418  1.00  0.00     0.184 C 
HETATM   27  C29 UNL     1      -5.980   0.033  -0.620  1.00  0.00     0.156 C 
BRANCH  24  28
HETATM   28  O2  UNL     1      -5.392   0.671   3.245  1.00  0.00    -0.393 OA
ATOM     29  H2  UNL     1      -6.144   0.767   3.818  1.00  0.00     0.210 HD
ENDBRANCH  24  28
BRANCH  25  30
HETATM   30  O3  UNL     1      -7.717  -0.941   1.235  1.00  0.00    -0.390 OA
ATOM     31  H3  UNL     1      -8.506  -0.641   0.799  1.00  0.00     0.210 HD
ENDBRANCH  25  30
BRANCH  26  32
HETATM   32  O4  UNL     1      -7.702   1.533  -0.145  1.00  0.00    -0.356 OA
BRANCH  32  33
HETATM   33  C27 UNL     1      -7.701   2.914  -0.218  1.00  0.00     0.337 C 
BRANCH  33  34
HETATM   34  O5  UNL     1      -7.585   3.410   1.079  1.00  0.00    -0.372 OA
HETATM   35  C28 UNL     1      -7.580   4.803   1.050  1.00  0.00     0.204 C 
ENDBRANCH  33  34
ENDBRANCH  32  33
ENDBRANCH  26  32
BRANCH  27  36
HETATM   36  O6  UNL     1      -7.064  -0.739  -1.047  1.00  0.00    -0.388 OA
HETATM   37  C30 UNL     1      -7.341  -0.425  -2.380  1.00  0.00     0.202 C 
ENDBRANCH  27  36
ENDBRANCH  21  22
ENDBRANCH  19  21
ENDBRANCH  15  19
BRANCH   1  38
HETATM   38  N1  UNL     1       7.756   0.121   0.329  1.00  0.00    -0.415 N 
ATOM     39  H1  UNL     1       8.601  -0.166   0.822  1.00  0.00     0.153 HD
BRANCH  38  40
HETATM   40  C3  UNL     1       7.791   1.001  -0.793  1.00  0.00     0.140 C 
BRANCH  40  41
HETATM   41  C2  UNL     1       9.246   1.390  -1.079  1.00  0.00     0.186 C 
BRANCH  41  42
HETATM   42  O1  UNL     1       9.847   2.028  -0.023  1.00  0.00    -0.394 OA
HETATM   43  C1  UNL     1       9.188   3.215   0.327  1.00  0.00     0.201 C 
ENDBRANCH  41  42
ENDBRANCH  40  41
ENDBRANCH  38  40
ENDBRANCH   1  38
TORSDOF 13
