REMARK  17 active torsions:
REMARK  status: ('A' for Active; 'I' for Inactive)
REMARK    1  A    between atoms: O1_2  and  C2_3 
REMARK    2  A    between atoms: C2_3  and  C3_4 
REMARK    3  A    between atoms: C3_4  and  C4_5 
REMARK    4  A    between atoms: C4_5  and  C5_6 
REMARK    5  A    between atoms: C5_6  and  N1_7 
REMARK    6  A    between atoms: N1_7  and  C6_8 
REMARK       I    between atoms: N1_7  and  C23_30 
REMARK    7  A    between atoms: C6_8  and  C7_9 
REMARK    8  A    between atoms: C7_9  and  O2_10 
REMARK    9  A    between atoms: O2_10  and  C8_11 
REMARK   10  A    between atoms: C8_11  and  C9_12 
REMARK   11  A    between atoms: C9_12  and  O3_13 
REMARK   12  A    between atoms: O3_13  and  C10_14 
REMARK   13  A    between atoms: C10_14  and  C11_15 
REMARK   14  A    between atoms: C11_15  and  N2_16 
REMARK   15  A    between atoms: N2_16  and  C12_18 
REMARK   16  A    between atoms: C12_18  and  C13_20 
REMARK   17  A    between atoms: C23_30  and  C24_32 
ROOT
HETATM    1  O2  UNL     1      -2.060   0.059   1.293  1.00  0.00    -0.387 OA
ENDROOT
BRANCH   1   2
HETATM    2  C7  UNL     1      -2.813   1.193   1.580  1.00  0.00     0.187 C 
BRANCH   2   3
HETATM    3  C6  UNL     1      -4.232   0.846   1.868  1.00  0.00     0.152 C 
BRANCH   3   4
HETATM    4  N1  UNL     1      -4.900   0.168   0.741  1.00  0.00    -0.345 N 
HETATM    5  C23 UNL     1      -4.821  -1.224   0.728  1.00  0.00     0.271 C 
HETATM    6  O4  UNL     1      -4.184  -1.828   1.683  1.00  0.00    -0.266 OA
BRANCH   4   7
HETATM    7  C5  UNL     1      -5.570   0.940  -0.257  1.00  0.00     0.126 C 
BRANCH   7   8
HETATM    8  C4  UNL     1      -7.035   1.190   0.032  1.00  0.00     0.022 C 
BRANCH   8   9
HETATM    9  C3  UNL     1      -7.606   2.007  -1.115  1.00  0.00     0.028 C 
BRANCH   9  10
HETATM   10  C2  UNL     1      -9.061   2.300  -0.905  1.00  0.00     0.167 C 
BRANCH  10  11
HETATM   11  O1  UNL     1      -9.291   3.010   0.247  1.00  0.00    -0.396 OA
HETATM   12  C1  UNL     1      -8.666   4.237   0.300  1.00  0.00     0.201 C 
ENDBRANCH  10  11
ENDBRANCH   9  10
ENDBRANCH   8   9
ENDBRANCH   7   8
ENDBRANCH   4   7
BRANCH   5  13
HETATM   13  C24 UNL     1      -5.400  -2.073  -0.276  1.00  0.00     0.117 A 
HETATM   14  C25 UNL     1      -5.320  -3.479  -0.295  1.00  0.00     0.062 A 
HETATM   15  C26 UNL     1      -5.981  -3.950  -1.392  1.00  0.00     0.024 A 
HETATM   16  C27 UNL     1      -6.128  -5.389  -1.776  1.00  0.00     0.070 C 
HETATM   17  N3  UNL     1      -6.455  -2.872  -2.032  1.00  0.00    -0.305 N 
HETATM   18  N4  UNL     1      -6.108  -1.792  -1.370  1.00  0.00    -0.295 N 
ATOM     19  H3  UNL     1      -6.998  -2.888  -2.895  1.00  0.00     0.186 HD
ATOM     20  H4  UNL     1      -6.353  -0.845  -1.660  1.00  0.00     0.187 HD
ENDBRANCH   5  13
ENDBRANCH   3   4
ENDBRANCH   2   3
ENDBRANCH   1   2
BRANCH   1  21
HETATM   21  C8  UNL     1      -0.732   0.390   1.026  1.00  0.00     0.193 C 
BRANCH  21  22
HETATM   22  C9  UNL     1       0.011  -0.887   0.720  1.00  0.00     0.193 C 
BRANCH  22  23
HETATM   23  O3  UNL     1       1.336  -0.725   0.436  1.00  0.00    -0.387 OA
BRANCH  23  24
HETATM   24  C10 UNL     1       2.087  -0.163   1.435  1.00  0.00     0.187 C 
BRANCH  24  25
HETATM   25  C11 UNL     1       3.520  -0.073   0.914  1.00  0.00     0.146 C 
BRANCH  25  26
HETATM   26  N2  UNL     1       4.407   0.498   1.868  1.00  0.00    -0.382 N 
ATOM     27  H2  UNL     1       3.961   0.811   2.730  1.00  0.00     0.160 HD
BRANCH  26  28
HETATM   28  C12 UNL     1       5.783   0.700   1.820  1.00  0.00     0.082 C 
HETATM   29  S1  UNL     1       6.455   1.424   3.173  1.00  0.00    -0.065 SA
BRANCH  28  30
HETATM   30  C13 UNL     1       6.741   0.372   0.761  1.00  0.00     0.014 C 
HETATM   31  C14 UNL     1       6.478   0.981  -0.574  1.00  0.00     0.021 C 
HETATM   32  C15 UNL     1       7.521   0.500  -1.567  1.00  0.00    -0.013 C 
HETATM   33  C16 UNL     1       7.440  -1.012  -1.659  1.00  0.00     0.009 C 
HETATM   34  C20 UNL     1       8.901   0.979  -1.191  1.00  0.00     0.009 C 
HETATM   35  C17 UNL     1       7.887  -1.583  -0.351  1.00  0.00    -0.013 C 
HETATM   36  C18 UNL     1       9.253  -1.066   0.073  1.00  0.00     0.009 C 
HETATM   37  C22 UNL     1       6.925  -1.135   0.731  1.00  0.00     0.021 C 
HETATM   38  C19 UNL     1       9.166   0.418   0.205  1.00  0.00    -0.013 C 
HETATM   39  C21 UNL     1       8.138   0.903   1.170  1.00  0.00     0.021 C 
ENDBRANCH  28  30
ENDBRANCH  26  28
ENDBRANCH  25  26
ENDBRANCH  24  25
ENDBRANCH  23  24
ENDBRANCH  22  23
ENDBRANCH  21  22
ENDBRANCH   1  21
TORSDOF 17
