REMARK  21 active torsions:
REMARK  status: ('A' for Active; 'I' for Inactive)
REMARK    1  A    between atoms: O1_2  and  C2_3 
REMARK    2  A    between atoms: C2_3  and  C3_4 
REMARK    3  A    between atoms: C3_4  and  O2_5 
REMARK    4  A    between atoms: O2_5  and  C4_6 
REMARK    5  A    between atoms: C4_6  and  C5_7 
REMARK    6  A    between atoms: C5_7  and  N1_8 
REMARK    7  A    between atoms: N1_8  and  C6_9 
REMARK    8  A    between atoms: C6_9  and  C7_10 
REMARK    9  A    between atoms: C7_10  and  O3_11 
REMARK   10  A    between atoms: C18_24  and  C19_25 
REMARK   11  A    between atoms: C19_25  and  O5_26 
REMARK   12  A    between atoms: C19_25  and  N2_28 
REMARK   13  A    between atoms: N2_28  and  C20_30 
REMARK   14  A    between atoms: C20_30  and  C21_31 
REMARK   15  A    between atoms: C21_31  and  C22_32 
REMARK   16  A    between atoms: C22_32  and  C23_33 
REMARK   17  A    between atoms: C23_33  and  C24_34 
REMARK   18  A    between atoms: C24_34  and  C25_35 
REMARK   19  A    between atoms: C25_35  and  C26_36 
REMARK   20  A    between atoms: C26_36  and  O6_37 
REMARK   21  A    between atoms: O6_37  and  C27_38 
ROOT
HETATM    1  N1  UNL     1      -2.962   0.855   0.209  1.00  0.00    -0.025 N 
HETATM    2  C8  UNL     1      -2.499   2.008  -0.519  1.00  0.00     0.244 C 
HETATM    3  C9  UNL     1      -1.624   3.002   0.096  1.00  0.00     0.028 C 
HETATM    4  C10 UNL     1      -2.149   4.353   0.445  1.00  0.00     0.002 C 
HETATM    5  C11 UNL     1      -1.054   5.105   1.199  1.00  0.00     0.000 C 
HETATM    6  C12 UNL     1      -1.145   4.904   2.698  1.00  0.00     0.000 C 
HETATM    7  C13 UNL     1      -0.047   4.050   3.266  1.00  0.00     0.000 C 
HETATM    8  C14 UNL     1      -0.553   3.032   4.266  1.00  0.00     0.000 C 
HETATM    9  C15 UNL     1      -0.161   1.662   3.775  1.00  0.00     0.008 C 
HETATM   10  C16 UNL     1      -1.329   0.706   3.710  1.00  0.00     0.085 C 
HETATM   11  C17 UNL     1      -2.221   0.950   2.562  1.00  0.00     0.188 C 
HETATM   12  O4  UNL     1      -3.075   1.783   2.811  1.00  0.00    -0.291 OA
HETATM   13  C18 UNL     1      -2.153   0.297   1.210  1.00  0.00     0.232 C 
ENDROOT
BRANCH  13  14
HETATM   14  C19 UNL     1      -0.810  -0.161   0.899  1.00  0.00     0.175 C 
BRANCH  14  15
HETATM   15  O5  UNL     1      -0.160  -0.895   1.771  1.00  0.00    -0.345 OA
ATOM     16  H5  UNL     1       0.718  -1.195   1.568  1.00  0.00     0.219 HD
ENDBRANCH  14  15
BRANCH  14  17
HETATM   17  N2  UNL     1       0.017   0.031  -0.228  1.00  0.00    -0.369 N 
ATOM     18  H2  UNL     1      -0.345   0.579  -1.008  1.00  0.00     0.161 HD
BRANCH  17  19
HETATM   19  C20 UNL     1       1.367  -0.518  -0.330  1.00  0.00     0.121 C 
BRANCH  19  20
HETATM   20  C21 UNL     1       1.960  -0.122  -1.639  1.00  0.00     0.020 C 
BRANCH  20  21
HETATM   21  C22 UNL     1       3.359  -0.576  -1.884  1.00  0.00     0.002 C 
BRANCH  21  22
HETATM   22  C23 UNL     1       4.281  -0.009  -0.837  1.00  0.00     0.000 C 
BRANCH  22  23
HETATM   23  C24 UNL     1       5.717  -0.352  -1.001  1.00  0.00     0.002 C 
BRANCH  23  24
HETATM   24  C25 UNL     1       6.057  -1.806  -0.974  1.00  0.00     0.027 C 
BRANCH  24  25
HETATM   25  C26 UNL     1       7.562  -1.941  -1.138  1.00  0.00     0.178 C 
BRANCH  25  26
HETATM   26  O6  UNL     1       7.986  -3.299  -1.118  1.00  0.00    -0.322 OA
BRANCH  26  27
HETATM   27  C27 UNL     1       9.347  -3.588  -1.243  1.00  0.00     0.254 C 
HETATM   28  C28 UNL     1       9.822  -4.992  -1.225  1.00  0.00     0.126 C 
HETATM   29  O7  UNL     1      10.174  -2.624  -1.372  1.00  0.00    -0.266 OA
ENDBRANCH  26  27
ENDBRANCH  25  26
ENDBRANCH  24  25
ENDBRANCH  23  24
ENDBRANCH  22  23
ENDBRANCH  21  22
ENDBRANCH  20  21
ENDBRANCH  19  20
ENDBRANCH  17  19
ENDBRANCH  14  17
ENDBRANCH  13  14
BRANCH   1  30
HETATM   30  C5  UNL     1      -3.131  -0.127  -0.879  1.00  0.00     0.270 C 
BRANCH  30  31
HETATM   31  C4  UNL     1      -3.185  -1.543  -0.591  1.00  0.00     0.196 C 
BRANCH  31  32
HETATM   32  O2  UNL     1      -3.381  -2.174  -1.862  1.00  0.00    -0.387 OA
BRANCH  32  33
HETATM   33  C3  UNL     1      -3.449  -3.544  -1.715  1.00  0.00     0.193 C 
BRANCH  33  34
HETATM   34  C2  UNL     1      -3.664  -4.128  -3.091  1.00  0.00     0.193 C 
BRANCH  34  35
HETATM   35  O1  UNL     1      -4.801  -3.713  -3.729  1.00  0.00    -0.394 OA
HETATM   36  C1  UNL     1      -5.966  -4.008  -3.079  1.00  0.00     0.201 C 
ENDBRANCH  34  35
ENDBRANCH  33  34
ENDBRANCH  32  33
ENDBRANCH  31  32
ENDBRANCH  30  31
ENDBRANCH   1  30
BRANCH   1  37
HETATM   37  C6  UNL     1      -4.301   1.237   0.625  1.00  0.00     0.270 C 
BRANCH  37  38
HETATM   38  C7  UNL     1      -5.213   0.303   1.238  1.00  0.00     0.192 C 
BRANCH  38  39
HETATM   39  O3  UNL     1      -6.406   1.036   1.517  1.00  0.00    -0.399 OA
ATOM     40  H3  UNL     1      -7.007   0.421   1.921  1.00  0.00     0.209 HD
ENDBRANCH  38  39
ENDBRANCH  37  38
ENDBRANCH   1  37
TORSDOF 21
