REMARK  12 active torsions:
REMARK  status: ('A' for Active; 'I' for Inactive)
REMARK    1  A    between atoms: S1_2  and  C2_3 
REMARK    2  A    between atoms: C7_8  and  C8_9 
REMARK    3  A    between atoms: N1_10  and  C9_11 
REMARK    4  A    between atoms: N1_10  and  C20_23 
REMARK    5  A    between atoms: C9_11  and  C10_12 
REMARK    6  A    between atoms: C10_12  and  C11_13 
REMARK    7  A    between atoms: C11_13  and  C12_14 
REMARK    8  A    between atoms: C12_14  and  C13_15 
REMARK    9  A    between atoms: C13_15  and  C14_16 
REMARK   10  A    between atoms: C14_16  and  N2_17 
REMARK   11  A    between atoms: C20_23  and  C21_24 
REMARK   12  A    between atoms: C23_28  and  C24_29 
ROOT
HETATM    1  C8  UNL     1      -0.937   2.040   0.090  1.00  0.00     0.103 C 
HETATM    2  N1  UNL     1      -0.573   0.851   0.652  1.00  0.00    -0.365 N 
ENDROOT
BRANCH   2   3
HETATM    3  C9  UNL     1       0.419   0.172  -0.176  1.00  0.00     0.128 C 
BRANCH   3   4
HETATM    4  C10 UNL     1       1.748   0.841  -0.234  1.00  0.00     0.020 C 
BRANCH   4   5
HETATM    5  C11 UNL     1       2.684   0.019  -1.122  1.00  0.00     0.002 C 
BRANCH   5   6
HETATM    6  C12 UNL     1       4.036   0.673  -1.214  1.00  0.00     0.002 C 
BRANCH   6   7
HETATM    7  C13 UNL     1       4.734   0.831   0.094  1.00  0.00     0.030 C 
BRANCH   7   8
HETATM    8  C14 UNL     1       4.946  -0.521   0.727  1.00  0.00     0.272 C 
BRANCH   8   9
HETATM    9  N2  UNL     1       5.759  -1.354  -0.137  1.00  0.00     0.088 N 
HETATM   10  C15 UNL     1       5.932  -2.673   0.461  1.00  0.00     0.272 C 
HETATM   11  C16 UNL     1       7.179  -2.647   1.320  1.00  0.00     0.030 C 
HETATM   12  C17 UNL     1       8.410  -2.608   0.434  1.00  0.00     0.003 C 
HETATM   13  C18 UNL     1       8.108  -1.756  -0.790  1.00  0.00     0.030 C 
HETATM   14  C19 UNL     1       7.010  -0.754  -0.478  1.00  0.00     0.272 C 
ENDBRANCH   8   9
ENDBRANCH   7   8
ENDBRANCH   6   7
ENDBRANCH   5   6
ENDBRANCH   4   5
ENDBRANCH   3   4
ENDBRANCH   2   3
BRANCH   2  15
HETATM   15  C20 UNL     1      -1.262  -0.008   1.469  1.00  0.00     0.106 C 
BRANCH  15  16
HETATM   16  C21 UNL     1      -2.522  -0.634   0.996  1.00  0.00     0.036 A 
HETATM   17  C22 UNL     1      -3.074  -0.463  -0.247  1.00  0.00     0.106 A 
HETATM   18  N3  UNL     1      -4.215  -1.072  -0.624  1.00  0.00    -0.349 N 
HETATM   19  C23 UNL     1      -4.890  -1.884   0.181  1.00  0.00     0.134 A 
ATOM     20  H3  UNL     1      -4.574  -0.903  -1.564  1.00  0.00     0.166 HD
HETATM   21  N5  UNL     1      -4.354  -2.065   1.424  1.00  0.00    -0.328 N 
HETATM   22  C30 UNL     1      -3.239  -1.492   1.841  1.00  0.00     0.131 A 
ATOM     23  H5  UNL     1      -4.845  -2.681   2.071  1.00  0.00     0.168 HD
HETATM   24  N6  UNL     1      -2.732  -1.711   3.139  1.00  0.00    -0.082 NA
BRANCH  19  25
HETATM   25  C24 UNL     1      -6.136  -2.575  -0.156  1.00  0.00     0.082 A 
HETATM   26  N4  UNL     1      -6.716  -3.384   0.786  1.00  0.00    -0.362 N 
HETATM   27  C25 UNL     1      -7.853  -4.042   0.557  1.00  0.00     0.088 A 
ATOM     28  H4  UNL     1      -6.262  -3.486   1.694  1.00  0.00     0.165 HD
HETATM   29  C26 UNL     1      -8.531  -3.956  -0.649  1.00  0.00     0.018 A 
HETATM   30  C27 UNL     1      -7.981  -3.157  -1.610  1.00  0.00     0.010 A 
HETATM   31  C28 UNL     1      -6.793  -2.482  -1.345  1.00  0.00    -0.031 A 
HETATM   32  C29 UNL     1      -6.233  -1.627  -2.421  1.00  0.00     0.050 C 
ENDBRANCH  19  25
ENDBRANCH  15  16
ENDBRANCH   2  15
BRANCH   1  33
HETATM   33  C7  UNL     1      -1.912   2.970   0.603  1.00  0.00    -0.004 A 
HETATM   34  C2  UNL     1      -2.121   4.117  -0.196  1.00  0.00     0.011 A 
HETATM   35  C3  UNL     1      -3.004   5.094   0.166  1.00  0.00     0.019 A 
HETATM   36  C4  UNL     1      -3.732   5.003   1.329  1.00  0.00     0.001 A 
HETATM   37  C5  UNL     1      -3.562   3.909   2.132  1.00  0.00     0.001 A 
HETATM   38  C6  UNL     1      -2.654   2.933   1.734  1.00  0.00     0.014 A 
BRANCH  34  39
HETATM   39  S1  UNL     1      -1.224   4.330  -1.727  1.00  0.00    -0.134 SA
HETATM   40  C1  UNL     1      -1.677   5.871  -2.535  1.00  0.00     0.095 C 
ENDBRANCH  34  39
ENDBRANCH   1  33
TORSDOF 12
