REMARK  13 active torsions:
REMARK  status: ('A' for Active; 'I' for Inactive)
REMARK    1  A    between atoms: S1_2  and  N1_4 
REMARK    2  A    between atoms: S1_2  and  C12_18 
REMARK    3  A    between atoms: N1_4  and  C1_6 
REMARK    4  A    between atoms: C1_6  and  C2_7 
REMARK    5  A    between atoms: C2_7  and  C3_8 
REMARK    6  A    between atoms: C3_8  and  C4_9 
REMARK    7  A    between atoms: C4_9  and  C5_10 
REMARK    8  A    between atoms: C5_10  and  C6_11 
REMARK    9  A    between atoms: C6_11  and  C7_12 
REMARK   10  A    between atoms: C15_21  and  C16_22 
REMARK   11  A    between atoms: C17_26  and  C18_27 
REMARK   12  A    between atoms: C18_27  and  S2_28 
REMARK   13  A    between atoms: S2_28  and  C19_29 
ROOT
HETATM    1  C12 UNL     1      -0.959   3.227  -1.090  1.00  0.00     0.079 A 
HETATM    2  C13 UNL     1      -2.310   2.852  -1.197  1.00  0.00     0.026 A 
HETATM    3  C14 UNL     1      -2.996   2.525  -0.081  1.00  0.00     0.017 A 
HETATM    4  C15 UNL     1      -2.437   2.540   1.184  1.00  0.00     0.010 A 
HETATM    5  C25 UNL     1      -1.122   2.907   1.298  1.00  0.00     0.017 A 
HETATM    6  C26 UNL     1      -0.398   3.248   0.138  1.00  0.00     0.026 A 
ENDROOT
BRANCH   1   7
HETATM    7  S1  UNL     1      -0.169   3.606  -2.592  1.00  0.00     0.258 S 
HETATM    8  O1  UNL     1      -1.130   3.977  -3.671  1.00  0.00    -0.201 OA
HETATM    9  O2  UNL     1       0.658   4.856  -2.326  1.00  0.00    -0.201 OA
BRANCH   7  10
HETATM   10  N1  UNL     1       0.813   2.326  -3.145  1.00  0.00    -0.315 N 
ATOM     11  H1  UNL     1       0.615   1.829  -4.014  1.00  0.00     0.172 HD
BRANCH  10  12
HETATM   12  C1  UNL     1       1.935   1.990  -2.314  1.00  0.00     0.132 C 
BRANCH  12  13
HETATM   13  C2  UNL     1       2.679   0.843  -2.951  1.00  0.00     0.020 C 
BRANCH  13  14
HETATM   14  C3  UNL     1       1.960  -0.462  -2.895  1.00  0.00     0.002 C 
BRANCH  14  15
HETATM   15  C4  UNL     1       1.840  -0.919  -1.424  1.00  0.00     0.000 C 
BRANCH  15  16
HETATM   16  C5  UNL     1       3.254  -1.102  -0.887  1.00  0.00     0.000 C 
BRANCH  16  17
HETATM   17  C6  UNL     1       3.340  -1.540   0.515  1.00  0.00     0.005 C 
BRANCH  17  18
HETATM   18  C7  UNL     1       4.754  -1.751   1.011  1.00  0.00    -0.011 C 
HETATM   19  C8  UNL     1       5.576  -0.489   0.918  1.00  0.00     0.031 C 
HETATM   20  C9  UNL     1       7.042  -0.849   1.079  1.00  0.00     0.168 C 
HETATM   21  O3  UNL     1       7.517  -1.647   0.070  1.00  0.00    -0.391 OA
HETATM   22  C10 UNL     1       6.499  -2.253  -0.681  1.00  0.00     0.168 C 
HETATM   23  C11 UNL     1       5.486  -2.826   0.283  1.00  0.00     0.031 C 
ENDBRANCH  17  18
ENDBRANCH  16  17
ENDBRANCH  15  16
ENDBRANCH  14  15
ENDBRANCH  13  14
ENDBRANCH  12  13
ENDBRANCH  10  12
ENDBRANCH   7  10
ENDBRANCH   1   7
BRANCH   4  24
HETATM   24  C16 UNL     1      -3.265   2.152   2.318  1.00  0.00     0.137 A 
HETATM   25  N2  UNL     1      -3.017   2.054   3.630  1.00  0.00    -0.242 N 
HETATM   26  O4  UNL     1      -4.091   1.634   4.257  1.00  0.00    -0.222 OA
ATOM     27  H2  UNL     1      -2.126   2.273   4.076  1.00  0.00     0.196 HD
HETATM   28  C17 UNL     1      -5.082   1.441   3.382  1.00  0.00     0.158 A 
HETATM   29  N3  UNL     1      -4.558   1.763   2.208  1.00  0.00    -0.322 N 
ATOM     30  H3  UNL     1      -5.068   1.723   1.326  1.00  0.00     0.169 HD
BRANCH  28  31
HETATM   31  C18 UNL     1      -6.468   0.958   3.705  1.00  0.00     0.166 C 
BRANCH  31  32
HETATM   32  S2  UNL     1      -6.651  -0.809   3.618  1.00  0.00    -0.122 SA
BRANCH  32  33
HETATM   33  C19 UNL     1      -6.599  -1.509   2.005  1.00  0.00     0.001 A 
HETATM   34  C20 UNL     1      -6.571  -2.896   1.914  1.00  0.00     0.018 A 
HETATM   35  C21 UNL     1      -6.543  -3.569   0.719  1.00  0.00     0.001 A 
HETATM   36  C22 UNL     1      -6.541  -2.825  -0.434  1.00  0.00     0.000 A 
HETATM   37  C23 UNL     1      -6.569  -1.449  -0.426  1.00  0.00     0.001 A 
HETATM   38  C24 UNL     1      -6.600  -0.827   0.815  1.00  0.00     0.018 A 
ENDBRANCH  32  33
ENDBRANCH  31  32
ENDBRANCH  28  31
ENDBRANCH   4  24
TORSDOF 13
