REMARK  8 active torsions:
REMARK  status: ('A' for Active; 'I' for Inactive)
REMARK    1  A    between atoms: N1_1  and  C1_5 
REMARK    2  A    between atoms: C1_5  and  C2_6 
REMARK    3  A    between atoms: C2_6  and  C3_7 
REMARK    4  A    between atoms: C3_7  and  C4_8 
REMARK    5  A    between atoms: C4_8  and  C5_9 
REMARK    6  A    between atoms: C5_9  and  N2_10 
REMARK    7  A    between atoms: C5_9  and  C6_14 
REMARK    8  A    between atoms: C9_20  and  N4_21 
ROOT
HETATM    1  C5  UNL     1      -0.205  -0.941   0.353  1.00  0.00     0.191 C 
ENDROOT
BRANCH   1   2
HETATM    2  C4  UNL     1       0.666   0.234   0.722  1.00  0.00     0.033 C 
BRANCH   2   3
HETATM    3  C3  UNL     1       2.065  -0.156   1.061  1.00  0.00     0.004 C 
BRANCH   3   4
HETATM    4  C2  UNL     1       2.788  -0.847  -0.065  1.00  0.00     0.027 C 
BRANCH   4   5
HETATM    5  C1  UNL     1       2.901  -0.005  -1.296  1.00  0.00     0.229 C 
BRANCH   5   6
HETATM    6  N1  UNL     1       3.617   1.231  -1.077  1.00  0.00    -0.079 N 
ATOM      7  H13 UNL     1       3.200   1.761  -0.312  1.00  0.00     0.274 HD
ATOM      8  H12 UNL     1       4.537   1.051  -0.675  1.00  0.00     0.274 HD
ATOM      9  H11 UNL     1       3.694   1.805  -1.916  1.00  0.00     0.274 HD
ENDBRANCH   5   6
ENDBRANCH   4   5
ENDBRANCH   3   4
ENDBRANCH   2   3
ENDBRANCH   1   2
BRANCH   1  10
HETATM   10  N2  UNL     1      -0.313  -1.903   1.414  1.00  0.00    -0.075 N 
ATOM     11  H23 UNL     1       0.608  -2.213   1.723  1.00  0.00     0.274 HD
ATOM     12  H22 UNL     1      -0.636  -1.463   2.276  1.00  0.00     0.274 HD
ATOM     13  H21 UNL     1      -0.902  -2.698   1.164  1.00  0.00     0.274 HD
ENDBRANCH   1  10
BRANCH   1  14
HETATM   14  C6  UNL     1      -1.575  -0.542  -0.080  1.00  0.00     0.073 C 
HETATM   15  C7  UNL     1      -2.351   0.203   0.958  1.00  0.00     0.241 C 
HETATM   16  N3  UNL     1      -3.337   0.921   0.158  1.00  0.00    -0.073 N 
HETATM   17  C8  UNL     1      -2.496   1.552  -0.853  1.00  0.00     0.265 C 
ATOM     18  H32 UNL     1      -4.099   0.349  -0.207  1.00  0.00     0.277 HD
ATOM     19  H31 UNL     1      -3.939   1.558   0.680  1.00  0.00     0.277 HD
HETATM   20  C9  UNL     1      -1.597   0.384  -1.269  1.00  0.00     0.216 C 
BRANCH  20  21
HETATM   21  N4  UNL     1      -2.308  -0.298  -2.340  1.00  0.00    -0.073 N 
ATOM     22  H43 UNL     1      -1.917  -1.215  -2.557  1.00  0.00     0.274 HD
ATOM     23  H42 UNL     1      -3.238  -0.612  -2.063  1.00  0.00     0.274 HD
ATOM     24  H41 UNL     1      -2.323   0.329  -3.145  1.00  0.00     0.274 HD
ENDBRANCH  20  21
ENDBRANCH   1  14
TORSDOF 8
