REMARK  6 active torsions:
REMARK  status: ('A' for Active; 'I' for Inactive)
REMARK    1  A    between atoms: C2_2  and  N1_3 
REMARK    2  A    between atoms: C2_2  and  C3_7 
REMARK    3  A    between atoms: C3_7  and  C4_8 
REMARK    4  A    between atoms: C3_7  and  N3_13 
REMARK    5  A    between atoms: C4_8  and  N2_9 
REMARK    6  A    between atoms: N3_13  and  C5_15 
ROOT
HETATM    1  C3  UNL     1      -1.157  -0.101   0.367  1.00  0.00     0.132 C 
ENDROOT
BRANCH   1   2
HETATM    2  C2  UNL     1      -2.564   0.261  -0.169  1.00  0.00     0.203 C 
HETATM    3  C1  UNL     1      -2.609   1.654  -0.722  1.00  0.00     0.042 C 
BRANCH   2   4
HETATM    4  N1  UNL     1      -3.002  -0.734  -1.118  1.00  0.00    -0.073 N 
ATOM      5  H13 UNL     1      -3.932  -0.513  -1.475  1.00  0.00     0.274 HD
ATOM      6  H12 UNL     1      -2.471  -0.669  -1.986  1.00  0.00     0.274 HD
ATOM      7  H11 UNL     1      -2.971  -1.682  -0.742  1.00  0.00     0.274 HD
ENDBRANCH   2   4
ENDBRANCH   1   2
BRANCH   1   8
HETATM    8  C4  UNL     1      -1.312  -1.515   0.866  1.00  0.00     0.256 C 
BRANCH   8   9
HETATM    9  N2  UNL     1      -2.331  -1.590   1.912  1.00  0.00    -0.077 N 
ATOM     10  H23 UNL     1      -2.137  -0.940   2.674  1.00  0.00     0.274 HD
ATOM     11  H22 UNL     1      -3.221  -1.201   1.600  1.00  0.00     0.274 HD
ATOM     12  H21 UNL     1      -2.436  -2.547   2.250  1.00  0.00     0.274 HD
ENDBRANCH   8   9
ENDBRANCH   1   8
BRANCH   1  13
HETATM   13  N3  UNL     1      -0.284  -0.035  -0.733  1.00  0.00    -0.409 N 
ATOM     14  H3  UNL     1      -0.664  -0.053  -1.679  1.00  0.00     0.154 HD
BRANCH  13  15
HETATM   15  C5  UNL     1       1.105   0.056  -0.545  1.00  0.00     0.080 C 
HETATM   16  C6  UNL     1       1.784  -1.118   0.109  1.00  0.00     0.044 C 
HETATM   17  C7  UNL     1       3.262  -0.985  -0.296  1.00  0.00     0.115 C 
HETATM   18  N4  UNL     1       3.757   0.162   0.407  1.00  0.00    -0.421 N 
HETATM   19  C8  UNL     1       3.060   1.382   0.138  1.00  0.00     0.115 C 
ATOM     20  H4  UNL     1       4.547   0.112   1.051  1.00  0.00     0.153 HD
HETATM   21  C9  UNL     1       1.554   1.278   0.225  1.00  0.00     0.044 C 
ENDBRANCH  13  15
ENDBRANCH   1  13
TORSDOF 6
