REMARK  9 active torsions:
REMARK  status: ('A' for Active; 'I' for Inactive)
REMARK    1  A    between atoms: N1_1  and  C1_5 
REMARK    2  A    between atoms: C1_5  and  C2_6 
REMARK    3  A    between atoms: C5_11  and  C6_12 
REMARK    4  A    between atoms: C6_12  and  C7_13 
REMARK    5  A    between atoms: C7_13  and  N3_14 
REMARK    6  A    between atoms: C7_13  and  C8_18 
REMARK    7  A    between atoms: C8_18  and  N4_19 
REMARK    8  A    between atoms: C8_18  and  C9_23 
REMARK    9  A    between atoms: C9_23  and  N5_24 
ROOT
HETATM    1  C7  UNL     1       1.094   0.126  -0.252  1.00  0.00     0.220 C 
ENDROOT
BRANCH   1   2
HETATM    2  C6  UNL     1       0.204  -0.279  -1.363  1.00  0.00     0.087 C 
BRANCH   2   3
HETATM    3  C5  UNL     1      -1.142  -0.781  -0.980  1.00  0.00    -0.010 C 
HETATM    4  C2  UNL     1      -2.273  -0.136  -0.291  1.00  0.00     0.058 C 
HETATM    5  C3  UNL     1      -2.916  -1.350   0.398  1.00  0.00     0.032 C 
HETATM    6  C4  UNL     1      -2.809  -2.299  -0.813  1.00  0.00     0.120 C 
HETATM    7  N2  UNL     1      -1.491  -1.998  -1.255  1.00  0.00    -0.396 N 
ATOM      8  H2  UNL     1      -0.888  -2.666  -1.735  1.00  0.00     0.159 HD
BRANCH   4   9
HETATM    9  C1  UNL     1      -1.936   0.892   0.725  1.00  0.00     0.240 C 
BRANCH   9  10
HETATM   10  N1  UNL     1      -3.221   1.251   1.364  1.00  0.00    -0.079 N 
ATOM     11  H13 UNL     1      -3.939   1.547   0.703  1.00  0.00     0.274 HD
ATOM     12  H12 UNL     1      -3.729   0.451   1.742  1.00  0.00     0.274 HD
ATOM     13  H11 UNL     1      -2.989   1.958   2.062  1.00  0.00     0.274 HD
ENDBRANCH   9  10
ENDBRANCH   4   9
ENDBRANCH   2   3
ENDBRANCH   1   2
BRANCH   1  14
HETATM   14  N3  UNL     1       1.388  -0.927   0.690  1.00  0.00    -0.073 N 
ATOM     15  H33 UNL     1       0.525  -1.330   1.054  1.00  0.00     0.274 HD
ATOM     16  H32 UNL     1       1.770  -1.740   0.207  1.00  0.00     0.274 HD
ATOM     17  H31 UNL     1       2.001  -0.648   1.456  1.00  0.00     0.274 HD
ENDBRANCH   1  14
BRANCH   1  18
HETATM   18  C8  UNL     1       2.409   0.580  -0.926  1.00  0.00     0.239 C 
BRANCH  18  19
HETATM   19  N4  UNL     1       2.040   1.672  -1.786  1.00  0.00    -0.071 N 
ATOM     20  H43 UNL     1       1.298   1.442  -2.447  1.00  0.00     0.274 HD
ATOM     21  H42 UNL     1       1.544   2.423  -1.306  1.00  0.00     0.274 HD
ATOM     22  H41 UNL     1       2.908   1.972  -2.231  1.00  0.00     0.274 HD
ENDBRANCH  18  19
BRANCH  18  23
HETATM   23  C9  UNL     1       3.414   1.025   0.096  1.00  0.00     0.264 C 
BRANCH  23  24
HETATM   24  N5  UNL     1       3.773  -0.012   1.040  1.00  0.00    -0.077 N 
ATOM     25  H53 UNL     1       2.942  -0.393   1.492  1.00  0.00     0.274 HD
ATOM     26  H52 UNL     1       4.098  -0.847   0.553  1.00  0.00     0.274 HD
ATOM     27  H51 UNL     1       4.456   0.290   1.735  1.00  0.00     0.274 HD
ENDBRANCH  23  24
ENDBRANCH  18  23
ENDBRANCH   1  18
TORSDOF 9
