REMARK  5 active torsions:
REMARK  status: ('A' for Active; 'I' for Inactive)
REMARK       I    between atoms: C1_2  and  N1_3 
REMARK    1  A    between atoms: C1_2  and  C10_14 
REMARK    2  A    between atoms: N1_3  and  C2_5 
REMARK    3  A    between atoms: C13_18  and  C14_19 
REMARK       I    between atoms: C14_19  and  N2_21 
REMARK    4  A    between atoms: N2_21  and  S3_23 
REMARK    5  A    between atoms: S3_23  and  C15_26 
ROOT
HETATM    1  C10 UNL     1      -0.172   1.984   1.965  1.00  0.00     0.055 A 
HETATM    2  C11 UNL     1       0.047   2.860   2.968  1.00  0.00     0.026 A 
HETATM    3  C12 UNL     1      -0.994   3.182   3.780  1.00  0.00     0.051 A 
HETATM    4  S2  UNL     1      -2.267   2.270   3.148  1.00  0.00    -0.095 SA
HETATM    5  C13 UNL     1      -1.427   1.476   1.824  1.00  0.00     0.089 A 
ENDROOT
BRANCH   1   6
HETATM    6  C1  UNL     1       1.006   1.558   1.120  1.00  0.00     0.258 C 
HETATM    7  O1  UNL     1       1.311   2.272   0.133  1.00  0.00    -0.267 OA
HETATM    8  N1  UNL     1       1.751   0.414   1.417  1.00  0.00    -0.317 N 
ATOM      9  H1  UNL     1       1.465  -0.127   2.233  1.00  0.00     0.169 HD
BRANCH   8  10
HETATM   10  C2  UNL     1       2.860  -0.059   0.692  1.00  0.00     0.078 A 
HETATM   11  C3  UNL     1       3.453   0.291  -0.475  1.00  0.00     0.050 A 
HETATM   12  C4  UNL     1       4.596  -0.362  -0.828  1.00  0.00    -0.016 A 
HETATM   13  C5  UNL     1       5.374  -0.144  -1.980  1.00  0.00     0.013 A 
HETATM   14  C9  UNL     1       5.056  -1.316   0.019  1.00  0.00     0.017 A 
HETATM   15  C6  UNL     1       6.522  -0.875  -2.191  1.00  0.00     0.001 A 
HETATM   16  C7  UNL     1       6.971  -1.826  -1.336  1.00  0.00     0.001 A 
HETATM   17  C8  UNL     1       6.228  -2.059  -0.203  1.00  0.00     0.020 A 
HETATM   18  S1  UNL     1       3.916  -1.307   1.283  1.00  0.00    -0.072 SA
ENDBRANCH   8  10
ENDBRANCH   1   6
BRANCH   5  19
HETATM   19  C14 UNL     1      -2.056   0.571   0.880  1.00  0.00     0.273 C 
HETATM   20  O2  UNL     1      -3.305   0.340   1.060  1.00  0.00    -0.266 OA
HETATM   21  N2  UNL     1      -1.441  -0.056  -0.189  1.00  0.00    -0.245 N 
ATOM     22  H2  UNL     1      -0.447   0.108  -0.350  1.00  0.00     0.182 HD
BRANCH  21  23
HETATM   23  S3  UNL     1      -2.305  -1.119  -1.274  1.00  0.00     0.265 S 
HETATM   24  O3  UNL     1      -1.989  -2.512  -0.829  1.00  0.00    -0.200 OA
HETATM   25  O4  UNL     1      -1.749  -0.884  -2.673  1.00  0.00    -0.200 OA
BRANCH  23  26
HETATM   26  C15 UNL     1      -4.007  -0.869  -1.257  1.00  0.00     0.080 A 
HETATM   27  C16 UNL     1      -4.624   0.192  -1.934  1.00  0.00     0.025 A 
HETATM   28  C17 UNL     1      -5.979   0.319  -1.901  1.00  0.00     0.002 A 
HETATM   29  C18 UNL     1      -6.798  -0.557  -1.225  1.00  0.00     0.000 A 
HETATM   30  C19 UNL     1      -6.216  -1.610  -0.550  1.00  0.00     0.002 A 
HETATM   31  C20 UNL     1      -4.830  -1.741  -0.582  1.00  0.00     0.025 A 
ENDBRANCH  23  26
ENDBRANCH  21  23
ENDBRANCH   5  19
TORSDOF 5
