REMARK  11 active torsions:
REMARK  status: ('A' for Active; 'I' for Inactive)
REMARK    1  A    between atoms: C2_2  and  C4_4 
REMARK    2  A    between atoms: C4_4  and  C5_5 
REMARK    3  A    between atoms: C7_10  and  C8_12 
REMARK    4  A    between atoms: C8_12  and  C9_13 
REMARK    5  A    between atoms: C9_13  and  C10_14 
REMARK    6  A    between atoms: C10_14  and  C11_15 
REMARK    7  A    between atoms: C11_15  and  C14_18 
REMARK    8  A    between atoms: N2_22  and  C17_23 
REMARK    9  A    between atoms: C17_23  and  C18_24 
REMARK   10  A    between atoms: C17_23  and  C22_28 
REMARK   11  A    between atoms: C18_24  and  C19_25 
REMARK       I    between atoms: C22_28  and  N3_30 
ROOT
HETATM    1  C5  UNL     1       0.332   1.961  -0.753  1.00  0.00     0.177 C 
HETATM    2  N1  UNL     1       1.108   1.474  -1.876  1.00  0.00    -0.346 N 
ATOM      3  H1  UNL     1       1.190   2.140  -2.644  1.00  0.00     0.163 HD
HETATM    4  C6  UNL     1       1.770   0.250  -2.103  1.00  0.00     0.237 C 
HETATM    5  O1  UNL     1       2.508   0.268  -3.121  1.00  0.00    -0.272 OA
HETATM    6  C7  UNL     1       1.801  -1.040  -1.431  1.00  0.00     0.100 C 
HETATM    7 BR1  UNL     1       2.573  -2.314  -2.714  1.00  0.00    -0.075 Br
HETATM    8  C15 UNL     1       0.511  -1.644  -1.034  1.00  0.00     0.051 C 
HETATM    9  C16 UNL     1      -0.098  -1.207   0.250  1.00  0.00     0.129 C 
HETATM   10  N2  UNL     1      -1.129  -0.199  -0.101  1.00  0.00    -0.337 N 
HETATM   11  C27 UNL     1      -0.871   1.104  -0.566  1.00  0.00     0.243 C 
HETATM   12  O4  UNL     1      -1.886   1.702  -0.910  1.00  0.00    -0.271 OA
ENDROOT
BRANCH  10  13
HETATM   13  C17 UNL     1      -2.480  -0.656   0.048  1.00  0.00     0.179 C 
BRANCH  13  14
HETATM   14  C18 UNL     1      -3.316   0.109   0.993  1.00  0.00     0.039 C 
BRANCH  14  15
HETATM   15  C19 UNL     1      -2.785   0.127   2.410  1.00  0.00    -0.020 C 
HETATM   16  C20 UNL     1      -3.790   0.967   3.214  1.00  0.00     0.009 C 
HETATM   17  C21 UNL     1      -2.815  -1.240   3.004  1.00  0.00     0.009 C 
ENDBRANCH  14  15
ENDBRANCH  13  14
BRANCH  13  18
HETATM   18  C22 UNL     1      -3.175  -0.916  -1.234  1.00  0.00     0.242 C 
HETATM   19  O2  UNL     1      -2.809  -0.440  -2.358  1.00  0.00    -0.271 OA
HETATM   20  N3  UNL     1      -4.331  -1.738  -1.326  1.00  0.00    -0.346 N 
HETATM   21  C23 UNL     1      -4.937  -2.444  -0.213  1.00  0.00     0.152 C 
HETATM   22  C26 UNL     1      -5.030  -1.945  -2.596  1.00  0.00     0.152 C 
HETATM   23  C24 UNL     1      -5.366  -3.803  -0.789  1.00  0.00     0.187 C 
HETATM   24  O3  UNL     1      -6.415  -3.654  -1.675  1.00  0.00    -0.388 OA
HETATM   25  C25 UNL     1      -6.422  -2.395  -2.277  1.00  0.00     0.187 C 
ENDBRANCH  13  18
ENDBRANCH  10  13
BRANCH   1  26
HETATM   26  C4  UNL     1      -0.071   3.390  -0.902  1.00  0.00     0.038 C 
BRANCH  26  27
HETATM   27  C2  UNL     1      -0.830   3.992   0.222  1.00  0.00    -0.020 C 
HETATM   28  C1  UNL     1      -1.119   5.446  -0.176  1.00  0.00     0.009 C 
HETATM   29  C3  UNL     1       0.053   4.096   1.468  1.00  0.00     0.009 C 
ENDBRANCH  26  27
ENDBRANCH   1  26
BRANCH   6  30
HETATM   30  C8  UNL     1       2.750  -1.079  -0.252  1.00  0.00     0.031 C 
BRANCH  30  31
HETATM   31  C9  UNL     1       4.181  -0.784  -0.674  1.00  0.00     0.003 C 
BRANCH  31  32
HETATM   32  C10 UNL     1       5.014  -0.860   0.606  1.00  0.00     0.010 C 
BRANCH  32  33
HETATM   33  C11 UNL     1       6.469  -0.584   0.329  1.00  0.00    -0.039 C 
HETATM   34  C12 UNL     1       7.094  -1.540  -0.631  1.00  0.00     0.015 C 
HETATM   35  C13 UNL     1       7.202  -0.738   1.667  1.00  0.00     0.015 C 
BRANCH  33  36
HETATM   36  C14 UNL     1       6.711   0.825  -0.134  1.00  0.00     0.093 C 
HETATM   37 BR2  UNL     1       6.135   2.114   1.200  1.00  0.00    -0.096 Br
ENDBRANCH  33  36
ENDBRANCH  32  33
ENDBRANCH  31  32
ENDBRANCH  30  31
ENDBRANCH   6  30
TORSDOF 11
