REMARK  10 active torsions:
REMARK  status: ('A' for Active; 'I' for Inactive)
REMARK    1  A    between atoms: C2_2  and  C3_3 
REMARK    2  A    between atoms: C3_3  and  C4_4 
REMARK    3  A    between atoms: C4_4  and  C5_5 
REMARK    4  A    between atoms: C5_5  and  N1_6 
REMARK    5  A    between atoms: C12_13  and  C13_14 
REMARK    6  A    between atoms: C13_14  and  C14_15 
REMARK    7  A    between atoms: N2_20  and  C16_21 
REMARK    8  A    between atoms: C16_21  and  N3_25 
REMARK    9  A    between atoms: C21_29  and  C22_30 
REMARK   10  A    between atoms: C22_30  and  N4_31 
ROOT
HETATM    1  C1  UNL     1       2.065   0.380   2.021  1.00  0.00     0.025 C 
HETATM    2  C2  UNL     1       1.910   1.142   0.735  1.00  0.00     0.039 C 
HETATM    3  C11 UNL     1       0.987   2.334   1.126  1.00  0.00     0.033 C 
HETATM    4  C12 UNL     1      -0.305   2.306   0.379  1.00  0.00     0.090 C 
HETATM    5  C15 UNL     1      -0.924   0.938   0.608  1.00  0.00     0.237 C 
HETATM    6  O3  UNL     1      -1.950   0.764   1.218  1.00  0.00    -0.272 OA
HETATM    7  N2  UNL     1      -0.144  -0.125   0.017  1.00  0.00    -0.234 N 
HETATM    8  C27 UNL     1       1.187   0.353  -0.296  1.00  0.00     0.240 C 
HETATM    9  O4  UNL     1       1.674   0.105  -1.392  1.00  0.00    -0.272 OA
ENDROOT
BRANCH   7  10
HETATM   10  C16 UNL     1      -0.685  -1.351  -0.298  1.00  0.00     0.140 C 
HETATM   11  C17 UNL     1      -0.038  -2.426  -0.666  1.00  0.00     0.102 C 
HETATM   12 BR1  UNL     1      -0.979  -4.081  -1.096  1.00  0.00    -0.039 Br
HETATM   13 BR2  UNL     1       1.850  -2.576  -0.719  1.00  0.00    -0.039 Br
BRANCH  10  14
HETATM   14  N3  UNL     1      -2.148  -1.542  -0.263  1.00  0.00    -0.365 N 
HETATM   15  C18 UNL     1      -2.711  -2.318   0.797  1.00  0.00     0.124 C 
HETATM   16  C19 UNL     1      -3.955  -3.062   0.437  1.00  0.00     0.020 C 
HETATM   17  C20 UNL     1      -4.655  -2.634  -0.804  1.00  0.00     0.009 C 
HETATM   18  C21 UNL     1      -4.393  -1.241  -1.237  1.00  0.00     0.030 C 
HETATM   19  C26 UNL     1      -2.893  -0.943  -1.323  1.00  0.00     0.130 C 
BRANCH  18  20
HETATM   20  C22 UNL     1      -5.024  -0.163  -0.439  1.00  0.00     0.242 C 
BRANCH  20  21
HETATM   21  N4  UNL     1      -6.435  -0.106  -0.339  1.00  0.00    -0.078 N 
HETATM   22  C23 UNL     1      -7.203  -0.713  -1.370  1.00  0.00     0.271 C 
HETATM   23  C24 UNL     1      -6.885   1.308  -0.180  1.00  0.00     0.271 C 
HETATM   24  C25 UNL     1      -6.836  -0.717   0.939  1.00  0.00     0.271 C 
ENDBRANCH  20  21
ENDBRANCH  18  20
ENDBRANCH  10  14
ENDBRANCH   7  10
BRANCH   4  25
HETATM   25  C13 UNL     1      -1.230   3.375   0.890  1.00  0.00     0.127 C 
BRANCH  25  26
HETATM   26  C14 UNL     1      -0.622   4.705   0.718  1.00  0.00     0.173 C 
HETATM   27  O1  UNL     1       0.140   5.152   1.607  1.00  0.00    -0.648 OA
HETATM   28  O2  UNL     1      -0.875   5.468  -0.402  1.00  0.00    -0.648 OA
ENDBRANCH  25  26
ENDBRANCH   4  25
BRANCH   2  29
HETATM   29  C3  UNL     1       3.121   1.735   0.150  1.00  0.00     0.020 C 
BRANCH  29  30
HETATM   30  C4  UNL     1       4.283   0.949  -0.277  1.00  0.00     0.021 C 
BRANCH  30  31
HETATM   31  C5  UNL     1       4.936   0.169   0.792  1.00  0.00     0.122 C 
BRANCH  31  32
HETATM   32  N1  UNL     1       6.125  -0.539   0.362  1.00  0.00    -0.393 N 
HETATM   33  C6  UNL     1       5.941  -1.600  -0.546  1.00  0.00     0.058 C 
HETATM   34  C7  UNL     1       7.182  -2.483  -0.533  1.00  0.00     0.044 C 
HETATM   35  C8  UNL     1       8.458  -1.709  -0.579  1.00  0.00     0.007 C 
HETATM   36  C9  UNL     1       8.106  -0.298  -1.064  1.00  0.00     0.020 C 
HETATM   37  C10 UNL     1       7.234   0.284   0.059  1.00  0.00     0.122 C 
ENDBRANCH  31  32
ENDBRANCH  30  31
ENDBRANCH  29  30
ENDBRANCH   2  29
TORSDOF 10
