REMARK  12 active torsions:
REMARK  status: ('A' for Active; 'I' for Inactive)
REMARK    1  A    between atoms: C4_4  and  C5_5 
REMARK    2  A    between atoms: C5_5  and  C6_6 
REMARK       I    between atoms: C6_6  and  N1_8 
REMARK    3  A    between atoms: N1_8  and  C7_10 
REMARK    4  A    between atoms: C7_10  and  C8_11 
REMARK    5  A    between atoms: C7_10  and  C21_30 
REMARK    6  A    between atoms: C8_11  and  C9_12 
REMARK    7  A    between atoms: C9_12  and  C10_13 
REMARK       I    between atoms: C10_13  and  N2_15 
REMARK    8  A    between atoms: N3_18  and  C13_19 
REMARK    9  A    between atoms: C13_19  and  O3_20 
REMARK   10  A    between atoms: C13_19  and  C14_22 
REMARK   11  A    between atoms: C21_30  and  C22_31 
REMARK   12  A    between atoms: C22_31  and  N5_32 
ROOT
HETATM    1  C7  UNL     1      -1.638  -0.938   0.027  1.00  0.00     0.086 C 
ENDROOT
BRANCH   1   2
HETATM    2  N1  UNL     1      -2.800  -0.533  -0.786  1.00  0.00    -0.356 N 
HETATM    3  C6  UNL     1      -3.319   0.780  -0.763  1.00  0.00     0.222 C 
HETATM    4  O1  UNL     1      -2.734   1.614  -0.021  1.00  0.00    -0.273 OA
ATOM      5  H1  UNL     1      -3.245  -1.227  -1.387  1.00  0.00     0.162 HD
BRANCH   3   6
HETATM    6  C5  UNL     1      -4.502   1.138  -1.583  1.00  0.00     0.143 C 
BRANCH   6   7
HETATM    7  C4  UNL     1      -4.758   2.580  -1.412  1.00  0.00    -0.027 A 
HETATM    8  C3  UNL     1      -4.470   3.450  -2.441  1.00  0.00     0.017 A 
HETATM    9  C2  UNL     1      -4.709   4.805  -2.317  1.00  0.00    -0.043 A 
HETATM   10  C1  UNL     1      -4.424   5.774  -3.395  1.00  0.00     0.049 C 
HETATM   11  C30 UNL     1      -5.250   5.253  -1.115  1.00  0.00     0.024 A 
HETATM   12  C28 UNL     1      -5.550   4.424  -0.067  1.00  0.00    -0.022 A 
HETATM   13 BR1  UNL     1      -5.583   7.117  -0.936  1.00  0.00    -0.050 Br
HETATM   14  C27 UNL     1      -5.290   3.058  -0.242  1.00  0.00     0.048 A 
HETATM   15  C29 UNL     1      -6.120   4.907   1.220  1.00  0.00     0.051 C 
HETATM   16 CL1  UNL     1      -5.641   1.926   1.042  1.00  0.00    -0.083 Cl
ENDBRANCH   6   7
ENDBRANCH   3   6
ENDBRANCH   1   2
BRANCH   1  17
HETATM   17  C8  UNL     1      -0.419  -0.995  -0.895  1.00  0.00     0.034 C 
BRANCH  17  18
HETATM   18  C9  UNL     1       0.780  -1.409  -0.081  1.00  0.00     0.105 C 
BRANCH  18  19
HETATM   19  C10 UNL     1       2.011  -1.435  -0.896  1.00  0.00     0.219 C 
HETATM   20  O2  UNL     1       1.939  -1.046  -2.088  1.00  0.00    -0.273 OA
HETATM   21  N2  UNL     1       3.226  -1.882  -0.342  1.00  0.00    -0.349 N 
HETATM   22  C11 UNL     1       4.466  -1.894  -1.147  1.00  0.00     0.145 C 
HETATM   23  C20 UNL     1       3.249  -2.341   1.030  1.00  0.00     0.145 C 
HETATM   24  C12 UNL     1       5.575  -1.907  -0.082  1.00  0.00     0.144 C 
HETATM   25  N3  UNL     1       5.247  -0.998   0.972  1.00  0.00    -0.361 N 
HETATM   26  C19 UNL     1       4.178  -1.531   1.891  1.00  0.00     0.144 C 
BRANCH  25  27
HETATM   27  C13 UNL     1       5.764   0.261   1.221  1.00  0.00     0.147 C 
BRANCH  27  28
HETATM   28  O3  UNL     1       5.327   0.920   2.278  1.00  0.00    -0.348 OA
ATOM     29  H3  UNL     1       5.682   1.784   2.449  1.00  0.00     0.219 HD
ENDBRANCH  27  28
BRANCH  27  30
HETATM   30  C14 UNL     1       6.759   1.014   0.477  1.00  0.00     0.296 C 
HETATM   31  C15 UNL     1       6.226   2.442   0.233  1.00  0.00     0.046 C 
HETATM   32  C16 UNL     1       6.618   2.746  -1.197  1.00  0.00     0.033 C 
HETATM   33  C17 UNL     1       6.594   1.363  -1.830  1.00  0.00     0.273 C 
HETATM   34  N4  UNL     1       7.156   0.521  -0.785  1.00  0.00     0.096 N 
HETATM   35  C18 UNL     1       8.612   0.489  -0.922  1.00  0.00     0.310 C 
ENDBRANCH  27  30
ENDBRANCH  25  27
ENDBRANCH  18  19
ENDBRANCH  17  18
ENDBRANCH   1  17
BRANCH   1  36
HETATM   36  C21 UNL     1      -1.904  -2.263   0.673  1.00  0.00     0.055 C 
BRANCH  36  37
HETATM   37  C22 UNL     1      -3.141  -2.214   1.569  1.00  0.00     0.274 C 
BRANCH  37  38
HETATM   38  N5  UNL     1      -3.362  -3.531   2.173  1.00  0.00     0.088 N 
HETATM   39  C23 UNL     1      -3.741  -4.494   1.149  1.00  0.00     0.272 C 
HETATM   40  C24 UNL     1      -4.698  -5.440   1.862  1.00  0.00     0.032 C 
HETATM   41  C25 UNL     1      -5.507  -4.464   2.689  1.00  0.00     0.032 C 
HETATM   42  C26 UNL     1      -4.476  -3.426   3.065  1.00  0.00     0.272 C 
ENDBRANCH  37  38
ENDBRANCH  36  37
ENDBRANCH   1  36
TORSDOF 12
