REMARK  10 active torsions:
REMARK  status: ('A' for Active; 'I' for Inactive)
REMARK    1  A    between atoms: C2_2  and  C3_3 
REMARK    2  A    between atoms: N1_5  and  C5_6 
REMARK       I    between atoms: N2_11  and  C10_12 
REMARK    3  A    between atoms: C10_12  and  C11_14 
REMARK    4  A    between atoms: C11_14  and  C12_15 
REMARK    5  A    between atoms: C11_14  and  N3_19 
REMARK    6  A    between atoms: C12_15  and  C13_16 
REMARK       I    between atoms: N3_19  and  C16_21 
REMARK    7  A    between atoms: C16_21  and  C17_23 
REMARK    8  A    between atoms: C17_23  and  C18_24 
REMARK    9  A    between atoms: N4_31  and  C24_32 
REMARK   10  A    between atoms: C24_32  and  C25_33 
ROOT
HETATM    1  N3  UNL     1       0.022  -1.935  -0.731  1.00  0.00    -0.348 N 
ATOM      2  H3  UNL     1       0.082  -2.434  -1.619  1.00  0.00     0.163 HD
HETATM    3  C16 UNL     1       1.177  -1.342  -0.187  1.00  0.00     0.219 C 
HETATM    4  O2  UNL     1       1.088  -0.739   0.897  1.00  0.00    -0.274 OA
ENDROOT
BRANCH   1   5
HETATM    5  C11 UNL     1      -1.298  -1.842  -0.019  1.00  0.00     0.177 C 
BRANCH   5   6
HETATM    6  C10 UNL     1      -2.279  -1.226  -0.916  1.00  0.00     0.243 C 
HETATM    7  N2  UNL     1      -3.161  -0.225  -0.563  1.00  0.00    -0.339 N 
HETATM    8  C3  UNL     1      -4.186   0.342  -1.423  1.00  0.00     0.137 C 
HETATM    9  C9  UNL     1      -3.087   0.406   0.732  1.00  0.00     0.157 C 
HETATM   10  C4  UNL     1      -4.051   1.836  -1.428  1.00  0.00     0.302 C 
HETATM   11  N1  UNL     1      -4.193   2.359  -0.099  1.00  0.00     0.096 N 
HETATM   12  C8  UNL     1      -4.265   1.351   0.915  1.00  0.00     0.292 C 
HETATM   13  O1  UNL     1      -2.300  -1.656  -2.100  1.00  0.00    -0.271 OA
BRANCH   8  14
HETATM   14  C2  UNL     1      -4.283  -0.240  -2.762  1.00  0.00    -0.010 C 
HETATM   15  C1  UNL     1      -3.989   0.406  -3.884  1.00  0.00     0.009 C 
ENDBRANCH   8  14
BRANCH  11  16
HETATM   16  C5  UNL     1      -5.243   3.347   0.011  1.00  0.00     0.215 C 
HETATM   17  C6  UNL     1      -5.344   3.873   1.426  1.00  0.00     0.042 C 
HETATM   18  C7  UNL     1      -6.601   2.798  -0.357  1.00  0.00     0.042 C 
ENDBRANCH  11  16
ENDBRANCH   5   6
BRANCH   5  19
HETATM   19  C12 UNL     1      -1.614  -3.264   0.341  1.00  0.00     0.038 C 
BRANCH  19  20
HETATM   20  C13 UNL     1      -2.850  -3.592   1.048  1.00  0.00    -0.020 C 
HETATM   21  C14 UNL     1      -2.878  -5.141   1.204  1.00  0.00     0.009 C 
HETATM   22  C15 UNL     1      -2.825  -3.138   2.526  1.00  0.00     0.009 C 
ENDBRANCH  19  20
ENDBRANCH   5  19
ENDBRANCH   1   5
BRANCH   3  23
HETATM   23  C17 UNL     1       2.458  -1.439  -0.892  1.00  0.00     0.117 C 
BRANCH  23  24
HETATM   24  C18 UNL     1       3.540  -0.779  -0.084  1.00  0.00     0.001 C 
HETATM   25  C19 UNL     1       3.631  -1.493   1.224  1.00  0.00    -0.020 C 
HETATM   26  C20 UNL     1       4.539  -2.467   1.181  1.00  0.00    -0.029 C 
HETATM   27  C21 UNL     1       5.133  -2.476  -0.185  1.00  0.00     0.042 C 
HETATM   28  C22 UNL     1       4.906  -1.034  -0.678  1.00  0.00     0.094 C 
HETATM   29  C23 UNL     1       5.875  -0.144   0.012  1.00  0.00     0.227 C 
HETATM   30  O3  UNL     1       6.941  -0.605   0.496  1.00  0.00    -0.273 OA
HETATM   31  N4  UNL     1       5.530   1.231   0.089  1.00  0.00    -0.323 N 
HETATM   32  C27 UNL     1       4.248   1.623  -0.436  1.00  0.00     0.152 C 
HETATM   33 BR1  UNL     1       4.253   1.697  -2.375  1.00  0.00    -0.049 Br
HETATM   34 BR2  UNL     1       3.791   3.407   0.185  1.00  0.00    -0.049 Br
HETATM   35  C28 UNL     1       3.213   0.683   0.080  1.00  0.00     0.070 C 
BRANCH  31  36
HETATM   36  C24 UNL     1       6.469   2.152   0.681  1.00  0.00     0.128 C 
BRANCH  36  37
HETATM   37  C25 UNL     1       7.413   2.720  -0.370  1.00  0.00     0.015 C 
HETATM   38  C26 UNL     1       8.362   3.675   0.346  1.00  0.00     0.006 C 
ENDBRANCH  36  37
ENDBRANCH  31  36
ENDBRANCH  23  24
ENDBRANCH   3  23
TORSDOF 10
