REMARK  7 active torsions:
REMARK  status: ('A' for Active; 'I' for Inactive)
REMARK    1  A    between atoms: C2_4  and  C3_5 
REMARK    2  A    between atoms: C3_5  and  N2_6 
REMARK    3  A    between atoms: N2_6  and  C4_9 
REMARK    4  A    between atoms: C4_9  and  C5_10 
REMARK    5  A    between atoms: C5_10  and  N3_11 
REMARK    6  A    between atoms: C5_10  and  C6_15 
REMARK    7  A    between atoms: C6_15  and  N4_16 
ROOT
HETATM    1  N2  UNL     1       1.031  -0.802  -1.073  1.00  0.00    -0.067 N 
ATOM      2  H21 UNL     1       0.613  -0.125  -1.711  1.00  0.00     0.277 HD
ATOM      3  H22 UNL     1       1.675  -1.238  -1.733  1.00  0.00     0.277 HD
ENDROOT
BRANCH   1   4
HETATM    4  C3  UNL     1       0.084  -1.717  -0.556  1.00  0.00     0.299 C 
BRANCH   4   5
HETATM    5  C2  UNL     1      -1.162  -0.861  -0.232  1.00  0.00     0.105 A 
HETATM    6  O1  UNL     1      -1.634  -0.755   0.843  1.00  0.00    -0.237 OA
HETATM    7  N1  UNL     1      -2.755   0.084   0.786  1.00  0.00    -0.243 N 
HETATM    8  C1  UNL     1      -3.630   0.434   1.811  1.00  0.00     0.187 C 
HETATM    9  C8  UNL     1      -2.829   0.346  -0.556  1.00  0.00     0.141 A 
HETATM   10  C7  UNL     1      -1.751  -0.244  -1.053  1.00  0.00     0.083 A 
HETATM   11  N5  UNL     1      -3.951   0.817  -1.341  1.00  0.00    -0.081 NA
ENDBRANCH   4   5
ENDBRANCH   1   4
BRANCH   1  12
HETATM   12  C4  UNL     1       1.705  -0.179   0.019  1.00  0.00     0.270 C 
BRANCH  12  13
HETATM   13  C5  UNL     1       3.105   0.258  -0.375  1.00  0.00     0.246 C 
BRANCH  13  14
HETATM   14  N3  UNL     1       3.989  -0.767   0.229  1.00  0.00    -0.069 N 
ATOM     15  H33 UNL     1       3.857  -0.894   1.232  1.00  0.00     0.275 HD
ATOM     16  H32 UNL     1       3.760  -1.725  -0.035  1.00  0.00     0.275 HD
ATOM     17  H31 UNL     1       4.929  -0.473  -0.036  1.00  0.00     0.275 HD
ENDBRANCH  13  14
BRANCH  13  18
HETATM   18  C6  UNL     1       3.272   1.541   0.261  1.00  0.00     0.087 C 
BRANCH  18  19
HETATM   19  N4  UNL     1       4.273   1.718   1.065  1.00  0.00    -0.409 N 
ATOM     20  H42 UNL     1       4.924   0.951   1.234  1.00  0.00     0.155 HD
ATOM     21  H41 UNL     1       4.391   2.626   1.515  1.00  0.00     0.155 HD
ENDBRANCH  18  19
ENDBRANCH  13  18
ENDBRANCH  12  13
ENDBRANCH   1  12
TORSDOF 7
