REMARK  7 active torsions:
REMARK  status: ('A' for Active; 'I' for Inactive)
REMARK    1  A    between atoms: C2_2  and  N1_3 
REMARK    2  A    between atoms: N1_3  and  N2_4 
REMARK    3  A    between atoms: N1_3  and  C3_7 
REMARK    4  A    between atoms: C3_7  and  C4_8 
REMARK    5  A    between atoms: C4_8  and  N3_9 
REMARK    6  A    between atoms: N3_9  and  C5_11 
REMARK    7  A    between atoms: C8_16  and  N5_17 
ROOT
HETATM    1  C5  UNL     1      -1.770   0.058  -0.166  1.00  0.00     0.118 A 
HETATM    2  C6  UNL     1      -2.365  -0.881   0.657  1.00  0.00     0.066 A 
HETATM    3  C7  UNL     1      -3.691  -0.788   0.960  1.00  0.00     0.110 A 
HETATM    4  N4  UNL     1      -4.485   0.190   0.494  1.00  0.00    -0.202 N 
ATOM      5  H4  UNL     1      -5.475   0.236   0.735  1.00  0.00     0.183 HD
HETATM    6  C8  UNL     1      -3.899   1.122  -0.321  1.00  0.00     0.677 A 
HETATM    7  N6  UNL     1      -2.597   1.031  -0.619  1.00  0.00    -0.177 N 
ATOM      8  H6  UNL     1      -2.200   1.744  -1.230  1.00  0.00     0.185 HD
ENDROOT
BRANCH   1   9
HETATM    9  N3  UNL     1      -0.522   0.029  -0.497  1.00  0.00    -0.371 N 
ATOM     10  H3  UNL     1      -0.145   0.753  -1.109  1.00  0.00     0.161 HD
BRANCH   9  11
HETATM   11  C4  UNL     1       0.348  -1.022  -0.008  1.00  0.00     0.167 C 
BRANCH  11  12
HETATM   12  C3  UNL     1       1.659  -1.032  -0.735  1.00  0.00     0.102 C 
BRANCH  12  13
HETATM   13  N1  UNL     1       2.461   0.098  -0.644  1.00  0.00    -0.312 N 
BRANCH  13  14
HETATM   14  C2  UNL     1       3.056   0.382   0.614  1.00  0.00     0.143 C 
HETATM   15  C1  UNL     1       4.108  -0.597   1.035  1.00  0.00     0.028 C 
ENDBRANCH  13  14
BRANCH  13  16
HETATM   16  N2  UNL     1       2.321   1.118  -1.520  1.00  0.00    -0.344 N 
ATOM     17  H22 UNL     1       2.910   1.948  -1.453  1.00  0.00     0.177 HD
ATOM     18  H21 UNL     1       1.894   0.914  -2.423  1.00  0.00     0.177 HD
ENDBRANCH  13  16
ENDBRANCH  12  13
ENDBRANCH  11  12
ENDBRANCH   9  11
ENDBRANCH   1   9
BRANCH   6  19
HETATM   19  N5  UNL     1      -4.659   2.064  -0.770  1.00  0.00    -0.234 N 
ATOM     20  H52 UNL     1      -5.651   2.133  -0.543  1.00  0.00     0.174 HD
ATOM     21  H51 UNL     1      -4.223   2.758  -1.377  1.00  0.00     0.174 HD
ENDBRANCH   6  19
TORSDOF 7
