REMARK  9 active torsions:
REMARK  status: ('A' for Active; 'I' for Inactive)
REMARK    1  A    between atoms: N1_2  and  C2_5 
REMARK    2  A    between atoms: C2_5  and  C3_6 
REMARK    3  A    between atoms: C3_6  and  O1_7 
REMARK    4  A    between atoms: C3_6  and  C4_9 
REMARK    5  A    between atoms: C8_18  and  N4_19 
REMARK    6  A    between atoms: C9_23  and  O3_24 
REMARK    7  A    between atoms: C11_27  and  O4_29 
REMARK    8  A    between atoms: C14_32  and  C16_35 
REMARK       I    between atoms: N6_37  and  C17_38 
REMARK       I    between atoms: C17_38  and  N7_40 
REMARK       I    between atoms: N7_40  and  C18_42 
REMARK    9  A    between atoms: N9_44  and  N10_46 
ROOT
HETATM    1  C4  UNL     1      -0.955  -0.797   0.172  1.00  0.00     0.149 C 
HETATM    2  C5  UNL     1       0.053  -1.549  -0.750  1.00  0.00     0.165 C 
HETATM    3  N2  UNL     1       1.128  -2.191  -0.091  1.00  0.00    -0.396 N 
ATOM      4  H2  UNL     1       0.954  -2.793   0.714  1.00  0.00     0.155 HD
HETATM    5  C6  UNL     1       2.471  -1.985  -0.569  1.00  0.00     0.204 C 
HETATM    6  C7  UNL     1       2.535  -1.570  -2.021  1.00  0.00     0.246 C 
HETATM    7  O2  UNL     1       3.255  -2.143  -2.863  1.00  0.00    -0.271 OA
HETATM    8  N3  UNL     1       1.685  -0.475  -2.263  1.00  0.00    -0.321 N 
ATOM      9  H3  UNL     1       1.827   0.161  -3.048  1.00  0.00     0.165 HD
HETATM   10  C8  UNL     1       0.620  -0.315  -1.345  1.00  0.00     0.270 C 
HETATM   11  C9  UNL     1       0.833   0.403  -0.093  1.00  0.00     0.195 C 
HETATM   12  C10 UNL     1       1.874   1.294  -0.248  1.00  0.00     0.108 C 
HETATM   13  C11 UNL     1       3.167   0.588   0.263  1.00  0.00     0.086 C 
HETATM   14  C12 UNL     1       4.324   1.331  -0.347  1.00  0.00     0.051 C 
HETATM   15  C13 UNL     1       3.215  -0.869   0.137  1.00  0.00     0.009 C 
HETATM   16  C14 UNL     1       4.182  -1.344   0.858  1.00  0.00     0.090 C 
HETATM   17  C15 UNL     1       4.377  -2.814   0.872  1.00  0.00     0.103 C 
HETATM   18  N5  UNL     1       4.560  -3.979   0.913  1.00  0.00    -0.191 NA
HETATM   19  N6  UNL     1      -0.618   0.604   0.111  1.00  0.00    -0.288 N 
HETATM   20  C17 UNL     1      -1.245   1.838   0.197  1.00  0.00     0.327 C 
HETATM   21  O6  UNL     1      -0.537   2.915   0.082  1.00  0.00    -0.247 OA
HETATM   22  N7  UNL     1      -2.610   2.052   0.404  1.00  0.00    -0.281 N 
ATOM     23  H7  UNL     1      -3.229   1.247   0.502  1.00  0.00     0.173 HD
HETATM   24  C18 UNL     1      -3.171   3.386   0.483  1.00  0.00     0.210 C 
HETATM   25  N8  UNL     1      -2.343   4.513   0.359  1.00  0.00    -0.062 NA
HETATM   26  N9  UNL     1      -4.427   3.545   0.672  1.00  0.00    -0.280 N 
ATOM     27  H9  UNL     1      -5.018   2.719   0.765  1.00  0.00     0.189 HD
ENDROOT
BRANCH  16  28
HETATM   28  C16 UNL     1       5.168  -0.618   1.667  1.00  0.00     0.281 C 
HETATM   29  O5  UNL     1       6.032  -1.323   2.303  1.00  0.00    -0.301 OA
ENDBRANCH  16  28
BRANCH  13  30
HETATM   30  O4  UNL     1       3.143   0.913   1.623  1.00  0.00    -0.385 OA
ATOM     31  H4  UNL     1       3.931   0.483   1.934  1.00  0.00     0.211 HD
ENDBRANCH  13  30
BRANCH  11  32
HETATM   32  O3  UNL     1       1.011  -0.151   1.171  1.00  0.00    -0.366 OA
ATOM     33  H3  UNL     1       1.150   0.317   1.986  1.00  0.00     0.212 HD
ENDBRANCH  11  32
BRANCH   1  34
HETATM   34  C3  UNL     1      -2.333  -1.237  -0.047  1.00  0.00     0.169 C 
BRANCH  34  35
HETATM   35  C2  UNL     1      -2.437  -2.787   0.050  1.00  0.00     0.265 C 
BRANCH  35  36
HETATM   36  N1  UNL     1      -3.869  -3.053   0.028  1.00  0.00    -0.077 N 
HETATM   37  C1  UNL     1      -4.556  -2.603   1.196  1.00  0.00     0.267 C 
ATOM     38  H12 UNL     1      -4.048  -4.044  -0.135  1.00  0.00     0.276 HD
ATOM     39  H11 UNL     1      -4.294  -2.662  -0.812  1.00  0.00     0.276 HD
ENDBRANCH  35  36
ENDBRANCH  34  35
BRANCH  34  40
HETATM   40  O1  UNL     1      -2.940  -0.934  -1.237  1.00  0.00    -0.392 OA
ATOM     41  H1  UNL     1      -2.877   0.012  -1.296  1.00  0.00     0.210 HD
ENDBRANCH  34  40
ENDBRANCH   1  34
BRANCH  10  42
HETATM   42  N4  UNL     1      -0.424   0.306  -2.154  1.00  0.00    -0.045 N 
ATOM     43  H43 UNL     1      -0.815  -0.327  -2.851  1.00  0.00     0.277 HD
ATOM     44  H42 UNL     1      -1.283   0.476  -1.631  1.00  0.00     0.277 HD
ATOM     45  H41 UNL     1      -0.034   1.155  -2.563  1.00  0.00     0.277 HD
ENDBRANCH  10  42
BRANCH  26  46
HETATM   46  N10 UNL     1      -5.018   4.808   0.756  1.00  0.00    -0.343 N 
ATOM     47 2H10 UNL     1      -4.412   5.623   0.661  1.00  0.00     0.176 HD
ATOM     48 1H10 UNL     1      -6.019   4.935   0.907  1.00  0.00     0.176 HD
ENDBRANCH  26  46
TORSDOF 9
