REMARK  6 active torsions:
REMARK  status: ('A' for Active; 'I' for Inactive)
REMARK    1  A    between atoms: C4_7  and  C5_8 
REMARK    2  A    between atoms: C4_7  and  C6_11 
REMARK    3  A    between atoms: C5_8  and  O2_9 
REMARK    4  A    between atoms: C6_11  and  O3_12 
REMARK    5  A    between atoms: C7_15  and  N3_16 
REMARK    6  A    between atoms: N3_16  and  N4_18 
ROOT
HETATM    1  N1  UNL     1      -1.127  -1.786   2.742  1.00  0.00    -0.193 NA
HETATM    2  C1  UNL     1      -1.380  -1.693   1.611  1.00  0.00     0.119 C 
HETATM    3  C2  UNL     1      -1.680  -1.600   0.207  1.00  0.00     0.286 C 
HETATM    4  C3  UNL     1      -1.614  -2.920  -0.393  1.00  0.00     0.119 C 
HETATM    5  N2  UNL     1      -1.565  -3.964  -0.858  1.00  0.00    -0.193 NA
HETATM    6  O1  UNL     1      -2.912  -1.028   0.015  1.00  0.00    -0.308 OA
HETATM    7  C4  UNL     1      -2.722   0.268  -0.392  1.00  0.00     0.212 C 
HETATM    8  O4  UNL     1      -1.391   0.579  -0.245  1.00  0.00    -0.320 OA
HETATM    9  C7  UNL     1      -0.752  -0.631  -0.543  1.00  0.00     0.304 C 
ENDROOT
BRANCH   9  10
HETATM   10  N3  UNL     1       0.527  -0.635   0.079  1.00  0.00    -0.293 N 
ATOM     11  H3  UNL     1       0.625  -1.211   0.915  1.00  0.00     0.184 HD
BRANCH  10  12
HETATM   12  N4  UNL     1       1.686   0.080  -0.341  1.00  0.00    -0.231 N 
HETATM   13  C8  UNL     1       2.856   0.075   0.306  1.00  0.00     0.120 A 
HETATM   14  C9  UNL     1       3.868   0.797  -0.237  1.00  0.00     0.056 A 
HETATM   15  C12 UNL     1       3.426  -0.529   1.544  1.00  0.00     0.129 A 
HETATM   16  S1  UNL     1       3.171   1.464  -1.630  1.00  0.00    -0.049 SA
HETATM   17  C11 UNL     1       5.139   0.715   0.579  1.00  0.00     0.111 A 
HETATM   18  C10 UNL     1       1.607   0.792  -1.464  1.00  0.00     0.165 A 
HETATM   19  N5  UNL     1       0.594   0.968  -2.295  1.00  0.00    -0.378 N 
ATOM     20  H52 UNL     1      -0.339   0.567  -2.196  1.00  0.00     0.158 HD
ATOM     21  H51 UNL     1       0.534   1.513  -3.155  1.00  0.00     0.158 HD
HETATM   22  N6  UNL     1       4.815  -0.110   1.669  1.00  0.00    -0.349 N 
ATOM     23  H6  UNL     1       5.449  -0.372   2.424  1.00  0.00     0.167 HD
HETATM   24  N7  UNL     1       2.930  -1.284   2.430  1.00  0.00    -0.384 N 
ATOM     25  H72 UNL     1       1.957  -1.577   2.342  1.00  0.00     0.157 HD
ATOM     26  H71 UNL     1       3.320  -1.697   3.277  1.00  0.00     0.157 HD
ENDBRANCH  10  12
ENDBRANCH   9  10
BRANCH   7  27
HETATM   27  C5  UNL     1      -3.565   1.163   0.512  1.00  0.00     0.235 C 
BRANCH  27  28
HETATM   28  O2  UNL     1      -3.133   0.979   1.805  1.00  0.00    -0.395 OA
ATOM     29  H2  UNL     1      -3.658   1.536   2.368  1.00  0.00     0.209 HD
ENDBRANCH  27  28
ENDBRANCH   7  27
BRANCH   7  30
HETATM   30  C6  UNL     1      -3.119   0.505  -1.828  1.00  0.00     0.235 C 
BRANCH  30  31
HETATM   31  O3  UNL     1      -2.873   1.857  -2.105  1.00  0.00    -0.395 OA
ATOM     32  H3  UNL     1      -3.123   2.006  -3.009  1.00  0.00     0.209 HD
ENDBRANCH  30  31
ENDBRANCH   7  30
TORSDOF 6
