REMARK  7 active torsions:
REMARK  status: ('A' for Active; 'I' for Inactive)
REMARK    1  A    between atoms: C1_4  and  O1_5 
REMARK    2  A    between atoms: C1_4  and  N2_7 
REMARK    3  A    between atoms: N2_7  and  C2_9 
REMARK    4  A    between atoms: C3_16  and  N6_17 
REMARK    5  A    between atoms: C4_21  and  C5_22 
REMARK    6  A    between atoms: C8_29  and  N11_30 
REMARK    7  A    between atoms: C9_33  and  C10_34 
ROOT
HETATM    1  N6  UNL     1      -1.217  -0.444   0.808  1.00  0.00    -0.213 N 
HETATM    2  N7  UNL     1      -1.273  -1.765   0.801  1.00  0.00    -0.013 NA
HETATM    3  N8  UNL     1      -0.021  -2.243   0.686  1.00  0.00    -0.280 N 
ATOM      4  H8  UNL     1       0.232  -3.231   0.654  1.00  0.00     0.184 HD
HETATM    5  C4  UNL     1       0.845  -1.217   0.620  1.00  0.00     0.093 A 
HETATM    6  C9  UNL     1       0.072  -0.083   0.699  1.00  0.00     0.132 A 
ENDROOT
BRANCH   1   7
HETATM    7  C3  UNL     1      -2.380   0.400   0.914  1.00  0.00     0.188 A 
HETATM    8  C2  UNL     1      -3.370   0.538  -0.037  1.00  0.00     0.172 A 
HETATM    9  N3  UNL     1      -4.261   1.413   0.444  1.00  0.00    -0.268 N 
HETATM   10  N4  UNL     1      -3.844   1.795   1.632  1.00  0.00    -0.239 N 
ATOM     11  H3  UNL     1      -5.110   1.727  -0.026  1.00  0.00     0.190 HD
HETATM   12  N5  UNL     1      -2.714   1.199   1.937  1.00  0.00    -0.266 N 
ATOM     13  H4  UNL     1      -4.330   2.461   2.232  1.00  0.00     0.208 HD
ATOM     14  H5  UNL     1      -2.184   1.322   2.800  1.00  0.00     0.190 HD
BRANCH   8  15
HETATM   15  N2  UNL     1      -3.424  -0.141  -1.301  1.00  0.00    -0.304 N 
ATOM     16  H2  UNL     1      -2.682  -0.794  -1.554  1.00  0.00     0.171 HD
BRANCH  15  17
HETATM   17  C1  UNL     1      -4.494   0.084  -2.201  1.00  0.00     0.216 C 
HETATM   18  N1  UNL     1      -4.693  -0.668  -3.225  1.00  0.00    -0.365 N 
ATOM     19  H12 UNL     1      -5.464  -0.506  -3.873  1.00  0.00     0.159 HD
ATOM     20  H11 UNL     1      -4.063  -1.451  -3.399  1.00  0.00     0.159 HD
BRANCH  17  21
HETATM   21  O1  UNL     1      -5.351   1.148  -1.964  1.00  0.00    -0.333 OA
ATOM     22  H1  UNL     1      -5.204   1.704  -1.208  1.00  0.00     0.220 HD
ENDBRANCH  17  21
ENDBRANCH  15  17
ENDBRANCH   8  15
ENDBRANCH   1   7
BRANCH   6  23
HETATM   23  C10 UNL     1       0.618   1.265   0.673  1.00  0.00     0.168 A 
HETATM   24  N12 UNL     1      -0.100   2.401   0.730  1.00  0.00    -0.267 N 
HETATM   25  N13 UNL     1       0.719   3.408   0.688  1.00  0.00    -0.227 N 
ATOM     26  H12 UNL     1      -1.116   2.461   0.795  1.00  0.00     0.190 HD
HETATM   27  N14 UNL     1       1.956   2.978   0.604  1.00  0.00    -0.227 N 
ATOM     28  H13 UNL     1       0.442   4.389   0.716  1.00  0.00     0.210 HD
HETATM   29  N15 UNL     1       1.891   1.671   0.595  1.00  0.00    -0.267 N 
ATOM     30  H14 UNL     1       2.800   3.549   0.555  1.00  0.00     0.210 HD
ATOM     31  H15 UNL     1       2.697   1.049   0.537  1.00  0.00     0.190 HD
ENDBRANCH   6  23
BRANCH   5  32
HETATM   32  C5  UNL     1       2.283  -1.338   0.490  1.00  0.00     0.053 A 
HETATM   33  C6  UNL     1       3.156  -1.509   1.551  1.00  0.00     0.106 A 
HETATM   34  N9  UNL     1       4.490  -1.613   1.346  1.00  0.00    -0.361 N 
HETATM   35  C7  UNL     1       5.004  -1.554   0.106  1.00  0.00     0.181 A 
ATOM     36  H9  UNL     1       5.113  -1.738   2.144  1.00  0.00     0.166 HD
HETATM   37  N10 UNL     1       4.184  -1.388  -0.949  1.00  0.00    -0.338 N 
HETATM   38  C8  UNL     1       2.854  -1.282  -0.765  1.00  0.00     0.113 A 
ATOM     39  H10 UNL     1       4.572  -1.342  -1.891  1.00  0.00     0.168 HD
BRANCH  38  40
HETATM   40  N11 UNL     1       2.078  -1.127  -1.780  1.00  0.00    -0.385 N 
ATOM     41 2H11 UNL     1       1.071  -1.047  -1.641  1.00  0.00     0.157 HD
ATOM     42 1H11 UNL     1       2.500  -1.086  -2.708  1.00  0.00     0.157 HD
ENDBRANCH  38  40
ENDBRANCH   5  32
TORSDOF 7
