REMARK  4 active torsions:
REMARK  status: ('A' for Active; 'I' for Inactive)
REMARK    1  A    between atoms: N1_1  and  C1_4 
REMARK    2  A    between atoms: N4_11  and  C4_12 
REMARK    3  A    between atoms: C4_12  and  C5_13 
REMARK    4  A    between atoms: C5_13  and  N5_14 
ROOT
HETATM    1  C1  UNL     1       0.886   0.906  -0.395  1.00  0.00     0.679 A 
HETATM    2  N2  UNL     1       2.066   0.617  -0.995  1.00  0.00    -0.188 N 
ATOM      3  H2  UNL     1       2.457   1.300  -1.644  1.00  0.00     0.185 HD
HETATM    4  C2  UNL     1       2.749  -0.519  -0.782  1.00  0.00     0.199 A 
HETATM    5  N3  UNL     1       2.219  -1.407   0.075  1.00  0.00    -0.347 N 
ATOM      6  H3  UNL     1       2.709  -2.282   0.262  1.00  0.00     0.167 HD
HETATM    7  C3  UNL     1       1.051  -1.155   0.689  1.00  0.00     0.201 A 
HETATM    8  N4  UNL     1       0.371   0.008   0.460  1.00  0.00    -0.178 N 
ENDROOT
BRANCH   8   9
HETATM    9  C4  UNL     1      -0.874   0.308   1.085  1.00  0.00     0.175 C 
BRANCH   9  10
HETATM   10  C5  UNL     1      -2.099  -0.164   0.394  1.00  0.00     0.250 C 
BRANCH  10  11
HETATM   11  N5  UNL     1      -2.274   0.361  -0.923  1.00  0.00    -0.078 N 
ATOM     12  H53 UNL     1      -2.246   1.380  -0.906  1.00  0.00     0.274 HD
ATOM     13  H52 UNL     1      -1.449   0.173  -1.493  1.00  0.00     0.274 HD
ATOM     14  H51 UNL     1      -3.116   0.036  -1.398  1.00  0.00     0.274 HD
ENDBRANCH  10  11
ENDBRANCH   9  10
ENDBRANCH   8   9
BRANCH   1  15
HETATM   15  N1  UNL     1       0.325   2.042  -0.675  1.00  0.00    -0.234 N 
ATOM     16  H12 UNL     1       0.716   2.724  -1.325  1.00  0.00     0.174 HD
ATOM     17  H11 UNL     1      -0.563   2.260  -0.223  1.00  0.00     0.174 HD
ENDBRANCH   1  15
TORSDOF 4
