REMARK  10 active torsions:
REMARK  status: ('A' for Active; 'I' for Inactive)
REMARK    1  A    between atoms: C2_2  and  C3_3 
REMARK    2  A    between atoms: C4_4  and  C5_5 
REMARK    3  A    between atoms: C5_5  and  C6_6 
REMARK    4  A    between atoms: C6_6  and  C7_7 
REMARK    5  A    between atoms: C7_7  and  C8_8 
REMARK    6  A    between atoms: C8_8  and  O2_10 
REMARK    7  A    between atoms: O2_10  and  C9_11 
REMARK    8  A    between atoms: C10_12  and  C11_13 
REMARK    9  A    between atoms: C13_17  and  O5_18 
REMARK   10  A    between atoms: C16_23  and  O7_25 
ROOT
HETATM    1  C9  UNL     1      -1.592  -0.133  -0.281  1.00  0.00     0.183 C 
HETATM    2  C10 UNL     1      -2.428   0.238  -1.486  1.00  0.00     0.122 C 
HETATM    3  C12 UNL     1      -3.322   1.393  -1.218  1.00  0.00     0.053 C 
HETATM    4  C13 UNL     1      -3.981   1.420   0.103  1.00  0.00     0.159 C 
HETATM    5  C14 UNL     1      -3.227   0.817   1.228  1.00  0.00     0.141 A 
HETATM    6  C15 UNL     1      -2.828   1.589   2.355  1.00  0.00     0.213 A 
HETATM    7  O6  UNL     1      -4.013   0.661   2.406  1.00  0.00    -0.369 OA
HETATM    8  C16 UNL     1      -2.516  -0.463   0.846  1.00  0.00     0.117 C 
HETATM    9  C17 UNL     1      -1.776  -1.004   2.051  1.00  0.00     0.052 C 
ENDROOT
BRANCH   1  10
HETATM   10  O2  UNL     1      -0.663  -1.136  -0.604  1.00  0.00    -0.308 OA
BRANCH  10  11
HETATM   11  C8  UNL     1       0.689  -0.851  -0.552  1.00  0.00     0.290 C 
HETATM   12  O1  UNL     1       1.090   0.283  -0.222  1.00  0.00    -0.260 OA
BRANCH  11  13
HETATM   13  C7  UNL     1       1.752  -1.883  -0.891  1.00  0.00     0.137 C 
BRANCH  13  14
HETATM   14  C6  UNL     1       3.027  -1.301  -0.776  1.00  0.00    -0.122 C 
BRANCH  14  15
HETATM   15  C5  UNL     1       4.172  -0.778  -0.673  1.00  0.00     0.055 C 
BRANCH  15  16
HETATM   16  C4  UNL     1       4.552  -0.251   0.668  1.00  0.00     0.008 C 
HETATM   17  C3  UNL     1       5.695   0.311   0.918  1.00  0.00    -0.000 C 
BRANCH  17  18
HETATM   18  C2  UNL     1       6.782   0.525  -0.028  1.00  0.00    -0.010 C 
HETATM   19  C1  UNL     1       7.914   1.104   0.308  1.00  0.00     0.011 C 
ENDBRANCH  17  18
ENDBRANCH  15  16
ENDBRANCH  14  15
ENDBRANCH  13  14
ENDBRANCH  11  13
ENDBRANCH  10  11
ENDBRANCH   1  10
BRANCH   2  20
HETATM   20  C11 UNL     1      -3.162  -0.898  -2.064  1.00  0.00     0.179 C 
HETATM   21  O3  UNL     1      -4.436  -0.854  -2.155  1.00  0.00    -0.648 OA
HETATM   22  O4  UNL     1      -2.510  -2.032  -2.519  1.00  0.00    -0.648 OA
ENDBRANCH   2  20
BRANCH   8  23
HETATM   23  O7  UNL     1      -3.483  -1.401   0.511  1.00  0.00    -0.384 OA
ATOM     24  H7  UNL     1      -4.070  -1.611   1.228  1.00  0.00     0.210 HD
ENDBRANCH   8  23
BRANCH   4  25
HETATM   25  O5  UNL     1      -4.214   2.777   0.435  1.00  0.00    -0.392 OA
ATOM     26  H5  UNL     1      -4.638   2.794   1.285  1.00  0.00     0.210 HD
ENDBRANCH   4  25
TORSDOF 10
