REMARK  8 active torsions:
REMARK  status: ('A' for Active; 'I' for Inactive)
REMARK       I    between atoms: C1_2  and  N1_3 
REMARK       I    between atoms: C1_2  and  N5_18 
REMARK    1  A    between atoms: N1_3  and  S1_5 
REMARK    2  A    between atoms: S1_5  and  N2_8 
REMARK    3  A    between atoms: N2_8  and  C2_10 
REMARK    4  A    between atoms: N5_18  and  O4_19 
REMARK    5  A    between atoms: N5_18  and  C6_21 
REMARK    6  A    between atoms: C6_21  and  C7_22 
REMARK    7  A    between atoms: C8_23  and  C9_24 
REMARK    8  A    between atoms: C9_24  and  C10_25 
ROOT
HETATM    1  O1  UNL     1      -0.266  -0.414  -3.687  1.00  0.00    -0.244 OA
HETATM    2  C1  UNL     1      -0.266   0.634  -2.954  1.00  0.00     0.357 C 
HETATM    3  N1  UNL     1       0.936   1.355  -2.727  1.00  0.00    -0.216 N 
ATOM      4  H1  UNL     1       0.951   2.194  -2.147  1.00  0.00     0.185 HD
HETATM    5  N5  UNL     1      -1.479   1.061  -2.375  1.00  0.00    -0.206 N 
ENDROOT
BRANCH   3   6
HETATM    6  S1  UNL     1       2.384   0.745  -3.481  1.00  0.00     0.340 S 
HETATM    7  O2  UNL     1       3.612   1.363  -2.905  1.00  0.00    -0.182 OA
HETATM    8  O3  UNL     1       2.342   1.000  -4.952  1.00  0.00    -0.182 OA
BRANCH   6   9
HETATM    9  N2  UNL     1       2.418  -0.949  -3.122  1.00  0.00    -0.100 N 
ATOM     10  H2  UNL     1       2.011  -1.599  -3.795  1.00  0.00     0.199 HD
BRANCH   9  11
HETATM   11  C2  UNL     1       2.986  -1.471  -1.935  1.00  0.00     0.684 C 
HETATM   12  N3  UNL     1       4.223  -1.747  -1.871  1.00  0.00    -0.226 N 
HETATM   13  C3  UNL     1       4.840  -2.282  -0.679  1.00  0.00     0.139 C 
ATOM     14  H3  UNL     1       4.804  -1.585  -2.693  1.00  0.00     0.177 HD
HETATM   15  C4  UNL     1       4.127  -1.842   0.582  1.00  0.00     0.040 C 
HETATM   16  C5  UNL     1       2.674  -2.257   0.425  1.00  0.00     0.139 C 
HETATM   17  N4  UNL     1       2.157  -1.689  -0.802  1.00  0.00    -0.226 N 
ATOM     18  H4  UNL     1       1.170  -1.438  -0.855  1.00  0.00     0.177 HD
ENDBRANCH   9  11
ENDBRANCH   6   9
ENDBRANCH   3   6
BRANCH   5  19
HETATM   19  O4  UNL     1      -2.620   0.341  -2.616  1.00  0.00    -0.283 OA
ATOM     20  H4  UNL     1      -3.437   0.629  -2.226  1.00  0.00     0.245 HD
ENDBRANCH   5  19
BRANCH   5  21
HETATM   21  C6  UNL     1      -1.530   2.235  -1.538  1.00  0.00     0.188 C 
BRANCH  21  22
HETATM   22  C7  UNL     1      -1.294   1.939  -0.099  1.00  0.00    -0.009 C 
HETATM   23  C8  UNL     1      -2.217   2.207   0.807  1.00  0.00    -0.029 C 
BRANCH  23  24
HETATM   24  C9  UNL     1      -2.047   1.938   2.261  1.00  0.00     0.031 C 
BRANCH  24  25
HETATM   25  C10 UNL     1      -3.099   0.987   2.700  1.00  0.00    -0.011 C 
HETATM   26  C11 UNL     1      -3.138   0.565   4.136  1.00  0.00     0.005 C 
HETATM   27  C12 UNL     1      -3.661  -0.791   3.618  1.00  0.00     0.001 C 
HETATM   28  C13 UNL     1      -2.790  -0.490   2.384  1.00  0.00     0.005 C 
ENDBRANCH  24  25
ENDBRANCH  23  24
ENDBRANCH  21  22
ENDBRANCH   5  21
TORSDOF 8
