REMARK  7 active torsions:
REMARK  status: ('A' for Active; 'I' for Inactive)
REMARK    1  A    between atoms: N1_1  and  N2_4 
REMARK    2  A    between atoms: N2_4  and  N3_5 
REMARK    3  A    between atoms: N3_5  and  N4_7 
REMARK       I    between atoms: N4_7  and  C1_9 
REMARK    4  A    between atoms: C1_9  and  C2_11 
REMARK    5  A    between atoms: C3_15  and  N6_16 
REMARK    6  A    between atoms: N6_16  and  N7_18 
REMARK    7  A    between atoms: N7_18  and  C4_20 
ROOT
HETATM    1  C2  UNL     1      -2.028  -0.816   0.226  1.00  0.00     0.153 A 
HETATM    2  N5  UNL     1      -1.438  -0.120  -0.771  1.00  0.00    -0.314 N 
ATOM      3  H5  UNL     1      -1.932   0.541  -1.370  1.00  0.00     0.175 HD
HETATM    4  S1  UNL     1       0.208  -0.467  -0.915  1.00  0.00     0.014 SA
HETATM    5  C3  UNL     1       0.609  -1.607   0.265  1.00  0.00     0.149 A 
HETATM    6  S2  UNL     1      -0.898  -1.819   1.007  1.00  0.00    -0.038 SA
ENDROOT
BRANCH   5   7
HETATM    7  N6  UNL     1       1.762  -2.128   0.483  1.00  0.00    -0.272 N 
ATOM      8  H6  UNL     1       1.893  -2.813   1.227  1.00  0.00     0.188 HD
BRANCH   7   9
HETATM    9  N7  UNL     1       2.828  -1.736  -0.319  1.00  0.00    -0.129 N 
ATOM     10  H7  UNL     1       3.212  -2.377  -1.013  1.00  0.00     0.205 HD
BRANCH   9  11
HETATM   11  C4  UNL     1       3.330  -0.548  -0.178  1.00  0.00     0.712 A 
HETATM   12  N8  UNL     1       2.975   0.435   0.665  1.00  0.00    -0.184 N 
HETATM   13  C5  UNL     1       3.777   1.496   0.457  1.00  0.00     0.215 A 
ATOM     14  H8  UNL     1       2.221   0.386   1.351  1.00  0.00     0.185 HD
HETATM   15  N9  UNL     1       4.617   1.160  -0.509  1.00  0.00    -0.281 N 
HETATM   16  N10 UNL     1       4.357  -0.071  -0.900  1.00  0.00    -0.130 N 
ATOM     17  H9  UNL     1       5.349   1.759  -0.890  1.00  0.00     0.188 HD
ATOM     18  H10 UNL     1       4.854  -0.579  -1.632  1.00  0.00     0.205 HD
ENDBRANCH   9  11
ENDBRANCH   7   9
ENDBRANCH   5   7
BRANCH   1  19
HETATM   19  C1  UNL     1      -3.443  -0.714   0.575  1.00  0.00     0.296 C 
HETATM   20  N4  UNL     1      -4.311   0.155  -0.138  1.00  0.00    -0.238 N 
ATOM     21  H4  UNL     1      -3.964   0.726  -0.909  1.00  0.00     0.193 HD
HETATM   22  O1  UNL     1      -3.890  -1.409   1.523  1.00  0.00    -0.264 OA
BRANCH  20  23
HETATM   23  N3  UNL     1      -5.650   0.206   0.245  1.00  0.00    -0.153 N 
ATOM     24  H3  UNL     1      -6.178  -0.658   0.367  1.00  0.00     0.226 HD
BRANCH  23  25
HETATM   25  N2  UNL     1      -6.196   1.291   0.436  1.00  0.00    -0.228 NA
BRANCH  25  26
HETATM   26  N1  UNL     1      -6.699   2.398   0.474  1.00  0.00    -0.259 N 
ATOM     27  H12 UNL     1      -6.398   2.474  -0.498  1.00  0.00     0.193 HD
ATOM     28  H11 UNL     1      -7.152   3.298   0.632  1.00  0.00     0.193 HD
ENDBRANCH  25  26
ENDBRANCH  23  25
ENDBRANCH  20  23
ENDBRANCH   1  19
TORSDOF 7
