REMARK  7 active torsions:
REMARK  status: ('A' for Active; 'I' for Inactive)
REMARK    1  A    between atoms: N5_15  and  C6_16 
REMARK    2  A    between atoms: C6_16  and  C7_17 
REMARK    3  A    between atoms: C7_17  and  C8_18 
REMARK    4  A    between atoms: C8_18  and  N6_19 
REMARK    5  A    between atoms: C9_21  and  C10_22 
REMARK    6  A    between atoms: C13_31  and  N9_32 
REMARK    7  A    between atoms: N9_32  and  N10_34 
ROOT
HETATM    1  C8  UNL     1       0.058  -0.090  -0.899  1.00  0.00     0.120 C 
ENDROOT
BRANCH   1   2
HETATM    2  C7  UNL     1       0.578  -0.945   0.225  1.00  0.00     0.040 C 
BRANCH   2   3
HETATM    3  C6  UNL     1       1.798  -1.723  -0.134  1.00  0.00     0.133 C 
BRANCH   3   4
HETATM    4  N5  UNL     1       2.920  -0.925  -0.575  1.00  0.00    -0.327 N 
HETATM    5  C3  UNL     1       3.876  -0.382   0.183  1.00  0.00     0.140 A 
HETATM    6  N3  UNL     1       4.124  -0.355   1.505  1.00  0.00    -0.336 N 
HETATM    7  C4  UNL     1       4.787   0.297  -0.627  1.00  0.00     0.122 A 
HETATM    8  C2  UNL     1       5.175   0.277   2.042  1.00  0.00     0.183 A 
ATOM      9  H3  UNL     1       3.479  -0.840   2.129  1.00  0.00     0.168 HD
HETATM   10  N2  UNL     1       6.060   0.935   1.267  1.00  0.00    -0.337 N 
HETATM   11  C1  UNL     1       5.856   0.937  -0.054  1.00  0.00     0.131 A 
ATOM     12  H2  UNL     1       6.861   1.417   1.676  1.00  0.00     0.168 HD
HETATM   13  N1  UNL     1       6.706   1.568  -0.806  1.00  0.00    -0.383 N 
ATOM     14  H12 UNL     1       7.501   2.044  -0.380  1.00  0.00     0.157 HD
ATOM     15  H11 UNL     1       6.550   1.570  -1.814  1.00  0.00     0.157 HD
HETATM   16  N4  UNL     1       4.340   0.136  -1.878  1.00  0.00    -0.346 N 
HETATM   17  C5  UNL     1       3.216  -0.598  -1.846  1.00  0.00     0.185 A 
ATOM     18  H4  UNL     1       4.781   0.510  -2.718  1.00  0.00     0.167 HD
ENDBRANCH   3   4
ENDBRANCH   2   3
ENDBRANCH   1   2
BRANCH   1  19
HETATM   19  N6  UNL     1      -1.152   0.627  -0.497  1.00  0.00    -0.397 N 
HETATM   20  C9  UNL     1      -2.246  -0.019  -0.284  1.00  0.00     0.115 C 
ATOM     21  H6  UNL     1      -1.129   1.641  -0.385  1.00  0.00     0.158 HD
BRANCH  20  22
HETATM   22  C10 UNL     1      -3.464   0.622   0.109  1.00  0.00     0.085 A 
HETATM   23  N7  UNL     1      -3.613   1.942   0.309  1.00  0.00    -0.305 N 
HETATM   24  C11 UNL     1      -4.805   2.476   0.659  1.00  0.00     0.327 A 
ATOM     25  H7  UNL     1      -2.807   2.557   0.194  1.00  0.00     0.171 HD
HETATM   26  O1  UNL     1      -4.933   3.720   0.843  1.00  0.00    -0.247 OA
HETATM   27  N8  UNL     1      -5.913   1.742   0.832  1.00  0.00    -0.273 N 
HETATM   28  C12 UNL     1      -5.827   0.402   0.646  1.00  0.00     0.279 A 
ATOM     29  H8  UNL     1      -6.796   2.179   1.096  1.00  0.00     0.173 HD
HETATM   30  O2  UNL     1      -6.829  -0.347   0.793  1.00  0.00    -0.265 OA
HETATM   31  C13 UNL     1      -4.619  -0.152   0.290  1.00  0.00     0.144 A 
BRANCH  31  32
HETATM   32  N9  UNL     1      -4.512  -1.575   0.100  1.00  0.00    -0.300 N 
ATOM     33  H9  UNL     1      -4.434  -2.216   0.889  1.00  0.00     0.186 HD
BRANCH  32  34
HETATM   34  N10 UNL     1      -4.520  -2.030  -1.210  1.00  0.00    -0.344 N 
ATOM     35 2H10 UNL     1      -4.598  -1.376  -1.989  1.00  0.00     0.176 HD
ATOM     36 1H10 UNL     1      -4.444  -3.038  -1.345  1.00  0.00     0.176 HD
ENDBRANCH  32  34
ENDBRANCH  31  32
ENDBRANCH  20  22
ENDBRANCH   1  19
TORSDOF 7
