REMARK  8 active torsions:
REMARK  status: ('A' for Active; 'I' for Inactive)
REMARK    1  A    between atoms: C2_2  and  N1_3 
REMARK    2  A    between atoms: N1_3  and  C3_5 
REMARK    3  A    between atoms: N3_8  and  C4_9 
REMARK    4  A    between atoms: C4_9  and  C5_10 
REMARK    5  A    between atoms: C5_10  and  N4_11 
REMARK    6  A    between atoms: N4_11  and  C6_13 
REMARK    7  A    between atoms: C9_20  and  N7_21 
REMARK    8  A    between atoms: C13_34  and  N11_35 
ROOT
HETATM    1  N4  UNL     1       1.469   0.663   0.337  1.00  0.00    -0.373 N 
ATOM      2  H4  UNL     1       1.537   1.623  -0.002  1.00  0.00     0.161 HD
ENDROOT
BRANCH   1   3
HETATM    3  C5  UNL     1       0.159   0.182   0.644  1.00  0.00     0.143 C 
BRANCH   3   4
HETATM    4  C4  UNL     1      -0.458  -0.485  -0.582  1.00  0.00     0.173 C 
BRANCH   4   5
HETATM    5  N3  UNL     1      -1.784  -0.971  -0.265  1.00  0.00    -0.239 N 
HETATM    6  N2  UNL     1      -2.866  -0.242  -0.420  1.00  0.00    -0.276 N 
HETATM    7  C3  UNL     1      -4.121  -0.698  -0.121  1.00  0.00     0.160 A 
ATOM      8  H2  UNL     1      -2.766   0.707  -0.780  1.00  0.00     0.189 HD
HETATM    9  C13 UNL     1      -4.204  -1.981   0.359  1.00  0.00     0.149 A 
HETATM   10  N10 UNL     1      -3.096  -2.755   0.528  1.00  0.00    -0.290 N 
HETATM   11  C12 UNL     1      -1.910  -2.217   0.206  1.00  0.00     0.342 A 
ATOM     12  H10 UNL     1      -3.165  -3.708   0.886  1.00  0.00     0.172 HD
HETATM   13  O1  UNL     1      -0.876  -2.915   0.354  1.00  0.00    -0.245 OA
BRANCH   7  14
HETATM   14  N1  UNL     1      -5.238   0.158  -0.319  1.00  0.00    -0.372 N 
ATOM     15  H1  UNL     1      -6.176  -0.176  -0.099  1.00  0.00     0.161 HD
BRANCH  14  16
HETATM   16  C2  UNL     1      -5.053   1.509  -0.834  1.00  0.00     0.117 C 
HETATM   17  C1  UNL     1      -4.162   2.228   0.154  1.00  0.00     0.026 C 
ENDBRANCH  14  16
ENDBRANCH   7  14
BRANCH   9  18
HETATM   18  N11 UNL     1      -5.324  -2.494   0.665  1.00  0.00    -0.382 N 
ATOM     19 2H11 UNL     1      -6.154  -1.914   0.538  1.00  0.00     0.157 HD
ATOM     20 1H11 UNL     1      -5.386  -3.448   1.022  1.00  0.00     0.157 HD
ENDBRANCH   9  18
ENDBRANCH   4   5
ENDBRANCH   3   4
ENDBRANCH   1   3
BRANCH   1  21
HETATM   21  C6  UNL     1       2.557   0.018   0.443  1.00  0.00     0.131 A 
HETATM   22  N5  UNL     1       2.667  -1.255   0.870  1.00  0.00    -0.337 N 
HETATM   23  C7  UNL     1       3.851  -1.897   0.965  1.00  0.00     0.182 A 
ATOM     24  H5  UNL     1       1.818  -1.756   1.133  1.00  0.00     0.168 HD
HETATM   25  N6  UNL     1       4.972  -1.238   0.617  1.00  0.00    -0.347 N 
HETATM   26  C8  UNL     1       4.935   0.042   0.179  1.00  0.00     0.108 A 
ATOM     27  H6  UNL     1       5.871  -1.715   0.685  1.00  0.00     0.167 HD
HETATM   28  C9  UNL     1       6.078   0.735  -0.183  1.00  0.00     0.129 A 
HETATM   29  C11 UNL     1       3.726   0.698   0.082  1.00  0.00     0.108 A 
HETATM   30  N8  UNL     1       6.032   2.010  -0.619  1.00  0.00    -0.337 N 
HETATM   31  C10 UNL     1       4.847   2.622  -0.702  1.00  0.00     0.182 A 
ATOM     32  H8  UNL     1       6.888   2.499  -0.881  1.00  0.00     0.168 HD
HETATM   33  N9  UNL     1       3.725   1.959  -0.353  1.00  0.00    -0.347 N 
ATOM     34  H9  UNL     1       2.832   2.446  -0.425  1.00  0.00     0.167 HD
BRANCH  28  35
HETATM   35  N7  UNL     1       7.198   0.098  -0.084  1.00  0.00    -0.384 N 
ATOM     36  H72 UNL     1       7.233  -0.867   0.246  1.00  0.00     0.157 HD
ATOM     37  H71 UNL     1       8.040   0.608  -0.351  1.00  0.00     0.157 HD
ENDBRANCH  28  35
ENDBRANCH   1  21
TORSDOF 8
