REMARK  6 active torsions:
REMARK  status: ('A' for Active; 'I' for Inactive)
REMARK    1  A    between atoms: C2_2  and  N1_3 
REMARK    2  A    between atoms: N1_3  and  S1_4 
REMARK    3  A    between atoms: N1_3  and  C3_8 
REMARK    4  A    between atoms: S1_4  and  N2_5 
REMARK    5  A    between atoms: C5_12  and  N4_13 
REMARK    6  A    between atoms: C10_22  and  N7_23 
ROOT
HETATM    1  C3  UNL     1       1.931   0.735  -0.067  1.00  0.00     0.185 A 
HETATM    2  N3  UNL     1       0.612   0.426  -0.128  1.00  0.00    -0.331 N 
ATOM      3  H3  UNL     1       0.332  -0.554  -0.085  1.00  0.00     0.168 HD
HETATM    4  C4  UNL     1      -0.341   1.372  -0.243  1.00  0.00     0.124 A 
HETATM    5  C5  UNL     1      -1.684   1.048  -0.305  1.00  0.00     0.150 A 
HETATM    6  N6  UNL     1      -2.582   2.055  -0.420  1.00  0.00    -0.175 N 
ATOM      7  H6  UNL     1      -3.573   1.819  -0.466  1.00  0.00     0.186 HD
HETATM    8  C10 UNL     1      -2.228   3.351  -0.477  1.00  0.00     0.679 A 
HETATM    9  N8  UNL     1      -0.922   3.630  -0.414  1.00  0.00    -0.174 N 
ATOM     10  H8  UNL     1      -0.642   4.610  -0.456  1.00  0.00     0.186 HD
HETATM   11  C11 UNL     1       0.047   2.705  -0.299  1.00  0.00     0.154 A 
HETATM   12  N9  UNL     1       1.351   3.046  -0.241  1.00  0.00    -0.304 N 
ATOM     13  H9  UNL     1       1.637   4.024  -0.282  1.00  0.00     0.171 HD
HETATM   14  C12 UNL     1       2.268   2.061  -0.127  1.00  0.00     0.292 A 
HETATM   15  O1  UNL     1       3.466   2.392  -0.075  1.00  0.00    -0.264 OA
ENDROOT
BRANCH   1  16
HETATM   16  N1  UNL     1       2.869  -0.304   0.058  1.00  0.00    -0.285 N 
BRANCH  16  17
HETATM   17  C2  UNL     1       3.676  -0.466   1.234  1.00  0.00     0.136 C 
HETATM   18  C1  UNL     1       3.399   0.478   2.350  1.00  0.00     0.028 C 
ENDBRANCH  16  17
BRANCH  16  19
HETATM   19  S1  UNL     1       3.078  -1.418  -1.241  1.00  0.00     0.064 SA
BRANCH  19  20
HETATM   20  N2  UNL     1       3.554  -2.983  -0.681  1.00  0.00    -0.356 N 
ATOM     21  H22 UNL     1       3.691  -3.205   0.305  1.00  0.00     0.165 HD
ATOM     22  H21 UNL     1       3.678  -3.642  -1.450  1.00  0.00     0.165 HD
ENDBRANCH  19  20
ENDBRANCH  16  19
ENDBRANCH   1  16
BRANCH   5  23
HETATM   23  N4  UNL     1      -2.115  -0.295  -0.250  1.00  0.00    -0.362 N 
HETATM   24  C6  UNL     1      -2.242  -1.068  -1.461  1.00  0.00     0.143 C 
HETATM   25  C7  UNL     1      -2.396  -2.534  -1.205  1.00  0.00     0.133 C 
HETATM   26  N5  UNL     1      -3.230  -2.886  -0.104  1.00  0.00    -0.418 N 
HETATM   27  C8  UNL     1      -3.654  -1.801   0.726  1.00  0.00     0.133 C 
ATOM     28  H5  UNL     1      -3.507  -3.850   0.080  1.00  0.00     0.153 HD
HETATM   29  C9  UNL     1      -2.440  -0.926   1.006  1.00  0.00     0.143 C 
ENDBRANCH   5  23
BRANCH   8  30
HETATM   30  N7  UNL     1      -3.147   4.272  -0.587  1.00  0.00    -0.234 N 
ATOM     31  H72 UNL     1      -4.143   4.059  -0.635  1.00  0.00     0.174 HD
ATOM     32  H71 UNL     1      -2.878   5.255  -0.630  1.00  0.00     0.174 HD
ENDBRANCH   8  30
TORSDOF 6
