REMARK  2 active torsions:
REMARK  status: ('A' for Active; 'I' for Inactive)
REMARK    1  A    between atoms: C3_4  and  N2_5 
REMARK    2  A    between atoms: C4_7  and  C6_10 
ROOT
HETATM    1  N2  UNL     1       0.300  -0.646  -1.846  1.00  0.00    -0.339 N 
ATOM      2  H2  UNL     1       0.832  -1.062  -2.611  1.00  0.00     0.167 HD
HETATM    3  C4  UNL     1      -0.924  -0.784  -2.012  1.00  0.00     0.161 C 
HETATM    4  C5  UNL     1      -1.355  -1.489  -3.226  1.00  0.00     0.121 C 
HETATM    5  N3  UNL     1      -1.682  -2.060  -4.177  1.00  0.00    -0.190 NA
ENDROOT
BRANCH   3   6
HETATM    6  C6  UNL     1      -2.002  -0.327  -1.138  1.00  0.00     0.173 A 
HETATM    7  N4  UNL     1      -3.338  -0.517  -1.386  1.00  0.00    -0.268 N 
HETATM    8  N5  UNL     1      -4.048   0.001  -0.429  1.00  0.00    -0.131 N 
ATOM      9  H4  UNL     1      -3.718  -0.995  -2.203  1.00  0.00     0.189 HD
HETATM   10  C7  UNL     1      -3.236   0.549   0.485  1.00  0.00     0.692 A 
ATOM     11  H5  UNL     1      -5.067  -0.008  -0.381  1.00  0.00     0.205 HD
HETATM   12  N6  UNL     1      -3.512   1.164   1.587  1.00  0.00    -0.233 N 
HETATM   13  N7  UNL     1      -1.976   0.332   0.022  1.00  0.00    -0.171 N 
ATOM     14  H62 UNL     1      -4.457   1.327   1.934  1.00  0.00     0.174 HD
ATOM     15  H61 UNL     1      -2.894   1.581   2.283  1.00  0.00     0.174 HD
ATOM     16  H7  UNL     1      -1.125   0.633   0.498  1.00  0.00     0.186 HD
ENDBRANCH   3   6
BRANCH   1  17
HETATM   17  C3  UNL     1       1.125  -0.082  -0.906  1.00  0.00     0.118 A 
HETATM   18  C2  UNL     1       1.587  -0.846   0.153  1.00  0.00     0.130 A 
HETATM   19  N1  UNL     1       2.392  -0.343   1.070  1.00  0.00    -0.312 N 
HETATM   20  C1  UNL     1       2.901  -1.124   2.206  1.00  0.00     0.160 C 
HETATM   21  C9  UNL     1       2.787   0.927   1.002  1.00  0.00     0.328 A 
HETATM   22  N8  UNL     1       2.357   1.695  -0.014  1.00  0.00    -0.273 N 
HETATM   23  O2  UNL     1       3.547   1.430   1.852  1.00  0.00    -0.246 OA
HETATM   24  C8  UNL     1       1.539   1.250  -0.978  1.00  0.00     0.277 A 
ATOM     25  H8  UNL     1       2.669   2.665  -0.053  1.00  0.00     0.173 HD
HETATM   26  O1  UNL     1       1.142   1.995  -1.933  1.00  0.00    -0.266 OA
ENDBRANCH   1  17
TORSDOF 2
