REMARK  2 active torsions:
REMARK  status: ('A' for Active; 'I' for Inactive)
REMARK    1  A    between atoms: C4_7  and  N3_8 
REMARK    2  A    between atoms: C5_11  and  C6_12 
REMARK       I    between atoms: C6_12  and  N5_14 
ROOT
HETATM    1  N1  UNL     1       7.128   1.219  -1.136  1.00  0.00    -0.190 NA
HETATM    2  C1  UNL     1       6.065   1.075  -0.694  1.00  0.00     0.119 C 
HETATM    3  C2  UNL     1       4.754   0.912  -0.130  1.00  0.00     0.145 A 
HETATM    4  C3  UNL     1       4.309   1.270   1.130  1.00  0.00     0.147 A 
HETATM    5  N2  UNL     1       3.011   0.941   1.253  1.00  0.00    -0.196 N 
ATOM      6  H2  UNL     1       2.428   1.091   2.077  1.00  0.00     0.183 HD
HETATM    7  C4  UNL     1       2.625   0.388   0.114  1.00  0.00     0.720 A 
HETATM    8  N9  UNL     1       3.675   0.370  -0.723  1.00  0.00    -0.177 N 
ATOM      9  H9  UNL     1       3.657  -0.002  -1.673  1.00  0.00     0.185 HD
ENDROOT
BRANCH   7  10
HETATM   10  N3  UNL     1       1.293  -0.096  -0.135  1.00  0.00    -0.017 N 
HETATM   11  N4  UNL     1       0.129   0.454  -0.397  1.00  0.00    -0.243 N 
HETATM   12  C5  UNL     1      -0.508  -0.708  -0.475  1.00  0.00     0.209 A 
ATOM     13  H4  UNL     1      -0.175   1.422  -0.502  1.00  0.00     0.191 HD
HETATM   14  N8  UNL     1       0.721  -1.277  -0.199  1.00  0.00    -0.243 N 
ATOM     15  H8  UNL     1       1.053  -2.235  -0.089  1.00  0.00     0.191 HD
BRANCH  12  16
HETATM   16  C6  UNL     1      -1.818  -1.314  -0.714  1.00  0.00     0.307 C 
HETATM   17  O1  UNL     1      -1.881  -2.447  -1.315  1.00  0.00    -0.263 OA
HETATM   18  N5  UNL     1      -2.999  -0.682  -0.301  1.00  0.00    -0.174 N 
HETATM   19  C7  UNL     1      -4.225  -1.231  -0.546  1.00  0.00     0.352 A 
HETATM   20  C8  UNL     1      -3.156   0.457   0.358  1.00  0.00     0.352 A 
HETATM   21  O2  UNL     1      -4.491  -2.317  -1.151  1.00  0.00    -0.244 OA
HETATM   22  N6  UNL     1      -5.121  -0.394  -0.018  1.00  0.00    -0.247 N 
HETATM   23  N7  UNL     1      -4.498   0.623   0.528  1.00  0.00    -0.247 N 
ATOM     24  H6  UNL     1      -6.132  -0.525  -0.036  1.00  0.00     0.192 HD
ATOM     25  H7  UNL     1      -4.944   1.408   1.002  1.00  0.00     0.192 HD
HETATM   26  O3  UNL     1      -2.322   1.288   0.788  1.00  0.00    -0.244 OA
ENDBRANCH  12  16
ENDBRANCH   7  10
TORSDOF 2
