REMARK  4 active torsions:
REMARK  status: ('A' for Active; 'I' for Inactive)
REMARK    1  A    between atoms: O1_2  and  N1_3 
REMARK    2  A    between atoms: N1_3  and  C2_5 
REMARK    3  A    between atoms: C3_8  and  O2_9 
REMARK    4  A    between atoms: N3_14  and  N4_15 
ROOT
HETATM    1  C2  UNL     1       1.187   0.351  -0.190  1.00  0.00     0.729 A 
HETATM    2  N2  UNL     1       2.310   1.054   0.048  1.00  0.00    -0.167 N 
ATOM      3  H2  UNL     1       3.228   0.641  -0.119  1.00  0.00     0.186 HD
HETATM    4  C3  UNL     1       2.198   2.301   0.506  1.00  0.00     0.160 A 
HETATM    5  C4  UNL     1       0.991   2.911   0.749  1.00  0.00     0.133 A 
HETATM    6  C5  UNL     1      -0.140   2.139   0.485  1.00  0.00     0.288 A 
HETATM    7  O3  UNL     1      -1.288   2.598   0.671  1.00  0.00    -0.265 OA
HETATM    8  N3  UNL     1      -0.030   0.877   0.022  1.00  0.00    -0.031 N 
ENDROOT
BRANCH   8   9
HETATM    9  N4  UNL     1      -1.193   0.151  -0.206  1.00  0.00    -0.195 N 
HETATM   10  N5  UNL     1      -1.638  -0.304  -1.412  1.00  0.00    -0.076 NA
HETATM   11  C6  UNL     1      -3.012  -0.680  -1.363  1.00  0.00     0.363 C 
HETATM   12  N6  UNL     1      -3.072  -1.886  -0.548  1.00  0.00    -0.044 N 
HETATM   13  S1  UNL     1      -3.601   0.476  -0.032  1.00  0.00    -0.088 SA
HETATM   14  C7  UNL     1      -2.417  -1.646   0.690  1.00  0.00     0.274 C 
ATOM     15  H62 UNL     1      -4.027  -2.221  -0.422  1.00  0.00     0.280 HD
ATOM     16  H61 UNL     1      -2.696  -2.701  -1.033  1.00  0.00     0.280 HD
HETATM   17  C8  UNL     1      -2.124  -0.200   0.872  1.00  0.00     0.214 C 
ENDBRANCH   8   9
BRANCH   1  18
HETATM   18  N1  UNL     1       1.256  -0.862  -0.653  1.00  0.00    -0.095 N 
ATOM     19  H1  UNL     1       0.412  -1.404  -0.837  1.00  0.00     0.213 HD
BRANCH  18  20
HETATM   20  O1  UNL     1       2.499  -1.389  -0.886  1.00  0.00    -0.271 OA
HETATM   21  C1  UNL     1       2.973  -2.486  -0.150  1.00  0.00     0.238 C 
ENDBRANCH  18  20
ENDBRANCH   1  18
BRANCH   4  22
HETATM   22  O2  UNL     1       3.356   3.049   0.763  1.00  0.00    -0.346 OA
ATOM     23  H2  UNL     1       3.276   3.938   1.089  1.00  0.00     0.219 HD
ENDBRANCH   4  22
TORSDOF 4
