REMARK  4 active torsions:
REMARK  status: ('A' for Active; 'I' for Inactive)
REMARK       I    between atoms: C1_4  and  N2_5 
REMARK       I    between atoms: C1_4  and  N4_10 
REMARK    1  A    between atoms: N2_5  and  N3_7 
REMARK    2  A    between atoms: C2_11  and  C3_12 
REMARK    3  A    between atoms: C4_17  and  C5_18 
REMARK    4  A    between atoms: C9_24  and  O4_25 
ROOT
HETATM    1  N1  UNL     1      -2.882   1.296   1.465  1.00  0.00    -0.233 N 
ATOM      2  H11 UNL     1      -2.178   1.612   2.133  1.00  0.00     0.174 HD
ATOM      3  H12 UNL     1      -3.853   1.605   1.498  1.00  0.00     0.174 HD
HETATM    4  C1  UNL     1      -2.536   0.469   0.542  1.00  0.00     0.700 C 
HETATM    5  N2  UNL     1      -3.513   0.030  -0.385  1.00  0.00    -0.138 N 
ATOM      6  H2  UNL     1      -3.408  -0.897  -0.797  1.00  0.00     0.205 HD
HETATM    7  N4  UNL     1      -1.176   0.036   0.496  1.00  0.00    -0.103 N 
HETATM    8  C2  UNL     1      -0.669  -1.110   1.012  1.00  0.00     0.197 A 
HETATM    9  N6  UNL     1       0.644  -1.116   0.746  1.00  0.00    -0.333 N 
ATOM     10  H6  UNL     1       1.284  -1.862   1.019  1.00  0.00     0.168 HD
HETATM   11  C4  UNL     1       1.008  -0.013   0.074  1.00  0.00     0.096 A 
HETATM   12  C9  UNL     1      -0.135   0.704  -0.079  1.00  0.00     0.193 A 
ENDROOT
BRANCH   8  13
HETATM   13  C3  UNL     1      -1.416  -2.150   1.728  1.00  0.00     0.300 C 
HETATM   14  N5  UNL     1      -2.797  -2.022   1.942  1.00  0.00    -0.054 NA
HETATM   15  O1  UNL     1      -0.796  -3.144   2.139  1.00  0.00    -0.268 OA
ENDBRANCH   8  13
BRANCH  12  16
HETATM   16  O4  UNL     1      -0.309   1.921  -0.702  1.00  0.00    -0.344 OA
ATOM     17  H4  UNL     1       0.416   2.386  -1.102  1.00  0.00     0.219 HD
ENDBRANCH  12  16
BRANCH   5  18
HETATM   18  N3  UNL     1      -4.614   0.803  -0.764  1.00  0.00    -0.331 N 
ATOM     19  H32 UNL     1      -4.704   1.727  -0.342  1.00  0.00     0.177 HD
ATOM     20  H31 UNL     1      -5.318   0.487  -1.432  1.00  0.00     0.177 HD
ENDBRANCH   5  18
BRANCH  11  21
HETATM   21  C5  UNL     1       2.376   0.288  -0.370  1.00  0.00     0.018 C 
HETATM   22  C6  UNL     1       2.685   1.383  -1.026  1.00  0.00     0.149 C 
HETATM   23  O2  UNL     1       4.023   1.592  -1.414  1.00  0.00    -0.337 OA
HETATM   24  C7  UNL     1       4.991   0.564  -1.187  1.00  0.00     0.343 C 
HETATM   25  O3  UNL     1       4.704  -0.006   0.048  1.00  0.00    -0.362 OA
HETATM   26  C8  UNL     1       3.466  -0.673  -0.074  1.00  0.00     0.213 C 
ENDBRANCH  11  21
TORSDOF 4
