REMARK  11 active torsions:
REMARK  status: ('A' for Active; 'I' for Inactive)
REMARK    1  A    between atoms: C2_2  and  S1_5 
REMARK    2  A    between atoms: S1_5  and  C5_6 
REMARK    3  A    between atoms: C5_6  and  C6_7 
REMARK    4  A    between atoms: C7_9  and  C8_10 
REMARK    5  A    between atoms: C9_12  and  C10_13 
REMARK    6  A    between atoms: C10_13  and  C11_14 
REMARK    7  A    between atoms: C12_15  and  C13_16 
REMARK    8  A    between atoms: C13_16  and  C14_17 
REMARK    9  A    between atoms: C16_21  and  C17_22 
REMARK   10  A    between atoms: C21_27  and  O4_28 
REMARK   11  A    between atoms: C22_30  and  O5_31 
ROOT
HETATM    1  C8  UNL     1       1.143   1.021   0.165  1.00  0.00     0.187 C 
HETATM    2  O2  UNL     1       1.240   0.260  -1.035  1.00  0.00    -0.373 OA
HETATM    3  C9  UNL     1       2.459  -0.430  -1.057  1.00  0.00     0.149 C 
HETATM    4  C15 UNL     1       3.608   0.581  -0.991  1.00  0.00     0.201 C 
HETATM    5  O3  UNL     1       3.033   1.831  -1.090  1.00  0.00    -0.376 OA
HETATM    6  C16 UNL     1       2.236   2.011   0.082  1.00  0.00     0.193 C 
ENDROOT
BRANCH   1   7
HETATM    7  C7  UNL     1      -0.262   1.553   0.287  1.00  0.00     0.185 C 
HETATM    8  O1  UNL     1      -1.112   0.448   0.139  1.00  0.00    -0.372 OA
HETATM    9  C6  UNL     1      -2.252   0.703   0.898  1.00  0.00     0.162 C 
HETATM   10  C22 UNL     1      -1.725   1.227   2.185  1.00  0.00     0.179 C 
HETATM   11  C21 UNL     1      -0.497   1.999   1.740  1.00  0.00     0.181 C 
BRANCH   9  12
HETATM   12  C5  UNL     1      -3.003  -0.602   1.170  1.00  0.00     0.109 C 
BRANCH  12  13
HETATM   13  S1  UNL     1      -3.501  -1.312  -0.414  1.00  0.00    -0.158 SA
BRANCH  13  14
HETATM   14  C2  UNL     1      -5.261  -1.739  -0.440  1.00  0.00    -0.003 C 
HETATM   15  C1  UNL     1      -5.538  -2.958   0.433  1.00  0.00     0.026 C 
HETATM   16  C3  UNL     1      -6.156  -0.643   0.111  1.00  0.00     0.026 C 
HETATM   17  C4  UNL     1      -5.680  -2.036  -1.847  1.00  0.00     0.026 C 
ENDBRANCH  13  14
ENDBRANCH  12  13
ENDBRANCH   9  12
BRANCH  10  18
HETATM   18  O5  UNL     1      -2.689   2.060   2.779  1.00  0.00    -0.390 OA
ATOM     19  H5  UNL     1      -2.352   2.395   3.602  1.00  0.00     0.210 HD
ENDBRANCH  10  18
BRANCH  11  20
HETATM   20  O4  UNL     1       0.547   1.536   2.551  1.00  0.00    -0.390 OA
ATOM     21  H4  UNL     1       0.402   1.811   3.449  1.00  0.00     0.210 HD
ENDBRANCH  11  20
ENDBRANCH   1   7
BRANCH   6  22
HETATM   22  C17 UNL     1       1.821   3.457   0.091  1.00  0.00     0.014 A 
HETATM   23  C18 UNL     1       1.279   4.166  -0.958  1.00  0.00     0.018 A 
HETATM   24  C19 UNL     1       1.014   5.459  -0.759  1.00  0.00     0.008 A 
HETATM   25  C20 UNL     1       1.303   5.980   0.475  1.00  0.00     0.050 A 
HETATM   26  S2  UNL     1       1.933   4.642   1.312  1.00  0.00    -0.104 SA
ENDBRANCH   6  22
BRANCH   3  27
HETATM   27  C10 UNL     1       2.668  -1.365   0.084  1.00  0.00     0.061 C 
BRANCH  27  28
HETATM   28  C11 UNL     1       4.006  -2.025  -0.118  1.00  0.00    -0.028 C 
HETATM   29  C12 UNL     1       4.076  -3.329  -0.195  1.00  0.00    -0.030 C 
BRANCH  29  30
HETATM   30  C13 UNL     1       5.383  -3.999  -0.392  1.00  0.00     0.037 C 
BRANCH  30  31
HETATM   31  C14 UNL     1       6.465  -2.959  -0.495  1.00  0.00     0.089 C 
HETATM   32 BR1  UNL     1       8.142  -3.917  -0.723  1.00  0.00    -0.096 Br
ENDBRANCH  30  31
ENDBRANCH  29  30
ENDBRANCH  27  28
ENDBRANCH   3  27
TORSDOF 11
