REMARK  5 active torsions:
REMARK  status: ('A' for Active; 'I' for Inactive)
REMARK    1  A    between atoms: N1_1  and  N2_4 
REMARK    2  A    between atoms: N2_4  and  N3_6 
REMARK    3  A    between atoms: N3_6  and  N4_8 
REMARK    4  A    between atoms: N4_8  and  C1_10 
REMARK    5  A    between atoms: C1_10  and  C2_11 
ROOT
HETATM    1  C2  UNL     1      -0.141   0.011   0.325  1.00  0.00     0.081 A 
HETATM    2  C3  UNL     1      -1.392   0.501   0.390  1.00  0.00     0.106 A 
HETATM    3  N5  UNL     1      -1.957   1.659   0.731  1.00  0.00    -0.347 N 
ATOM      4  H5  UNL     1      -1.440   2.481   1.044  1.00  0.00     0.167 HD
HETATM    5  C4  UNL     1      -3.288   1.606   0.610  1.00  0.00     0.182 A 
HETATM    6  N6  UNL     1      -3.583   0.369   0.176  1.00  0.00    -0.337 N 
ATOM      7  H6  UNL     1      -4.519   0.012  -0.015  1.00  0.00     0.168 HD
HETATM    8  C5  UNL     1      -2.415  -0.332   0.033  1.00  0.00     0.136 A 
HETATM    9  N7  UNL     1      -2.190  -1.519  -0.344  1.00  0.00    -0.337 N 
ATOM     10  H7  UNL     1      -3.012  -2.069  -0.592  1.00  0.00     0.168 HD
HETATM   11  C6  UNL     1      -0.953  -2.178  -0.466  1.00  0.00     0.182 A 
HETATM   12  N8  UNL     1       0.140  -1.305  -0.091  1.00  0.00    -0.349 N 
ATOM     13  H8  UNL     1       1.103  -1.640  -0.128  1.00  0.00     0.166 HD
ENDROOT
BRANCH   1  14
HETATM   14  C1  UNL     1       0.920   0.932   0.714  1.00  0.00     0.140 C 
BRANCH  14  15
HETATM   15  N4  UNL     1       2.158   0.754   0.751  1.00  0.00    -0.294 N 
ATOM     16  H4  UNL     1       2.655   1.587   1.066  1.00  0.00     0.187 HD
BRANCH  15  17
HETATM   17  N3  UNL     1       2.992  -0.257   0.480  1.00  0.00    -0.229 N 
ATOM     18  H3  UNL     1       2.747  -1.140   0.929  1.00  0.00     0.210 HD
BRANCH  17  19
HETATM   19  N2  UNL     1       4.016  -0.304  -0.226  1.00  0.00    -0.235 N 
ATOM     20  H2  UNL     1       4.496  -1.202  -0.282  1.00  0.00     0.209 HD
BRANCH  19  21
HETATM   21  N1  UNL     1       4.568   0.749  -0.945  1.00  0.00    -0.330 N 
ATOM     22  H12 UNL     1       4.074   1.639  -0.877  1.00  0.00     0.178 HD
ATOM     23  H11 UNL     1       5.407   0.710  -1.524  1.00  0.00     0.178 HD
ENDBRANCH  19  21
ENDBRANCH  17  19
ENDBRANCH  15  17
ENDBRANCH  14  15
ENDBRANCH   1  14
TORSDOF 5
