REMARK  2 active torsions:
REMARK  status: ('A' for Active; 'I' for Inactive)
REMARK    1  A    between atoms: C1_2  and  C2_4 
REMARK    2  A    between atoms: C3_11  and  C4_12 
ROOT
HETATM    1  C2  UNL     1      -1.484  -0.304   0.554  1.00  0.00     0.146 A 
HETATM    2  N2  UNL     1      -2.232  -1.332   1.117  1.00  0.00    -0.279 N 
ATOM      3  H2  UNL     1      -3.240  -1.330   1.275  1.00  0.00     0.189 HD
HETATM    4  N3  UNL     1      -1.412  -2.293   1.403  1.00  0.00    -0.242 N 
ATOM      5  H3  UNL     1      -1.687  -3.178   1.830  1.00  0.00     0.208 HD
HETATM    6  N4  UNL     1      -0.179  -1.980   1.072  1.00  0.00    -0.280 N 
ATOM      7  H4  UNL     1       0.641  -2.574   1.199  1.00  0.00     0.188 HD
HETATM    8  C3  UNL     1      -0.180  -0.722   0.528  1.00  0.00     0.128 A 
ENDROOT
BRANCH   8   9
HETATM    9  C4  UNL     1       0.994  -0.047   0.050  1.00  0.00     0.155 A 
HETATM   10  N5  UNL     1       1.196   1.142  -0.497  1.00  0.00    -0.290 N 
HETATM   11  C5  UNL     1       2.492   1.351  -0.793  1.00  0.00     0.340 A 
ATOM     12  H5  UNL     1       0.455   1.821  -0.673  1.00  0.00     0.172 HD
HETATM   13  O2  UNL     1       3.057   2.339  -1.310  1.00  0.00    -0.245 OA
HETATM   14  N6  UNL     1       3.141   0.242  -0.416  1.00  0.00    -0.250 N 
HETATM   15  N7  UNL     1       2.255  -0.588   0.084  1.00  0.00    -0.279 N 
ATOM     16  H6  UNL     1       4.143   0.073  -0.502  1.00  0.00     0.192 HD
ATOM     17  H7  UNL     1       2.475  -1.514   0.450  1.00  0.00     0.189 HD
ENDBRANCH   8   9
BRANCH   1  18
HETATM   18  C1  UNL     1      -2.060   0.944   0.105  1.00  0.00     0.285 C 
HETATM   19  N1  UNL     1      -3.483   1.102   0.262  1.00  0.00    -0.056 NA
HETATM   20  O1  UNL     1      -1.458   1.883  -0.397  1.00  0.00    -0.269 OA
ENDBRANCH   1  18
TORSDOF 2
