REMARK  4 active torsions:
REMARK  status: ('A' for Active; 'I' for Inactive)
REMARK    1  A    between atoms: C1_2  and  C2_4 
REMARK    2  A    between atoms: C2_4  and  N1_5 
REMARK    3  A    between atoms: C2_4  and  C6_14 
REMARK    4  A    between atoms: N1_5  and  C3_7 
ROOT
HETATM    1  N1  UNL     1      -0.764  -0.487  -0.805  1.00  0.00    -0.339 N 
ATOM      2  H1  UNL     1      -1.103  -1.259  -1.379  1.00  0.00     0.164 HD
ENDROOT
BRANCH   1   3
HETATM    3  C2  UNL     1      -1.733   0.419  -0.242  1.00  0.00     0.287 C 
BRANCH   3   4
HETATM    4  C1  UNL     1      -3.017   0.209  -0.997  1.00  0.00     0.207 C 
HETATM    5  O1  UNL     1      -3.923   1.076  -0.929  1.00  0.00    -0.646 OA
HETATM    6  O2  UNL     1      -3.164  -0.940  -1.742  1.00  0.00    -0.646 OA
ENDBRANCH   3   4
BRANCH   3   7
HETATM    7  C6  UNL     1      -1.997   0.176   1.203  1.00  0.00     0.207 C 
HETATM    8  O3  UNL     1      -1.740  -0.951   1.677  1.00  0.00    -0.646 OA
HETATM    9  O4  UNL     1      -2.517   1.156   2.040  1.00  0.00    -0.646 OA
ENDBRANCH   3   7
ENDBRANCH   1   3
BRANCH   1  10
HETATM   10  C3  UNL     1       0.659  -0.362  -0.601  1.00  0.00     0.172 A 
HETATM   11  N2  UNL     1       1.521  -0.041  -1.503  1.00  0.00    -0.361 N 
HETATM   12  C4  UNL     1       2.862  -0.002  -0.995  1.00  0.00     0.142 A 
ATOM     13  H2  UNL     1       1.277   0.163  -2.472  1.00  0.00     0.162 HD
HETATM   14  C5  UNL     1       2.740  -0.252   0.462  1.00  0.00     0.142 A 
HETATM   15  N3  UNL     1       1.316  -0.574   0.618  1.00  0.00    -0.361 N 
ATOM     16  H3  UNL     1       0.875  -0.900   1.478  1.00  0.00     0.162 HD
ENDBRANCH   1  10
TORSDOF 4
