REMARK  9 active torsions:
REMARK  status: ('A' for Active; 'I' for Inactive)
REMARK    1  A    between atoms: O1_2  and  C2_3 
REMARK    2  A    between atoms: N1_5  and  C4_6 
REMARK    3  A    between atoms: C4_6  and  C5_7 
REMARK    4  A    between atoms: C5_7  and  C6_8 
REMARK    5  A    between atoms: C6_8  and  N2_9 
REMARK    6  A    between atoms: N2_9  and  C7_11 
REMARK    7  A    between atoms: C8_14  and  N4_15 
REMARK    8  A    between atoms: C9_20  and  N6_21 
REMARK    9  A    between atoms: C11_27  and  N8_28 
ROOT
HETATM    1  N2  UNL     1       2.332  -1.134   0.562  1.00  0.00    -0.225 N 
ATOM      2  H2  UNL     1       2.253  -1.786   1.342  1.00  0.00     0.177 HD
ENDROOT
BRANCH   1   3
HETATM    3  C6  UNL     1       1.173  -0.960  -0.245  1.00  0.00     0.140 C 
BRANCH   3   4
HETATM    4  C5  UNL     1       0.385   0.256   0.233  1.00  0.00     0.050 C 
BRANCH   4   5
HETATM    5  C4  UNL     1      -0.814   0.358  -0.675  1.00  0.00     0.274 C 
BRANCH   5   6
HETATM    6  N1  UNL     1      -1.632  -0.812  -0.609  1.00  0.00     0.097 N 
HETATM    7  C3  UNL     1      -2.768  -0.763  -1.475  1.00  0.00     0.332 C 
HETATM    8  C2  UNL     1      -3.947  -0.086  -0.851  1.00  0.00     0.290 C 
HETATM    9  O2  UNL     1      -4.259  -0.637   0.408  1.00  0.00    -0.325 OA
HETATM   10  C11 UNL     1      -3.147  -0.370   1.216  1.00  0.00     0.349 C 
HETATM   11  C10 UNL     1      -2.017  -1.233   0.698  1.00  0.00     0.333 C 
BRANCH   8  12
HETATM   12  O1  UNL     1      -5.060  -0.160  -1.672  1.00  0.00    -0.364 OA
HETATM   13  C1  UNL     1      -5.459   1.132  -1.976  1.00  0.00     0.204 C 
ENDBRANCH   8  12
BRANCH  10  14
HETATM   14  N8  UNL     1      -3.456  -0.653   2.601  1.00  0.00    -0.051 N 
ATOM     15  H83 UNL     1      -3.653  -1.644   2.741  1.00  0.00     0.277 HD
ATOM     16  H82 UNL     1      -2.627  -0.569   3.189  1.00  0.00     0.277 HD
ATOM     17  H81 UNL     1      -4.218  -0.071   2.950  1.00  0.00     0.277 HD
ENDBRANCH  10  14
ENDBRANCH   5   6
ENDBRANCH   4   5
ENDBRANCH   3   4
ENDBRANCH   1   3
BRANCH   1  18
HETATM   18  C7  UNL     1       3.463  -0.555   0.408  1.00  0.00     0.707 A 
HETATM   19  N3  UNL     1       3.608   0.310  -0.606  1.00  0.00    -0.022 N 
HETATM   20  C8  UNL     1       4.811   0.930  -0.777  1.00  0.00     0.705 A 
ATOM     21  H3  UNL     1       2.832   0.501  -1.239  1.00  0.00     0.203 HD
HETATM   22  N5  UNL     1       5.829   0.671   0.060  1.00  0.00    -0.022 N 
HETATM   23  C9  UNL     1       5.707  -0.192   1.084  1.00  0.00     0.705 A 
ATOM     24  H5  UNL     1       6.721   1.143  -0.085  1.00  0.00     0.203 HD
HETATM   25  N7  UNL     1       4.512  -0.790   1.233  1.00  0.00    -0.022 N 
ATOM     26  H7  UNL     1       4.390  -1.450   2.001  1.00  0.00     0.203 HD
BRANCH  20  27
HETATM   27  N4  UNL     1       4.963   1.760  -1.744  1.00  0.00    -0.234 N 
ATOM     28  H42 UNL     1       4.190   1.957  -2.380  1.00  0.00     0.174 HD
ATOM     29  H41 UNL     1       5.863   2.224  -1.872  1.00  0.00     0.174 HD
ENDBRANCH  20  27
BRANCH  23  30
HETATM   30  N6  UNL     1       6.698  -0.442   1.896  1.00  0.00    -0.234 N 
ATOM     31  H62 UNL     1       7.605   0.012   1.783  1.00  0.00     0.174 HD
ATOM     32  H61 UNL     1       6.605  -1.097   2.673  1.00  0.00     0.174 HD
ENDBRANCH  23  30
ENDBRANCH   1  18
TORSDOF 9
