REMARK  6 active torsions:
REMARK  status: ('A' for Active; 'I' for Inactive)
REMARK    1  A    between atoms: C2_5  and  N3_6 
REMARK    2  A    between atoms: N3_6  and  C3_8 
REMARK    3  A    between atoms: C3_8  and  C4_9 
REMARK    4  A    between atoms: C4_9  and  C5_10 
REMARK    5  A    between atoms: C5_10  and  N4_11 
REMARK    6  A    between atoms: N4_11  and  C6_13 
ROOT
HETATM    1  N3  UNL     1      -1.641   0.081  -0.165  1.00  0.00    -0.371 N 
ATOM      2  H3  UNL     1      -1.030  -0.724  -0.299  1.00  0.00     0.161 HD
ENDROOT
BRANCH   1   3
HETATM    3  C2  UNL     1      -2.877  -0.072  -0.403  1.00  0.00     0.173 C 
HETATM    4  N2  UNL     1      -3.697   1.003  -0.230  1.00  0.00    -0.312 N 
HETATM    5  C1  UNL     1      -4.992   0.975   0.160  1.00  0.00     0.198 C 
ATOM      6  H2  UNL     1      -3.293   1.922  -0.413  1.00  0.00     0.170 HD
HETATM    7  N1  UNL     1      -5.591   2.253   0.340  1.00  0.00    -0.063 NA
HETATM    8  N8  UNL     1      -5.770  -0.125   0.393  1.00  0.00    -0.282 N 
HETATM    9  C11 UNL     1      -5.528  -1.416   0.091  1.00  0.00     0.329 C 
ATOM     10  H8  UNL     1      -6.658   0.057   0.861  1.00  0.00     0.173 HD
HETATM   11  N7  UNL     1      -4.460  -1.952  -0.477  1.00  0.00    -0.272 N 
HETATM   12  O2  UNL     1      -6.472  -2.174   0.413  1.00  0.00    -0.247 OA
HETATM   13  C10 UNL     1      -3.313  -1.326  -0.804  1.00  0.00     0.293 C 
ATOM     14  H7  UNL     1      -4.511  -2.948  -0.691  1.00  0.00     0.174 HD
HETATM   15  O1  UNL     1      -2.532  -1.923  -1.553  1.00  0.00    -0.264 OA
ENDBRANCH   1   3
BRANCH   1  16
HETATM   16  C3  UNL     1      -1.047   1.294   0.275  1.00  0.00     0.126 C 
BRANCH  16  17
HETATM   17  C4  UNL     1       0.448   1.184  -0.003  1.00  0.00     0.064 C 
BRANCH  17  18
HETATM   18  C5  UNL     1       0.895  -0.057   0.747  1.00  0.00     0.059 C 
BRANCH  18  19
HETATM   19  N4  UNL     1       2.270  -0.328   0.658  1.00  0.00    -0.374 N 
ATOM     20  H4  UNL     1       2.862  -0.245   1.484  1.00  0.00     0.160 HD
BRANCH  19  21
HETATM   21  C6  UNL     1       2.826  -0.713  -0.570  1.00  0.00     0.309 C 
HETATM   22  C7  UNL     1       3.924  -1.772  -0.400  1.00  0.00     0.286 C 
HETATM   23  N5  UNL     1       5.228  -1.145  -0.429  1.00  0.00    -0.070 N 
HETATM   24  C8  UNL     1       5.260   0.171   0.131  1.00  0.00     0.260 C 
ATOM     25  H52 UNL     1       5.921  -1.742   0.023  1.00  0.00     0.277 HD
ATOM     26  H51 UNL     1       5.599  -1.137  -1.379  1.00  0.00     0.277 HD
HETATM   27  C9  UNL     1       4.378   1.104  -0.644  1.00  0.00     0.262 C 
HETATM   28  N6  UNL     1       3.340   0.394  -1.368  1.00  0.00    -0.051 N 
ATOM     29  H62 UNL     1       3.662   0.083  -2.285  1.00  0.00     0.279 HD
ATOM     30  H61 UNL     1       2.594   1.020  -1.673  1.00  0.00     0.279 HD
ENDBRANCH  19  21
ENDBRANCH  18  19
ENDBRANCH  17  18
ENDBRANCH  16  17
ENDBRANCH   1  16
TORSDOF 6
