REMARK  9 active torsions:
REMARK  status: ('A' for Active; 'I' for Inactive)
REMARK    1  A    between atoms: N1_2  and  C2_4 
REMARK    2  A    between atoms: C3_7  and  N3_8 
REMARK    3  A    between atoms: N3_8  and  C4_10 
REMARK    4  A    between atoms: C4_10  and  C5_11 
REMARK    5  A    between atoms: C5_11  and  C6_12 
REMARK    6  A    between atoms: C6_12  and  O1_13 
REMARK    7  A    between atoms: N6_23  and  C10_24 
REMARK    8  A    between atoms: C10_24  and  C11_25 
REMARK    9  A    between atoms: C11_25  and  O3_26 
ROOT
HETATM    1  C2  UNL     1      -0.582   2.344  -0.095  1.00  0.00     0.147 A 
HETATM    2  N2  UNL     1       0.700   1.880  -0.218  1.00  0.00    -0.175 N 
ATOM      3  H2  UNL     1       1.440   2.548  -0.435  1.00  0.00     0.186 HD
HETATM    4  C3  UNL     1       1.025   0.604  -0.068  1.00  0.00     0.681 A 
HETATM    5  N4  UNL     1       0.030  -0.252   0.217  1.00  0.00    -0.174 N 
ATOM      6  H4  UNL     1       0.268  -1.237   0.334  1.00  0.00     0.186 HD
HETATM    7  C7  UNL     1      -1.255   0.101   0.358  1.00  0.00     0.158 A 
HETATM    8  C8  UNL     1      -1.581   1.440   0.198  1.00  0.00     0.126 A 
HETATM    9  N5  UNL     1      -2.917   1.569   0.381  1.00  0.00    -0.302 N 
ATOM     10  H5  UNL     1      -3.450   2.437   0.326  1.00  0.00     0.171 HD
HETATM   11  C9  UNL     1      -3.420   0.334   0.651  1.00  0.00     0.328 A 
HETATM   12  O2  UNL     1      -4.644   0.146   0.866  1.00  0.00    -0.246 OA
HETATM   13  N6  UNL     1      -2.405  -0.535   0.632  1.00  0.00    -0.281 N 
ENDROOT
BRANCH   4  14
HETATM   14  N3  UNL     1       2.259   0.183  -0.190  1.00  0.00    -0.226 N 
ATOM     15  H3  UNL     1       3.018   0.829  -0.406  1.00  0.00     0.177 HD
BRANCH  14  16
HETATM   16  C4  UNL     1       2.506  -1.219  -0.009  1.00  0.00     0.140 C 
BRANCH  16  17
HETATM   17  C5  UNL     1       4.026  -1.405  -0.026  1.00  0.00     0.046 C 
BRANCH  17  18
HETATM   18  C6  UNL     1       4.511  -0.915  -1.364  1.00  0.00     0.165 C 
BRANCH  18  19
HETATM   19  O1  UNL     1       5.897  -1.070  -1.414  1.00  0.00    -0.401 OA
ATOM     20  H1  UNL     1       6.203  -0.761  -2.258  1.00  0.00     0.209 HD
ENDBRANCH  18  19
ENDBRANCH  17  18
ENDBRANCH  16  17
ENDBRANCH  14  16
ENDBRANCH   4  14
BRANCH   1  21
HETATM   21  N1  UNL     1      -0.728   3.580  -0.266  1.00  0.00    -0.378 N 
HETATM   22  C1  UNL     1      -1.824   4.455  -0.235  1.00  0.00     0.147 C 
ATOM     23  H1  UNL     1       0.150   4.055  -0.475  1.00  0.00     0.160 HD
ENDBRANCH   1  21
BRANCH  13  24
HETATM   24  C10 UNL     1      -2.523  -1.954   0.871  1.00  0.00     0.161 C 
BRANCH  24  25
HETATM   25  C11 UNL     1      -2.778  -2.725  -0.405  1.00  0.00     0.184 C 
BRANCH  25  26
HETATM   26  O3  UNL     1      -1.775  -2.570  -1.329  1.00  0.00    -0.399 OA
ATOM     27  H3  UNL     1      -1.935  -3.054  -2.130  1.00  0.00     0.209 HD
ENDBRANCH  25  26
ENDBRANCH  24  25
ENDBRANCH  13  24
TORSDOF 9
