REMARK  8 active torsions:
REMARK  status: ('A' for Active; 'I' for Inactive)
REMARK    1  A    between atoms: C1_4  and  N2_5 
REMARK    2  A    between atoms: N2_5  and  N3_6 
REMARK    3  A    between atoms: N2_5  and  C2_9 
REMARK    4  A    between atoms: C2_9  and  C3_10 
REMARK    5  A    between atoms: C4_13  and  N5_14 
REMARK    6  A    between atoms: C6_20  and  N7_21 
REMARK    7  A    between atoms: N7_21  and  C7_23 
REMARK    8  A    between atoms: C7_23  and  C8_24 
ROOT
HETATM    1  C3  UNL     1      -1.840  -0.071  -0.090  1.00  0.00     0.075 A 
HETATM    2  N4  UNL     1      -2.112   1.224   0.111  1.00  0.00    -0.192 N 
ATOM      3  H4  UNL     1      -3.082   1.507   0.247  1.00  0.00     0.184 HD
HETATM    4  C4  UNL     1      -1.152   2.165   0.140  1.00  0.00     0.676 A 
HETATM    5  N6  UNL     1       0.139   1.823  -0.036  1.00  0.00    -0.186 N 
ATOM      6  H6  UNL     1       0.863   2.541  -0.013  1.00  0.00     0.184 HD
HETATM    7  C5  UNL     1       0.478   0.534  -0.243  1.00  0.00     0.121 A 
HETATM    8  C6  UNL     1       1.813   0.166  -0.427  1.00  0.00     0.132 A 
HETATM    9  N9  UNL     1       2.111  -1.131  -0.631  1.00  0.00    -0.337 N 
ATOM     10  H9  UNL     1       3.082  -1.413  -0.767  1.00  0.00     0.168 HD
HETATM   11  C9  UNL     1       1.132  -2.059  -0.656  1.00  0.00     0.182 A 
HETATM   12  N10 UNL     1      -0.158  -1.723  -0.481  1.00  0.00    -0.349 N 
ATOM     13  H10 UNL     1      -0.876  -2.447  -0.505  1.00  0.00     0.167 HD
HETATM   14  C10 UNL     1      -0.517  -0.421  -0.271  1.00  0.00     0.089 A 
ENDROOT
BRANCH   1  15
HETATM   15  C2  UNL     1      -2.833  -1.147  -0.134  1.00  0.00     0.209 C 
BRANCH  15  16
HETATM   16  N2  UNL     1      -4.186  -0.726   0.059  1.00  0.00    -0.289 N 
BRANCH  16  17
HETATM   17  C1  UNL     1      -5.176  -1.765   0.020  1.00  0.00     0.193 C 
HETATM   18  N1  UNL     1      -5.370  -2.455   1.087  1.00  0.00    -0.394 N 
ATOM     19  H12 UNL     1      -4.828  -2.257   1.928  1.00  0.00     0.156 HD
ATOM     20  H11 UNL     1      -6.073  -3.193   1.059  1.00  0.00     0.156 HD
ENDBRANCH  16  17
BRANCH  16  21
HETATM   21  N3  UNL     1      -4.629   0.554   0.276  1.00  0.00    -0.342 N 
ATOM     22  H32 UNL     1      -5.594   0.854   0.414  1.00  0.00     0.177 HD
ATOM     23  H31 UNL     1      -3.926   1.292   0.304  1.00  0.00     0.177 HD
ENDBRANCH  16  21
ENDBRANCH  15  16
ENDBRANCH   1  15
BRANCH   4  24
HETATM   24  N5  UNL     1      -1.448   3.427   0.338  1.00  0.00    -0.234 N 
ATOM     25  H52 UNL     1      -2.426   3.686   0.471  1.00  0.00     0.174 HD
ATOM     26  H51 UNL     1      -0.720   4.141   0.360  1.00  0.00     0.174 HD
ENDBRANCH   4  24
BRANCH   8  27
HETATM   27  N7  UNL     1       2.676   1.101  -0.390  1.00  0.00    -0.366 N 
ATOM     28  H7  UNL     1       2.328   2.046  -0.230  1.00  0.00     0.161 HD
BRANCH  27  29
HETATM   29  C7  UNL     1       4.091   0.948  -0.553  1.00  0.00     0.220 C 
BRANCH  29  30
HETATM   30  C8  UNL     1       4.766   0.378   0.617  1.00  0.00     0.248 C 
HETATM   31  N8  UNL     1       6.168   0.178   0.580  1.00  0.00    -0.061 NA
HETATM   32  O1  UNL     1       4.150   0.058   1.660  1.00  0.00    -0.275 OA
ENDBRANCH  29  30
ENDBRANCH  27  29
ENDBRANCH   8  27
TORSDOF 8
