REMARK  7 active torsions:
REMARK  status: ('A' for Active; 'I' for Inactive)
REMARK    1  A    between atoms: N3_4  and  C2_6 
REMARK    2  A    between atoms: C2_6  and  C3_7 
REMARK    3  A    between atoms: C3_7  and  N4_8 
REMARK    4  A    between atoms: N4_8  and  C4_10 
REMARK    5  A    between atoms: C4_10  and  C5_11 
REMARK    6  A    between atoms: C6_14  and  N6_15 
REMARK    7  A    between atoms: N6_15  and  C7_17 
ROOT
HETATM    1  C5  UNL     1       0.222  -1.010   0.072  1.00  0.00     0.194 A 
HETATM    2  N5  UNL     1       1.085  -0.129   0.798  1.00  0.00    -0.347 N 
ATOM      3  H5  UNL     1       0.759   0.689   1.313  1.00  0.00     0.163 HD
HETATM    4  C6  UNL     1       2.332  -0.489   0.726  1.00  0.00     0.184 A 
HETATM    5  N9  UNL     1       2.434  -1.673  -0.093  1.00  0.00    -0.297 N 
ATOM      6  H9  UNL     1       3.291  -2.177  -0.322  1.00  0.00     0.172 HD
HETATM    7  C11 UNL     1       1.122  -2.006  -0.521  1.00  0.00     0.248 A 
HETATM    8  O1  UNL     1       0.785  -2.954  -1.256  1.00  0.00    -0.271 OA
ENDROOT
BRANCH   1   9
HETATM    9  C4  UNL     1      -0.499  -0.222  -0.996  1.00  0.00     0.153 C 
BRANCH   9  10
HETATM   10  N4  UNL     1      -1.283   0.819  -0.398  1.00  0.00    -0.398 N 
ATOM     11  H4  UNL     1      -1.057   1.806  -0.521  1.00  0.00     0.158 HD
BRANCH  10  12
HETATM   12  C3  UNL     1      -2.385   0.394   0.371  1.00  0.00     0.075 C 
BRANCH  12  13
HETATM   13  C2  UNL     1      -3.524  -0.246  -0.340  1.00  0.00     0.166 C 
BRANCH  13  14
HETATM   14  N3  UNL     1      -4.503  -0.593   0.670  1.00  0.00    -0.362 N 
HETATM   15  C1  UNL     1      -5.771  -0.448   0.527  1.00  0.00     0.197 C 
HETATM   16  N1  UNL     1      -6.383   0.074  -0.646  1.00  0.00    -0.067 NA
HETATM   17  N2  UNL     1      -6.577  -0.843   1.624  1.00  0.00    -0.067 NA
ATOM     18  H3  UNL     1      -4.163  -0.977   1.552  1.00  0.00     0.162 HD
ENDBRANCH  13  14
ENDBRANCH  12  13
ENDBRANCH  10  12
ENDBRANCH   9  10
ENDBRANCH   1   9
BRANCH   4  19
HETATM   19  N6  UNL     1       3.349   0.224   1.365  1.00  0.00    -0.313 N 
ATOM     20  H6  UNL     1       3.211   0.402   2.360  1.00  0.00     0.170 HD
BRANCH  19  21
HETATM   21  C7  UNL     1       4.416   0.676   0.869  1.00  0.00     0.123 A 
HETATM   22  C8  UNL     1       4.708   0.499  -0.456  1.00  0.00     0.136 A 
HETATM   23  N7  UNL     1       5.875   0.986  -0.968  1.00  0.00    -0.371 N 
HETATM   24  C9  UNL     1       6.772   1.649  -0.209  1.00  0.00     0.104 A 
ATOM     25  H7  UNL     1       6.076   0.844  -1.958  1.00  0.00     0.164 HD
HETATM   26  C10 UNL     1       6.436   1.806   1.127  1.00  0.00     0.106 A 
HETATM   27  N8  UNL     1       5.307   1.346   1.669  1.00  0.00    -0.350 N 
ATOM     28  H8  UNL     1       5.110   1.490   2.659  1.00  0.00     0.166 HD
ENDBRANCH  19  21
ENDBRANCH   4  19
TORSDOF 7
