REMARK  8 active torsions:
REMARK  status: ('A' for Active; 'I' for Inactive)
REMARK       I    between atoms: C1_2  and  N2_4 
REMARK    1  A    between atoms: N2_4  and  C2_6 
REMARK    2  A    between atoms: C3_9  and  N4_10 
REMARK    3  A    between atoms: N4_10  and  C4_12 
REMARK    4  A    between atoms: C4_12  and  C5_13 
REMARK    5  A    between atoms: C5_13  and  O2_14 
REMARK    6  A    between atoms: O2_14  and  C6_15 
REMARK    7  A    between atoms: C6_15  and  C7_16 
REMARK    8  A    between atoms: C7_16  and  O3_17 
ROOT
HETATM    1  C2  UNL     1       2.832   0.001   0.313  1.00  0.00     0.155 A 
HETATM    2  N3  UNL     1       1.870   0.935   0.394  1.00  0.00    -0.174 N 
ATOM      3  H3  UNL     1       2.130   1.916   0.492  1.00  0.00     0.186 HD
HETATM    4  C3  UNL     1       0.553   0.592   0.347  1.00  0.00     0.681 A 
HETATM    5  N5  UNL     1       0.213  -0.690   0.218  1.00  0.00    -0.174 N 
ATOM      6  H5  UNL     1      -0.776  -0.938   0.184  1.00  0.00     0.186 HD
HETATM    7  C8  UNL     1       1.133  -1.666   0.131  1.00  0.00     0.155 A 
HETATM    8  N6  UNL     1       1.055  -2.999  -0.000  1.00  0.00    -0.292 N 
ATOM      9  H6  UNL     1       0.188  -3.533  -0.060  1.00  0.00     0.172 HD
HETATM   10  C9  UNL     1       2.300  -3.530  -0.040  1.00  0.00     0.326 A 
HETATM   11  O4  UNL     1       2.569  -4.758  -0.158  1.00  0.00    -0.247 OA
HETATM   12  N7  UNL     1       3.140  -2.486   0.071  1.00  0.00    -0.302 N 
ATOM     13  H7  UNL     1       4.157  -2.564   0.073  1.00  0.00     0.171 HD
HETATM   14  C10 UNL     1       2.472  -1.334   0.178  1.00  0.00     0.126 A 
ENDROOT
BRANCH   4  15
HETATM   15  N4  UNL     1      -0.285   1.542   0.432  1.00  0.00    -0.224 N 
ATOM     16  H4  UNL     1       0.066   2.495   0.529  1.00  0.00     0.177 HD
BRANCH  15  17
HETATM   17  C4  UNL     1      -1.747   1.327   0.396  1.00  0.00     0.164 C 
BRANCH  17  18
HETATM   18  C5  UNL     1      -2.179   1.191  -1.034  1.00  0.00     0.188 C 
BRANCH  18  19
HETATM   19  O2  UNL     1      -3.468   1.006  -1.214  1.00  0.00    -0.387 OA
BRANCH  19  20
HETATM   20  C6  UNL     1      -4.264   0.026  -0.859  1.00  0.00     0.193 C 
BRANCH  20  21
HETATM   21  C7  UNL     1      -4.489  -0.350   0.560  1.00  0.00     0.190 C 
BRANCH  21  22
HETATM   22  O3  UNL     1      -5.006   0.674   1.355  1.00  0.00    -0.399 OA
ATOM     23  H3  UNL     1      -5.150   0.433   2.263  1.00  0.00     0.209 HD
ENDBRANCH  21  22
ENDBRANCH  20  21
ENDBRANCH  19  20
ENDBRANCH  18  19
ENDBRANCH  17  18
ENDBRANCH  15  17
ENDBRANCH   4  15
BRANCH   1  24
HETATM   24  N2  UNL     1       4.085   0.275   0.352  1.00  0.00    -0.295 N 
HETATM   25  C1  UNL     1       4.525   1.614   0.488  1.00  0.00     0.334 C 
HETATM   26  N1  UNL     1       5.063   2.315  -0.617  1.00  0.00    -0.040 NA
HETATM   27  O1  UNL     1       4.446   2.204   1.590  1.00  0.00    -0.251 OA
ATOM     28  H2  UNL     1       4.770  -0.478   0.284  1.00  0.00     0.172 HD
ENDBRANCH   1  24
TORSDOF 8
