REMARK  4 active torsions:
REMARK  status: ('A' for Active; 'I' for Inactive)
REMARK    1  A    between atoms: C1_2  and  C2_4 
REMARK    2  A    between atoms: C4_11  and  C5_12 
REMARK    3  A    between atoms: C5_12  and  C6_13 
REMARK    4  A    between atoms: N4_14  and  C7_16 
ROOT
HETATM    1  C6  UNL     1       0.031  -0.435   1.013  1.00  0.00     0.069 C 
HETATM    2  N4  UNL     1       1.312   0.024   1.080  1.00  0.00    -0.350 N 
ATOM      3  H4  UNL     1       1.534   0.172   2.065  1.00  0.00     0.166 HD
ENDROOT
BRANCH   1   4
HETATM    4  C5  UNL     1      -0.638  -0.555  -0.353  1.00  0.00     0.104 C 
BRANCH   4   5
HETATM    5  C4  UNL     1      -2.034  -1.031  -0.218  1.00  0.00     0.050 A 
HETATM    6  C2  UNL     1      -3.153  -0.301   0.077  1.00  0.00     0.125 A 
HETATM    7  N2  UNL     1      -4.190  -1.178   0.149  1.00  0.00    -0.303 N 
HETATM    8  C3  UNL     1      -3.747  -2.414  -0.094  1.00  0.00     0.325 A 
ATOM      9  H2  UNL     1      -5.157  -0.930   0.357  1.00  0.00     0.171 HD
HETATM   10  O2  UNL     1      -4.386  -3.504  -0.122  1.00  0.00    -0.247 OA
HETATM   11  N3  UNL     1      -2.435  -2.327  -0.318  1.00  0.00    -0.310 N 
ATOM     12  H3  UNL     1      -1.824  -3.115  -0.532  1.00  0.00     0.170 HD
BRANCH   6  13
HETATM   13  C1  UNL     1      -3.301   1.121   0.274  1.00  0.00     0.283 C 
HETATM   14  N1  UNL     1      -2.242   2.005   0.049  1.00  0.00    -0.056 NA
HETATM   15  O1  UNL     1      -4.413   1.574   0.654  1.00  0.00    -0.269 OA
ENDBRANCH   6  13
ENDBRANCH   4   5
ENDBRANCH   1   4
BRANCH   2  16
HETATM   16  C7  UNL     1       2.321   0.335   0.418  1.00  0.00     0.189 A 
HETATM   17  N5  UNL     1       2.491   0.303  -0.915  1.00  0.00    -0.277 N 
HETATM   18  N6  UNL     1       3.633   0.667  -1.515  1.00  0.00    -0.250 N 
ATOM     19  H5  UNL     1       1.715  -0.013  -1.497  1.00  0.00     0.189 HD
HETATM   20  C8  UNL     1       4.697   1.093  -0.822  1.00  0.00     0.341 A 
ATOM     21  H6  UNL     1       3.694   0.618  -2.532  1.00  0.00     0.192 HD
HETATM   22  O3  UNL     1       5.768   1.433  -1.405  1.00  0.00    -0.245 OA
HETATM   23  N7  UNL     1       4.584   1.146   0.514  1.00  0.00    -0.271 N 
HETATM   24  C9  UNL     1       3.457   0.789   1.133  1.00  0.00     0.294 A 
ATOM     25  H7  UNL     1       5.378   1.466   1.069  1.00  0.00     0.174 HD
HETATM   26  O4  UNL     1       3.366   0.843   2.383  1.00  0.00    -0.264 OA
ENDBRANCH   2  16
TORSDOF 4
