REMARK  5 active torsions:
REMARK  status: ('A' for Active; 'I' for Inactive)
REMARK    1  A    between atoms: N3_4  and  C2_6 
REMARK    2  A    between atoms: C2_6  and  C3_7 
REMARK    3  A    between atoms: C3_7  and  C4_8 
REMARK    4  A    between atoms: C4_8  and  C5_9 
REMARK    5  A    between atoms: C5_9  and  C6_10 
ROOT
HETATM    1  C6  UNL     1      -0.561  -1.041  -0.800  1.00  0.00     0.175 C 
HETATM    2  N4  UNL     1      -0.776   0.061   0.048  1.00  0.00    -0.363 N 
ATOM      3  H4  UNL     1       0.053   0.216   0.622  1.00  0.00     0.161 HD
HETATM    4  C7  UNL     1      -1.771   1.036   0.372  1.00  0.00     0.142 C 
HETATM    5  N5  UNL     1      -1.220   2.268   0.819  1.00  0.00    -0.081 NA
HETATM    6  C8  UNL     1      -3.071   1.028   0.349  1.00  0.00     0.105 A 
HETATM    7  N6  UNL     1      -3.497   2.250   0.766  1.00  0.00    -0.314 N 
ATOM      8  H6  UNL     1      -2.803   2.953   1.019  1.00  0.00     0.169 HD
HETATM    9  C9  UNL     1      -4.805   2.564   0.856  1.00  0.00     0.314 A 
HETATM   10  O1  UNL     1      -5.150   3.712   1.249  1.00  0.00    -0.262 OA
HETATM   11  C10 UNL     1      -5.751   1.624   0.517  1.00  0.00     0.314 A 
HETATM   12  O2  UNL     1      -6.998   1.873   0.584  1.00  0.00    -0.262 OA
HETATM   13  N7  UNL     1      -5.390   0.419   0.104  1.00  0.00    -0.316 N 
ATOM     14  H7  UNL     1      -6.093  -0.276  -0.148  1.00  0.00     0.169 HD
HETATM   15  C11 UNL     1      -4.064   0.123   0.021  1.00  0.00     0.081 A 
HETATM   16  C12 UNL     1      -4.053  -1.111  -0.399  1.00  0.00     0.123 C 
HETATM   17  N8  UNL     1      -3.070  -2.086  -0.710  1.00  0.00    -0.333 N 
ATOM     18  H8  UNL     1      -3.435  -3.036  -0.778  1.00  0.00     0.168 HD
HETATM   19  C13 UNL     1      -1.676  -1.987  -0.944  1.00  0.00     0.244 C 
HETATM   20  O3  UNL     1      -1.251  -3.065  -1.439  1.00  0.00    -0.271 OA
ENDROOT
BRANCH   1  21
HETATM   21  C5  UNL     1       0.659  -1.833  -0.434  1.00  0.00     0.035 C 
BRANCH  21  22
HETATM   22  C4  UNL     1       1.945  -1.086  -0.477  1.00  0.00     0.004 C 
BRANCH  22  23
HETATM   23  C3  UNL     1       3.041  -2.083  -0.074  1.00  0.00     0.020 C 
BRANCH  23  24
HETATM   24  C2  UNL     1       4.387  -1.398  -0.092  1.00  0.00     0.122 C 
BRANCH  24  25
HETATM   25  N3  UNL     1       4.414  -0.298   0.822  1.00  0.00    -0.367 N 
HETATM   26  C1  UNL     1       4.995   0.821   0.636  1.00  0.00     0.196 C 
HETATM   27  N1  UNL     1       5.697   1.081  -0.554  1.00  0.00    -0.067 NA
HETATM   28  N2  UNL     1       4.916   1.804   1.660  1.00  0.00    -0.067 NA
ATOM     29  H3  UNL     1       3.921  -0.421   1.707  1.00  0.00     0.161 HD
ENDBRANCH  24  25
ENDBRANCH  23  24
ENDBRANCH  22  23
ENDBRANCH  21  22
ENDBRANCH   1  21
TORSDOF 5
