REMARK  11 active torsions:
REMARK  status: ('A' for Active; 'I' for Inactive)
REMARK    1  A    between atoms: C3_3  and  N1_4 
REMARK    2  A    between atoms: N1_4  and  C4_5 
REMARK    3  A    between atoms: C4_5  and  C5_6 
REMARK    4  A    between atoms: C5_6  and  N2_7 
REMARK    5  A    between atoms: N2_7  and  C8_10 
REMARK    6  A    between atoms: C8_10  and  C9_11 
REMARK    7  A    between atoms: C11_13  and  O1_14 
REMARK    8  A    between atoms: C12_16  and  O2_17 
REMARK    9  A    between atoms: C14_20  and  O3_21 
REMARK   10  A    between atoms: C15_23  and  O4_24 
REMARK   11  A    between atoms: C16_26  and  O5_27 
ROOT
HETATM    1  C1  UNL     1      -3.721   1.561   2.820  1.00  0.00     0.013 C 
HETATM    2  C2  UNL     1      -2.713   1.293   2.222  1.00  0.00    -0.089 C 
HETATM    3  C3  UNL     1      -1.481   0.989   1.514  1.00  0.00     0.330 C 
ENDROOT
BRANCH   3   4
HETATM    4  N1  UNL     1      -1.734  -0.008   0.479  1.00  0.00    -0.051 N 
HETATM    5  C13 UNL     1      -2.563  -1.060   0.942  1.00  0.00     0.273 C 
HETATM    6  C14 UNL     1      -3.906  -1.229   0.363  1.00  0.00     0.175 C 
HETATM    7  C15 UNL     1      -3.974  -0.851  -1.092  1.00  0.00     0.178 C 
HETATM    8  C16 UNL     1      -3.511   0.612  -1.137  1.00  0.00     0.175 C 
HETATM    9  C17 UNL     1      -2.082   0.612  -0.766  1.00  0.00     0.273 C 
BRANCH   4  10
HETATM   10  C4  UNL     1      -0.407  -0.624   0.231  1.00  0.00     0.266 C 
BRANCH  10  11
HETATM   11  C5  UNL     1       0.603   0.381  -0.093  1.00  0.00     0.264 C 
BRANCH  11  12
HETATM   12  N2  UNL     1       1.952  -0.157  -0.359  1.00  0.00    -0.072 N 
HETATM   13  C6  UNL     1       2.517  -0.759   0.800  1.00  0.00     0.272 C 
HETATM   14  C7  UNL     1       1.679  -1.262  -1.308  1.00  0.00     0.272 C 
BRANCH  12  15
HETATM   15  C8  UNL     1       2.630   0.903  -0.969  1.00  0.00     0.248 C 
BRANCH  15  16
HETATM   16  C9  UNL     1       4.066   1.138  -0.845  1.00  0.00     0.072 A 
HETATM   17  C10 UNL     1       4.714   1.379   0.428  1.00  0.00     0.017 A 
HETATM   18  C11 UNL     1       5.630   0.482   0.141  1.00  0.00     0.069 A 
HETATM   19  C12 UNL     1       5.074   0.131  -1.186  1.00  0.00     0.183 A 
BRANCH  18  20
HETATM   20  O1  UNL     1       6.747   0.032   0.875  1.00  0.00    -0.363 OA
ATOM     21  H1  UNL     1       7.409  -0.617   0.667  1.00  0.00     0.217 HD
ENDBRANCH  18  20
BRANCH  19  22
HETATM   22  O2  UNL     1       5.999   0.514  -2.185  1.00  0.00    -0.388 OA
ATOM     23  H2  UNL     1       6.653  -0.139  -2.406  1.00  0.00     0.210 HD
ENDBRANCH  19  22
ENDBRANCH  15  16
ENDBRANCH  12  15
ENDBRANCH  11  12
ENDBRANCH  10  11
ENDBRANCH   4  10
BRANCH   6  24
HETATM   24  O3  UNL     1      -4.299  -2.586   0.427  1.00  0.00    -0.391 OA
ATOM     25  H3  UNL     1      -5.166  -2.695   0.053  1.00  0.00     0.210 HD
ENDBRANCH   6  24
BRANCH   7  26
HETATM   26  O4  UNL     1      -5.224  -1.004  -1.632  1.00  0.00    -0.390 OA
ATOM     27  H4  UNL     1      -5.267  -0.765  -2.551  1.00  0.00     0.210 HD
ENDBRANCH   7  26
BRANCH   8  28
HETATM   28  O5  UNL     1      -3.626   1.003  -2.470  1.00  0.00    -0.391 OA
ATOM     29  H5  UNL     1      -3.339   1.908  -2.498  1.00  0.00     0.210 HD
ENDBRANCH   8  28
ENDBRANCH   3   4
TORSDOF 11
