REMARK  4 active torsions:
REMARK  status: ('A' for Active; 'I' for Inactive)
REMARK       I    between atoms: N1_2  and  C2_4 
REMARK       I    between atoms: C2_4  and  N2_6 
REMARK    1  A    between atoms: C7_16  and  S2_17 
REMARK    2  A    between atoms: S2_17  and  C8_18 
REMARK    3  A    between atoms: C8_18  and  C9_19 
REMARK    4  A    between atoms: C9_19  and  C10_20 
ROOT
HETATM    1  C1  UNL     1      -2.050   2.974  -2.150  1.00  0.00     0.151 C 
HETATM    2  N1  UNL     1      -2.088   1.588  -1.745  1.00  0.00    -0.347 N 
ATOM      3  H1  UNL     1      -1.904   0.872  -2.448  1.00  0.00     0.163 HD
HETATM    4  C2  UNL     1      -2.374   1.167  -0.391  1.00  0.00     0.323 C 
HETATM    5  O1  UNL     1      -2.587   2.128   0.394  1.00  0.00    -0.247 OA
HETATM    6  N2  UNL     1      -2.439  -0.145   0.074  1.00  0.00    -0.294 N 
HETATM    7  C3  UNL     1      -1.890  -1.264  -0.688  1.00  0.00     0.068 A 
HETATM    8  C4  UNL     1      -2.874  -2.213  -1.016  1.00  0.00     0.013 A 
HETATM    9  S1  UNL     1      -2.084  -3.255  -2.064  1.00  0.00    -0.074 SA
HETATM   10  C5  UNL     1      -0.539  -2.520  -2.087  1.00  0.00     0.090 A 
HETATM   11  N3  UNL     1       0.623  -2.843  -2.729  1.00  0.00    -0.346 N 
ATOM     12  H3  UNL     1       0.655  -3.656  -3.344  1.00  0.00     0.167 HD
HETATM   13  C6  UNL     1       1.721  -2.094  -2.552  1.00  0.00     0.182 A 
HETATM   14  N4  UNL     1       1.613  -1.066  -1.744  1.00  0.00    -0.346 N 
ATOM     15  H4  UNL     1       2.451  -0.500  -1.609  1.00  0.00     0.167 HD
HETATM   16  C7  UNL     1       0.509  -0.682  -1.075  1.00  0.00     0.086 A 
HETATM   17  C13 UNL     1      -0.675  -1.429  -1.237  1.00  0.00     0.059 A 
HETATM   18  C14 UNL     1      -4.226  -2.053  -0.333  1.00  0.00     0.050 C 
HETATM   19  C15 UNL     1      -3.948  -1.756   1.135  1.00  0.00     0.030 C 
HETATM   20  C16 UNL     1      -3.154  -0.460   1.270  1.00  0.00     0.091 C 
HETATM   21  C17 UNL     1      -4.197   0.599   1.571  1.00  0.00     0.033 C 
ENDROOT
BRANCH  16  22
HETATM   22  S2  UNL     1       0.661   0.604   0.149  1.00  0.00    -0.111 SA
BRANCH  22  23
HETATM   23  C8  UNL     1       2.368   1.160   0.250  1.00  0.00     0.081 C 
BRANCH  23  24
HETATM   24  C9  UNL     1       3.293   0.090   0.791  1.00  0.00     0.014 C 
BRANCH  24  25
HETATM   25  C10 UNL     1       4.725   0.639   0.847  1.00  0.00    -0.022 C 
HETATM   26  C11 UNL     1       5.593  -0.479   1.396  1.00  0.00     0.009 C 
HETATM   27  C12 UNL     1       4.809   1.803   1.820  1.00  0.00     0.009 C 
ENDBRANCH  24  25
ENDBRANCH  23  24
ENDBRANCH  22  23
ENDBRANCH  16  22
TORSDOF 4
