REMARK  5 active torsions:
REMARK  status: ('A' for Active; 'I' for Inactive)
REMARK    1  A    between atoms: C2_2  and  C3_3 
REMARK    2  A    between atoms: C3_3  and  C4_4 
REMARK    3  A    between atoms: C4_4  and  C5_5 
REMARK    4  A    between atoms: C11_13  and  C12_14 
REMARK       I    between atoms: C12_14  and  N1_16 
REMARK    5  A    between atoms: C14_23  and  C15_24 
ROOT
HETATM    1  C12 UNL     1      -0.492  -0.458  -0.445  1.00  0.00     0.261 C 
HETATM    2  O2  UNL     1      -0.480  -0.900  -1.632  1.00  0.00    -0.267 OA
HETATM    3  N1  UNL     1       0.645  -0.530   0.379  1.00  0.00    -0.302 N 
ATOM      4  H1  UNL     1       0.501  -0.761   1.362  1.00  0.00     0.171 HD
HETATM    5  C13 UNL     1       1.853  -0.326  -0.013  1.00  0.00     0.168 A 
HETATM    6  N2  UNL     1       2.338  -0.011  -1.208  1.00  0.00    -0.279 N 
ATOM      7  H2  UNL     1       1.706   0.129  -1.996  1.00  0.00     0.189 HD
HETATM    8  N3  UNL     1       3.590   0.115  -1.366  1.00  0.00    -0.295 N 
ATOM      9  H3  UNL     1       3.963   0.357  -2.284  1.00  0.00     0.187 HD
HETATM   10  C14 UNL     1       4.418  -0.065  -0.346  1.00  0.00     0.077 A 
HETATM   11  S2  UNL     1       3.318  -0.437   0.915  1.00  0.00    -0.037 SA
ENDROOT
BRANCH   1  12
HETATM   12  C11 UNL     1      -1.700   0.125   0.066  1.00  0.00     0.082 A 
HETATM   13  C5  UNL     1      -2.779  -0.362   0.750  1.00  0.00     0.071 A 
HETATM   14  O1  UNL     1      -3.662   0.603   0.965  1.00  0.00    -0.312 OA
HETATM   15  C6  UNL     1      -3.227   1.763   0.446  1.00  0.00     0.100 A 
HETATM   16  C7  UNL     1      -3.665   3.050   0.348  1.00  0.00    -0.020 A 
HETATM   17  C10 UNL     1      -2.018   1.480  -0.110  1.00  0.00     0.057 A 
HETATM   18  C8  UNL     1      -4.999   3.540   0.906  1.00  0.00     0.052 C 
HETATM   19  C9  UNL     1      -2.846   3.936  -0.300  1.00  0.00     0.060 A 
HETATM   20  S1  UNL     1      -1.510   2.973  -0.749  1.00  0.00    -0.098 SA
BRANCH  13  21
HETATM   21  C4  UNL     1      -2.909  -1.781   1.181  1.00  0.00     0.066 C 
BRANCH  21  22
HETATM   22  C3  UNL     1      -3.319  -2.654   0.017  1.00  0.00     0.006 C 
BRANCH  22  23
HETATM   23  C2  UNL     1      -4.611  -2.226  -0.595  1.00  0.00    -0.004 C 
HETATM   24  C1  UNL     1      -5.747  -2.290   0.386  1.00  0.00     0.005 C 
ENDBRANCH  22  23
ENDBRANCH  21  22
ENDBRANCH  13  21
ENDBRANCH   1  12
BRANCH  10  25
HETATM   25  C15 UNL     1       5.917   0.028  -0.312  1.00  0.00    -0.001 C 
HETATM   26  C16 UNL     1       6.446  -0.103  -1.721  1.00  0.00     0.021 C 
HETATM   27  C17 UNL     1       6.396   1.279   0.368  1.00  0.00     0.021 C 
HETATM   28  C18 UNL     1       6.383  -1.205   0.439  1.00  0.00     0.021 C 
ENDBRANCH  10  25
TORSDOF 5
