REMARK  4 active torsions:
REMARK  status: ('A' for Active; 'I' for Inactive)
REMARK    1  A    between atoms: C7_7  and  N1_8 
REMARK    2  A    between atoms: C7_7  and  N2_12 
REMARK       I    between atoms: N2_12  and  C8_14 
REMARK    3  A    between atoms: C8_14  and  C9_16 
REMARK    4  A    between atoms: C10_17  and  N3_18 
REMARK       I    between atoms: N3_18  and  C11_20 
ROOT
HETATM    1  N2  UNL     1      -0.803  -0.048   0.180  1.00  0.00    -0.324 N 
ATOM      2  H2  UNL     1      -0.498  -0.977  -0.111  1.00  0.00     0.165 HD
HETATM    3  C8  UNL     1       0.118   0.948   0.495  1.00  0.00     0.257 C 
HETATM    4  O1  UNL     1      -0.399   2.066   0.830  1.00  0.00    -0.267 OA
ENDROOT
BRANCH   3   5
HETATM    5  C9  UNL     1       1.594   0.839   0.472  1.00  0.00     0.073 A 
HETATM    6  C10 UNL     1       2.354   2.009   0.620  1.00  0.00     0.095 A 
HETATM    7  S1  UNL     1       3.969   1.449   0.585  1.00  0.00    -0.075 SA
HETATM    8  C12 UNL     1       3.694  -0.195   0.392  1.00  0.00    -0.008 A 
HETATM    9  C13 UNL     1       2.318  -0.304   0.358  1.00  0.00    -0.026 A 
HETATM   10  C17 UNL     1       4.519  -1.450   0.237  1.00  0.00     0.047 C 
HETATM   11  C14 UNL     1       1.950  -1.772   0.259  1.00  0.00     0.041 C 
HETATM   12  C15 UNL     1       2.564  -2.364  -0.990  1.00  0.00     0.005 C 
HETATM   13  C16 UNL     1       4.068  -2.194  -0.991  1.00  0.00     0.005 C 
BRANCH   6  14
HETATM   14  N3  UNL     1       1.943   3.385   0.744  1.00  0.00    -0.294 N 
HETATM   15  C11 UNL     1       3.007   4.358   0.915  1.00  0.00     0.288 C 
HETATM   16  O2  UNL     1       4.184   3.989   0.946  1.00  0.00    -0.629 OA
HETATM   17  O3  UNL     1       2.685   5.683   1.039  1.00  0.00    -0.629 OA
ATOM     18  H3  UNL     1       0.961   3.659   0.713  1.00  0.00     0.172 HD
ENDBRANCH   6  14
ENDBRANCH   3   5
BRANCH   1  19
HETATM   19  C7  UNL     1      -2.243   0.292   0.283  1.00  0.00     0.205 C 
HETATM   20  C2  UNL     1      -3.082  -0.929  -0.015  1.00  0.00     0.004 C 
HETATM   21  C1  UNL     1      -2.785  -2.082   0.906  1.00  0.00     0.019 C 
HETATM   22  C3  UNL     1      -4.522  -0.548   0.077  1.00  0.00     0.019 C 
HETATM   23  C4  UNL     1      -2.731  -1.219  -1.440  1.00  0.00     0.013 C 
HETATM   24  C5  UNL     1      -2.617   0.137  -2.053  1.00  0.00     0.005 C 
HETATM   25  C6  UNL     1      -2.568   1.142  -0.920  1.00  0.00     0.062 C 
BRANCH  19  26
HETATM   26  N1  UNL     1      -2.509   0.935   1.514  1.00  0.00    -0.052 N 
ATOM     27  H13 UNL     1      -3.500   1.170   1.576  1.00  0.00     0.277 HD
ATOM     28  H12 UNL     1      -2.432   0.265   2.280  1.00  0.00     0.277 HD
ATOM     29  H11 UNL     1      -1.943   1.759   1.715  1.00  0.00     0.277 HD
ENDBRANCH  19  26
ENDBRANCH   1  19
TORSDOF 4
