REMARK  7 active torsions:
REMARK  status: ('A' for Active; 'I' for Inactive)
REMARK    1  A    between atoms: C4_4  and  C5_5 
REMARK    2  A    between atoms: C6_6  and  C7_7 
REMARK    3  A    between atoms: C7_7  and  C8_8 
REMARK    4  A    between atoms: C9_9  and  C10_10 
REMARK    5  A    between atoms: C15_20  and  O1_21 
REMARK    6  A    between atoms: C18_25  and  O2_27 
REMARK    7  A    between atoms: C20_29  and  O3_30 
ROOT
HETATM    1  C1  UNL     1      -0.727  -1.584   2.321  1.00  0.00     0.022 C 
HETATM    2  C2  UNL     1      -0.405  -0.315   1.538  1.00  0.00     0.005 C 
HETATM    3  C3  UNL     1       0.743   0.234   2.705  1.00  0.00     0.022 C 
HETATM    4  C4  UNL     1       0.309  -0.290   0.531  1.00  0.00    -0.065 C 
HETATM    5  C12 UNL     1      -1.066  -0.617  -0.631  1.00  0.00     0.029 C 
HETATM    6  C13 UNL     1      -0.925  -2.057  -0.690  1.00  0.00     0.012 C 
HETATM    7  C14 UNL     1      -2.350  -2.582  -0.785  1.00  0.00     0.033 C 
HETATM    8  C15 UNL     1      -3.212  -1.448  -0.286  1.00  0.00     0.130 C 
HETATM    9  C16 UNL     1      -2.334  -0.218  -0.156  1.00  0.00     0.022 C 
HETATM   10  C17 UNL     1      -2.910   0.687  -1.347  1.00  0.00     0.022 C 
HETATM   11  C18 UNL     1      -2.623   0.610   1.023  1.00  0.00     0.091 C 
HETATM   12  C19 UNL     1      -3.704   0.053   1.978  1.00  0.00     0.049 C 
HETATM   13  C20 UNL     1      -1.412   0.779   1.870  1.00  0.00     0.165 C 
ENDROOT
BRANCH   4  14
HETATM   14  C5  UNL     1       1.114  -0.264  -0.623  1.00  0.00     0.000 C 
HETATM   15  C6  UNL     1       1.110  -0.494  -1.878  1.00  0.00    -0.023 C 
BRANCH  15  16
HETATM   16  C7  UNL     1       2.351  -0.236  -2.891  1.00  0.00     0.054 C 
BRANCH  16  17
HETATM   17  C8  UNL     1       3.180   0.249  -2.113  1.00  0.00    -0.021 C 
HETATM   18  C9  UNL     1       4.481   0.627  -2.539  1.00  0.00     0.028 C 
BRANCH  18  19
HETATM   19  C10 UNL     1       5.411   1.201  -1.622  1.00  0.00     0.062 A 
HETATM   20  C11 UNL     1       6.691   1.634  -1.973  1.00  0.00     0.135 A 
HETATM   21  N1  UNL     1       7.260   2.194  -0.929  1.00  0.00    -0.293 N 
HETATM   22  N2  UNL     1       6.423   2.153   0.104  1.00  0.00    -0.023 NA
ATOM     23  H1  UNL     1       8.197   2.597  -0.913  1.00  0.00     0.183 HD
HETATM   24  N3  UNL     1       5.286   1.540  -0.325  1.00  0.00    -0.283 N 
ATOM     25  H3  UNL     1       4.462   1.364   0.250  1.00  0.00     0.184 HD
ENDBRANCH  18  19
ENDBRANCH  16  17
ENDBRANCH  15  16
ENDBRANCH   4  14
BRANCH  13  26
HETATM   26  O3  UNL     1      -1.700   0.820   3.184  1.00  0.00    -0.391 OA
ATOM     27  H3  UNL     1      -2.328   1.502   3.391  1.00  0.00     0.210 HD
ENDBRANCH  13  26
BRANCH  11  28
HETATM   28  O2  UNL     1      -3.084   1.881   0.706  1.00  0.00    -0.387 OA
ATOM     29  H2  UNL     1      -3.271   2.416   1.468  1.00  0.00     0.210 HD
ENDBRANCH  11  28
BRANCH   8  30
HETATM   30  O1  UNL     1      -4.266  -1.327  -1.200  1.00  0.00    -0.395 OA
ATOM     31  H1  UNL     1      -4.809  -0.613  -0.886  1.00  0.00     0.210 HD
ENDBRANCH   8  30
TORSDOF 7
