REMARK  5 active torsions:
REMARK  status: ('A' for Active; 'I' for Inactive)
REMARK    1  A    between atoms: C3_3  and  N1_4 
REMARK    2  A    between atoms: N1_4  and  C4_6 
REMARK    3  A    between atoms: C4_6  and  C5_7 
REMARK    4  A    between atoms: C4_6  and  C10_17 
REMARK    5  A    between atoms: C6_10  and  C7_11 
ROOT
HETATM    1  C1  UNL     1      -4.096   3.767   1.534  1.00  0.00     0.018 C 
HETATM    2  C2  UNL     1      -3.431   2.762   1.468  1.00  0.00    -0.073 C 
HETATM    3  C3  UNL     1      -2.608   1.529   1.364  1.00  0.00     0.148 C 
ENDROOT
BRANCH   3   4
HETATM    4  N1  UNL     1      -2.185   1.415   0.030  1.00  0.00    -0.381 N 
ATOM      5  H1  UNL     1      -2.456   2.124  -0.651  1.00  0.00     0.160 HD
BRANCH   4   6
HETATM    6  C4  UNL     1      -1.388   0.325  -0.371  1.00  0.00     0.143 C 
BRANCH   6   7
HETATM    7  C5  UNL     1      -0.012   0.275   0.197  1.00  0.00     0.092 A 
HETATM    8  N2  UNL     1       1.101   0.018  -0.471  1.00  0.00    -0.340 N 
HETATM    9  C6  UNL     1       2.238   0.004   0.148  1.00  0.00     0.091 A 
ATOM     10  H2  UNL     1       1.063  -0.169  -1.473  1.00  0.00     0.167 HD
HETATM   11  N3  UNL     1       2.230   0.257   1.465  1.00  0.00    -0.314 N 
HETATM   12  S1  UNL     1       0.593   0.505   1.772  1.00  0.00     0.003 SA
ATOM     13  H3  UNL     1       3.015   0.291   2.115  1.00  0.00     0.175 HD
BRANCH   9  14
HETATM   14  C7  UNL     1       3.543  -0.284  -0.573  1.00  0.00     0.046 C 
HETATM   15  C8  UNL     1       4.530   0.803  -0.336  1.00  0.00     0.017 C 
HETATM   16  C9  UNL     1       4.077  -1.600  -0.024  1.00  0.00     0.017 C 
ENDBRANCH   9  14
ENDBRANCH   6   7
BRANCH   6  17
HETATM   17  C10 UNL     1      -2.036  -1.028  -0.216  1.00  0.00     0.006 C 
HETATM   18  C11 UNL     1      -1.045  -2.070  -0.689  1.00  0.00     0.012 C 
HETATM   19  C12 UNL     1      -3.297  -1.176  -0.997  1.00  0.00     0.012 C 
ENDBRANCH   6  17
ENDBRANCH   4   6
ENDBRANCH   3   4
TORSDOF 5
