REMARK  14 active torsions:
REMARK  status: ('A' for Active; 'I' for Inactive)
REMARK    1  A    between atoms: N3_5  and  C2_6 
REMARK    2  A    between atoms: C2_6  and  C3_7 
REMARK    3  A    between atoms: C3_7  and  N4_8 
REMARK    4  A    between atoms: N4_8  and  S1_10 
REMARK    5  A    between atoms: S1_10  and  C4_13 
REMARK    6  A    between atoms: C7_16  and  C8_17 
REMARK       I    between atoms: C8_17  and  N5_19 
REMARK    7  A    between atoms: N5_19  and  C9_21 
REMARK    8  A    between atoms: C9_21  and  C10_22 
REMARK    9  A    between atoms: C10_22  and  O4_23 
REMARK   10  A    between atoms: C11_25  and  O5_26 
REMARK   11  A    between atoms: C12_30  and  O6_31 
REMARK   12  A    between atoms: C13_33  and  O7_34 
REMARK   13  A    between atoms: O7_34  and  S2_35 
REMARK   14  A    between atoms: C14_39  and  O11_40 
ROOT
HETATM    1  C4  UNL     1       2.080   1.500  -3.441  1.00  0.00     0.079 A 
HETATM    2  C5  UNL     1       1.549   0.383  -2.857  1.00  0.00     0.026 A 
HETATM    3  C6  UNL     1       0.321   0.400  -2.200  1.00  0.00     0.018 A 
HETATM    4  C7  UNL     1      -0.373   1.572  -2.140  1.00  0.00     0.032 A 
HETATM    5  C15 UNL     1       0.140   2.739  -2.727  1.00  0.00     0.018 A 
HETATM    6  C16 UNL     1       1.355   2.666  -3.362  1.00  0.00     0.026 A 
ENDROOT
BRANCH   4   7
HETATM    7  C8  UNL     1      -1.670   1.625  -1.464  1.00  0.00     0.251 C 
HETATM    8  O3  UNL     1      -2.234   2.760  -1.280  1.00  0.00    -0.268 OA
HETATM    9  N5  UNL     1      -2.305   0.449  -1.016  1.00  0.00    -0.354 N 
ATOM     10  H5  UNL     1      -1.876  -0.466  -1.152  1.00  0.00     0.162 HD
BRANCH   9  11
HETATM   11  C9  UNL     1      -3.594   0.585  -0.353  1.00  0.00     0.168 C 
BRANCH  11  12
HETATM   12  C10 UNL     1      -4.188  -0.719   0.083  1.00  0.00     0.145 C 
HETATM   13  C11 UNL     1      -3.306  -1.498   0.988  1.00  0.00     0.254 C 
HETATM   14  N6  UNL     1      -3.914  -2.606   1.638  1.00  0.00    -0.367 N 
HETATM   15  C12 UNL     1      -5.304  -2.445   1.938  1.00  0.00     0.248 C 
ATOM     16  H6  UNL     1      -3.398  -3.454   1.873  1.00  0.00     0.158 HD
HETATM   17  C13 UNL     1      -5.720  -0.989   2.000  1.00  0.00     0.225 C 
HETATM   18  C14 UNL     1      -5.565  -0.440   0.596  1.00  0.00     0.193 C 
BRANCH  12  19
HETATM   19  O4  UNL     1      -4.346  -1.488  -1.097  1.00  0.00    -0.381 OA
ATOM     20  H4  UNL     1      -4.723  -2.315  -0.820  1.00  0.00     0.211 HD
ENDBRANCH  12  19
BRANCH  13  21
HETATM   21  O5  UNL     1      -2.667  -0.723   1.951  1.00  0.00    -0.374 OA
ATOM     22  H5  UNL     1      -2.103  -1.222   2.530  1.00  0.00     0.212 HD
ENDBRANCH  13  21
BRANCH  15  23
HETATM   23  O6  UNL     1      -5.738  -3.099   3.069  1.00  0.00    -0.374 OA
ATOM     24  H6  UNL     1      -6.661  -2.992   3.268  1.00  0.00     0.212 HD
ENDBRANCH  15  23
BRANCH  17  25
HETATM   25  O7  UNL     1      -7.050  -0.954   2.394  1.00  0.00    -0.244 OA
BRANCH  25  26
HETATM   26  S2  UNL     1      -7.236  -0.097   3.827  1.00  0.00     0.252 S 
HETATM   27  O8  UNL     1      -7.254  -1.052   4.997  1.00  0.00    -0.572 OA
HETATM   28  O9  UNL     1      -6.032   0.804   4.044  1.00  0.00    -0.572 OA
HETATM   29  O10 UNL     1      -8.620   0.848   3.812  1.00  0.00    -0.572 OA
ENDBRANCH  25  26
ENDBRANCH  17  25
BRANCH  18  30
HETATM   30  O11 UNL     1      -5.885   0.919   0.546  1.00  0.00    -0.390 OA
ATOM     31  H11 UNL     1      -6.760   1.096   0.872  1.00  0.00     0.210 HD
ENDBRANCH  18  30
ENDBRANCH  11  12
ENDBRANCH   9  11
ENDBRANCH   4   7
BRANCH   1  32
HETATM   32  S1  UNL     1       3.615   1.460  -4.261  1.00  0.00     0.258 S 
HETATM   33  O1  UNL     1       3.853   0.055  -4.777  1.00  0.00    -0.201 OA
HETATM   34  O2  UNL     1       3.566   2.422  -5.414  1.00  0.00    -0.201 OA
BRANCH  32  35
HETATM   35  N4  UNL     1       4.852   1.832  -3.155  1.00  0.00    -0.314 N 
ATOM     36  H4  UNL     1       5.459   2.645  -3.264  1.00  0.00     0.172 HD
BRANCH  35  37
HETATM   37  C3  UNL     1       4.978   0.922  -2.063  1.00  0.00     0.154 C 
BRANCH  37  38
HETATM   38  C2  UNL     1       6.111   1.354  -1.146  1.00  0.00     0.174 C 
BRANCH  38  39
HETATM   39  N3  UNL     1       6.175   0.395  -0.071  1.00  0.00    -0.239 N 
HETATM   40  N2  UNL     1       5.460   0.620   1.015  1.00  0.00    -0.233 N 
HETATM   41  N1  UNL     1       5.482  -0.227   2.026  1.00  0.00    -0.245 N 
ATOM     42  H2  UNL     1       4.883   1.459   1.073  1.00  0.00     0.209 HD
HETATM   43  C1  UNL     1       4.695   0.028   3.210  1.00  0.00     0.183 C 
HETATM   44  C19 UNL     1       6.223  -1.354   2.014  1.00  0.00     0.294 A 
HETATM   45  C18 UNL     1       6.980  -1.615   0.893  1.00  0.00     0.166 A 
HETATM   46  O13 UNL     1       6.248  -2.169   2.979  1.00  0.00    -0.264 OA
HETATM   47  C17 UNL     1       6.937  -0.707  -0.153  1.00  0.00     0.295 A 
HETATM   48  N7  UNL     1       7.687  -2.685   0.874  1.00  0.00    -0.390 N 
HETATM   49  O12 UNL     1       7.614  -0.924  -1.176  1.00  0.00    -0.264 OA
ATOM     50  H72 UNL     1       8.247  -2.878   0.044  1.00  0.00     0.156 HD
ATOM     51  H71 UNL     1       7.719  -3.353   1.644  1.00  0.00     0.156 HD
ENDBRANCH  38  39
ENDBRANCH  37  38
ENDBRANCH  35  37
ENDBRANCH  32  35
ENDBRANCH   1  32
TORSDOF 14
