REMARK  14 active torsions:
REMARK  status: ('A' for Active; 'I' for Inactive)
REMARK    1  A    between atoms: N1_1  and  C1_5 
REMARK    2  A    between atoms: C1_5  and  C2_6 
REMARK       I    between atoms: C2_6  and  N2_8 
REMARK       I    between atoms: N2_8  and  C3_10 
REMARK       I    between atoms: C3_10  and  N3_12 
REMARK    3  A    between atoms: N3_12  and  C4_14 
REMARK    4  A    between atoms: C6_17  and  O4_18 
REMARK    5  A    between atoms: C7_20  and  C8_21 
REMARK    6  A    between atoms: C8_21  and  N4_22 
REMARK    7  A    between atoms: C8_21  and  C9_26 
REMARK    8  A    between atoms: C12_29  and  O5_30 
REMARK    9  A    between atoms: O5_30  and  S1_31 
REMARK   10  A    between atoms: C13_35  and  O9_36 
REMARK   11  A    between atoms: O9_36  and  C14_37 
REMARK   12  A    between atoms: C16_41  and  O10_42 
REMARK   13  A    between atoms: C17_44  and  O11_45 
REMARK   14  A    between atoms: C18_47  and  N6_48 
ROOT
HETATM    1  C9  UNL     1       0.642   1.872  -0.447  1.00  0.00    -0.021 A 
HETATM    2  C10 UNL     1       0.502   3.130   0.118  1.00  0.00     0.012 A 
HETATM    3  C11 UNL     1      -0.715   3.745   0.265  1.00  0.00     0.042 A 
HETATM    4  C12 UNL     1      -1.835   3.100  -0.157  1.00  0.00     0.125 A 
HETATM    5  C13 UNL     1      -1.756   1.832  -0.732  1.00  0.00     0.107 A 
HETATM    6  C20 UNL     1      -0.528   1.255  -0.862  1.00  0.00     0.049 A 
ENDROOT
BRANCH   1   7
HETATM    7  C8  UNL     1       1.986   1.301  -0.555  1.00  0.00     0.251 C 
BRANCH   7   8
HETATM    8  C7  UNL     1       2.126   0.090   0.308  1.00  0.00     0.021 A 
HETATM    9  C6  UNL     1       1.927   0.023   1.760  1.00  0.00     0.176 A 
HETATM   10  C5  UNL     1       3.011   0.548   2.617  1.00  0.00     0.193 C 
HETATM   11  C22 UNL     1       2.284  -1.405   2.150  1.00  0.00     0.204 A 
HETATM   12  C4  UNL     1       3.493  -0.833   2.858  1.00  0.00     0.193 C 
HETATM   13  O3  UNL     1       3.361   1.657   2.974  1.00  0.00    -0.292 OA
HETATM   14  O12 UNL     1       2.505  -2.010   0.916  1.00  0.00    -0.351 OA
HETATM   15  C21 UNL     1       2.461  -1.119  -0.131  1.00  0.00     0.144 A 
BRANCH   9  16
HETATM   16  O4  UNL     1       0.636   0.303   2.200  1.00  0.00    -0.374 OA
ATOM     17  H4  UNL     1      -0.061  -0.034   1.649  1.00  0.00     0.211 HD
ENDBRANCH   9  16
BRANCH  12  18
HETATM   18  N3  UNL     1       4.776  -1.134   2.221  1.00  0.00    -0.329 N 
HETATM   19  C3  UNL     1       5.789  -1.785   2.895  1.00  0.00     0.323 C 
HETATM   20  N2  UNL     1       7.057  -2.129   2.430  1.00  0.00    -0.278 N 
HETATM   21  O2  UNL     1       5.532  -2.121   4.116  1.00  0.00    -0.247 OA
HETATM   22  C2  UNL     1       7.674  -1.914   1.186  1.00  0.00     0.251 C 
ATOM     23  H2  UNL     1       7.637  -2.621   3.109  1.00  0.00     0.173 HD
HETATM   24  O1  UNL     1       8.880  -2.342   1.062  1.00  0.00    -0.271 OA
ATOM     25  H3  UNL     1       4.926  -0.855   1.251  1.00  0.00     0.165 HD
BRANCH  22  26
HETATM   26  C1  UNL     1       7.117  -1.259  -0.002  1.00  0.00     0.332 C 
BRANCH  26  27
HETATM   27  N1  UNL     1       8.081  -1.218  -1.099  1.00  0.00    -0.071 N 
ATOM     28  H13 UNL     1       8.956  -0.781  -0.809  1.00  0.00     0.274 HD
ATOM     29  H12 UNL     1       8.434  -2.149  -1.319  1.00  0.00     0.274 HD
ATOM     30  H11 UNL     1       7.694  -0.762  -1.925  1.00  0.00     0.274 HD
ENDBRANCH  26  27
ENDBRANCH  22  26
ENDBRANCH  12  18
ENDBRANCH   7   8
BRANCH   7  31
HETATM   31  N4  UNL     1       2.171   0.926  -1.954  1.00  0.00    -0.067 N 
ATOM     32  H43 UNL     1       3.055   0.442  -2.110  1.00  0.00     0.275 HD
ATOM     33  H42 UNL     1       1.542   0.175  -2.238  1.00  0.00     0.275 HD
ATOM     34  H41 UNL     1       2.075   1.753  -2.543  1.00  0.00     0.275 HD
ENDBRANCH   7  31
ENDBRANCH   1   7
BRANCH   5  35
HETATM   35  O9  UNL     1      -2.949   1.270  -1.121  1.00  0.00    -0.321 OA
BRANCH  35  36
HETATM   36  C14 UNL     1      -3.139  -0.015  -1.653  1.00  0.00     0.248 C 
HETATM   37  N5  UNL     1      -3.748  -0.058  -2.943  1.00  0.00    -0.392 N 
HETATM   38  C15 UNL     1      -5.008  -0.722  -3.020  1.00  0.00     0.150 C 
ATOM     39  H5  UNL     1      -3.308   0.362  -3.762  1.00  0.00     0.155 HD
HETATM   40  C16 UNL     1      -5.049  -2.110  -2.474  1.00  0.00     0.166 C 
HETATM   41  C17 UNL     1      -4.061  -2.251  -1.344  1.00  0.00     0.175 C 
HETATM   42  C18 UNL     1      -3.961  -0.885  -0.689  1.00  0.00     0.164 C 
BRANCH  40  43
HETATM   43  O10 UNL     1      -4.777  -3.091  -3.428  1.00  0.00    -0.391 OA
ATOM     44  H10 UNL     1      -4.803  -3.975  -3.080  1.00  0.00     0.210 HD
ENDBRANCH  40  43
BRANCH  41  45
HETATM   45  O11 UNL     1      -4.499  -3.225  -0.472  1.00  0.00    -0.391 OA
ATOM     46  H11 UNL     1      -3.876  -3.314   0.240  1.00  0.00     0.210 HD
ENDBRANCH  41  45
BRANCH  42  47
HETATM   47  N6  UNL     1      -3.301  -0.962   0.589  1.00  0.00    -0.355 N 
HETATM   48  C19 UNL     1      -3.796  -0.401   1.625  1.00  0.00     0.197 C 
HETATM   49  N7  UNL     1      -5.036   0.313   1.478  1.00  0.00    -0.067 NA
HETATM   50  N8  UNL     1      -3.189  -0.444   2.915  1.00  0.00    -0.067 NA
ATOM     51  H6  UNL     1      -2.422  -1.474   0.669  1.00  0.00     0.162 HD
ENDBRANCH  42  47
ENDBRANCH  35  36
ENDBRANCH   5  35
BRANCH   4  52
HETATM   52  O5  UNL     1      -3.057   3.742   0.002  1.00  0.00    -0.211 OA
BRANCH  52  53
HETATM   53  S1  UNL     1      -3.765   4.764  -1.133  1.00  0.00     0.257 S 
HETATM   54  O6  UNL     1      -3.024   6.085  -1.249  1.00  0.00    -0.572 OA
HETATM   55  O7  UNL     1      -5.173   5.069  -0.641  1.00  0.00    -0.572 OA
HETATM   56  O8  UNL     1      -3.880   4.083  -2.654  1.00  0.00    -0.572 OA
ENDBRANCH  52  53
ENDBRANCH   4  52
TORSDOF 14
