REMARK  11 active torsions:
REMARK  status: ('A' for Active; 'I' for Inactive)
REMARK    1  A    between atoms: C2_2  and  C3_3 
REMARK    2  A    between atoms: C8_8  and  C9_9 
REMARK    3  A    between atoms: N1_10  and  N2_12 
REMARK       I    between atoms: N2_12  and  C10_14 
REMARK       I    between atoms: C10_14  and  N3_16 
REMARK    4  A    between atoms: N3_16  and  O2_18 
REMARK    5  A    between atoms: C13_22  and  O4_23 
REMARK    6  A    between atoms: O4_23  and  C14_24 
REMARK    7  A    between atoms: C16_26  and  O5_27 
REMARK    8  A    between atoms: C17_29  and  O6_30 
REMARK    9  A    between atoms: C18_32  and  C19_33 
REMARK   10  A    between atoms: C19_33  and  O7_34 
REMARK   11  A    between atoms: C20_37  and  O9_38 
ROOT
HETATM    1  C3  UNL     1      -0.529  -0.200   1.397  1.00  0.00     0.044 A 
HETATM    2  C4  UNL     1      -0.924  -1.556   0.898  1.00  0.00     0.025 A 
HETATM    3  C5  UNL     1       0.495  -1.771   0.404  1.00  0.00     0.025 A 
HETATM    4  C6  UNL     1       0.628  -2.030  -1.053  1.00  0.00     0.008 C 
HETATM    5  C7  UNL     1       0.763  -0.797  -1.897  1.00  0.00     0.013 C 
HETATM    6  C8  UNL     1       1.713   0.208  -1.298  1.00  0.00     0.058 C 
HETATM    7  C12 UNL     1       1.144   0.654   0.004  1.00  0.00     0.169 C 
HETATM    8  O3  UNL     1      -0.023   1.353  -0.262  1.00  0.00    -0.351 OA
HETATM    9  C13 UNL     1      -0.999   0.968   0.613  1.00  0.00     0.275 C 
HETATM   10  C20 UNL     1       0.880  -0.462   0.912  1.00  0.00     0.100 A 
ENDROOT
BRANCH   9  11
HETATM   11  O4  UNL     1      -2.119   0.583  -0.132  1.00  0.00    -0.331 OA
BRANCH  11  12
HETATM   12  C14 UNL     1      -3.246   1.333   0.173  1.00  0.00     0.266 C 
HETATM   13  C15 UNL     1      -3.579   2.203  -1.035  1.00  0.00     0.095 C 
HETATM   14  C16 UNL     1      -4.020   1.263  -2.117  1.00  0.00     0.154 C 
HETATM   15  C17 UNL     1      -5.183   0.454  -1.643  1.00  0.00     0.178 C 
HETATM   16  C18 UNL     1      -5.140   0.012  -0.231  1.00  0.00     0.179 C 
HETATM   17  O8  UNL     1      -4.320   0.656   0.629  1.00  0.00    -0.351 OA
BRANCH  14  18
HETATM   18  O5  UNL     1      -2.948   0.522  -2.569  1.00  0.00    -0.393 OA
ATOM     19  H5  UNL     1      -3.227  -0.073  -3.254  1.00  0.00     0.210 HD
ENDBRANCH  14  18
BRANCH  15  20
HETATM   20  O6  UNL     1      -6.346   1.210  -1.913  1.00  0.00    -0.390 OA
ATOM     21  H6  UNL     1      -7.086   0.696  -1.612  1.00  0.00     0.210 HD
ENDBRANCH  15  20
BRANCH  16  22
HETATM   22  C19 UNL     1      -4.959  -1.506  -0.211  1.00  0.00     0.198 C 
BRANCH  22  23
HETATM   23  O7  UNL     1      -5.218  -2.025   1.056  1.00  0.00    -0.398 OA
ATOM     24  H7  UNL     1      -5.106  -2.968   1.068  1.00  0.00     0.209 HD
ENDBRANCH  22  23
ENDBRANCH  16  22
ENDBRANCH  11  12
ENDBRANCH   9  11
BRANCH   1  25
HETATM   25  C2  UNL     1      -0.682  -0.103   2.892  1.00  0.00     0.013 C 
HETATM   26  C1  UNL     1      -0.300   1.228   3.455  1.00  0.00     0.006 C 
ENDBRANCH   1  25
BRANCH  10  27
HETATM   27  O9  UNL     1       1.735  -0.534   2.037  1.00  0.00    -0.386 OA
ATOM     28  H9  UNL     1       2.620  -0.699   1.732  1.00  0.00     0.210 HD
ENDBRANCH  10  27
BRANCH   6  29
HETATM   29  C9  UNL     1       3.069  -0.376  -1.168  1.00  0.00     0.087 C 
HETATM   30  N1  UNL     1       3.765  -0.222  -0.114  1.00  0.00    -0.311 N 
ATOM     31  H1  UNL     1       3.373   0.319   0.657  1.00  0.00     0.185 HD
BRANCH  30  32
HETATM   32  N2  UNL     1       5.038  -0.761   0.029  1.00  0.00    -0.251 N 
HETATM   33  C10 UNL     1       6.193   0.054  -0.037  1.00  0.00     0.358 C 
HETATM   34  O1  UNL     1       6.124   1.301  -0.227  1.00  0.00    -0.243 OA
HETATM   35  N3  UNL     1       7.466  -0.533   0.114  1.00  0.00    -0.216 N 
ATOM     36  H3  UNL     1       7.551  -1.538   0.268  1.00  0.00     0.199 HD
ATOM     37  H2  UNL     1       5.142  -1.764   0.185  1.00  0.00     0.191 HD
BRANCH  35  38
HETATM   38  O2  UNL     1       8.567   0.234   0.054  1.00  0.00    -0.281 OA
HETATM   39  C11 UNL     1       8.594   0.983  -1.121  1.00  0.00     0.237 C 
ENDBRANCH  35  38
ENDBRANCH  30  32
ENDBRANCH   6  29
TORSDOF 11
