REMARK  15 active torsions:
REMARK  status: ('A' for Active; 'I' for Inactive)
REMARK    1  A    between atoms: C1_4  and  C2_5 
REMARK    2  A    between atoms: C1_4  and  N8_31 
REMARK    3  A    between atoms: C2_5  and  C3_6 
REMARK    4  A    between atoms: C3_6  and  C4_7 
REMARK    5  A    between atoms: C4_7  and  C5_8 
REMARK    6  A    between atoms: C4_7  and  S1_11 
REMARK    7  A    between atoms: S1_11  and  C6_14 
REMARK    8  A    between atoms: N4_18  and  C7_19 
REMARK    9  A    between atoms: C7_19  and  C8_20 
REMARK   10  A    between atoms: C8_20  and  C9_21 
REMARK   11  A    between atoms: C9_21  and  N5_22 
REMARK   12  A    between atoms: C9_21  and  C10_26 
REMARK   13  A    between atoms: N8_31  and  N9_33 
REMARK       I    between atoms: N9_33  and  C11_35 
REMARK   14  A    between atoms: C11_35  and  C12_37 
REMARK   15  A    between atoms: C13_40  and  N11_41 
ROOT
HETATM    1  C3  UNL     1       1.631  -3.109   0.527  1.00  0.00     0.039 C 
ENDROOT
BRANCH   1   2
HETATM    2  C2  UNL     1       2.458  -1.909   0.855  1.00  0.00     0.079 C 
BRANCH   2   3
HETATM    3  C1  UNL     1       3.877  -2.337   1.085  1.00  0.00     0.089 C 
HETATM    4  N1  UNL     1       4.177  -3.571   1.062  1.00  0.00    -0.388 N 
ATOM      5  H12 UNL     1       3.430  -4.241   0.879  1.00  0.00     0.157 HD
ATOM      6  H11 UNL     1       5.142  -3.862   1.218  1.00  0.00     0.157 HD
BRANCH   3   7
HETATM    7  N8  UNL     1       4.907  -1.413   1.338  1.00  0.00    -0.286 N 
ATOM      8  H8  UNL     1       5.570  -1.599   2.091  1.00  0.00     0.188 HD
BRANCH   7   9
HETATM    9  N9  UNL     1       5.044  -0.237   0.575  1.00  0.00    -0.262 N 
HETATM   10  C11 UNL     1       6.233   0.507   0.605  1.00  0.00     0.304 C 
HETATM   11  O6  UNL     1       7.176   0.088   1.337  1.00  0.00    -0.263 OA
ATOM     12  H9  UNL     1       4.268   0.078  -0.007  1.00  0.00     0.190 HD
BRANCH  10  13
HETATM   13  C12 UNL     1       6.389   1.723  -0.178  1.00  0.00     0.195 A 
HETATM   14  N10 UNL     1       7.584   2.360  -0.084  1.00  0.00    -0.171 N 
HETATM   15  C13 UNL     1       7.771   3.484  -0.789  1.00  0.00     0.681 A 
ATOM     16  H10 UNL     1       8.325   1.990   0.512  1.00  0.00     0.186 HD
HETATM   17  N12 UNL     1       6.811   3.991  -1.581  1.00  0.00    -0.141 N 
HETATM   18  C14 UNL     1       5.639   3.354  -1.664  1.00  0.00     0.340 A 
ATOM     19  H12 UNL     1       6.974   4.848  -2.110  1.00  0.00     0.189 HD
HETATM   20  O7  UNL     1       4.718   3.798  -2.394  1.00  0.00    -0.246 OA
HETATM   21  N13 UNL     1       5.419   2.221  -0.968  1.00  0.00    -0.289 N 
ATOM     22  H13 UNL     1       4.521   1.743  -1.039  1.00  0.00     0.172 HD
BRANCH  15  23
HETATM   23  N11 UNL     1       8.912   4.082  -0.692  1.00  0.00    -0.234 N 
ATOM     24 2H11 UNL     1       9.641   3.697  -0.091  1.00  0.00     0.174 HD
ATOM     25 1H11 UNL     1       9.054   4.938  -1.229  1.00  0.00     0.174 HD
ENDBRANCH  15  23
ENDBRANCH  10  13
ENDBRANCH   7   9
ENDBRANCH   3   7
ENDBRANCH   2   3
ENDBRANCH   1   2
BRANCH   1  26
HETATM   26  C4  UNL     1       0.234  -2.903   0.236  1.00  0.00     0.217 C 
BRANCH  26  27
HETATM   27  C5  UNL     1      -0.666  -3.983  -0.007  1.00  0.00     0.192 C 
HETATM   28  O1  UNL     1      -1.306  -4.583   0.904  1.00  0.00    -0.647 OA
HETATM   29  O2  UNL     1      -0.838  -4.388  -1.352  1.00  0.00    -0.647 OA
ENDBRANCH  26  27
BRANCH  26  30
HETATM   30  S1  UNL     1      -0.346  -1.455   0.067  1.00  0.00     0.223 S 
HETATM   31  O3  UNL     1      -0.006  -1.269  -1.428  1.00  0.00    -0.219 OA
HETATM   32  O4  UNL     1       0.336  -0.270   0.976  1.00  0.00    -0.219 OA
BRANCH  30  33
HETATM   33  C6  UNL     1      -2.091  -1.459   0.179  1.00  0.00     0.232 A 
HETATM   34  N2  UNL     1      -2.914  -2.072   1.022  1.00  0.00    -0.257 N 
HETATM   35  N3  UNL     1      -4.157  -1.759   0.701  1.00  0.00    -0.002 NA
ATOM     36  H2  UNL     1      -2.633  -2.683   1.789  1.00  0.00     0.186 HD
HETATM   37  N4  UNL     1      -4.149  -0.938  -0.355  1.00  0.00    -0.216 N 
HETATM   38  N7  UNL     1      -2.896  -0.765  -0.660  1.00  0.00    -0.260 N 
ATOM     39  H7  UNL     1      -2.564  -0.183  -1.429  1.00  0.00     0.190 HD
BRANCH  37  40
HETATM   40  C7  UNL     1      -5.376  -0.424  -0.930  1.00  0.00     0.169 C 
BRANCH  40  41
HETATM   41  C8  UNL     1      -5.735   0.884  -0.254  1.00  0.00     0.065 C 
BRANCH  41  42
HETATM   42  C9  UNL     1      -6.994   1.480  -0.789  1.00  0.00     0.273 C 
BRANCH  42  43
HETATM   43  N5  UNL     1      -8.145   0.631  -0.625  1.00  0.00    -0.067 N 
ATOM     44  H53 UNL     1      -7.978  -0.288  -1.035  1.00  0.00     0.275 HD
ATOM     45  H52 UNL     1      -8.259   0.362   0.352  1.00  0.00     0.275 HD
ATOM     46  H51 UNL     1      -9.006   1.038  -0.991  1.00  0.00     0.275 HD
ENDBRANCH  42  43
BRANCH  42  47
HETATM   47  C10 UNL     1      -7.229   2.766  -0.097  1.00  0.00     0.261 C 
HETATM   48  N6  UNL     1      -8.424   3.030   0.600  1.00  0.00    -0.060 NA
HETATM   49  O5  UNL     1      -6.308   3.637  -0.151  1.00  0.00    -0.275 OA
ENDBRANCH  42  47
ENDBRANCH  41  42
ENDBRANCH  40  41
ENDBRANCH  37  40
ENDBRANCH  30  33
ENDBRANCH  26  30
ENDBRANCH   1  26
TORSDOF 15
