REMARK  11 active torsions:
REMARK  status: ('A' for Active; 'I' for Inactive)
REMARK    1  A    between atoms: N1_2  and  C2_3 
REMARK    2  A    between atoms: N1_2  and  C16_20 
REMARK    3  A    between atoms: C2_3  and  C3_4 
REMARK    4  A    between atoms: C3_4  and  N2_5 
REMARK    5  A    between atoms: N2_5  and  C4_7 
REMARK    6  A    between atoms: C7_10  and  C8_11 
REMARK    7  A    between atoms: C8_11  and  C9_12 
REMARK    8  A    between atoms: C9_12  and  C10_13 
REMARK    9  A    between atoms: C10_13  and  C11_14 
REMARK   10  A    between atoms: C11_14  and  C12_15 
REMARK   11  A    between atoms: C16_20  and  C17_21 
ROOT
HETATM    1  C12 UNL     1       6.287  -2.345  -1.366  1.00  0.00     0.124 C 
HETATM    2  C13 UNL     1       7.104  -3.501  -1.878  1.00  0.00     0.059 C 
HETATM    3  N3  UNL     1       7.745  -4.382  -2.259  1.00  0.00    -0.197 NA
ENDROOT
BRANCH   1   4
HETATM    4  C11 UNL     1       7.057  -1.734  -0.281  1.00  0.00     0.014 C 
BRANCH   4   5
HETATM    5  C10 UNL     1       6.569  -0.590   0.490  1.00  0.00     0.001 C 
BRANCH   5   6
HETATM    6  C9  UNL     1       6.244   0.690  -0.149  1.00  0.00     0.005 C 
BRANCH   6   7
HETATM    7  C8  UNL     1       5.076   0.815  -1.033  1.00  0.00     0.038 C 
BRANCH   7   8
HETATM    8  C7  UNL     1       3.783   0.610  -0.317  1.00  0.00    -0.058 A 
HETATM    9  C6  UNL     1       3.075  -0.551  -0.225  1.00  0.00     0.009 A 
HETATM   10  C5  UNL     1       1.887  -0.658   0.476  1.00  0.00     0.029 A 
HETATM   11  C4  UNL     1       1.367   0.459   1.129  1.00  0.00     0.028 A 
HETATM   12  C15 UNL     1       2.084   1.619   1.031  1.00  0.00     0.029 A 
HETATM   13  C14 UNL     1       3.267   1.728   0.333  1.00  0.00     0.009 A 
BRANCH  11  14
HETATM   14  N2  UNL     1       0.160   0.370   1.868  1.00  0.00    -0.388 N 
ATOM     15  H2  UNL     1      -0.219  -0.556   2.068  1.00  0.00     0.159 HD
BRANCH  14  16
HETATM   16  C3  UNL     1      -0.553   1.515   2.347  1.00  0.00     0.150 C 
BRANCH  16  17
HETATM   17  C2  UNL     1      -1.151   2.339   1.261  1.00  0.00     0.292 C 
BRANCH  17  18
HETATM   18  N1  UNL     1      -2.115   1.578   0.451  1.00  0.00     0.092 N 
HETATM   19  C1  UNL     1      -2.610   2.495  -0.556  1.00  0.00     0.310 C 
BRANCH  18  20
HETATM   20  C16 UNL     1      -3.152   1.136   1.352  1.00  0.00     0.348 C 
BRANCH  20  21
HETATM   21  C17 UNL     1      -4.253   0.436   0.663  1.00  0.00     0.111 A 
HETATM   22  N4  UNL     1      -4.419   0.147  -0.638  1.00  0.00    -0.343 N 
HETATM   23  C18 UNL     1      -5.565  -0.497  -0.809  1.00  0.00     0.062 A 
ATOM     24  H4  UNL     1      -3.763   0.387  -1.381  1.00  0.00     0.167 HD
HETATM   25  C19 UNL     1      -6.262  -1.037  -1.880  1.00  0.00     0.058 A 
HETATM   26  C23 UNL     1      -6.146  -0.621   0.431  1.00  0.00     0.060 A 
HETATM   27  C20 UNL     1      -7.477  -1.669  -1.723  1.00  0.00     0.048 A 
HETATM   28  N5  UNL     1      -8.193  -2.224  -2.821  1.00  0.00    -0.102 NA
HETATM   29  C21 UNL     1      -8.045  -1.784  -0.473  1.00  0.00     0.029 A 
HETATM   30  C22 UNL     1      -7.370  -1.252   0.625  1.00  0.00     0.034 A 
HETATM   31  N6  UNL     1      -5.331  -0.047   1.307  1.00  0.00    -0.343 N 
ATOM     32  H6  UNL     1      -5.496   0.018   2.311  1.00  0.00     0.167 HD
ENDBRANCH  20  21
ENDBRANCH  18  20
ENDBRANCH  17  18
ENDBRANCH  16  17
ENDBRANCH  14  16
ENDBRANCH  11  14
ENDBRANCH   7   8
ENDBRANCH   6   7
ENDBRANCH   5   6
ENDBRANCH   4   5
ENDBRANCH   1   4
TORSDOF 11
