REMARK  6 active torsions:
REMARK  status: ('A' for Active; 'I' for Inactive)
REMARK    1  A    between atoms: N1_2  and  C2_3 
REMARK    2  A    between atoms: C2_3  and  C3_4 
REMARK    3  A    between atoms: C3_4  and  C4_5 
REMARK    4  A    between atoms: C4_5  and  N2_6 
REMARK    5  A    between atoms: C7_9  and  O1_10 
REMARK    6  A    between atoms: C14_18  and  O2_19 
ROOT
HETATM    1  C3  UNL     1      -0.382   0.161   0.998  1.00  0.00     0.056 C 
ENDROOT
BRANCH   1   2
HETATM    2  C2  UNL     1      -1.763   0.681   0.874  1.00  0.00     0.241 C 
BRANCH   2   3
HETATM    3  N1  UNL     1      -2.467   0.423  -0.328  1.00  0.00    -0.045 N 
HETATM    4  C1  UNL     1      -2.257   1.388  -1.367  1.00  0.00     0.275 C 
HETATM    5  C11 UNL     1      -2.331  -0.912  -0.840  1.00  0.00     0.240 C 
HETATM    6  C12 UNL     1      -3.260  -1.808  -0.052  1.00  0.00     0.032 C 
HETATM    7  C13 UNL     1      -4.209  -0.865   0.640  1.00  0.00     0.063 C 
HETATM    8  C14 UNL     1      -3.905   0.446  -0.011  1.00  0.00     0.322 C 
BRANCH   8   9
HETATM    9  O2  UNL     1      -4.184   1.535   0.833  1.00  0.00    -0.369 OA
ATOM     10  H2  UNL     1      -5.112   1.550   1.037  1.00  0.00     0.212 HD
ENDBRANCH   8   9
ENDBRANCH   2   3
ENDBRANCH   1   2
BRANCH   1  11
HETATM   11  C4  UNL     1       0.549   0.691  -0.031  1.00  0.00     0.239 C 
BRANCH  11  12
HETATM   12  N2  UNL     1       1.898   0.186   0.096  1.00  0.00    -0.066 N 
HETATM   13  C5  UNL     1       2.133  -1.143  -0.365  1.00  0.00     0.240 C 
HETATM   14  C6  UNL     1       3.596  -1.358  -0.711  1.00  0.00     0.060 C 
HETATM   15  C7  UNL     1       4.512  -0.518   0.135  1.00  0.00     0.127 C 
HETATM   16  C8  UNL     1       3.809   0.702   0.649  1.00  0.00     0.067 C 
HETATM   17  C9  UNL     1       2.524   0.371   1.378  1.00  0.00     0.246 C 
HETATM   18  C10 UNL     1       2.839   1.153  -0.448  1.00  0.00     0.246 C 
BRANCH  15  19
HETATM   19  O1  UNL     1       5.115  -1.261   1.154  1.00  0.00    -0.395 OA
ATOM     20  H1  UNL     1       5.694  -0.730   1.689  1.00  0.00     0.210 HD
ENDBRANCH  15  19
ENDBRANCH  11  12
ENDBRANCH   1  11
TORSDOF 6
