REMARK  3 active torsions:
REMARK  status: ('A' for Active; 'I' for Inactive)
REMARK    1  A    between atoms: C2_2  and  C3_3 
REMARK    2  A    between atoms: C3_3  and  C4_4 
REMARK    3  A    between atoms: C4_4  and  N1_5 
ROOT
HETATM    1  N1  UNL     1       1.532   0.335   0.113  1.00  0.00    -0.170 N 
HETATM    2  C5  UNL     1       0.861  -0.816   0.612  1.00  0.00     0.122 C 
HETATM    3  N2  UNL     1       1.486  -1.921   0.775  1.00  0.00    -0.387 N 
ATOM      4  H21 UNL     1       1.005  -2.746   1.133  1.00  0.00     0.157 HD
ATOM      5  H22 UNL     1       2.475  -1.985   0.535  1.00  0.00     0.157 HD
HETATM    6  C6  UNL     1      -0.555  -0.724   0.955  1.00  0.00     0.344 C 
HETATM    7  N3  UNL     1      -1.358   0.132   0.150  1.00  0.00     0.059 N 
HETATM    8  C7  UNL     1      -2.189   1.034   0.966  1.00  0.00     0.296 C 
HETATM    9  C8  UNL     1      -3.359   1.223  -0.009  1.00  0.00     0.269 C 
HETATM   10  N4  UNL     1      -3.633  -0.163  -0.333  1.00  0.00    -0.047 N 
HETATM   11  C9  UNL     1      -4.318  -0.758   0.807  1.00  0.00     0.274 C 
HETATM   12  C10 UNL     1      -4.482  -0.307  -1.506  1.00  0.00     0.274 C 
HETATM   13  C11 UNL     1      -2.325  -0.711  -0.555  1.00  0.00     0.500 C 
HETATM   14  N5  UNL     1      -0.663   0.932  -0.723  1.00  0.00    -0.045 N 
ATOM     15  H5  UNL     1      -1.172   1.315  -1.520  1.00  0.00     0.213 HD
HETATM   16  C12 UNL     1       0.739   1.273  -0.597  1.00  0.00     0.700 C 
HETATM   17  N6  UNL     1       1.204   2.336  -1.098  1.00  0.00    -0.233 N 
ATOM     18  H61 UNL     1       0.634   3.010  -1.608  1.00  0.00     0.174 HD
ATOM     19  H62 UNL     1       2.191   2.576  -1.009  1.00  0.00     0.174 HD
ENDROOT
BRANCH   1  20
HETATM   20  C4  UNL     1       2.948   0.547   0.289  1.00  0.00     0.149 C 
BRANCH  20  21
HETATM   21  C3  UNL     1       3.789  -0.357  -0.558  1.00  0.00     0.020 C 
BRANCH  21  22
HETATM   22  C2  UNL     1       5.277  -0.077  -0.325  1.00  0.00    -0.003 C 
HETATM   23  C1  UNL     1       5.693  -0.301   1.102  1.00  0.00     0.005 C 
ENDBRANCH  21  22
ENDBRANCH  20  21
ENDBRANCH   1  20
TORSDOF 3
