REMARK  14 active torsions:
REMARK  status: ('A' for Active; 'I' for Inactive)
REMARK    1  A    between atoms: C2_2  and  C3_3 
REMARK       I    between atoms: C3_3  and  N1_5 
REMARK    2  A    between atoms: C4_6  and  C5_7 
REMARK       I    between atoms: C5_7  and  N2_9 
REMARK    3  A    between atoms: N2_9  and  C6_11 
REMARK    4  A    between atoms: C6_11  and  C8_13 
REMARK    5  A    between atoms: C8_13  and  N3_14 
REMARK       I    between atoms: N3_14  and  C9_16 
REMARK    6  A    between atoms: C9_16  and  C10_18 
REMARK    7  A    between atoms: C10_18  and  C11_19 
REMARK    8  A    between atoms: C11_19  and  C12_20 
REMARK    9  A    between atoms: C12_20  and  N4_21 
REMARK   10  A    between atoms: N5_23  and  C14_24 
REMARK   11  A    between atoms: C14_24  and  N6_26 
REMARK   12  A    between atoms: N6_26  and  C15_28 
REMARK   13  A    between atoms: C25_38  and  C27_40 
REMARK   14  A    between atoms: C27_40  and  N7_41 
REMARK       I    between atoms: N8_45  and  C31_46 
ROOT
HETATM    1  C6  UNL     1      -1.556  -0.922  -0.751  1.00  0.00     0.098 C 
HETATM    2  C7  UNL     1      -0.924  -1.172  -2.136  1.00  0.00     0.034 C 
ENDROOT
BRANCH   1   3
HETATM    3  N2  UNL     1      -2.769  -0.184  -1.016  1.00  0.00    -0.353 N 
HETATM    4  C5  UNL     1      -4.021  -0.865  -0.852  1.00  0.00     0.243 C 
HETATM    5  O2  UNL     1      -3.988  -2.056  -0.493  1.00  0.00    -0.271 OA
ATOM      6  H2  UNL     1      -2.736   0.792  -1.311  1.00  0.00     0.163 HD
BRANCH   4   7
HETATM    7  C4  UNL     1      -5.245  -0.074  -1.131  1.00  0.00     0.206 C 
HETATM    8  N1  UNL     1      -6.450  -0.923  -1.185  1.00  0.00    -0.241 N 
HETATM    9  C3  UNL     1      -6.775  -1.710  -2.314  1.00  0.00     0.238 C 
HETATM   10  N8  UNL     1      -7.139  -0.757   0.067  1.00  0.00    -0.244 N 
HETATM   11  O1  UNL     1      -7.798  -2.389  -2.411  1.00  0.00    -0.272 OA
HETATM   12  C25 UNL     1      -7.111   0.698   0.211  1.00  0.00     0.080 C 
HETATM   13  C31 UNL     1      -7.578  -1.834   0.821  1.00  0.00     0.235 C 
HETATM   14  C24 UNL     1      -5.526   0.745   0.114  1.00  0.00     0.071 C 
HETATM   15  C26 UNL     1      -7.560   1.351  -1.038  1.00  0.00     0.043 C 
HETATM   16  C32 UNL     1      -7.344  -3.260   0.409  1.00  0.00     0.119 C 
HETATM   17  O4  UNL     1      -8.212  -1.776   1.925  1.00  0.00    -0.272 OA
BRANCH   9  18
HETATM   18  C2  UNL     1      -5.837  -1.735  -3.477  1.00  0.00     0.100 C 
HETATM   19  C1  UNL     1      -6.394  -2.611  -4.569  1.00  0.00     0.014 C 
ENDBRANCH   9  18
BRANCH  12  20
HETATM   20  C27 UNL     1      -7.393   1.358   1.457  1.00  0.00     0.268 C 
BRANCH  20  21
HETATM   21  N7  UNL     1      -8.653   1.687   1.965  1.00  0.00    -0.076 N 
HETATM   22  C28 UNL     1      -9.828   1.148   1.376  1.00  0.00     0.271 C 
HETATM   23  C29 UNL     1      -8.686   1.367   3.373  1.00  0.00     0.271 C 
HETATM   24  C30 UNL     1      -8.813   3.194   2.007  1.00  0.00     0.271 C 
ENDBRANCH  20  21
ENDBRANCH  12  20
ENDBRANCH   4   7
ENDBRANCH   1   3
BRANCH   1  25
HETATM   25  C8  UNL     1      -0.608  -0.116   0.103  1.00  0.00     0.147 C 
BRANCH  25  26
HETATM   26  N3  UNL     1       0.579  -0.910   0.335  1.00  0.00    -0.359 N 
HETATM   27  C9  UNL     1       1.654  -0.379   1.108  1.00  0.00     0.217 C 
HETATM   28  O3  UNL     1       1.544   0.775   1.568  1.00  0.00    -0.274 OA
ATOM     29  H3  UNL     1       0.647  -1.850  -0.054  1.00  0.00     0.162 HD
BRANCH  27  30
HETATM   30  C10 UNL     1       2.847  -1.197   1.336  1.00  0.00     0.104 C 
BRANCH  30  31
HETATM   31  C11 UNL     1       3.948  -0.384   1.954  1.00  0.00     0.024 C 
BRANCH  31  32
HETATM   32  C12 UNL     1       4.388   0.692   1.016  1.00  0.00     0.097 C 
BRANCH  32  33
HETATM   33  N4  UNL     1       4.866   0.151  -0.231  1.00  0.00    -0.275 NA
HETATM   34  C13 UNL     1       6.084  -0.557  -0.096  1.00  0.00     0.156 C 
HETATM   35  N5  UNL     1       7.266   0.265  -0.075  1.00  0.00    -0.325 N 
HETATM   36  C20 UNL     1       7.233   1.678  -0.292  1.00  0.00     0.133 C 
HETATM   37  C21 UNL     1       5.980   2.222  -0.833  1.00  0.00     0.040 C 
HETATM   38  C22 UNL     1       4.973   1.186  -1.245  1.00  0.00     0.061 C 
HETATM   39  C23 UNL     1       3.620   1.759  -1.499  1.00  0.00     0.027 C 
BRANCH  35  40
HETATM   40  C14 UNL     1       8.547  -0.367   0.183  1.00  0.00     0.174 C 
HETATM   41  S1  UNL     1       8.551  -1.969   0.435  1.00  0.00    -0.041 SA
BRANCH  40  42
HETATM   42  N6  UNL     1       9.734   0.387   0.215  1.00  0.00    -0.362 N 
ATOM     43  H6  UNL     1       9.689   1.393   0.053  1.00  0.00     0.162 HD
BRANCH  42  44
HETATM   44  C15 UNL     1      11.030  -0.235   0.474  1.00  0.00     0.083 C 
HETATM   45  C16 UNL     1      11.367  -1.292  -0.553  1.00  0.00     0.025 C 
HETATM   46  C17 UNL     1      12.863  -1.231  -0.777  1.00  0.00     0.002 C 
HETATM   47  C18 UNL     1      13.356   0.046  -0.151  1.00  0.00     0.002 C 
HETATM   48  C19 UNL     1      12.149   0.771   0.351  1.00  0.00     0.025 C 
ENDBRANCH  42  44
ENDBRANCH  40  42
ENDBRANCH  35  40
ENDBRANCH  32  33
ENDBRANCH  31  32
ENDBRANCH  30  31
ENDBRANCH  27  30
ENDBRANCH  25  26
ENDBRANCH   1  25
TORSDOF 14
