REMARK  13 active torsions:
REMARK  status: ('A' for Active; 'I' for Inactive)
REMARK       I    between atoms: N1_2  and  C3_4 
REMARK       I    between atoms: C3_4  and  N2_6 
REMARK       I    between atoms: N3_9  and  C6_10 
REMARK    1  A    between atoms: C6_10  and  C7_12 
REMARK    2  A    between atoms: C7_12  and  N4_13 
REMARK    3  A    between atoms: C7_12  and  C20_33 
REMARK       I    between atoms: N4_13  and  C8_15 
REMARK       I    between atoms: C8_15  and  N5_17 
REMARK    4  A    between atoms: C11_20  and  N6_21 
REMARK    5  A    between atoms: C20_33  and  C23_36 
REMARK    6  A    between atoms: C23_36  and  N8_37 
REMARK    7  A    between atoms: N8_37  and  C25_39 
REMARK    8  A    between atoms: N8_37  and  C27_42 
REMARK    9  A    between atoms: C27_42  and  C28_43 
REMARK   10  A    between atoms: C28_43  and  C29_44 
REMARK   11  A    between atoms: C29_44  and  C30_45 
REMARK   12  A    between atoms: C30_45  and  C31_46 
REMARK   13  A    between atoms: C31_46  and  N10_47 
ROOT
HETATM    1  C25 UNL     1      -3.707  -3.846  -0.851  1.00  0.00     0.360 C 
HETATM    2  C26 UNL     1      -4.176  -5.064  -0.196  1.00  0.00     0.087 C 
HETATM    3  N9  UNL     1      -4.519  -6.050   0.324  1.00  0.00    -0.196 NA
ENDROOT
BRANCH   1   4
HETATM    4  N8  UNL     1      -3.919  -2.614  -0.220  1.00  0.00    -0.058 N 
HETATM    5  C24 UNL     1      -4.711  -1.793  -1.201  1.00  0.00     0.273 C 
BRANCH   4   6
HETATM    6  C23 UNL     1      -2.793  -1.817   0.180  1.00  0.00     0.249 C 
BRANCH   6   7
HETATM    7  C20 UNL     1      -1.390  -2.039  -0.285  1.00  0.00     0.006 C 
HETATM    8  C21 UNL     1      -1.189  -1.872  -1.715  1.00  0.00     0.019 C 
HETATM    9  C22 UNL     1      -0.790  -3.274   0.287  1.00  0.00     0.019 C 
BRANCH   7  10
HETATM   10  C7  UNL     1      -0.598  -0.841   0.405  1.00  0.00     0.188 C 
BRANCH  10  11
HETATM   11  C6  UNL     1      -1.342   0.411   0.070  1.00  0.00     0.243 C 
HETATM   12  N3  UNL     1      -2.092   1.189   0.961  1.00  0.00    -0.347 N 
HETATM   13  C5  UNL     1      -2.108   0.941   2.373  1.00  0.00     0.145 C 
HETATM   14  C32 UNL     1      -2.966   2.267   0.457  1.00  0.00     0.145 C 
HETATM   15  C4  UNL     1      -1.734   2.194   3.163  1.00  0.00     0.147 C 
HETATM   16  N2  UNL     1      -2.198   3.402   2.411  1.00  0.00    -0.331 N 
HETATM   17  C3  UNL     1      -1.450   4.575   2.528  1.00  0.00     0.319 C 
HETATM   18  C33 UNL     1      -3.374   3.150   1.639  1.00  0.00     0.147 C 
HETATM   19  N1  UNL     1      -1.631   5.832   1.940  1.00  0.00    -0.343 N 
HETATM   20  O1  UNL     1      -0.411   4.498   3.304  1.00  0.00    -0.247 OA
HETATM   21  C1  UNL     1      -0.655   6.911   2.255  1.00  0.00     0.154 C 
HETATM   22  C2  UNL     1      -2.672   6.209   1.039  1.00  0.00     0.154 C 
HETATM   23  O2  UNL     1      -1.325   0.856  -1.136  1.00  0.00    -0.271 OA
ENDBRANCH  10  11
BRANCH  10  24
HETATM   24  N4  UNL     1       0.720  -0.739  -0.197  1.00  0.00    -0.329 N 
HETATM   25  C8  UNL     1       1.879  -1.388  -0.388  1.00  0.00     0.319 C 
HETATM   26  O3  UNL     1       2.155  -2.554  -0.025  1.00  0.00    -0.247 OA
HETATM   27  N5  UNL     1       2.998  -0.774  -1.072  1.00  0.00    -0.334 N 
HETATM   28  C9  UNL     1       3.134   0.592  -1.461  1.00  0.00     0.129 C 
HETATM   29  C19 UNL     1       4.099  -1.680  -1.468  1.00  0.00     0.129 C 
HETATM   30  C10 UNL     1       4.512   1.132  -1.024  1.00  0.00     0.045 C 
HETATM   31  C11 UNL     1       5.572   0.250  -1.650  1.00  0.00     0.091 C 
HETATM   32  C18 UNL     1       5.423  -1.138  -1.040  1.00  0.00     0.045 C 
ATOM     33  H4  UNL     1       0.792   0.174  -0.646  1.00  0.00     0.165 HD
BRANCH  31  34
HETATM   34  N6  UNL     1       6.904   0.715  -1.406  1.00  0.00    -0.329 N 
HETATM   35  C12 UNL     1       7.415   0.802  -0.065  1.00  0.00     0.130 C 
HETATM   36  C13 UNL     1       8.936   0.690  -0.040  1.00  0.00     0.050 C 
HETATM   37  C14 UNL     1       9.551   1.716  -0.975  1.00  0.00     0.029 C 
HETATM   38  C15 UNL     1       9.142   3.113  -0.585  1.00  0.00     0.038 C 
HETATM   39  C16 UNL     1      11.051   1.600  -0.908  1.00  0.00     0.038 C 
HETATM   40  N7  UNL     1       9.115   1.351  -2.314  1.00  0.00    -0.334 N 
HETATM   41  C17 UNL     1       7.726   1.076  -2.500  1.00  0.00     0.319 C 
ATOM     42  H7  UNL     1       9.775   1.294  -3.089  1.00  0.00     0.165 HD
HETATM   43  O4  UNL     1       7.245   1.166  -3.687  1.00  0.00    -0.247 OA
ENDBRANCH  31  34
ENDBRANCH  10  24
ENDBRANCH   7  10
ENDBRANCH   6   7
ENDBRANCH   4   6
BRANCH   4  44
HETATM   44  C27 UNL     1      -4.705  -2.769   0.991  1.00  0.00     0.238 C 
BRANCH  44  45
HETATM   45  C28 UNL     1      -6.146  -2.516   1.001  1.00  0.00     0.028 C 
BRANCH  45  46
HETATM   46  C29 UNL     1      -7.051  -3.340   0.156  1.00  0.00     0.003 C 
BRANCH  46  47
HETATM   47  C30 UNL     1      -8.506  -2.856   0.270  1.00  0.00     0.027 C 
BRANCH  47  48
HETATM   48  C31 UNL     1      -9.337  -3.743  -0.627  1.00  0.00     0.229 C 
BRANCH  48  49
HETATM   49  N10 UNL     1      -9.257  -5.133  -0.224  1.00  0.00    -0.079 N 
ATOM     50 3H10 UNL     1      -8.289  -5.452  -0.177  1.00  0.00     0.274 HD
ATOM     51 2H10 UNL     1      -9.511  -5.252   0.757  1.00  0.00     0.274 HD
ATOM     52 1H10 UNL     1      -9.818  -5.732  -0.830  1.00  0.00     0.274 HD
ENDBRANCH  48  49
ENDBRANCH  47  48
ENDBRANCH  46  47
ENDBRANCH  45  46
ENDBRANCH  44  45
ENDBRANCH   4  44
ENDBRANCH   1   4
TORSDOF 13
