REMARK  12 active torsions:
REMARK  status: ('A' for Active; 'I' for Inactive)
REMARK    1  A    between atoms: C2_2  and  C3_3 
REMARK    2  A    between atoms: C3_3  and  N1_4 
REMARK       I    between atoms: N1_4  and  C4_6 
REMARK    3  A    between atoms: C4_6  and  C5_8 
REMARK    4  A    between atoms: C6_9  and  C7_10 
REMARK       I    between atoms: C7_10  and  N2_12 
REMARK       I    between atoms: N3_15  and  C10_16 
REMARK    5  A    between atoms: C10_16  and  C11_18 
REMARK    6  A    between atoms: C11_18  and  N4_19 
REMARK    7  A    between atoms: C11_18  and  C28_42 
REMARK       I    between atoms: N4_19  and  C12_21 
REMARK    8  A    between atoms: C12_21  and  C13_23 
REMARK    9  A    between atoms: C15_25  and  N5_26 
REMARK       I    between atoms: N5_26  and  C16_28 
REMARK   10  A    between atoms: C16_28  and  C17_30 
REMARK   11  A    between atoms: N6_37  and  C24_38 
REMARK   12  A    between atoms: C24_38  and  C25_39 
ROOT
HETATM    1  C11 UNL     1      -0.766  -1.097  -1.283  1.00  0.00     0.180 C 
ENDROOT
BRANCH   1   2
HETATM    2  C10 UNL     1      -0.080   0.166  -0.942  1.00  0.00     0.244 C 
HETATM    3  N3  UNL     1       1.212   0.190  -0.326  1.00  0.00    -0.332 N 
HETATM    4  C9  UNL     1       1.943  -0.974   0.069  1.00  0.00     0.147 C 
HETATM    5  C31 UNL     1       1.999   1.368  -0.004  1.00  0.00     0.255 C 
HETATM    6  C8  UNL     1       2.952  -0.482   1.084  1.00  0.00     0.147 C 
HETATM    7  N2  UNL     1       3.238   0.850   0.522  1.00  0.00    -0.334 N 
HETATM    8  C7  UNL     1       4.490   1.495   0.497  1.00  0.00     0.226 C 
HETATM    9  O2  UNL     1       4.604   2.618  -0.035  1.00  0.00    -0.273 OA
HETATM   10  O3  UNL     1      -0.624   1.268  -1.187  1.00  0.00    -0.271 OA
BRANCH   8  11
HETATM   11  C6  UNL     1       5.648   0.838   1.103  1.00  0.00     0.092 C 
HETATM   12  C5  UNL     1       6.990   1.410   0.624  1.00  0.00     0.095 C 
HETATM   13  C36 UNL     1       7.928   0.726   1.591  1.00  0.00     0.003 C 
HETATM   14  C33 UNL     1       7.195   0.842   2.916  1.00  0.00    -0.009 C 
HETATM   15  C35 UNL     1       9.024   1.550   2.180  1.00  0.00     0.006 C 
HETATM   16  C32 UNL     1       5.764   1.140   2.591  1.00  0.00     0.020 C 
HETATM   17  C34 UNL     1       8.057   2.057   3.221  1.00  0.00     0.005 C 
BRANCH  12  18
HETATM   18  C4  UNL     1       7.227   0.992  -0.785  1.00  0.00     0.223 C 
HETATM   19  N1  UNL     1       8.519   1.142  -1.341  1.00  0.00    -0.357 N 
ATOM     20  H1  UNL     1       9.265   1.532  -0.765  1.00  0.00     0.162 HD
HETATM   21  O1  UNL     1       6.317   0.509  -1.501  1.00  0.00    -0.273 OA
BRANCH  19  22
HETATM   22  C3  UNL     1       8.815   0.753  -2.719  1.00  0.00     0.149 C 
BRANCH  22  23
HETATM   23  C2  UNL     1      10.266   1.005  -3.034  1.00  0.00    -0.018 C 
HETATM   24  C1  UNL     1      11.036   0.008  -3.382  1.00  0.00     0.008 C 
ENDBRANCH  22  23
ENDBRANCH  19  22
ENDBRANCH  12  18
ENDBRANCH   8  11
ENDBRANCH   1   2
BRANCH   1  25
HETATM   25  N4  UNL     1      -2.184  -1.018  -0.894  1.00  0.00    -0.346 N 
HETATM   26  C12 UNL     1      -2.740  -1.870   0.104  1.00  0.00     0.252 C 
HETATM   27  O4  UNL     1      -2.101  -2.737   0.723  1.00  0.00    -0.271 OA
ATOM     28  H4  UNL     1      -2.786  -0.334  -1.352  1.00  0.00     0.163 HD
BRANCH  26  29
HETATM   29  C13 UNL     1      -4.201  -1.697   0.422  1.00  0.00     0.316 C 
HETATM   30  C14 UNL     1      -4.360  -0.317   1.056  1.00  0.00     0.071 C 
HETATM   31  C15 UNL     1      -5.835  -0.066   1.198  1.00  0.00     0.088 C 
HETATM   32  C22 UNL     1      -6.350  -1.096   2.215  1.00  0.00     0.055 C 
HETATM   33  C23 UNL     1      -6.090  -2.439   1.635  1.00  0.00     0.275 C 
HETATM   34  N6  UNL     1      -4.680  -2.709   1.301  1.00  0.00     0.102 N 
BRANCH  31  35
HETATM   35  N5  UNL     1      -6.106   1.275   1.558  1.00  0.00    -0.356 N 
HETATM   36  C16 UNL     1      -7.073   2.090   0.856  1.00  0.00     0.222 C 
HETATM   37  O5  UNL     1      -7.677   1.569  -0.089  1.00  0.00    -0.273 OA
ATOM     38  H5  UNL     1      -5.599   1.683   2.344  1.00  0.00     0.162 HD
BRANCH  36  39
HETATM   39  C17 UNL     1      -7.348   3.495   1.233  1.00  0.00     0.078 C 
HETATM   40  C18 UNL     1      -6.138   4.369   1.139  1.00  0.00     0.014 C 
HETATM   41  C19 UNL     1      -6.233   5.209  -0.087  1.00  0.00     0.001 C 
HETATM   42  C20 UNL     1      -7.571   4.910  -0.703  1.00  0.00     0.001 C 
HETATM   43  C21 UNL     1      -8.347   4.065   0.267  1.00  0.00     0.014 C 
ENDBRANCH  36  39
ENDBRANCH  31  35
BRANCH  34  44
HETATM   44  C24 UNL     1      -4.735  -3.993   0.572  1.00  0.00     0.278 C 
BRANCH  44  45
HETATM   45  C25 UNL     1      -5.036  -5.130   1.477  1.00  0.00     0.014 A 
HETATM   46  C26 UNL     1      -5.124  -6.506   0.831  1.00  0.00     0.007 A 
HETATM   47  C27 UNL     1      -3.904  -6.158   1.575  1.00  0.00     0.007 A 
ENDBRANCH  44  45
ENDBRANCH  34  44
ENDBRANCH  26  29
ENDBRANCH   1  25
BRANCH   1  48
HETATM   48  C28 UNL     1      -0.698  -1.295  -2.788  1.00  0.00     0.009 C 
HETATM   49  C29 UNL     1       0.721  -1.355  -3.265  1.00  0.00     0.012 C 
HETATM   50  C30 UNL     1      -1.500  -2.499  -3.248  1.00  0.00     0.012 C 
ENDBRANCH   1  48
TORSDOF 12
