REMARK  14 active torsions:
REMARK  status: ('A' for Active; 'I' for Inactive)
REMARK    1  A    between atoms: C2_2  and  N1_3 
REMARK       I    between atoms: N2_7  and  C5_8 
REMARK    2  A    between atoms: C5_8  and  C6_10 
REMARK    3  A    between atoms: N3_13  and  C10_15 
REMARK    4  A    between atoms: C10_15  and  C11_16 
REMARK    5  A    between atoms: C11_16  and  O3_17 
REMARK    6  A    between atoms: C11_16  and  C12_19 
REMARK    7  A    between atoms: C12_19  and  C13_20 
REMARK       I    between atoms: C13_20  and  N4_22 
REMARK    8  A    between atoms: N4_22  and  C15_24 
REMARK    9  A    between atoms: C15_24  and  C16_25 
REMARK   10  A    between atoms: C16_25  and  C17_26 
REMARK   11  A    between atoms: C17_26  and  C18_27 
REMARK   12  A    between atoms: C18_27  and  N5_29 
REMARK       I    between atoms: N5_29  and  C20_31 
REMARK   13  A    between atoms: C20_31  and  C21_33 
REMARK   14  A    between atoms: C23_35  and  N6_36 
REMARK       I    between atoms: N6_36  and  C24_38 
ROOT
HETATM    1  C12 UNL     1      -0.514   0.600   0.968  1.00  0.00     0.136 C 
ENDROOT
BRANCH   1   2
HETATM    2  C11 UNL     1      -1.293   0.182  -0.253  1.00  0.00     0.152 C 
BRANCH   2   3
HETATM    3  C10 UNL     1      -2.744   0.025  -0.074  1.00  0.00     0.268 C 
BRANCH   3   4
HETATM    4  N3  UNL     1      -3.600   1.177  -0.157  1.00  0.00    -0.068 N 
HETATM    5  C8  UNL     1      -4.523   1.048   0.950  1.00  0.00     0.238 C 
HETATM    6  C7  UNL     1      -5.789   1.809   0.781  1.00  0.00     0.043 C 
HETATM    7  C6  UNL     1      -6.464   1.234  -0.426  1.00  0.00     0.089 C 
HETATM    8  C30 UNL     1      -5.615   1.567  -1.614  1.00  0.00    -0.011 C 
HETATM    9  C29 UNL     1      -4.193   1.226  -1.456  1.00  0.00     0.246 C 
HETATM   10  C31 UNL     1      -6.167   0.673  -2.750  1.00  0.00     0.017 C 
HETATM   11  C32 UNL     1      -5.777   2.985  -2.112  1.00  0.00     0.017 C 
HETATM   12  C9  UNL     1      -2.936   2.446   0.061  1.00  0.00     0.272 C 
BRANCH   7  13
HETATM   13  C5  UNL     1      -7.878   1.523  -0.574  1.00  0.00     0.225 C 
HETATM   14  N2  UNL     1      -8.923   0.965   0.168  1.00  0.00    -0.347 N 
HETATM   15  C4  UNL     1      -8.817  -0.018   1.219  1.00  0.00     0.162 C 
HETATM   16  C33 UNL     1     -10.310   1.385  -0.117  1.00  0.00     0.162 C 
HETATM   17  C3  UNL     1     -10.155  -0.547   1.611  1.00  0.00     0.331 C 
HETATM   18  N1  UNL     1     -11.095  -0.769   0.567  1.00  0.00     0.016 N 
HETATM   19  O1  UNL     1     -12.336  -0.524   1.120  1.00  0.00    -0.064 OA
HETATM   20  C34 UNL     1     -10.997   0.105  -0.568  1.00  0.00     0.331 C 
HETATM   21  O2  UNL     1      -8.201   2.375  -1.472  1.00  0.00    -0.273 OA
BRANCH  18  22
HETATM   22  C2  UNL     1     -11.163  -2.156   0.142  1.00  0.00     0.307 C 
HETATM   23  C1  UNL     1      -9.866  -2.715  -0.337  1.00  0.00     0.044 C 
ENDBRANCH  18  22
ENDBRANCH   7  13
ENDBRANCH   3   4
ENDBRANCH   2   3
BRANCH   2  24
HETATM   24  O3  UNL     1      -0.838   0.730  -1.423  1.00  0.00    -0.393 OA
ATOM     25  H3  UNL     1       0.099   0.831  -1.539  1.00  0.00     0.210 HD
ENDBRANCH   2  24
ENDBRANCH   1   2
BRANCH   1  26
HETATM   26  C13 UNL     1       0.937   0.733   0.677  1.00  0.00     0.221 C 
HETATM   27  O4  UNL     1       1.281   1.408  -0.315  1.00  0.00    -0.273 OA
HETATM   28  N4  UNL     1       1.936   0.129   1.476  1.00  0.00    -0.356 N 
HETATM   29  C14 UNL     1       1.591  -0.697   2.626  1.00  0.00     0.152 C 
BRANCH  28  30
HETATM   30  C15 UNL     1       3.352   0.340   1.165  1.00  0.00     0.125 C 
BRANCH  30  31
HETATM   31  C16 UNL     1       3.749  -0.728   0.185  1.00  0.00     0.022 C 
BRANCH  31  32
HETATM   32  C17 UNL     1       5.196  -0.581  -0.174  1.00  0.00     0.026 C 
BRANCH  32  33
HETATM   33  C18 UNL     1       6.039  -0.745   1.044  1.00  0.00     0.080 C 
HETATM   34  C19 UNL     1       5.762  -2.151   1.612  1.00  0.00     0.032 C 
BRANCH  33  35
HETATM   35  N5  UNL     1       7.473  -0.716   0.766  1.00  0.00    -0.356 N 
HETATM   36  C20 UNL     1       8.361   0.128   1.464  1.00  0.00     0.223 C 
HETATM   37  O5  UNL     1       7.825   0.870   2.357  1.00  0.00    -0.273 OA
ATOM     38  H5  UNL     1       7.845  -1.329   0.040  1.00  0.00     0.162 HD
BRANCH  36  39
HETATM   39  C21 UNL     1       9.785   0.154   1.191  1.00  0.00     0.089 C 
HETATM   40  C22 UNL     1      10.322  -1.292   1.170  1.00  0.00     0.041 C 
HETATM   41  C23 UNL     1      11.324  -0.776   0.143  1.00  0.00     0.093 C 
HETATM   42  C26 UNL     1      10.331   0.332  -0.176  1.00  0.00    -0.015 C 
HETATM   43  C27 UNL     1      11.080   1.663  -0.279  1.00  0.00     0.018 C 
HETATM   44  C28 UNL     1       9.458   0.135  -1.361  1.00  0.00     0.018 C 
BRANCH  41  45
HETATM   45  N6  UNL     1      11.578  -1.722  -0.918  1.00  0.00    -0.356 N 
HETATM   46  C24 UNL     1      12.910  -2.022  -1.295  1.00  0.00     0.213 C 
HETATM   47  C25 UNL     1      13.146  -2.995  -2.385  1.00  0.00     0.117 C 
HETATM   48  O6  UNL     1      13.909  -1.498  -0.746  1.00  0.00    -0.274 OA
ATOM     49  H6  UNL     1      10.798  -2.174  -1.396  1.00  0.00     0.162 HD
ENDBRANCH  41  45
ENDBRANCH  36  39
ENDBRANCH  33  35
ENDBRANCH  32  33
ENDBRANCH  31  32
ENDBRANCH  30  31
ENDBRANCH  28  30
ENDBRANCH   1  26
TORSDOF 14
