REMARK  15 active torsions:
REMARK  status: ('A' for Active; 'I' for Inactive)
REMARK    1  A    between atoms: O1_2  and  C2_3 
REMARK    2  A    between atoms: C2_3  and  C3_4 
REMARK    3  A    between atoms: C3_4  and  C4_5 
REMARK    4  A    between atoms: N1_8  and  C7_9 
REMARK    5  A    between atoms: C7_9  and  O2_10 
REMARK    6  A    between atoms: C8_12  and  C9_13 
REMARK    7  A    between atoms: C8_12  and  N2_20 
REMARK    8  A    between atoms: C9_13  and  C10_14 
REMARK       I    between atoms: N2_20  and  C16_22 
REMARK       I    between atoms: C16_22  and  N3_24 
REMARK    9  A    between atoms: N3_24  and  C17_26 
REMARK   10  A    between atoms: C17_26  and  C18_27 
REMARK   11  A    between atoms: C17_26  and  C26_37 
REMARK   12  A    between atoms: C18_27  and  C19_28 
REMARK   13  A    between atoms: C19_28  and  N4_29 
REMARK   14  A    between atoms: C26_37  and  O4_38 
REMARK   15  A    between atoms: C26_37  and  N6_40 
REMARK       I    between atoms: N7_43  and  C29_44 
ROOT
HETATM    1  N2  UNL     1       0.579  -0.258   0.749  1.00  0.00    -0.308 N 
ATOM      2  H2  UNL     1       0.748   0.723   0.971  1.00  0.00     0.170 HD
HETATM    3  C16 UNL     1      -0.757  -0.604   0.608  1.00  0.00     0.325 C 
HETATM    4  O3  UNL     1      -1.074  -1.789   0.337  1.00  0.00    -0.247 OA
HETATM    5  N3  UNL     1      -1.783   0.345   0.763  1.00  0.00    -0.308 N 
ATOM      6  H3  UNL     1      -1.515   1.305   0.981  1.00  0.00     0.170 HD
ENDROOT
BRANCH   1   7
HETATM    7  C8  UNL     1       1.760  -1.062   0.632  1.00  0.00     0.064 C 
HETATM    8  C7  UNL     1       2.496  -1.022  -0.604  1.00  0.00     0.161 C 
BRANCH   8   9
HETATM    9  N1  UNL     1       3.863  -0.744  -0.829  1.00  0.00    -0.360 N 
HETATM   10  C6  UNL     1       4.707  -0.257   0.226  1.00  0.00     0.125 C 
HETATM   11  C5  UNL     1       5.849   0.623  -0.233  1.00  0.00     0.024 C 
HETATM   12  C4  UNL     1       6.460   0.234  -1.529  1.00  0.00    -0.009 C 
HETATM   13  C34 UNL     1       5.956  -1.097  -2.039  1.00  0.00     0.024 C 
HETATM   14  C33 UNL     1       4.436  -0.975  -2.133  1.00  0.00     0.125 C 
BRANCH  12  15
HETATM   15  C3  UNL     1       7.957   0.350  -1.594  1.00  0.00     0.031 C 
BRANCH  15  16
HETATM   16  C2  UNL     1       8.473   1.735  -1.375  1.00  0.00     0.167 C 
BRANCH  16  17
HETATM   17  O1  UNL     1       8.132   2.256  -0.151  1.00  0.00    -0.396 OA
HETATM   18  C1  UNL     1       8.639   3.546  -0.012  1.00  0.00     0.201 C 
ENDBRANCH  16  17
ENDBRANCH  15  16
ENDBRANCH  12  15
ENDBRANCH   8   9
BRANCH   8  19
HETATM   19  O2  UNL     1       1.859  -1.261  -1.719  1.00  0.00    -0.345 OA
ATOM     20  H2  UNL     1       0.940  -1.448  -1.568  1.00  0.00     0.219 HD
ENDBRANCH   8  19
BRANCH   7  21
HETATM   21  C9  UNL     1       2.252  -1.603   1.898  1.00  0.00     0.066 C 
BRANCH  21  22
HETATM   22  C10 UNL     1       2.522  -3.066   2.008  1.00  0.00    -0.009 C 
HETATM   23  C11 UNL     1       3.063  -3.400   3.414  1.00  0.00     0.005 C 
HETATM   24  C12 UNL     1       2.854  -4.911   3.538  1.00  0.00     0.000 C 
HETATM   25  C13 UNL     1       3.732  -5.571   2.512  1.00  0.00     0.000 C 
HETATM   26  C14 UNL     1       3.436  -5.191   1.099  1.00  0.00     0.000 C 
HETATM   27  C15 UNL     1       3.329  -3.660   0.941  1.00  0.00     0.005 C 
ENDBRANCH  21  22
ENDBRANCH   7  21
ENDBRANCH   1   7
BRANCH   5  28
HETATM   28  C17 UNL     1      -3.206   0.047   0.632  1.00  0.00     0.066 C 
BRANCH  28  29
HETATM   29  C18 UNL     1      -3.824   0.589  -0.596  1.00  0.00     0.089 C 
BRANCH  29  30
HETATM   30  C19 UNL     1      -3.018  -0.044  -1.766  1.00  0.00     0.245 C 
BRANCH  30  31
HETATM   31  N4  UNL     1      -3.468   0.346  -3.035  1.00  0.00    -0.039 N 
HETATM   32  C20 UNL     1      -3.431  -0.702  -4.040  1.00  0.00     0.267 C 
HETATM   33  C21 UNL     1      -4.603  -0.438  -4.965  1.00  0.00     0.267 C 
HETATM   34  N5  UNL     1      -4.977   0.901  -4.536  1.00  0.00    -0.043 N 
HETATM   35  C22 UNL     1      -6.241   1.331  -4.983  1.00  0.00     0.274 C 
HETATM   36  C23 UNL     1      -3.876   1.780  -4.770  1.00  0.00     0.267 C 
HETATM   37  C25 UNL     1      -4.894   0.713  -3.075  1.00  0.00     0.472 C 
HETATM   38  C24 UNL     1      -2.891   1.517  -3.620  1.00  0.00     0.267 C 
ENDBRANCH  30  31
ENDBRANCH  29  30
ENDBRANCH  28  29
BRANCH  28  39
HETATM   39  C26 UNL     1      -3.888   0.116   1.916  1.00  0.00     0.161 C 
BRANCH  39  40
HETATM   40  O4  UNL     1      -3.215  -0.523   2.895  1.00  0.00    -0.345 OA
ATOM     41  H4  UNL     1      -3.660  -0.478   3.733  1.00  0.00     0.219 HD
ENDBRANCH  39  40
BRANCH  39  42
HETATM   42  N6  UNL     1      -5.050   0.670   2.391  1.00  0.00    -0.357 N 
HETATM   43  C27 UNL     1      -5.422   0.385   3.819  1.00  0.00     0.145 C 
HETATM   44  C28 UNL     1      -6.145   1.583   4.386  1.00  0.00     0.145 C 
HETATM   45  N7  UNL     1      -5.703   2.810   3.768  1.00  0.00    -0.349 N 
HETATM   46  C29 UNL     1      -5.242   3.859   4.592  1.00  0.00     0.215 C 
HETATM   47  C31 UNL     1      -5.735   2.944   2.342  1.00  0.00     0.145 C 
HETATM   48  C30 UNL     1      -4.768   5.155   4.049  1.00  0.00     0.117 C 
HETATM   49  O5  UNL     1      -5.216   3.722   5.862  1.00  0.00    -0.274 OA
HETATM   50  C32 UNL     1      -5.960   1.542   1.745  1.00  0.00     0.145 C 
ENDBRANCH  39  42
ENDBRANCH  28  39
ENDBRANCH   5  28
TORSDOF 15
