REMARK  13 active torsions:
REMARK  status: ('A' for Active; 'I' for Inactive)
REMARK    1  A    between atoms: C2_2  and  C4_4 
REMARK    2  A    between atoms: C2_2  and  C11_11 
REMARK    3  A    between atoms: C4_4  and  C5_5 
REMARK       I    between atoms: C11_11  and  N1_13 
REMARK       I    between atoms: N2_16  and  C14_17 
REMARK    4  A    between atoms: C14_17  and  C15_19 
REMARK    5  A    between atoms: C15_19  and  N3_22 
REMARK       I    between atoms: N3_22  and  C18_24 
REMARK    6  A    between atoms: C18_24  and  C19_26 
REMARK    7  A    between atoms: C19_26  and  C20_27 
REMARK    8  A    between atoms: C20_27  and  C21_28 
REMARK    9  A    between atoms: C21_28  and  C22_30 
REMARK       I    between atoms: C22_30  and  N4_32 
REMARK   10  A    between atoms: C26_36  and  C27_37 
REMARK       I    between atoms: C27_37  and  N5_39 
REMARK   11  A    between atoms: N5_39  and  C28_41 
REMARK   12  A    between atoms: C28_41  and  C29_42 
REMARK   13  A    between atoms: C29_42  and  N6_43 
ROOT
HETATM    1  N3  UNL     1      -0.010  -2.226   0.788  1.00  0.00    -0.344 N 
ATOM      2  H3  UNL     1      -0.307  -2.833   1.552  1.00  0.00     0.163 HD
HETATM    3  C18 UNL     1      -0.981  -1.394   0.211  1.00  0.00     0.218 C 
HETATM    4  O3  UNL     1      -0.801  -0.598  -0.747  1.00  0.00    -0.274 OA
ENDROOT
BRANCH   1   5
HETATM    5  C15 UNL     1       1.391  -2.294   0.384  1.00  0.00     0.106 C 
HETATM    6  C16 UNL     1       2.070  -3.380   1.168  1.00  0.00     0.048 C 
HETATM    7  C17 UNL     1       1.356  -2.619  -1.103  1.00  0.00     0.048 C 
BRANCH   5   8
HETATM    8  C14 UNL     1       2.005  -0.978   0.637  1.00  0.00     0.247 C 
HETATM    9  N2  UNL     1       3.366  -0.628   0.451  1.00  0.00    -0.347 N 
HETATM   10  C13 UNL     1       4.323  -1.571   0.000  1.00  0.00     0.145 C 
HETATM   11  C33 UNL     1       3.741   0.732   0.758  1.00  0.00     0.145 C 
HETATM   12  C12 UNL     1       5.305  -0.913  -0.962  1.00  0.00     0.145 C 
HETATM   13  N1  UNL     1       5.885   0.216  -0.298  1.00  0.00    -0.348 N 
HETATM   14  C11 UNL     1       7.199   0.406   0.076  1.00  0.00     0.228 C 
HETATM   15  C34 UNL     1       4.866   1.287  -0.034  1.00  0.00     0.145 C 
HETATM   16  O1  UNL     1       7.473   1.502   0.706  1.00  0.00    -0.273 OA
HETATM   17  O2  UNL     1       1.243  -0.045   1.074  1.00  0.00    -0.271 OA
BRANCH  14  18
HETATM   18  C2  UNL     1       8.343  -0.484  -0.153  1.00  0.00     0.034 C 
HETATM   19  C1  UNL     1       8.009  -1.829   0.556  1.00  0.00     0.025 C 
HETATM   20  C3  UNL     1       8.461  -0.802  -1.598  1.00  0.00     0.025 C 
BRANCH  18  21
HETATM   21  C4  UNL     1       9.588  -0.023   0.542  1.00  0.00     0.023 C 
BRANCH  21  22
HETATM   22  C5  UNL     1      10.276   1.207   0.211  1.00  0.00    -0.013 C 
HETATM   23  C6  UNL     1      10.853   1.440  -1.128  1.00  0.00     0.005 C 
HETATM   24  C7  UNL     1      12.088   0.630  -1.462  1.00  0.00     0.000 C 
HETATM   25  C8  UNL     1      13.170   0.906  -0.475  1.00  0.00     0.000 C 
HETATM   26  C9  UNL     1      12.607   0.523   0.899  1.00  0.00     0.000 C 
HETATM   27  C10 UNL     1      11.440   1.389   1.223  1.00  0.00     0.005 C 
ENDBRANCH  21  22
ENDBRANCH  18  21
ENDBRANCH  14  18
ENDBRANCH   5   8
ENDBRANCH   1   5
BRANCH   3  28
HETATM   28  C19 UNL     1      -2.370  -1.422   0.760  1.00  0.00     0.110 C 
BRANCH  28  29
HETATM   29  C20 UNL     1      -3.248  -0.386   0.136  1.00  0.00     0.098 C 
BRANCH  29  30
HETATM   30  C21 UNL     1      -4.622  -0.416   0.726  1.00  0.00     0.217 C 
HETATM   31  O4  UNL     1      -4.941  -1.285   1.552  1.00  0.00    -0.287 OA
BRANCH  30  32
HETATM   32  C22 UNL     1      -5.568   0.595   0.314  1.00  0.00     0.290 C 
HETATM   33  O5  UNL     1      -5.230   1.461  -0.563  1.00  0.00    -0.264 OA
HETATM   34  N4  UNL     1      -6.878   0.651   0.871  1.00  0.00    -0.332 N 
HETATM   35  C23 UNL     1      -7.523  -0.171   1.849  1.00  0.00     0.127 C 
HETATM   36  C26 UNL     1      -7.837   1.672   0.480  1.00  0.00     0.179 C 
HETATM   37  C24 UNL     1      -8.625   0.661   2.474  1.00  0.00     0.022 C 
HETATM   38  C25 UNL     1      -8.650   1.963   1.716  1.00  0.00     0.037 C 
BRANCH  36  39
HETATM   39  C27 UNL     1      -8.624   1.216  -0.671  1.00  0.00     0.240 C 
HETATM   40  O6  UNL     1      -8.416   0.043  -1.085  1.00  0.00    -0.271 OA
HETATM   41  N5  UNL     1      -9.562   2.097  -1.256  1.00  0.00    -0.358 N 
ATOM     42  H5  UNL     1      -9.674   3.033  -0.865  1.00  0.00     0.162 HD
BRANCH  41  43
HETATM   43  C28 UNL     1     -10.358   1.714  -2.379  1.00  0.00     0.150 C 
BRANCH  43  44
HETATM   44  C29 UNL     1     -11.269   0.565  -2.121  1.00  0.00     0.255 C 
BRANCH  44  45
HETATM   45  N6  UNL     1     -12.241   0.763  -1.092  1.00  0.00    -0.077 N 
HETATM   46  C30 UNL     1     -13.533   0.276  -1.601  1.00  0.00     0.271 C 
HETATM   47  C31 UNL     1     -11.955  -0.026   0.098  1.00  0.00     0.271 C 
HETATM   48  C32 UNL     1     -12.377   2.131  -0.645  1.00  0.00     0.271 C 
ENDBRANCH  44  45
ENDBRANCH  43  44
ENDBRANCH  41  43
ENDBRANCH  36  39
ENDBRANCH  30  32
ENDBRANCH  29  30
ENDBRANCH  28  29
ENDBRANCH   3  28
TORSDOF 13
