REMARK  13 active torsions:
REMARK  status: ('A' for Active; 'I' for Inactive)
REMARK    1  A    between atoms: C2_2  and  C5_5 
REMARK       I    between atoms: C5_5  and  N1_7 
REMARK    2  A    between atoms: N1_7  and  C6_9 
REMARK    3  A    between atoms: C6_9  and  C7_10 
REMARK    4  A    between atoms: C6_9  and  C29_41 
REMARK    5  A    between atoms: C7_10  and  N2_11 
REMARK    6  A    between atoms: C7_10  and  C25_37 
REMARK    7  A    between atoms: C11_15  and  C12_16 
REMARK       I    between atoms: C12_16  and  N3_18 
REMARK    8  A    between atoms: C16_22  and  C17_23 
REMARK       I    between atoms: C17_23  and  N4_25 
REMARK    9  A    between atoms: N4_25  and  C18_27 
REMARK   10  A    between atoms: C18_27  and  C19_28 
REMARK   11  A    between atoms: C18_27  and  C23_32 
REMARK   12  A    between atoms: C19_28  and  C20_29 
REMARK   13  A    between atoms: C23_32  and  C24_34 
ROOT
HETATM    1  N2  UNL     1      -1.736  -0.593  -0.602  1.00  0.00    -0.390 N 
HETATM    2  C8  UNL     1      -1.912  -1.517   0.353  1.00  0.00     0.118 C 
HETATM    3  C9  UNL     1      -1.059  -1.181   1.593  1.00  0.00     0.022 C 
HETATM    4  C10 UNL     1      -0.434   0.101   1.187  1.00  0.00     0.036 C 
HETATM    5  C11 UNL     1      -0.533   0.113  -0.348  1.00  0.00     0.172 C 
ENDROOT
BRANCH   5   6
HETATM    6  C12 UNL     1       0.710  -0.502  -0.885  1.00  0.00     0.243 C 
HETATM    7  O2  UNL     1       0.793  -1.654  -1.316  1.00  0.00    -0.271 OA
HETATM    8  N3  UNL     1       1.908   0.299  -0.907  1.00  0.00    -0.337 N 
HETATM    9  C13 UNL     1       2.065   1.658  -0.435  1.00  0.00     0.127 C 
HETATM   10  C16 UNL     1       3.192  -0.103  -1.412  1.00  0.00     0.179 C 
HETATM   11  C14 UNL     1       2.796   2.284  -1.616  1.00  0.00     0.022 C 
HETATM   12  C15 UNL     1       3.755   1.160  -2.008  1.00  0.00     0.037 C 
BRANCH  10  13
HETATM   13  C17 UNL     1       4.086  -0.560  -0.301  1.00  0.00     0.241 C 
HETATM   14  O3  UNL     1       3.668  -0.700   0.884  1.00  0.00    -0.271 OA
HETATM   15  N4  UNL     1       5.431  -0.845  -0.565  1.00  0.00    -0.347 N 
ATOM     16  H4  UNL     1       5.781  -0.730  -1.516  1.00  0.00     0.163 HD
BRANCH  15  17
HETATM   17  C18 UNL     1       6.362  -1.307   0.485  1.00  0.00     0.164 C 
BRANCH  17  18
HETATM   18  C19 UNL     1       7.352  -0.182   0.735  1.00  0.00     0.038 C 
BRANCH  18  19
HETATM   19  C20 UNL     1       8.375  -0.425   1.773  1.00  0.00    -0.012 A 
HETATM   20  C21 UNL     1       9.337   0.785   1.949  1.00  0.00     0.005 A 
HETATM   21  C22 UNL     1       9.824  -0.523   1.512  1.00  0.00     0.005 A 
ENDBRANCH  18  19
ENDBRANCH  17  18
BRANCH  17  22
HETATM   22  C23 UNL     1       7.027  -2.482  -0.072  1.00  0.00     0.236 C 
HETATM   23  O4  UNL     1       7.001  -2.660  -1.337  1.00  0.00    -0.285 OA
BRANCH  22  24
HETATM   24  C24 UNL     1       7.709  -3.457   0.731  1.00  0.00     0.302 C 
HETATM   25  N5  UNL     1       8.411  -4.568   0.129  1.00  0.00    -0.054 NA
HETATM   26  O5  UNL     1       7.751  -3.427   1.979  1.00  0.00    -0.268 OA
ENDBRANCH  22  24
ENDBRANCH  17  22
ENDBRANCH  15  17
ENDBRANCH  10  13
ENDBRANCH   5   6
BRANCH   1  27
HETATM   27  C7  UNL     1      -2.749   0.167  -1.299  1.00  0.00     0.134 C 
BRANCH  27  28
HETATM   28  C6  UNL     1      -3.599   1.036  -0.475  1.00  0.00     0.020 C 
BRANCH  28  29
HETATM   29  N1  UNL     1      -4.497   0.535   0.494  1.00  0.00    -0.331 N 
HETATM   30  C5  UNL     1      -4.505   0.630   1.907  1.00  0.00     0.229 C 
HETATM   31  O1  UNL     1      -3.574   1.265   2.453  1.00  0.00    -0.272 OA
ATOM     32  H1  UNL     1      -5.281   0.010   0.106  1.00  0.00     0.168 HD
BRANCH  30  33
HETATM   33  C2  UNL     1      -5.494   0.063   2.808  1.00  0.00     0.030 C 
HETATM   34  C1  UNL     1      -6.881   0.610   2.664  1.00  0.00     0.025 C 
HETATM   35  C3  UNL     1      -5.055   0.216   4.242  1.00  0.00     0.025 C 
HETATM   36  C4  UNL     1      -5.642  -1.455   2.600  1.00  0.00     0.025 C 
ENDBRANCH  30  33
ENDBRANCH  28  29
BRANCH  28  37
HETATM   37  C29 UNL     1      -4.057   2.359  -1.043  1.00  0.00    -0.011 C 
HETATM   38  C30 UNL     1      -3.181   2.985  -2.058  1.00  0.00     0.021 C 
HETATM   39  C31 UNL     1      -5.471   2.375  -1.554  1.00  0.00     0.021 C 
HETATM   40  C32 UNL     1      -4.060   3.444   0.078  1.00  0.00     0.021 C 
ENDBRANCH  28  37
ENDBRANCH  27  28
BRANCH  27  41
HETATM   41  C25 UNL     1      -3.344  -0.778  -2.274  1.00  0.00    -0.026 C 
HETATM   42  C26 UNL     1      -4.234  -0.274  -3.367  1.00  0.00     0.017 C 
HETATM   43  C27 UNL     1      -3.989  -2.017  -1.721  1.00  0.00     0.017 C 
HETATM   44  C28 UNL     1      -2.139  -1.364  -3.088  1.00  0.00     0.017 C 
ENDBRANCH  27  41
ENDBRANCH   1  27
TORSDOF 13
