REMARK  12 active torsions:
REMARK  status: ('A' for Active; 'I' for Inactive)
REMARK    1  A    between atoms: C2_2  and  C4_4 
REMARK    2  A    between atoms: C4_4  and  C5_5 
REMARK    3  A    between atoms: C8_8  and  C9_9 
REMARK    4  A    between atoms: C9_9  and  N1_10 
REMARK       I    between atoms: N1_10  and  C10_12 
REMARK    5  A    between atoms: C10_12  and  C11_14 
REMARK    6  A    between atoms: C11_14  and  N2_15 
REMARK       I    between atoms: N2_15  and  C12_17 
REMARK    7  A    between atoms: C12_17  and  C13_19 
REMARK       I    between atoms: N3_23  and  C17_24 
REMARK    8  A    between atoms: C17_24  and  C18_26 
REMARK    9  A    between atoms: C18_26  and  O4_28 
REMARK   10  A    between atoms: C18_26  and  C20_30 
REMARK   11  A    between atoms: C20_30  and  C21_31 
REMARK   12  A    between atoms: C21_31  and  S1_32 
ROOT
HETATM    1  N1  UNL     1      -0.558   0.571  -2.029  1.00  0.00    -0.359 N 
ATOM      2  H1  UNL     1      -0.420   1.251  -2.777  1.00  0.00     0.162 HD
HETATM    3  C10 UNL     1       0.523   0.286  -1.159  1.00  0.00     0.235 C 
HETATM    4  O1  UNL     1       0.429  -0.529  -0.214  1.00  0.00    -0.272 OA
ENDROOT
BRANCH   3   5
HETATM    5  C11 UNL     1       1.815   0.975  -1.374  1.00  0.00     0.225 C 
BRANCH   5   6
HETATM    6  N2  UNL     1       2.833   0.605  -0.457  1.00  0.00    -0.351 N 
HETATM    7  C12 UNL     1       3.367  -0.686  -0.275  1.00  0.00     0.241 C 
HETATM    8  O2  UNL     1       2.892  -1.630  -1.003  1.00  0.00    -0.271 OA
ATOM      9  H2  UNL     1       3.216   1.347   0.128  1.00  0.00     0.163 HD
BRANCH   7  10
HETATM   10  C13 UNL     1       4.418  -1.084   0.674  1.00  0.00     0.179 C 
HETATM   11  C14 UNL     1       3.783  -1.292   2.056  1.00  0.00     0.037 C 
HETATM   12  C15 UNL     1       4.539  -0.446   3.024  1.00  0.00     0.022 C 
HETATM   13  C16 UNL     1       5.861  -0.246   2.295  1.00  0.00     0.127 C 
HETATM   14  N3  UNL     1       5.456  -0.115   0.917  1.00  0.00    -0.336 N 
HETATM   15  C17 UNL     1       6.019   0.776  -0.066  1.00  0.00     0.254 C 
HETATM   16  O3  UNL     1       5.602   0.691  -1.261  1.00  0.00    -0.270 OA
BRANCH  15  17
HETATM   17  C18 UNL     1       7.046   1.788   0.193  1.00  0.00     0.135 C 
HETATM   18  C19 UNL     1       6.607   2.728   1.269  1.00  0.00     0.056 C 
BRANCH  17  19
HETATM   19  O4  UNL     1       7.253   2.588  -0.961  1.00  0.00    -0.381 OA
ATOM     20  H4  UNL     1       7.919   3.244  -0.793  1.00  0.00     0.211 HD
ENDBRANCH  17  19
BRANCH  17  21
HETATM   21  C20 UNL     1       8.361   1.094   0.528  1.00  0.00     0.057 C 
BRANCH  21  22
HETATM   22  C21 UNL     1       8.713   0.249  -0.693  1.00  0.00     0.066 C 
BRANCH  22  23
HETATM   23  S1  UNL     1      10.227  -0.641  -0.483  1.00  0.00    -0.228 SA
HETATM   24  C22 UNL     1      10.023  -1.713   0.924  1.00  0.00     0.078 C 
HETATM   25  C23 UNL     1      10.547  -1.653  -1.918  1.00  0.00     0.078 C 
ENDBRANCH  22  23
ENDBRANCH  21  22
ENDBRANCH  17  21
ENDBRANCH  15  17
ENDBRANCH   7  10
ENDBRANCH   5   6
ENDBRANCH   3   5
BRANCH   1  26
HETATM   26  C9  UNL     1      -1.832  -0.056  -1.899  1.00  0.00     0.127 C 
BRANCH  26  27
HETATM   27  C8  UNL     1      -2.563   0.151  -0.618  1.00  0.00     0.010 A 
HETATM   28  C7  UNL     1      -2.883   1.553  -0.276  1.00  0.00     0.007 A 
HETATM   29  C6  UNL     1      -4.379   1.675  -0.192  1.00  0.00     0.012 A 
HETATM   30  C5  UNL     1      -5.000   0.329  -0.352  1.00  0.00    -0.013 A 
HETATM   31  C24 UNL     1      -3.846  -0.627  -0.701  1.00  0.00     0.020 A 
HETATM   32  C32 UNL     1      -5.378  -0.259   0.981  1.00  0.00     0.100 C 
HETATM   33  C25 UNL     1      -3.821  -1.716   0.310  1.00  0.00     0.128 C 
HETATM   34  N4  UNL     1      -5.053  -1.639   1.002  1.00  0.00    -0.387 N 
HETATM   35  C26 UNL     1      -5.998  -2.632   0.807  1.00  0.00     0.058 C 
HETATM   36  C27 UNL     1      -7.398  -2.377   1.203  1.00  0.00     0.045 C 
HETATM   37  C28 UNL     1      -7.800  -0.928   1.190  1.00  0.00     0.016 C 
HETATM   38  C29 UNL     1      -6.673   0.001   1.591  1.00  0.00    -0.026 C 
HETATM   39  C30 UNL     1      -6.478  -0.330   3.100  1.00  0.00     0.017 C 
HETATM   40  C31 UNL     1      -7.197   1.394   1.603  1.00  0.00     0.017 C 
BRANCH  30  41
HETATM   41  C4  UNL     1      -5.999   0.175  -1.406  1.00  0.00     0.016 C 
BRANCH  41  42
HETATM   42  C2  UNL     1      -5.688   0.401  -2.825  1.00  0.00    -0.022 C 
HETATM   43  C1  UNL     1      -5.241   1.775  -3.229  1.00  0.00     0.009 C 
HETATM   44  C3  UNL     1      -6.950   0.147  -3.693  1.00  0.00     0.009 C 
ENDBRANCH  41  42
ENDBRANCH  30  41
ENDBRANCH  26  27
ENDBRANCH   1  26
TORSDOF 12
