REMARK  10 active torsions:
REMARK  status: ('A' for Active; 'I' for Inactive)
REMARK    1  A    between atoms: C2_2  and  N1_3 
REMARK    2  A    between atoms: C5_6  and  N2_7 
REMARK       I    between atoms: N2_7  and  C6_9 
REMARK    3  A    between atoms: C6_9  and  C7_11 
REMARK    4  A    between atoms: C7_11  and  N3_12 
REMARK       I    between atoms: N3_12  and  C8_13 
REMARK    5  A    between atoms: N3_12  and  C13_21 
REMARK       I    between atoms: C8_13  and  N4_15 
REMARK    6  A    between atoms: N4_15  and  C9_17 
REMARK    7  A    between atoms: C19_27  and  N5_28 
REMARK       I    between atoms: N5_28  and  C20_30 
REMARK    8  A    between atoms: C20_30  and  C21_32 
REMARK    9  A    between atoms: C21_32  and  O4_34 
REMARK   10  A    between atoms: C21_32  and  C24_36 
ROOT
HETATM    1  C13 UNL     1       0.134  -1.264  -1.211  1.00  0.00     0.127 C 
HETATM    2  C14 UNL     1       0.603  -0.286  -2.299  1.00  0.00     0.060 C 
HETATM    3  C15 UNL     1      -0.692   0.098  -2.949  1.00  0.00     0.124 C 
HETATM    4  C16 UNL     1      -0.986   1.535  -2.560  1.00  0.00     0.038 C 
HETATM    5  C17 UNL     1      -1.399   1.665  -1.137  1.00  0.00     0.009 C 
HETATM    6  C18 UNL     1      -0.368   2.457  -0.373  1.00  0.00     0.012 C 
HETATM    7  C19 UNL     1      -1.747   0.355  -0.456  1.00  0.00     0.119 C 
HETATM    8  C30 UNL     1      -1.248  -0.872  -1.055  1.00  0.00     0.168 C 
HETATM    9  O5  UNL     1      -1.632  -0.774  -2.461  1.00  0.00    -0.376 OA
ENDROOT
BRANCH   1  10
HETATM   10  N3  UNL     1       1.092  -1.492  -0.275  1.00  0.00    -0.297 N 
HETATM   11  C8  UNL     1       1.675  -2.764  -0.385  1.00  0.00     0.323 C 
HETATM   12  O2  UNL     1       1.671  -3.322  -1.536  1.00  0.00    -0.247 OA
HETATM   13  N4  UNL     1       2.260  -3.456   0.685  1.00  0.00    -0.335 N 
ATOM     14  H4  UNL     1       2.274  -3.018   1.606  1.00  0.00     0.165 HD
BRANCH  10  15
HETATM   15  C7  UNL     1       1.126  -0.997   1.031  1.00  0.00     0.170 C 
BRANCH  15  16
HETATM   16  C6  UNL     1       2.395  -0.256   1.347  1.00  0.00     0.257 C 
HETATM   17  N2  UNL     1       3.414  -0.110   0.385  1.00  0.00    -0.352 N 
ATOM     18  H2  UNL     1       3.283  -0.517  -0.541  1.00  0.00     0.163 HD
HETATM   19  O1  UNL     1       2.546   0.239   2.488  1.00  0.00    -0.267 OA
BRANCH  17  20
HETATM   20  C5  UNL     1       4.643   0.602   0.675  1.00  0.00     0.088 C 
HETATM   21  C4  UNL     1       5.775  -0.386   0.575  1.00  0.00     0.055 C 
HETATM   22  C3  UNL     1       7.127   0.278   0.543  1.00  0.00     0.274 C 
HETATM   23  N1  UNL     1       7.026   1.723   0.485  1.00  0.00     0.088 N 
HETATM   24  C32 UNL     1       6.203   2.057  -0.641  1.00  0.00     0.274 C 
HETATM   25  C31 UNL     1       4.767   1.748  -0.275  1.00  0.00     0.055 C 
BRANCH  23  26
HETATM   26  C2  UNL     1       8.380   2.252   0.350  1.00  0.00     0.268 C 
HETATM   27  C1  UNL     1       8.240   3.760   0.293  1.00  0.00     0.037 C 
ENDBRANCH  23  26
ENDBRANCH  17  20
ENDBRANCH  15  16
ENDBRANCH  10  15
BRANCH  13  28
HETATM   28  C9  UNL     1       2.850  -4.782   0.526  1.00  0.00     0.023 C 
HETATM   29  C10 UNL     1       1.763  -5.710   0.033  1.00  0.00     0.037 C 
HETATM   30  C11 UNL     1       3.326  -5.303   1.839  1.00  0.00     0.037 C 
HETATM   31  C12 UNL     1       3.962  -4.802  -0.480  1.00  0.00     0.037 C 
ENDBRANCH  13  28
ENDBRANCH   1  10
BRANCH   7  32
HETATM   32  N5  UNL     1      -3.246   0.243  -0.583  1.00  0.00    -0.351 N 
HETATM   33  C20 UNL     1      -4.099   0.310   0.501  1.00  0.00     0.253 C 
HETATM   34  O3  UNL     1      -3.533   0.487   1.649  1.00  0.00    -0.270 OA
ATOM     35  H5  UNL     1      -3.648   0.112  -1.511  1.00  0.00     0.163 HD
BRANCH  33  36
HETATM   36  C21 UNL     1      -5.562   0.214   0.561  1.00  0.00     0.140 C 
HETATM   37  C22 UNL     1      -6.021  -0.748   1.651  1.00  0.00     0.057 C 
BRANCH  36  38
HETATM   38  O4  UNL     1      -6.082  -0.186  -0.647  1.00  0.00    -0.375 OA
HETATM   39  C23 UNL     1      -5.800  -1.459  -1.051  1.00  0.00     0.203 C 
ENDBRANCH  36  38
BRANCH  36  40
HETATM   40  C24 UNL     1      -6.170   1.584   0.911  1.00  0.00     0.029 C 
HETATM   41  C25 UNL     1      -5.811   2.607  -0.118  1.00  0.00     0.008 C 
HETATM   42  C26 UNL     1      -7.000   3.459  -0.510  1.00  0.00     0.000 C 
HETATM   43  C27 UNL     1      -7.796   3.906   0.683  1.00  0.00     0.000 C 
HETATM   44  C28 UNL     1      -8.299   2.748   1.510  1.00  0.00     0.000 C 
HETATM   45  C29 UNL     1      -7.664   1.444   1.119  1.00  0.00     0.008 C 
ENDBRANCH  36  40
ENDBRANCH  33  36
ENDBRANCH   7  32
TORSDOF 10
