REMARK  14 active torsions:
REMARK  status: ('A' for Active; 'I' for Inactive)
REMARK    1  A    between atoms: C2_2  and  C3_3 
REMARK    2  A    between atoms: C3_3  and  C4_5 
REMARK    3  A    between atoms: C4_5  and  N1_6 
REMARK    4  A    between atoms: C4_5  and  C28_43 
REMARK       I    between atoms: N1_6  and  C5_8 
REMARK    5  A    between atoms: C5_8  and  C6_10 
REMARK    6  A    between atoms: N2_13  and  C9_14 
REMARK    7  A    between atoms: C9_14  and  O3_15 
REMARK    8  A    between atoms: C9_14  and  C10_17 
REMARK    9  A    between atoms: C10_17  and  N3_18 
REMARK   10  A    between atoms: C10_17  and  C24_39 
REMARK       I    between atoms: N3_18  and  C11_20 
REMARK   11  A    between atoms: C11_20  and  C12_22 
REMARK       I    between atoms: N4_26  and  C16_27 
REMARK   12  A    between atoms: C16_27  and  C17_29 
REMARK   13  A    between atoms: C17_29  and  N5_30 
REMARK   14  A    between atoms: C17_29  and  C20_35 
REMARK       I    between atoms: N5_30  and  C18_32 
ROOT
HETATM    1  C10 UNL     1      -0.364  -1.943  -0.439  1.00  0.00     0.166 C 
ENDROOT
BRANCH   1   2
HETATM    2  C9  UNL     1      -1.504  -2.230  -1.326  1.00  0.00     0.138 C 
BRANCH   2   3
HETATM    3  N2  UNL     1      -2.880  -2.158  -1.040  1.00  0.00    -0.350 N 
HETATM    4  C6  UNL     1      -3.891  -1.854  -0.073  1.00  0.00     0.179 C 
HETATM    5  C7  UNL     1      -4.799  -2.897  -0.732  1.00  0.00     0.055 C 
HETATM    6  C8  UNL     1      -4.022  -2.501  -1.942  1.00  0.00     0.128 C 
BRANCH   4   7
HETATM    7  C5  UNL     1      -4.461  -0.481  -0.125  1.00  0.00     0.241 C 
HETATM    8  N1  UNL     1      -5.453  -0.085   0.752  1.00  0.00    -0.348 N 
ATOM      9  H1  UNL     1      -5.760  -0.783   1.430  1.00  0.00     0.163 HD
HETATM   10  O2  UNL     1      -4.012   0.298  -0.991  1.00  0.00    -0.271 OA
BRANCH   8  11
HETATM   11  C4  UNL     1      -6.102   1.195   0.820  1.00  0.00     0.157 C 
BRANCH  11  12
HETATM   12  C3  UNL     1      -5.794   1.896   2.098  1.00  0.00     0.149 C 
HETATM   13  O1  UNL     1      -5.077   1.414   2.949  1.00  0.00    -0.296 OA
BRANCH  12  14
HETATM   14  C2  UNL     1      -6.394   3.237   2.319  1.00  0.00     0.076 C 
HETATM   15  C1  UNL     1      -5.946   3.861   3.628  1.00  0.00     0.013 C 
ENDBRANCH  12  14
ENDBRANCH  11  12
BRANCH  11  16
HETATM   16  C28 UNL     1      -7.562   1.186   0.596  1.00  0.00     0.007 C 
HETATM   17  C29 UNL     1      -8.379   0.507   1.641  1.00  0.00     0.012 C 
HETATM   18  C30 UNL     1      -7.933   0.694  -0.812  1.00  0.00     0.012 C 
ENDBRANCH  11  16
ENDBRANCH   8  11
ENDBRANCH   4   7
ENDBRANCH   2   3
BRANCH   2  19
HETATM   19  O3  UNL     1      -1.219  -2.598  -2.551  1.00  0.00    -0.348 OA
ATOM     20  H3  UNL     1      -0.290  -2.647  -2.744  1.00  0.00     0.219 HD
ENDBRANCH   2  19
ENDBRANCH   1   2
BRANCH   1  21
HETATM   21  N3  UNL     1       0.716  -1.501  -1.298  1.00  0.00    -0.347 N 
HETATM   22  C11 UNL     1       1.543  -0.393  -1.196  1.00  0.00     0.241 C 
HETATM   23  O4  UNL     1       1.390   0.387  -0.228  1.00  0.00    -0.271 OA
ATOM     24  H3  UNL     1       0.896  -2.099  -2.104  1.00  0.00     0.163 HD
BRANCH  22  25
HETATM   25  C12 UNL     1       2.585  -0.112  -2.179  1.00  0.00     0.179 C 
HETATM   26  C13 UNL     1       2.147   1.036  -3.103  1.00  0.00     0.037 C 
HETATM   27  C14 UNL     1       3.451   1.604  -3.587  1.00  0.00     0.022 C 
HETATM   28  C15 UNL     1       4.537   0.752  -2.960  1.00  0.00     0.127 C 
HETATM   29  N4  UNL     1       3.860   0.333  -1.718  1.00  0.00    -0.337 N 
HETATM   30  C16 UNL     1       4.521   0.374  -0.478  1.00  0.00     0.244 C 
HETATM   31  O5  UNL     1       3.957  -0.090   0.541  1.00  0.00    -0.271 OA
BRANCH  30  32
HETATM   32  C17 UNL     1       5.864   0.938  -0.296  1.00  0.00     0.184 C 
BRANCH  32  33
HETATM   33  N5  UNL     1       6.508   0.110   0.751  1.00  0.00    -0.347 N 
HETATM   34  C18 UNL     1       7.738  -0.580   0.444  1.00  0.00     0.214 C 
HETATM   35  C19 UNL     1       8.433  -1.429   1.432  1.00  0.00     0.117 C 
HETATM   36  O6  UNL     1       8.226  -0.448  -0.700  1.00  0.00    -0.274 OA
ATOM     37  H5  UNL     1       6.087   0.029   1.677  1.00  0.00     0.163 HD
ENDBRANCH  32  33
BRANCH  32  38
HETATM   38  C20 UNL     1       5.902   2.339   0.251  1.00  0.00    -0.022 C 
HETATM   39  C21 UNL     1       5.214   3.377  -0.562  1.00  0.00     0.017 C 
HETATM   40  C22 UNL     1       5.468   2.392   1.709  1.00  0.00     0.017 C 
HETATM   41  C23 UNL     1       7.392   2.726   0.263  1.00  0.00     0.017 C 
ENDBRANCH  32  38
ENDBRANCH  30  32
ENDBRANCH  22  25
ENDBRANCH   1  21
BRANCH   1  42
HETATM   42  C24 UNL     1       0.034  -3.139   0.372  1.00  0.00    -0.023 C 
HETATM   43  C25 UNL     1       0.444  -4.334  -0.448  1.00  0.00     0.017 C 
HETATM   44  C26 UNL     1       1.203  -2.846   1.290  1.00  0.00     0.017 C 
HETATM   45  C27 UNL     1      -1.106  -3.550   1.255  1.00  0.00     0.017 C 
ENDBRANCH   1  42
TORSDOF 14
