REMARK  12 active torsions:
REMARK  status: ('A' for Active; 'I' for Inactive)
REMARK    1  A    between atoms: C2_2  and  N1_4 
REMARK    2  A    between atoms: N1_4  and  C3_6 
REMARK    3  A    between atoms: C3_6  and  C4_7 
REMARK    4  A    between atoms: C3_6  and  C8_11 
REMARK    5  A    between atoms: C4_7  and  C5_8 
REMARK       I    between atoms: C8_11  and  N2_13 
REMARK       I    between atoms: N3_17  and  C12_18 
REMARK    6  A    between atoms: C12_18  and  C13_20 
REMARK    7  A    between atoms: C13_20  and  N4_21 
REMARK    8  A    between atoms: C13_20  and  C21_32 
REMARK       I    between atoms: N4_21  and  C14_23 
REMARK    9  A    between atoms: C14_23  and  C15_25 
REMARK   10  A    between atoms: C15_25  and  N5_26 
REMARK   11  A    between atoms: C26_37  and  C27_38 
REMARK       I    between atoms: C27_38  and  N6_40 
REMARK   12  A    between atoms: N6_40  and  C28_42 
ROOT
HETATM    1  C8  UNL     1      -2.725   1.157  -0.367  1.00  0.00     0.243 C 
HETATM    2  O1  UNL     1      -3.344   1.255  -1.489  1.00  0.00    -0.271 OA
HETATM    3  N2  UNL     1      -2.157  -0.100  -0.084  1.00  0.00    -0.333 N 
HETATM    4  C9  UNL     1      -1.422  -0.409   1.108  1.00  0.00     0.152 C 
HETATM    5  C10 UNL     1      -0.616  -1.664   0.991  1.00  0.00     0.101 C 
HETATM    6  C11 UNL     1      -1.485  -2.812   1.490  1.00  0.00     0.034 C 
HETATM    7  N3  UNL     1      -0.151  -1.831  -0.351  1.00  0.00    -0.342 N 
HETATM    8  C12 UNL     1       1.198  -1.864  -0.766  1.00  0.00     0.243 C 
HETATM    9  O2  UNL     1       1.403  -1.983  -2.037  1.00  0.00    -0.271 OA
HETATM   10  C25 UNL     1      -1.187  -1.989  -1.378  1.00  0.00     0.161 C 
HETATM   11  C26 UNL     1      -2.362  -1.132  -1.085  1.00  0.00     0.197 C 
ENDROOT
BRANCH   8  12
HETATM   12  C13 UNL     1       2.406  -1.781   0.042  1.00  0.00     0.184 C 
BRANCH  12  13
HETATM   13  N4  UNL     1       3.403  -0.987  -0.674  1.00  0.00    -0.343 N 
HETATM   14  C14 UNL     1       4.197   0.016  -0.093  1.00  0.00     0.257 C 
HETATM   15  O3  UNL     1       4.069   0.286   1.119  1.00  0.00    -0.267 OA
ATOM     16  H4  UNL     1       3.532  -1.175  -1.668  1.00  0.00     0.163 HD
BRANCH  14  17
HETATM   17  C15 UNL     1       5.197   0.772  -0.877  1.00  0.00     0.160 C 
BRANCH  17  18
HETATM   18  N5  UNL     1       5.926   1.724  -0.146  1.00  0.00    -0.385 N 
HETATM   19  C16 UNL     1       5.292   2.886   0.327  1.00  0.00     0.122 C 
HETATM   20  C17 UNL     1       5.248   3.917  -0.811  1.00  0.00     0.020 C 
HETATM   21  C18 UNL     1       6.619   4.144  -1.363  1.00  0.00     0.003 C 
HETATM   22  C19 UNL     1       7.380   2.861  -1.627  1.00  0.00     0.020 C 
HETATM   23  C20 UNL     1       7.293   1.924  -0.437  1.00  0.00     0.122 C 
ENDBRANCH  17  18
ENDBRANCH  14  17
ENDBRANCH  12  13
BRANCH  12  24
HETATM   24  C21 UNL     1       2.962  -3.214   0.168  1.00  0.00    -0.022 C 
HETATM   25  C22 UNL     1       4.235  -3.167   1.002  1.00  0.00     0.017 C 
HETATM   26  C23 UNL     1       2.009  -4.098   0.921  1.00  0.00     0.017 C 
HETATM   27  C24 UNL     1       3.198  -3.845  -1.172  1.00  0.00     0.017 C 
ENDBRANCH  12  24
ENDBRANCH   8  12
BRANCH  11  28
HETATM   28  C27 UNL     1      -3.632  -1.826  -0.835  1.00  0.00     0.242 C 
HETATM   29  O4  UNL     1      -4.433  -1.329  -0.002  1.00  0.00    -0.271 OA
HETATM   30  N6  UNL     1      -3.984  -3.022  -1.486  1.00  0.00    -0.355 N 
ATOM     31  H6  UNL     1      -3.340  -3.438  -2.159  1.00  0.00     0.162 HD
BRANCH  30  32
HETATM   32  C28 UNL     1      -5.248  -3.670  -1.213  1.00  0.00     0.084 A 
HETATM   33  C29 UNL     1      -5.241  -5.148  -0.974  1.00  0.00     0.027 A 
HETATM   34  C30 UNL     1      -5.782  -4.565  -2.267  1.00  0.00     0.027 A 
ENDBRANCH  30  32
ENDBRANCH  11  28
BRANCH   1  35
HETATM   35  C3  UNL     1      -2.713   2.386   0.442  1.00  0.00     0.175 C 
BRANCH  35  36
HETATM   36  N1  UNL     1      -3.390   3.464  -0.272  1.00  0.00    -0.371 N 
ATOM     37  H1  UNL     1      -4.080   3.212  -0.980  1.00  0.00     0.161 HD
BRANCH  36  38
HETATM   38  C2  UNL     1      -3.150   4.808  -0.044  1.00  0.00     0.070 C 
HETATM   39  C1  UNL     1      -3.918   5.842  -0.822  1.00  0.00     0.081 C 
HETATM   40  S1  UNL     1      -2.036   5.334   1.019  1.00  0.00    -0.066 SA
ENDBRANCH  36  38
ENDBRANCH  35  36
BRANCH  35  41
HETATM   41  C4  UNL     1      -3.149   2.264   1.846  1.00  0.00     0.038 C 
BRANCH  41  42
HETATM   42  C5  UNL     1      -4.576   1.956   2.122  1.00  0.00    -0.020 C 
HETATM   43  C6  UNL     1      -4.783   1.874   3.645  1.00  0.00     0.009 C 
HETATM   44  C7  UNL     1      -5.600   2.893   1.614  1.00  0.00     0.009 C 
ENDBRANCH  41  42
ENDBRANCH  35  41
ENDBRANCH   1  35
TORSDOF 12
