REMARK  5 active torsions:
REMARK  status: ('A' for Active; 'I' for Inactive)
REMARK    1  A    between atoms: N2_4  and  C1_6 
REMARK    2  A    between atoms: C1_6  and  C2_7 
REMARK    3  A    between atoms: C4_12  and  C5_13 
REMARK    4  A    between atoms: C5_13  and  N4_14 
REMARK    5  A    between atoms: N4_14  and  C6_16 
ROOT
HETATM    1  C2  UNL     1      -0.879  -0.201  -0.233  1.00  0.00     0.121 C 
HETATM    2  C3  UNL     1      -1.415   0.803  -1.158  1.00  0.00     0.226 C 
HETATM    3  O1  UNL     1      -2.493   1.097  -1.675  1.00  0.00    -0.273 OA
HETATM    4  N3  UNL     1      -0.116   1.349  -1.235  1.00  0.00    -0.354 N 
ATOM      5  H3  UNL     1       0.448   1.823  -1.940  1.00  0.00     0.163 HD
HETATM    6  C4  UNL     1       0.052   0.931   0.141  1.00  0.00     0.116 C 
ENDROOT
BRANCH   1   7
HETATM    7  C1  UNL     1      -1.743  -0.577   0.932  1.00  0.00     0.155 C 
BRANCH   7   8
HETATM    8  N2  UNL     1      -3.002  -1.122   0.544  1.00  0.00    -0.342 N 
HETATM    9  N1  UNL     1      -3.240  -1.685  -0.521  1.00  0.00    -0.349 N 
ATOM     10  H12 UNL     1      -2.459  -1.761  -1.173  1.00  0.00     0.176 HD
ATOM     11  H11 UNL     1      -4.141  -2.075  -0.799  1.00  0.00     0.176 HD
ATOM     12  H2  UNL     1      -3.771  -1.037   1.208  1.00  0.00     0.179 HD
ENDBRANCH   7   8
ENDBRANCH   1   7
BRANCH   6  13
HETATM   13  C5  UNL     1       1.430   0.534   0.550  1.00  0.00     0.148 C 
BRANCH  13  14
HETATM   14  N4  UNL     1       2.149  -0.168  -0.449  1.00  0.00    -0.366 N 
ATOM     15  H4  UNL     1       1.709  -0.356  -1.350  1.00  0.00     0.161 HD
BRANCH  14  16
HETATM   16  C6  UNL     1       3.470  -0.611  -0.210  1.00  0.00     0.348 C 
HETATM   17  O2  UNL     1       4.003  -0.377   0.897  1.00  0.00    -0.284 OA
ENDBRANCH  14  16
ENDBRANCH  13  14
ENDBRANCH   6  13
TORSDOF 5
