REMARK  5 active torsions:
REMARK  status: ('A' for Active; 'I' for Inactive)
REMARK    1  A    between atoms: N2_4  and  C1_6 
REMARK    2  A    between atoms: C1_6  and  C2_7 
REMARK    3  A    between atoms: C3_8  and  N3_9 
REMARK    4  A    between atoms: N3_9  and  C4_11 
REMARK    5  A    between atoms: C4_11  and  C5_12 
ROOT
HETATM    1  N3  UNL     1      -0.135   0.896  -0.483  1.00  0.00    -0.398 N 
ATOM      2  H3  UNL     1      -0.677   1.524  -1.077  1.00  0.00     0.158 HD
ENDROOT
BRANCH   1   3
HETATM    3  C3  UNL     1       1.220   1.194  -0.183  1.00  0.00     0.080 C 
HETATM    4  C2  UNL     1       2.040   0.267   0.245  1.00  0.00     0.011 C 
BRANCH   4   5
HETATM    5  C1  UNL     1       3.470   0.571   0.563  1.00  0.00     0.167 C 
BRANCH   5   6
HETATM    6  N2  UNL     1       4.286  -0.265  -0.310  1.00  0.00    -0.339 N 
HETATM    7  N1  UNL     1       5.454  -0.502  -0.024  1.00  0.00    -0.349 N 
ATOM      8  H12 UNL     1       5.842  -0.105   0.832  1.00  0.00     0.176 HD
ATOM      9  H11 UNL     1       6.025  -1.087  -0.635  1.00  0.00     0.176 HD
ATOM     10  H2  UNL     1       3.883  -0.654  -1.162  1.00  0.00     0.179 HD
ENDBRANCH   5   6
ENDBRANCH   4   5
ENDBRANCH   1   3
BRANCH   1  11
HETATM   11  C4  UNL     1      -0.737  -0.284   0.048  1.00  0.00     0.134 C 
BRANCH  11  12
HETATM   12  C5  UNL     1      -2.111  -0.583  -0.446  1.00  0.00     0.113 C 
HETATM   13  C6  UNL     1      -3.203   0.402  -0.214  1.00  0.00     0.138 C 
HETATM   14  N4  UNL     1      -4.061  -0.721   0.217  1.00  0.00    -0.360 N 
HETATM   15  C7  UNL     1      -2.865  -1.402   0.566  1.00  0.00     0.225 C 
ATOM     16  H4  UNL     1      -5.061  -0.918   0.249  1.00  0.00     0.162 HD
HETATM   17  O1  UNL     1      -2.536  -2.303   1.367  1.00  0.00    -0.273 OA
ENDBRANCH  11  12
ENDBRANCH   1  11
TORSDOF 5
