REMARK  6 active torsions:
REMARK  status: ('A' for Active; 'I' for Inactive)
REMARK    1  A    between atoms: N2_4  and  C1_6 
REMARK    2  A    between atoms: C1_6  and  C2_7 
REMARK    3  A    between atoms: C5_10  and  N3_11 
REMARK    4  A    between atoms: N3_11  and  C6_14 
REMARK    5  A    between atoms: C6_14  and  C7_15 
REMARK    6  A    between atoms: C7_15  and  O1_16 
ROOT
HETATM    1  C2  UNL     1      -1.331  -0.685   0.060  1.00  0.00     0.061 A 
HETATM    2  C3  UNL     1      -0.772  -1.884  -0.624  1.00  0.00    -0.020 A 
HETATM    3  C4  UNL     1       0.462  -1.446  -0.761  1.00  0.00     0.003 A 
HETATM    4  C5  UNL     1       0.076  -0.168  -0.088  1.00  0.00     0.217 A 
ENDROOT
BRANCH   4   5
HETATM    5  N3  UNL     1       0.796  -0.066   1.151  1.00  0.00    -0.065 N 
ATOM      6  H32 UNL     1       0.165   0.010   1.949  1.00  0.00     0.278 HD
ATOM      7  H31 UNL     1       1.250  -0.946   1.397  1.00  0.00     0.278 HD
BRANCH   5   8
HETATM    8  C6  UNL     1       1.755   1.048   1.107  1.00  0.00     0.259 C 
BRANCH   8   9
HETATM    9  C7  UNL     1       2.826   0.635   0.088  1.00  0.00     0.191 C 
BRANCH   9  10
HETATM   10  O1  UNL     1       3.382  -0.542   0.585  1.00  0.00    -0.399 OA
ATOM     11  H1  UNL     1       4.045  -0.798  -0.046  1.00  0.00     0.209 HD
ENDBRANCH   9  10
ENDBRANCH   8   9
ENDBRANCH   5   8
ENDBRANCH   4   5
BRANCH   1  12
HETATM   12  C1  UNL     1      -2.367  -0.001  -0.802  1.00  0.00     0.149 C 
BRANCH  12  13
HETATM   13  N2  UNL     1      -2.883   1.140  -0.098  1.00  0.00    -0.342 N 
HETATM   14  N1  UNL     1      -3.655   0.968   0.848  1.00  0.00    -0.349 N 
ATOM     15  H12 UNL     1      -3.915   0.019   1.115  1.00  0.00     0.176 HD
ATOM     16  H11 UNL     1      -4.021   1.778   1.348  1.00  0.00     0.176 HD
ATOM     17  H2  UNL     1      -2.613   2.083  -0.378  1.00  0.00     0.179 HD
ENDBRANCH  12  13
ENDBRANCH   1  12
TORSDOF 6
