REMARK  12 active torsions:
REMARK  status: ('A' for Active; 'I' for Inactive)
REMARK    1  A    between atoms: C2_2  and  C3_3 
REMARK       I    between atoms: N1_5  and  C5_6 
REMARK    2  A    between atoms: C9_14  and  C10_15 
REMARK    3  A    between atoms: C10_15  and  N4_16 
REMARK    4  A    between atoms: C17_26  and  N6_27 
REMARK    5  A    between atoms: N6_27  and  C18_28 
REMARK    6  A    between atoms: C18_28  and  C19_29 
REMARK    7  A    between atoms: C19_29  and  O2_30 
REMARK    8  A    between atoms: C26_41  and  C27_42 
REMARK    9  A    between atoms: C27_42  and  C28_43 
REMARK   10  A    between atoms: C28_43  and  C29_44 
REMARK   11  A    between atoms: C29_44  and  C30_45 
REMARK   12  A    between atoms: C30_45  and  N8_46 
ROOT
HETATM    1  C3  UNL     1       1.315   1.192   3.116  1.00  0.00     0.128 C 
HETATM    2  C4  UNL     1       2.622   1.949   3.266  1.00  0.00     0.155 C 
HETATM    3  N1  UNL     1       3.627   1.203   2.573  1.00  0.00    -0.352 N 
HETATM    4  C5  UNL     1       4.980   1.480   2.908  1.00  0.00     0.184 C 
HETATM    5  N2  UNL     1       5.282   1.745   4.127  1.00  0.00    -0.374 N 
ATOM      6  H21 UNL     1       6.253   1.944   4.367  1.00  0.00     0.158 HD
ATOM      7  H22 UNL     1       4.534   1.747   4.821  1.00  0.00     0.158 HD
HETATM    8  N3  UNL     1       6.018   1.477   1.945  1.00  0.00    -0.064 NA
HETATM    9  C6  UNL     1       3.381   0.194   1.567  1.00  0.00     0.150 C 
HETATM   10  C7  UNL     1       2.032   0.240   0.933  1.00  0.00     0.107 C 
HETATM   11  C8  UNL     1       1.513  -1.177   0.837  1.00  0.00     0.042 C 
HETATM   12  C9  UNL     1       1.542  -1.737  -0.576  1.00  0.00     0.106 C 
HETATM   13  C14 UNL     1       0.493  -2.782  -0.636  1.00  0.00     0.223 C 
HETATM   14  O1  UNL     1       0.626  -3.752   0.151  1.00  0.00    -0.273 OA
HETATM   15  N5  UNL     1      -0.629  -2.784  -1.489  1.00  0.00    -0.361 N 
ATOM     16  H5  UNL     1      -1.099  -3.679  -1.624  1.00  0.00     0.162 HD
HETATM   17  C15 UNL     1      -1.176  -1.660  -2.185  1.00  0.00     0.125 C 
HETATM   18  C16 UNL     1      -2.620  -1.416  -1.702  1.00  0.00     0.063 C 
HETATM   19  C17 UNL     1      -2.607  -0.484  -0.548  1.00  0.00     0.283 C 
HETATM   20  C25 UNL     1      -2.487   0.888  -1.154  1.00  0.00     0.249 C 
HETATM   21  O3  UNL     1      -3.167   1.106  -2.227  1.00  0.00    -0.271 OA
HETATM   22  N7  UNL     1      -1.702   1.928  -0.646  1.00  0.00    -0.346 N 
ATOM     23  H7  UNL     1      -2.182   2.813  -0.485  1.00  0.00     0.163 HD
HETATM   24  C26 UNL     1      -0.294   1.902  -0.321  1.00  0.00     0.176 C 
HETATM   25  C31 UNL     1      -0.046   1.687   1.126  1.00  0.00     0.243 C 
HETATM   26  O4  UNL     1      -0.921   2.121   1.925  1.00  0.00    -0.271 OA
HETATM   27  N9  UNL     1       1.085   1.038   1.669  1.00  0.00    -0.334 N 
ENDROOT
BRANCH  19  28
HETATM   28  N6  UNL     1      -3.620  -0.623   0.461  1.00  0.00    -0.052 N 
HETATM   29  C20 UNL     1      -4.342  -1.880   0.167  1.00  0.00     0.238 C 
HETATM   30  C21 UNL     1      -5.392  -2.180   1.216  1.00  0.00     0.028 C 
HETATM   31  C22 UNL     1      -4.664  -2.651   2.444  1.00  0.00     0.003 C 
HETATM   32  C23 UNL     1      -3.246  -2.212   2.355  1.00  0.00     0.028 C 
HETATM   33  C24 UNL     1      -2.991  -0.874   1.750  1.00  0.00     0.238 C 
BRANCH  28  34
HETATM   34  C18 UNL     1      -4.618   0.391   0.498  1.00  0.00     0.264 C 
BRANCH  34  35
HETATM   35  C19 UNL     1      -4.909   1.040   1.815  1.00  0.00     0.192 C 
BRANCH  35  36
HETATM   36  O2  UNL     1      -5.927   1.989   1.555  1.00  0.00    -0.399 OA
ATOM     37  H2  UNL     1      -6.112   2.401   2.391  1.00  0.00     0.209 HD
ENDBRANCH  35  36
ENDBRANCH  34  35
ENDBRANCH  28  34
ENDBRANCH  19  28
BRANCH  24  38
HETATM   38  C27 UNL     1       0.288   3.261  -0.744  1.00  0.00     0.035 C 
BRANCH  38  39
HETATM   39  C28 UNL     1       0.068   3.421  -2.236  1.00  0.00     0.004 C 
BRANCH  39  40
HETATM   40  C29 UNL     1       0.597   4.714  -2.762  1.00  0.00     0.027 C 
BRANCH  40  41
HETATM   41  C30 UNL     1       0.320   4.758  -4.251  1.00  0.00     0.229 C 
BRANCH  41  42
HETATM   42  N8  UNL     1       0.807   5.992  -4.845  1.00  0.00    -0.079 N 
ATOM     43  H83 UNL     1       0.427   6.811  -4.370  1.00  0.00     0.274 HD
ATOM     44  H82 UNL     1       1.796   6.138  -4.644  1.00  0.00     0.274 HD
ATOM     45  H81 UNL     1       0.621   6.022  -5.847  1.00  0.00     0.274 HD
ENDBRANCH  41  42
ENDBRANCH  40  41
ENDBRANCH  39  40
ENDBRANCH  38  39
ENDBRANCH  24  38
BRANCH  12  46
HETATM   46  C10 UNL     1       2.922  -2.279  -0.824  1.00  0.00     0.250 C 
BRANCH  46  47
HETATM   47  N4  UNL     1       3.133  -2.849  -2.110  1.00  0.00    -0.078 N 
HETATM   48  C11 UNL     1       2.563  -2.104  -3.204  1.00  0.00     0.271 C 
HETATM   49  C12 UNL     1       2.747  -4.251  -2.200  1.00  0.00     0.271 C 
HETATM   50  C13 UNL     1       4.591  -2.839  -2.341  1.00  0.00     0.271 C 
ENDBRANCH  46  47
ENDBRANCH  12  46
BRANCH   1  51
HETATM   51  C2  UNL     1       1.333  -0.101   3.817  1.00  0.00    -0.010 C 
HETATM   52  C1  UNL     1       0.180  -0.598   4.247  1.00  0.00     0.009 C 
ENDBRANCH   1  51
TORSDOF 12
