REMARK  20 active torsions:
REMARK  status: ('A' for Active; 'I' for Inactive)
REMARK    1  A    between atoms: S1_2  and  C2_3 
REMARK    2  A    between atoms: C3_5  and  C4_6 
REMARK    3  A    between atoms: C4_6  and  O2_7 
REMARK    4  A    between atoms: C4_6  and  C5_9 
REMARK    5  A    between atoms: C5_9  and  O3_10 
REMARK    6  A    between atoms: C5_9  and  C6_12 
REMARK    7  A    between atoms: C6_12  and  O4_13 
REMARK    8  A    between atoms: C7_15  and  O5_16 
REMARK    9  A    between atoms: C8_18  and  O6_19 
REMARK   10  A    between atoms: O6_19  and  C9_20 
REMARK   11  A    between atoms: C12_24  and  O8_25 
REMARK   12  A    between atoms: C13_27  and  O9_28 
REMARK   13  A    between atoms: C14_30  and  O10_31 
REMARK   14  A    between atoms: C15_33  and  O11_34 
REMARK   15  A    between atoms: O11_34  and  C16_35 
REMARK   16  A    between atoms: C17_37  and  C18_38 
REMARK   17  A    between atoms: C18_38  and  O13_39 
REMARK   18  A    between atoms: C19_41  and  O14_42 
REMARK   19  A    between atoms: C20_44  and  O15_45 
REMARK   20  A    between atoms: C21_47  and  S2_48 
ROOT
HETATM    1  C2  UNL     1       1.110   2.063  -1.279  1.00  0.00     0.214 C 
HETATM    2  O1  UNL     1       0.085   2.982  -1.153  1.00  0.00    -0.362 OA
HETATM    3  C3  UNL     1      -0.990   2.406  -1.849  1.00  0.00     0.185 C 
HETATM    4  C7  UNL     1      -1.488   1.256  -1.060  1.00  0.00     0.181 C 
HETATM    5  C8  UNL     1      -0.391   0.117  -1.141  1.00  0.00     0.188 C 
HETATM    6  C15 UNL     1       0.839   0.795  -0.514  1.00  0.00     0.195 C 
ENDROOT
BRANCH   6   7
HETATM    7  O11 UNL     1       1.981  -0.020  -0.586  1.00  0.00    -0.349 OA
BRANCH   7   8
HETATM    8  C16 UNL     1       2.515  -0.407   0.619  1.00  0.00     0.278 C 
HETATM    9  O12 UNL     1       3.496   0.611   0.894  1.00  0.00    -0.350 OA
HETATM   10  C17 UNL     1       4.032   0.529   2.141  1.00  0.00     0.179 C 
HETATM   11  C19 UNL     1       4.337  -0.917   2.528  1.00  0.00     0.179 C 
HETATM   12  C20 UNL     1       4.504  -1.710   1.263  1.00  0.00     0.168 C 
HETATM   13  C21 UNL     1       3.125  -1.734   0.576  1.00  0.00     0.146 C 
BRANCH  10  14
HETATM   14  C18 UNL     1       3.370   1.296   3.238  1.00  0.00     0.198 C 
BRANCH  14  15
HETATM   15  O13 UNL     1       2.067   0.988   3.506  1.00  0.00    -0.398 OA
ATOM     16  H13 UNL     1       1.646   1.476   4.204  1.00  0.00     0.209 HD
ENDBRANCH  14  15
ENDBRANCH  10  14
BRANCH  11  17
HETATM   17  O14 UNL     1       5.511  -1.041   3.252  1.00  0.00    -0.390 OA
ATOM     18  H14 UNL     1       5.701  -1.940   3.493  1.00  0.00     0.210 HD
ENDBRANCH  11  17
BRANCH  12  19
HETATM   19  O15 UNL     1       5.347  -1.020   0.389  1.00  0.00    -0.392 OA
ATOM     20  H15 UNL     1       5.453  -1.521  -0.411  1.00  0.00     0.210 HD
ENDBRANCH  12  19
BRANCH  13  21
HETATM   21  S2  UNL     1       3.470  -2.326  -1.100  1.00  0.00    -0.073 SA
HETATM   22  S3  UNL     1       1.786  -2.841  -2.220  1.00  0.00    -0.013 SA
ENDBRANCH  13  21
ENDBRANCH   7   8
ENDBRANCH   6   7
BRANCH   1  23
HETATM   23  S1  UNL     1       2.723   2.804  -0.963  1.00  0.00    -0.139 SA
HETATM   24  C1  UNL     1       3.160   4.006  -2.218  1.00  0.00     0.092 C 
ENDBRANCH   1  23
BRANCH   5  25
HETATM   25  O6  UNL     1      -0.868  -0.866  -0.550  1.00  0.00    -0.348 OA
BRANCH  25  26
HETATM   26  C9  UNL     1      -1.338  -1.897  -0.027  1.00  0.00     0.292 C 
HETATM   27  O7  UNL     1      -2.766  -1.849   0.195  1.00  0.00    -0.351 OA
HETATM   28  C10 UNL     1      -3.293  -3.070  -0.136  1.00  0.00     0.152 C 
HETATM   29  C11 UNL     1      -4.736  -3.213   0.303  1.00  0.00     0.042 C 
HETATM   30  C12 UNL     1      -2.459  -4.223   0.367  1.00  0.00     0.178 C 
HETATM   31  C13 UNL     1      -1.510  -3.832   1.447  1.00  0.00     0.183 C 
HETATM   32  C14 UNL     1      -0.837  -2.494   1.266  1.00  0.00     0.204 C 
BRANCH  30  33
HETATM   33  O8  UNL     1      -3.334  -5.173   0.904  1.00  0.00    -0.390 OA
ATOM     34  H8  UNL     1      -2.809  -5.899   1.221  1.00  0.00     0.210 HD
ENDBRANCH  30  33
BRANCH  31  35
HETATM   35  O9  UNL     1      -2.107  -3.950   2.719  1.00  0.00    -0.390 OA
ATOM     36  H9  UNL     1      -1.502  -3.701   3.408  1.00  0.00     0.210 HD
ENDBRANCH  31  35
BRANCH  32  37
HETATM   37  O10 UNL     1      -1.213  -1.723   2.379  1.00  0.00    -0.388 OA
ATOM     38  H10 UNL     1      -0.898  -2.099   3.193  1.00  0.00     0.210 HD
ENDBRANCH  32  37
ENDBRANCH  25  26
ENDBRANCH   5  25
BRANCH   4  39
HETATM   39  O5  UNL     1      -1.527   1.505   0.319  1.00  0.00    -0.390 OA
ATOM     40  H5  UNL     1      -1.846   0.767   0.825  1.00  0.00     0.210 HD
ENDBRANCH   4  39
BRANCH   3  41
HETATM   41  C4  UNL     1      -2.015   3.319  -2.361  1.00  0.00     0.180 C 
BRANCH  41  42
HETATM   42  O2  UNL     1      -1.455   4.277  -3.265  1.00  0.00    -0.390 OA
ATOM     43  H2  UNL     1      -2.120   4.869  -3.597  1.00  0.00     0.210 HD
ENDBRANCH  41  42
BRANCH  41  44
HETATM   44  C5  UNL     1      -2.924   4.008  -1.415  1.00  0.00     0.173 C 
BRANCH  44  45
HETATM   45  O3  UNL     1      -3.564   3.195  -0.493  1.00  0.00    -0.391 OA
ATOM     46  H3  UNL     1      -4.147   3.637   0.113  1.00  0.00     0.210 HD
ENDBRANCH  44  45
BRANCH  44  47
HETATM   47  C6  UNL     1      -4.081   4.635  -2.228  1.00  0.00     0.198 C 
BRANCH  47  48
HETATM   48  O4  UNL     1      -4.799   3.590  -2.825  1.00  0.00    -0.398 OA
ATOM     49  H4  UNL     1      -5.510   3.975  -3.324  1.00  0.00     0.209 HD
ENDBRANCH  47  48
ENDBRANCH  44  47
ENDBRANCH  41  44
ENDBRANCH   3  41
TORSDOF 20
