REMARK  18 active torsions:
REMARK  status: ('A' for Active; 'I' for Inactive)
REMARK    1  A    between atoms: N1_2  and  C2_3 
REMARK    2  A    between atoms: N1_2  and  N10_45 
REMARK    3  A    between atoms: C4_7  and  C5_8 
REMARK    4  A    between atoms: C5_8  and  N3_9 
REMARK    5  A    between atoms: C5_8  and  C11_28 
REMARK       I    between atoms: N3_9  and  C6_11 
REMARK    6  A    between atoms: C6_11  and  C7_13 
REMARK    7  A    between atoms: C7_13  and  O2_14 
REMARK    8  A    between atoms: C7_13  and  C8_16 
REMARK    9  A    between atoms: C7_13  and  O4_19 
REMARK   10  A    between atoms: C8_16  and  O3_17 
REMARK   11  A    between atoms: O4_19  and  C9_20 
REMARK   12  A    between atoms: C9_20  and  N4_21 
REMARK   13  A    between atoms: C9_20  and  O5_24 
REMARK   14  A    between atoms: O5_24  and  C10_25 
REMARK   15  A    between atoms: C14_34  and  N7_35 
REMARK   16  A    between atoms: N9_42  and  O9_43 
REMARK   17  A    between atoms: C16_49  and  C17_50 
REMARK   18  A    between atoms: C19_54  and  N14_55 
ROOT
HETATM    1  C5  UNL     1       1.717  -0.062   0.625  1.00  0.00     0.175 C 
ENDROOT
BRANCH   1   2
HETATM    2  C4  UNL     1       0.387   0.088   0.006  1.00  0.00     0.057 A 
HETATM    3  C3  UNL     1      -0.710   0.063   0.843  1.00  0.00     0.121 A 
HETATM    4  N2  UNL     1      -1.950   0.189   0.358  1.00  0.00    -0.197 N 
HETATM    5  C2  UNL     1      -2.210   0.348  -0.982  1.00  0.00     0.730 A 
ATOM      6  H2  UNL     1      -2.735   0.166   1.009  1.00  0.00     0.183 HD
HETATM    7  N9  UNL     1      -1.144   0.372  -1.787  1.00  0.00    -0.011 N 
HETATM    8  C15 UNL     1       0.139   0.246  -1.319  1.00  0.00     0.298 A 
HETATM    9  O8  UNL     1       1.082   0.276  -2.117  1.00  0.00    -0.264 OA
BRANCH   5  10
HETATM   10  N1  UNL     1      -3.523   0.474  -1.445  1.00  0.00    -0.091 N 
HETATM   11  C1  UNL     1      -3.847   0.644  -2.833  1.00  0.00     0.201 C 
BRANCH  10  12
HETATM   12  N10 UNL     1      -4.587   0.431  -0.498  1.00  0.00    -0.097 N 
HETATM   13  N11 UNL     1      -4.493   0.284   0.813  1.00  0.00     0.020 NA
HETATM   14  N12 UNL     1      -5.708   0.293   1.350  1.00  0.00    -0.264 N 
HETATM   15  C16 UNL     1      -6.616   0.450   0.360  1.00  0.00     0.148 A 
ATOM     16  H12 UNL     1      -5.921   0.197   2.343  1.00  0.00     0.186 HD
HETATM   17  N16 UNL     1      -5.878   0.531  -0.759  1.00  0.00    -0.248 N 
ATOM     18  H16 UNL     1      -6.266   0.654  -1.694  1.00  0.00     0.192 HD
BRANCH  15  19
HETATM   19  C17 UNL     1      -8.062   0.514   0.502  1.00  0.00     0.042 A 
HETATM   20  C18 UNL     1      -8.690   0.416   1.723  1.00  0.00     0.122 A 
HETATM   21  N13 UNL     1     -10.053   0.481   1.814  1.00  0.00    -0.201 N 
HETATM   22  C19 UNL     1     -10.804   0.642   0.718  1.00  0.00     0.675 A 
ATOM     23  H13 UNL     1     -10.502   0.406   2.727  1.00  0.00     0.183 HD
HETATM   24  N15 UNL     1     -10.218   0.740  -0.480  1.00  0.00    -0.201 N 
HETATM   25  C20 UNL     1      -8.866   0.679  -0.603  1.00  0.00     0.122 A 
ATOM     26  H15 UNL     1     -10.794   0.862  -1.313  1.00  0.00     0.183 HD
BRANCH  22  27
HETATM   27  N14 UNL     1     -12.093   0.693   0.893  1.00  0.00    -0.234 N 
ATOM     28 2H14 UNL     1     -12.540   0.618   1.807  1.00  0.00     0.174 HD
ATOM     29 1H14 UNL     1     -12.665   0.816   0.058  1.00  0.00     0.174 HD
ENDBRANCH  22  27
ENDBRANCH  15  19
ENDBRANCH  10  12
ENDBRANCH   5  10
BRANCH   7  30
HETATM   30  O9  UNL     1      -1.280   0.527  -3.145  1.00  0.00    -0.266 OA
ATOM     31  H9  UNL     1      -0.522   0.544  -3.717  1.00  0.00     0.246 HD
ENDBRANCH   7  30
ENDBRANCH   1   2
BRANCH   1  32
HETATM   32  N3  UNL     1       2.783  -0.313  -0.302  1.00  0.00    -0.342 N 
HETATM   33  C6  UNL     1       3.948   0.490  -0.412  1.00  0.00     0.284 C 
HETATM   34  O1  UNL     1       4.036   1.466   0.348  1.00  0.00    -0.267 OA
ATOM     35  H3  UNL     1       2.698  -1.119  -0.921  1.00  0.00     0.163 HD
BRANCH  33  36
HETATM   36  C7  UNL     1       4.983   0.168  -1.376  1.00  0.00     0.275 C 
BRANCH  36  37
HETATM   37  O2  UNL     1       4.468  -0.862  -2.278  1.00  0.00    -0.356 OA
ATOM     38  H2  UNL     1       5.146  -1.073  -2.909  1.00  0.00     0.213 HD
ENDBRANCH  36  37
BRANCH  36  39
HETATM   39  C8  UNL     1       5.207   1.325  -2.371  1.00  0.00     0.243 C 
BRANCH  39  40
HETATM   40  O3  UNL     1       4.043   1.697  -2.996  1.00  0.00    -0.395 OA
ATOM     41  H3  UNL     1       4.181   2.410  -3.609  1.00  0.00     0.209 HD
ENDBRANCH  39  40
ENDBRANCH  36  39
BRANCH  36  42
HETATM   42  O4  UNL     1       6.192  -0.314  -1.004  1.00  0.00    -0.267 OA
BRANCH  42  43
HETATM   43  C9  UNL     1       7.135   0.288  -0.196  1.00  0.00     0.269 C 
BRANCH  43  44
HETATM   44  N4  UNL     1       6.720   0.762   0.869  1.00  0.00    -0.359 N 
ATOM     45  H42 UNL     1       5.743   0.728   1.160  1.00  0.00     0.160 HD
ATOM     46  H41 UNL     1       7.417   1.207   1.466  1.00  0.00     0.160 HD
ENDBRANCH  43  44
BRANCH  43  47
HETATM   47  O5  UNL     1       8.483   0.335  -0.598  1.00  0.00    -0.225 OA
BRANCH  47  48
HETATM   48  C10 UNL     1       9.467   0.915   0.153  1.00  0.00     0.380 C 
HETATM   49  N5  UNL     1      10.835   0.946  -0.287  1.00  0.00    -0.032 NA
HETATM   50  O6  UNL     1       9.216   1.445   1.260  1.00  0.00    -0.242 OA
ENDBRANCH  47  48
ENDBRANCH  43  47
ENDBRANCH  42  43
ENDBRANCH  36  42
ENDBRANCH  33  36
ENDBRANCH   1  32
BRANCH   1  51
HETATM   51  C11 UNL     1       1.638  -1.267   1.518  1.00  0.00     0.059 A 
HETATM   52  C12 UNL     1       1.668  -2.534   0.996  1.00  0.00     0.103 A 
HETATM   53  C13 UNL     1       1.596  -3.625   1.827  1.00  0.00     0.261 A 
HETATM   54  O7  UNL     1       1.621  -4.820   1.382  1.00  0.00    -0.268 OA
HETATM   55  N6  UNL     1       1.497  -3.434   3.156  1.00  0.00    -0.156 N 
HETATM   56  C14 UNL     1       1.465  -2.185   3.696  1.00  0.00     0.679 A 
ATOM     57  H6  UNL     1       1.445  -4.245   3.773  1.00  0.00     0.187 HD
HETATM   58  N8  UNL     1       1.537  -1.140   2.852  1.00  0.00    -0.193 N 
ATOM     59  H8  UNL     1       1.514  -0.200   3.246  1.00  0.00     0.184 HD
BRANCH  56  60
HETATM   60  N7  UNL     1       1.371  -2.072   4.959  1.00  0.00    -0.234 N 
ATOM     61  H72 UNL     1       1.316  -2.864   5.599  1.00  0.00     0.174 HD
ATOM     62  H71 UNL     1       1.347  -1.136   5.364  1.00  0.00     0.174 HD
ENDBRANCH  56  60
ENDBRANCH   1  51
TORSDOF 18
