REMARK  3 active torsions:
REMARK  status: ('A' for Active; 'I' for Inactive)
REMARK    1  A    between atoms: O1_2  and  C2_3 
REMARK    2  A    between atoms: C4_6  and  O3_7 
REMARK    3  A    between atoms: C10_15  and  O5_16 
ROOT
HETATM    1  C2  UNL     1      -1.191  -0.945   0.176  1.00  0.00     0.269 C 
HETATM    2  O2  UNL     1      -0.324  -1.985   0.512  1.00  0.00    -0.350 OA
HETATM    3  C3  UNL     1       0.953  -1.509   0.484  1.00  0.00     0.194 C 
HETATM    4  C4  UNL     1       1.333  -0.493   1.529  1.00  0.00     0.182 C 
HETATM    5  C5  UNL     1       1.661   0.473   0.390  1.00  0.00     0.191 C 
HETATM    6  O4  UNL     1       0.962   1.652   0.453  1.00  0.00    -0.369 OA
HETATM    7  C6  UNL     1      -0.324   1.432  -0.024  1.00  0.00     0.065 C 
HETATM    8  C7  UNL     1      -0.493   2.424  -1.191  1.00  0.00     0.046 C 
HETATM    9  C8  UNL     1      -1.299   1.869   1.011  1.00  0.00     0.046 C 
HETATM   10  C9  UNL     1      -0.439   0.080  -0.559  1.00  0.00     0.114 C 
HETATM   11  C10 UNL     1       0.978  -0.443  -0.546  1.00  0.00     0.128 C 
ENDROOT
BRANCH   1  12
HETATM   12  O1  UNL     1      -2.180  -1.537  -0.620  1.00  0.00    -0.365 OA
HETATM   13  C1  UNL     1      -3.419  -1.532   0.012  1.00  0.00     0.204 C 
ENDBRANCH   1  12
BRANCH  11  14
HETATM   14  O5  UNL     1       1.528  -0.712  -1.765  1.00  0.00    -0.379 OA
HETATM   15  C11 UNL     1       2.842  -1.079  -1.751  1.00  0.00     0.202 C 
ENDBRANCH  11  14
BRANCH   4  16
HETATM   16  O3  UNL     1       2.473  -0.835   2.257  1.00  0.00    -0.390 OA
ATOM     17  H3  UNL     1       2.713  -0.194   2.916  1.00  0.00     0.210 HD
ENDBRANCH   4  16
TORSDOF 3
