REMARK  2 active torsions:
REMARK  status: ('A' for Active; 'I' for Inactive)
REMARK       I    between atoms: C1_2  and  N1_4 
REMARK    1  A    between atoms: N1_4  and  C2_6 
REMARK    2  A    between atoms: C2_6  and  C3_7 
ROOT
HETATM    1  C3  UNL     1       0.880  -0.173  -0.476  1.00  0.00     0.146 C 
HETATM    2  C4  UNL     1      -0.145  -0.987   0.304  1.00  0.00     0.095 C 
HETATM    3  C5  UNL     1      -0.944   0.248  -0.014  1.00  0.00     0.161 C 
HETATM    4  O3  UNL     1       0.209   0.979  -0.068  1.00  0.00    -0.353 OA
HETATM    5  S1  UNL     1      -1.918   0.169  -1.535  1.00  0.00    -0.119 SA
HETATM    6  C6  UNL     1      -3.519  -0.319  -0.901  1.00  0.00     0.088 C 
HETATM    7  C7  UNL     1      -3.745   0.340   0.406  1.00  0.00     0.088 C 
HETATM    8  S2  UNL     1      -2.185   0.721   1.174  1.00  0.00    -0.119 SA
ENDROOT
BRANCH   1   9
HETATM    9  C2  UNL     1       2.282  -0.312   0.011  1.00  0.00     0.157 C 
BRANCH   9  10
HETATM   10  N1  UNL     1       3.114   0.772  -0.430  1.00  0.00    -0.333 N 
HETATM   11  C1  UNL     1       4.495   0.867  -0.097  1.00  0.00     0.283 C 
HETATM   12  O1  UNL     1       4.982  -0.057   0.621  1.00  0.00    -0.630 OA
HETATM   13  O2  UNL     1       5.247   1.931  -0.548  1.00  0.00    -0.630 OA
ATOM     14  H1  UNL     1       2.698   1.504  -1.006  1.00  0.00     0.165 HD
ENDBRANCH   9  10
ENDBRANCH   1   9
TORSDOF 2
