REMARK  3 active torsions:
REMARK  status: ('A' for Active; 'I' for Inactive)
REMARK    1  A    between atoms: C1_2  and  C2_4 
REMARK       I    between atoms: N1_8  and  C6_9 
REMARK    2  A    between atoms: C6_9  and  O4_11 
REMARK    3  A    between atoms: O4_11  and  C7_12 
ROOT
HETATM    1  C2  UNL     1      -2.256   0.322  -0.145  1.00  0.00     0.190 C 
HETATM    2  C3  UNL     1      -3.103  -0.461   0.803  1.00  0.00     0.038 C 
HETATM    3  C4  UNL     1      -2.388  -1.783   0.881  1.00  0.00     0.022 C 
HETATM    4  C5  UNL     1      -0.917  -1.353   0.802  1.00  0.00     0.129 C 
HETATM    5  N1  UNL     1      -0.935  -0.166  -0.023  1.00  0.00    -0.313 N 
HETATM    6  C6  UNL     1       0.274   0.376  -0.614  1.00  0.00     0.364 C 
HETATM    7  O3  UNL     1       0.285   1.390  -1.345  1.00  0.00    -0.238 OA
ENDROOT
BRANCH   1   8
HETATM    8  C1  UNL     1      -2.395   1.765   0.196  1.00  0.00     0.197 C 
HETATM    9  O1  UNL     1      -3.560   2.252   0.062  1.00  0.00    -0.646 OA
HETATM   10  O2  UNL     1      -1.406   2.592   0.630  1.00  0.00    -0.646 OA
ENDBRANCH   1   8
BRANCH   6  11
HETATM   11  O4  UNL     1       1.482  -0.238  -0.373  1.00  0.00    -0.294 OA
BRANCH  11  12
HETATM   12  C7  UNL     1       2.674   0.264  -0.933  1.00  0.00     0.181 C 
HETATM   13  C8  UNL     1       3.692   0.481   0.183  1.00  0.00     0.202 C 
HETATM   14  O5  UNL     1       4.035  -0.869   0.036  1.00  0.00    -0.386 OA
HETATM   15  C9  UNL     1       3.708  -0.754  -1.301  1.00  0.00     0.202 C 
ENDBRANCH  11  12
ENDBRANCH   6  11
TORSDOF 3
