REMARK  2 active torsions:
REMARK  status: ('A' for Active; 'I' for Inactive)
REMARK    1  A    between atoms: N1_3  and  C3_4 
REMARK    2  A    between atoms: C3_4  and  C4_5 
ROOT
HETATM    1  C4  UNL     1       0.595  -0.555  -0.283  1.00  0.00     0.058 C 
HETATM    2  C5  UNL     1       0.369  -0.221  -1.757  1.00  0.00     0.204 C 
HETATM    3  O1  UNL     1       1.570   0.272  -2.233  1.00  0.00    -0.285 OA
HETATM    4  N2  UNL     1       2.248   0.757  -1.168  1.00  0.00    -0.088 NA
HETATM    5  C6  UNL     1       2.075  -0.279  -0.198  1.00  0.00     0.087 C 
HETATM    6  C7  UNL     1       2.541   0.120   1.184  1.00  0.00     0.058 C 
HETATM    7  C8  UNL     1       4.033  -0.179   1.047  1.00  0.00     0.170 C 
HETATM    8  O2  UNL     1       4.199  -0.965  -0.067  1.00  0.00    -0.389 OA
HETATM    9  C9  UNL     1       2.954  -1.452  -0.469  1.00  0.00     0.197 C 
ENDROOT
BRANCH   1  10
HETATM   10  C3  UNL     1      -0.165   0.431   0.613  1.00  0.00     0.131 C 
BRANCH  10  11
HETATM   11  N1  UNL     1      -1.532   0.337   0.310  1.00  0.00    -0.389 N 
HETATM   12  C2  UNL     1      -2.238  -0.821   0.640  1.00  0.00     0.084 C 
HETATM   13  C1  UNL     1      -3.721  -0.767   0.489  1.00  0.00     0.212 C 
HETATM   14  O3  UNL     1      -4.264   0.510   0.693  1.00  0.00    -0.385 OA
HETATM   15  C11 UNL     1      -3.641   1.318  -0.287  1.00  0.00     0.187 C 
HETATM   16  C10 UNL     1      -2.245   1.555   0.181  1.00  0.00     0.148 C 
ENDBRANCH  10  11
ENDBRANCH   1  10
TORSDOF 2
