REMARK  10 active torsions:
REMARK  status: ('A' for Active; 'I' for Inactive)
REMARK       I    between atoms: C2_2  and  N1_4 
REMARK    1  A    between atoms: C3_6  and  C4_7 
REMARK    2  A    between atoms: C5_9  and  C6_10 
REMARK    3  A    between atoms: C6_10  and  C7_11 
REMARK    4  A    between atoms: C7_11  and  C8_12 
REMARK    5  A    between atoms: C7_11  and  C16_22 
REMARK    6  A    between atoms: C8_12  and  C9_13 
REMARK    7  A    between atoms: C22_31  and  C23_32 
REMARK    8  A    between atoms: C23_32  and  O6_33 
REMARK    9  A    between atoms: C24_35  and  O7_36 
REMARK   10  A    between atoms: C25_38  and  O8_39 
ROOT
HETATM    1  C7  UNL     1      -0.384  -0.621   0.367  1.00  0.00     0.018 C 
ENDROOT
BRANCH   1   2
HETATM    2  C6  UNL     1       0.957  -1.341   0.497  1.00  0.00     0.042 C 
BRANCH   2   3
HETATM    3  C5  UNL     1       1.998  -1.086  -0.510  1.00  0.00     0.154 C 
HETATM    4  O2  UNL     1       2.414   0.210  -0.575  1.00  0.00    -0.370 OA
HETATM    5  C4  UNL     1       3.771   0.305  -0.405  1.00  0.00     0.191 C 
HETATM    6  C25 UNL     1       4.354  -1.058  -0.704  1.00  0.00     0.183 C 
HETATM    7  C24 UNL     1       3.243  -1.940  -0.187  1.00  0.00     0.178 C 
BRANCH   5   8
HETATM    8  C3  UNL     1       4.315   1.378  -1.243  1.00  0.00     0.098 C 
HETATM    9  N1  UNL     1       5.433   1.985  -1.012  1.00  0.00    -0.339 N 
HETATM   10  C2  UNL     1       6.276   1.699   0.071  1.00  0.00     0.217 C 
ATOM     11  H1  UNL     1       5.720   2.719  -1.659  1.00  0.00     0.167 HD
HETATM   12  C1  UNL     1       7.593   1.073  -0.133  1.00  0.00     0.117 C 
HETATM   13  O1  UNL     1       5.905   1.981   1.235  1.00  0.00    -0.274 OA
ENDBRANCH   5   8
BRANCH   6  14
HETATM   14  O8  UNL     1       4.559  -1.224  -2.073  1.00  0.00    -0.390 OA
ATOM     15  H8  UNL     1       4.925  -2.080  -2.261  1.00  0.00     0.210 HD
ENDBRANCH   6  14
BRANCH   7  16
HETATM   16  O7  UNL     1       3.332  -2.043   1.203  1.00  0.00    -0.390 OA
ATOM     17  H7  UNL     1       4.098  -2.568   1.402  1.00  0.00     0.210 HD
ENDBRANCH   7  16
ENDBRANCH   2   3
ENDBRANCH   1   2
BRANCH   1  18
HETATM   18  C8  UNL     1      -0.288   0.823   0.409  1.00  0.00     0.016 C 
BRANCH  18  19
HETATM   19  C9  UNL     1      -1.436   1.739   0.409  1.00  0.00     0.041 C 
HETATM   20  C10 UNL     1      -0.913   3.223   0.341  1.00  0.00     0.009 C 
HETATM   21  C11 UNL     1       0.019   3.561   1.428  1.00  0.00     0.005 C 
HETATM   22  C12 UNL     1      -0.629   3.425   2.762  1.00  0.00    -0.014 C 
HETATM   23  C13 UNL     1      -1.540   4.580   3.104  1.00  0.00     0.010 C 
HETATM   24  C14 UNL     1      -1.276   2.099   2.887  1.00  0.00     0.065 C 
HETATM   25  C15 UNL     1      -2.204   1.755   1.748  1.00  0.00     0.183 C 
HETATM   26  F1  UNL     1      -3.203   2.731   1.641  1.00  0.00    -0.225 F 
HETATM   27 CL1  UNL     1      -3.011   0.264   2.157  1.00  0.00    -0.082 Cl
ENDBRANCH  18  19
ENDBRANCH   1  18
BRANCH   1  28
HETATM   28  C16 UNL     1      -1.052  -1.161  -0.928  1.00  0.00     0.137 C 
HETATM   29  O3  UNL     1      -2.270  -0.567  -1.159  1.00  0.00    -0.352 OA
HETATM   30  C17 UNL     1      -2.986  -1.346  -2.032  1.00  0.00     0.293 C 
HETATM   31  O4  UNL     1      -4.331  -1.077  -1.981  1.00  0.00    -0.324 OA
HETATM   32  C21 UNL     1      -2.877  -2.692  -1.343  1.00  0.00     0.189 C 
HETATM   33  C18 UNL     1      -4.923  -1.908  -1.045  1.00  0.00     0.160 C 
HETATM   34  C19 UNL     1      -5.835  -1.148  -0.132  1.00  0.00     0.078 C 
HETATM   35  C20 UNL     1      -5.738  -2.984  -1.753  1.00  0.00     0.078 C 
HETATM   36  O5  UNL     1      -3.868  -2.535  -0.367  1.00  0.00    -0.345 OA
HETATM   37  C22 UNL     1      -1.468  -2.602  -0.770  1.00  0.00     0.073 C 
BRANCH  37  38
HETATM   38  C23 UNL     1      -0.651  -3.550  -1.629  1.00  0.00     0.174 C 
BRANCH  38  39
HETATM   39  O6  UNL     1      -0.755  -3.274  -2.969  1.00  0.00    -0.400 OA
ATOM     40  H6  UNL     1      -0.244  -3.867  -3.507  1.00  0.00     0.209 HD
ENDBRANCH  38  39
ENDBRANCH  37  38
ENDBRANCH   1  28
TORSDOF 10
