REMARK  7 active torsions:
REMARK  status: ('A' for Active; 'I' for Inactive)
REMARK    1  A    between atoms: C4_6  and  C5_7 
REMARK    2  A    between atoms: C17_26  and  C18_27 
REMARK    3  A    between atoms: C18_27  and  N4_28 
REMARK    4  A    between atoms: C18_27  and  C19_32 
REMARK    5  A    between atoms: C19_32  and  S1_33 
REMARK    6  A    between atoms: S1_33  and  C20_36 
REMARK    7  A    between atoms: C21_37  and  C22_38 
ROOT
HETATM    1  C5  UNL     1      -2.353   0.859   0.061  1.00  0.00     0.071 C 
HETATM    2  C6  UNL     1      -1.309   1.702   0.827  1.00  0.00     0.045 C 
HETATM    3  N2  UNL     1      -3.276   1.949  -0.301  1.00  0.00    -0.365 N 
ATOM      4  H2  UNL     1      -3.710   2.592   0.361  1.00  0.00     0.162 HD
HETATM    5  C7  UNL     1      -3.474   1.973  -1.714  1.00  0.00     0.080 C 
HETATM    6  N3  UNL     1      -3.916   2.963  -2.417  1.00  0.00    -0.388 N 
ATOM      7  H31 UNL     1      -4.058   2.980  -3.427  1.00  0.00     0.157 HD
ATOM      8  H32 UNL     1      -4.194   3.901  -2.128  1.00  0.00     0.157 HD
HETATM    9  C8  UNL     1      -3.080   0.642  -2.124  1.00  0.00     0.025 C 
HETATM   10  C9  UNL     1      -2.960   0.315  -3.538  1.00  0.00     0.024 C 
HETATM   11  C10 UNL     1      -4.265  -0.253  -1.655  1.00  0.00     0.024 C 
HETATM   12  C11 UNL     1      -1.899   0.258  -1.178  1.00  0.00     0.056 C 
HETATM   13  C12 UNL     1      -1.797  -1.180  -1.498  1.00  0.00     0.185 C 
HETATM   14  O1  UNL     1      -0.649  -0.883  -2.234  1.00  0.00    -0.378 OA
HETATM   15  C13 UNL     1      -0.552   0.413  -1.723  1.00  0.00     0.084 C 
HETATM   16  C14 UNL     1      -0.380   1.573  -2.661  1.00  0.00     0.066 C 
HETATM   17  C15 UNL     1       0.637   1.328  -3.769  1.00  0.00     0.170 C 
HETATM   18  O2  UNL     1       1.846   1.337  -3.093  1.00  0.00    -0.390 OA
HETATM   19  C16 UNL     1       1.773   0.215  -2.240  1.00  0.00     0.177 C 
HETATM   20  C17 UNL     1       0.781   0.374  -1.107  1.00  0.00     0.076 C 
ENDROOT
BRANCH   1  21
HETATM   21  C4  UNL     1      -2.974   0.100   1.147  1.00  0.00     0.001 A 
HETATM   22  C3  UNL     1      -4.218   0.447   1.625  1.00  0.00     0.100 A 
HETATM   23  N1  UNL     1      -4.844  -0.193   2.634  1.00  0.00    -0.355 N 
HETATM   24  C2  UNL     1      -4.225  -1.243   3.218  1.00  0.00     0.076 A 
ATOM     25  H1  UNL     1      -5.766   0.109   2.950  1.00  0.00     0.166 HD
HETATM   26  C1  UNL     1      -4.938  -1.936   4.331  1.00  0.00     0.089 C 
HETATM   27  N5  UNL     1      -3.010  -1.599   2.764  1.00  0.00    -0.355 N 
HETATM   28  C24 UNL     1      -2.372  -0.972   1.762  1.00  0.00     0.100 A 
ATOM     29  H5  UNL     1      -2.546  -2.392   3.207  1.00  0.00     0.166 HD
ENDBRANCH   1  21
BRANCH  20  30
HETATM   30  C18 UNL     1       1.207  -0.610  -0.110  1.00  0.00     0.206 C 
BRANCH  30  31
HETATM   31  N4  UNL     1       1.111  -1.998  -0.637  1.00  0.00    -0.074 N 
ATOM     32  H43 UNL     1       0.174  -2.201  -0.985  1.00  0.00     0.274 HD
ATOM     33  H42 UNL     1       1.629  -2.102  -1.509  1.00  0.00     0.274 HD
ATOM     34  H41 UNL     1       1.408  -2.684   0.058  1.00  0.00     0.274 HD
ENDBRANCH  30  31
BRANCH  30  35
HETATM   35  C19 UNL     1       2.746  -0.504   0.096  1.00  0.00     0.178 C 
BRANCH  35  36
HETATM   36  S1  UNL     1       3.251  -1.562   1.425  1.00  0.00     0.167 S 
HETATM   37  O3  UNL     1       2.606  -2.926   1.248  1.00  0.00    -0.223 OA
HETATM   38  O4  UNL     1       2.611  -1.043   2.736  1.00  0.00    -0.223 OA
BRANCH  36  39
HETATM   39  C20 UNL     1       4.933  -1.748   1.706  1.00  0.00     0.111 C 
HETATM   40  C21 UNL     1       5.915  -0.743   2.029  1.00  0.00     0.062 C 
BRANCH  40  41
HETATM   41  C22 UNL     1       6.329   0.349   1.128  1.00  0.00     0.259 C 
HETATM   42  C23 UNL     1       7.469   1.168   1.822  1.00  0.00     0.095 C 
HETATM   43  F1  UNL     1       5.353   1.288   0.922  1.00  0.00    -0.202 F 
HETATM   44  F2  UNL     1       6.783  -0.081  -0.118  1.00  0.00    -0.202 F 
ENDBRANCH  40  41
ENDBRANCH  36  39
ENDBRANCH  35  36
ENDBRANCH  30  35
ENDBRANCH  20  30
TORSDOF 7
