REMARK  11 active torsions:
REMARK  status: ('A' for Active; 'I' for Inactive)
REMARK    1  A    between atoms: C2_2  and  O1_3 
REMARK    2  A    between atoms: O1_3  and  C3_4 
REMARK    3  A    between atoms: C3_4  and  C4_6 
REMARK    4  A    between atoms: C5_7  and  O3_8 
REMARK    5  A    between atoms: O3_8  and  C6_9 
REMARK       I    between atoms: C6_9  and  N1_11 
REMARK    6  A    between atoms: N1_11  and  C7_12 
REMARK    7  A    between atoms: C7_12  and  C8_13 
REMARK    8  A    between atoms: C13_18  and  C14_19 
REMARK       I    between atoms: C14_19  and  N2_21 
REMARK    9  A    between atoms: N2_21  and  N3_23 
REMARK       I    between atoms: N4_28  and  C17_29 
REMARK   10  A    between atoms: C17_29  and  O7_31 
REMARK   11  A    between atoms: O7_31  and  C18_32 
ROOT
HETATM    1  C4  UNL     1      -1.722   0.988  -0.246  1.00  0.00     0.220 C 
HETATM    2  C5  UNL     1      -0.849   0.241  -1.189  1.00  0.00     0.179 C 
HETATM    3  C15 UNL     1      -1.865  -0.886  -1.600  1.00  0.00     0.121 A 
HETATM    4  C16 UNL     1      -3.148  -0.196  -1.587  1.00  0.00     0.176 A 
HETATM    5  N4  UNL     1      -2.974   1.078  -0.958  1.00  0.00    -0.300 N 
HETATM    6  C17 UNL     1      -3.852   2.185  -0.922  1.00  0.00     0.365 C 
HETATM    7  O6  UNL     1      -3.643   3.193  -0.149  1.00  0.00    -0.238 OA
HETATM    8  C22 UNL     1      -2.628  -0.585  -2.897  1.00  0.00     0.272 A 
HETATM    9  F1  UNL     1      -2.027   0.382  -3.706  1.00  0.00    -0.203 F 
HETATM   10  F2  UNL     1      -3.198  -1.655  -3.558  1.00  0.00    -0.203 F 
ENDROOT
BRANCH   2  11
HETATM   11  O3  UNL     1       0.255  -0.326  -0.631  1.00  0.00    -0.284 OA
BRANCH  11  12
HETATM   12  C6  UNL     1       1.439  -0.793  -1.142  1.00  0.00     0.439 C 
HETATM   13  O4  UNL     1       1.487  -0.698  -2.403  1.00  0.00    -0.221 OA
HETATM   14  N1  UNL     1       2.391  -1.300  -0.273  1.00  0.00    -0.362 NA
BRANCH  14  15
HETATM   15  C7  UNL     1       3.314  -1.792   0.563  1.00  0.00     0.171 C 
BRANCH  15  16
HETATM   16  C8  UNL     1       4.747  -1.435   0.351  1.00  0.00     0.076 C 
HETATM   17  C9  UNL     1       5.369  -2.089  -0.889  1.00  0.00     0.016 C 
HETATM   18  C10 UNL     1       5.568  -3.561  -0.529  1.00  0.00     0.005 C 
HETATM   19  C11 UNL     1       6.461  -3.715   0.662  1.00  0.00     0.028 C 
HETATM   20  C12 UNL     1       6.429  -2.568   1.567  1.00  0.00    -0.013 C 
HETATM   21  C13 UNL     1       5.668  -1.500   1.468  1.00  0.00     0.018 C 
BRANCH  21  22
HETATM   22  C14 UNL     1       5.792  -0.343   2.382  1.00  0.00     0.266 C 
HETATM   23  O5  UNL     1       6.649  -0.310   3.326  1.00  0.00    -0.266 OA
HETATM   24  N2  UNL     1       4.958   0.789   2.236  1.00  0.00    -0.273 N 
ATOM     25  H2  UNL     1       4.250   0.796   1.501  1.00  0.00     0.189 HD
BRANCH  24  26
HETATM   26  N3  UNL     1       5.080   1.884   3.065  1.00  0.00    -0.342 N 
ATOM     27  H32 UNL     1       5.793   1.861   3.794  1.00  0.00     0.176 HD
ATOM     28  H31 UNL     1       4.478   2.701   2.960  1.00  0.00     0.176 HD
ENDBRANCH  24  26
ENDBRANCH  21  22
ENDBRANCH  15  16
ENDBRANCH  14  15
ENDBRANCH  11  12
ENDBRANCH   2  11
BRANCH   1  29
HETATM   29  C3  UNL     1      -2.032   0.115   0.946  1.00  0.00     0.284 C 
HETATM   30  O2  UNL     1      -3.188  -0.313   1.149  1.00  0.00    -0.263 OA
BRANCH  29  31
HETATM   31  O1  UNL     1      -1.048  -0.232   1.811  1.00  0.00    -0.320 OA
BRANCH  31  32
HETATM   32  C2  UNL     1      -1.105  -1.073   2.944  1.00  0.00     0.174 C 
HETATM   33  C1  UNL     1      -1.495  -2.482   2.503  1.00  0.00     0.034 C 
ENDBRANCH  31  32
ENDBRANCH  29  31
ENDBRANCH   1  29
BRANCH   6  34
HETATM   34  O7  UNL     1      -5.000   2.283  -1.694  1.00  0.00    -0.294 OA
BRANCH  34  35
HETATM   35  C18 UNL     1      -5.910   3.356  -1.630  1.00  0.00     0.061 C 
HETATM   36  C19 UNL     1      -5.353   4.707  -1.888  1.00  0.00     0.046 C 
HETATM   37  C20 UNL     1      -6.637   3.358  -0.290  1.00  0.00     0.046 C 
HETATM   38  C21 UNL     1      -6.984   3.081  -2.695  1.00  0.00     0.046 C 
ENDBRANCH  34  35
ENDBRANCH   6  34
TORSDOF 11
