REMARK  2 active torsions:
REMARK  status: ('A' for Active; 'I' for Inactive)
REMARK    1  A    between atoms: C2_2  and  C3_3 
REMARK    2  A    between atoms: C8_8  and  N1_9 
ROOT
HETATM    1  C3  UNL     1       0.711   0.041  -0.410  1.00  0.00     0.038 C 
HETATM    2  C4  UNL     1       0.454  -1.238   0.361  1.00  0.00     0.010 C 
HETATM    3  C5  UNL     1      -0.929  -1.749   0.102  1.00  0.00     0.001 C 
HETATM    4  C6  UNL     1      -2.005  -0.728   0.255  1.00  0.00     0.002 C 
HETATM    5  C7  UNL     1      -1.668   0.533  -0.530  1.00  0.00     0.033 C 
HETATM    6  C8  UNL     1      -0.346   1.040   0.059  1.00  0.00     0.191 C 
ENDROOT
BRANCH   6   7
HETATM    7  N1  UNL     1      -0.052   2.380  -0.333  1.00  0.00    -0.074 N 
ATOM      8  H13 UNL     1       0.878   2.657  -0.018  1.00  0.00     0.274 HD
ATOM      9  H12 UNL     1       0.089   2.443  -1.341  1.00  0.00     0.274 HD
ATOM     10  H11 UNL     1      -0.758   3.047  -0.020  1.00  0.00     0.274 HD
ENDBRANCH   6   7
BRANCH   1  11
HETATM   11  C2  UNL     1       2.065   0.544  -0.157  1.00  0.00    -0.030 C 
HETATM   12  C1  UNL     1       2.939  -0.079   0.611  1.00  0.00     0.007 C 
ENDBRANCH   1  11
TORSDOF 2
