REMARK  2 active torsions:
REMARK  status: ('A' for Active; 'I' for Inactive)
REMARK    1  A    between atoms: N1_1  and  N2_4 
REMARK    2  A    between atoms: N3_6  and  C1_8 
ROOT
HETATM    1  C1  UNL     1      -0.226  -0.596  -0.446  1.00  0.00     0.217 C 
HETATM    2  C2  UNL     1      -1.201  -1.174   0.564  1.00  0.00     0.168 C 
HETATM    3  N4  UNL     1      -2.308  -0.275   0.501  1.00  0.00    -0.383 N 
ATOM      4  H4  UNL     1      -3.216  -0.458   0.929  1.00  0.00     0.160 HD
HETATM    5  C3  UNL     1      -2.028   0.786  -0.155  1.00  0.00     0.173 C 
HETATM    6  N5  UNL     1      -0.693   0.758  -0.631  1.00  0.00    -0.363 N 
ATOM      7  H5  UNL     1      -0.167   1.538  -1.025  1.00  0.00     0.162 HD
ENDROOT
BRANCH   1   8
HETATM    8  N3  UNL     1       1.099  -0.583   0.082  1.00  0.00    -0.298 N 
HETATM    9  N2  UNL     1       1.967   0.287  -0.156  1.00  0.00    -0.252 N 
ATOM     10  H2  UNL     1       1.781   1.080  -0.770  1.00  0.00     0.207 HD
ATOM     11  H3  UNL     1       1.361  -1.346   0.706  1.00  0.00     0.184 HD
BRANCH   9  12
HETATM   12  N1  UNL     1       3.221   0.108   0.474  1.00  0.00    -0.331 N 
ATOM     13  H12 UNL     1       3.392  -0.691   1.085  1.00  0.00     0.178 HD
ATOM     14  H11 UNL     1       3.928   0.817   0.280  1.00  0.00     0.178 HD
ENDBRANCH   9  12
ENDBRANCH   1   8
TORSDOF 2
