REMARK  2 active torsions:
REMARK  status: ('A' for Active; 'I' for Inactive)
REMARK    1  A    between atoms: C1_4  and  N2_5 
REMARK    2  A    between atoms: N2_5  and  C2_7 
ROOT
HETATM    1  N2  UNL     1       0.244  -0.762  -0.219  1.00  0.00    -0.322 N 
ATOM      2  H2  UNL     1       0.448  -1.740  -0.015  1.00  0.00     0.169 HD
ENDROOT
BRANCH   1   3
HETATM    3  C1  UNL     1       1.310   0.147  -0.490  1.00  0.00     0.176 C 
HETATM    4  N1  UNL     1       2.089   0.447   0.494  1.00  0.00    -0.395 N 
ATOM      5  H12 UNL     1       1.936   0.044   1.418  1.00  0.00     0.156 HD
ATOM      6  H11 UNL     1       2.851   1.097   0.300  1.00  0.00     0.156 HD
ENDBRANCH   1   3
BRANCH   1   7
HETATM    7  C2  UNL     1      -1.072  -0.316  -0.232  1.00  0.00     0.214 A 
HETATM    8  N3  UNL     1      -2.178  -0.545  -1.140  1.00  0.00    -0.267 N 
HETATM    9  N4  UNL     1      -2.330   0.264  -0.016  1.00  0.00    -0.267 N 
ATOM     10  H3  UNL     1      -2.561  -0.978  -1.980  1.00  0.00     0.190 HD
ATOM     11  H4  UNL     1      -2.930   0.857   0.557  1.00  0.00     0.190 HD
ENDBRANCH   1   7
TORSDOF 2
