REMARK  10 active torsions:
REMARK  status: ('A' for Active; 'I' for Inactive)
REMARK    1  A    between atoms: N2_4  and  O1_6 
REMARK    2  A    between atoms: O1_6  and  C3_7 
REMARK    3  A    between atoms: C3_7  and  O2_8 
REMARK    4  A    between atoms: C6_14  and  O5_15 
REMARK    5  A    between atoms: C6_14  and  C7_17 
REMARK    6  A    between atoms: C7_17  and  O6_18 
REMARK    7  A    between atoms: C8_20  and  C9_21 
REMARK    8  A    between atoms: C9_21  and  S1_22 
REMARK    9  A    between atoms: S1_22  and  C10_23 
REMARK   10  A    between atoms: C12_32  and  O7_33 
ROOT
HETATM    1  C1  UNL     1      -3.263  -2.748   0.558  1.00  0.00     0.153 C 
HETATM    2  N1  UNL     1      -1.953  -2.171   0.629  1.00  0.00    -0.337 N 
HETATM    3  C2  UNL     1      -1.801  -0.796   0.239  1.00  0.00     0.141 C 
HETATM    4  N2  UNL     1      -2.792  -0.010   0.438  1.00  0.00    -0.247 N 
ATOM      5  H2  UNL     1      -3.620  -0.428   0.863  1.00  0.00     0.196 HD
HETATM    6  C6  UNL     1      -0.502  -0.382  -0.366  1.00  0.00     0.178 C 
HETATM    7  C8  UNL     1       0.595  -1.280   0.161  1.00  0.00     0.222 C 
HETATM    8  N6  UNL     1       0.176  -1.835   1.454  1.00  0.00    -0.028 N 
ATOM      9  H61 UNL     1      -0.207  -1.149   2.104  1.00  0.00     0.281 HD
ATOM     10  H62 UNL     1       0.945  -2.134   2.054  1.00  0.00     0.281 HD
HETATM   11  C13 UNL     1      -0.760  -2.910   1.081  1.00  0.00     0.365 C 
HETATM   12  C14 UNL     1      -0.043  -3.551  -0.026  1.00  0.00     0.224 C 
HETATM   13  O8  UNL     1      -0.127  -4.765  -0.346  1.00  0.00    -0.287 OA
HETATM   14  C15 UNL     1       0.756  -2.502  -0.644  1.00  0.00     0.094 C 
HETATM   15  N7  UNL     1       1.477  -2.606  -1.701  1.00  0.00    -0.397 N 
ATOM     16  H71 UNL     1       1.589  -3.453  -2.259  1.00  0.00     0.156 HD
ATOM     17  H72 UNL     1       2.037  -1.871  -2.134  1.00  0.00     0.156 HD
ENDROOT
BRANCH   7  18
HETATM   18  C9  UNL     1       1.872  -0.547   0.416  1.00  0.00     0.130 C 
BRANCH  18  19
HETATM   19  S1  UNL     1       2.566   0.240  -1.041  1.00  0.00    -0.104 SA
BRANCH  19  20
HETATM   20  C10 UNL     1       4.077   1.060  -0.550  1.00  0.00     0.137 A 
HETATM   21  N3  UNL     1       5.330   0.569  -0.533  1.00  0.00    -0.182 N 
HETATM   22  C11 UNL     1       6.212   1.505  -0.094  1.00  0.00     0.678 A 
ATOM     23  H3  UNL     1       5.584  -0.379  -0.812  1.00  0.00     0.185 HD
HETATM   24  N4  UNL     1       7.505   1.343   0.038  1.00  0.00    -0.234 N 
HETATM   25  N5  UNL     1       5.508   2.611   0.174  1.00  0.00    -0.168 N 
ATOM     26  H42 UNL     1       8.042   0.500  -0.166  1.00  0.00     0.174 HD
ATOM     27  H41 UNL     1       8.167   2.046   0.368  1.00  0.00     0.174 HD
HETATM   28  C12 UNL     1       4.215   2.378  -0.090  1.00  0.00     0.189 A 
ATOM     29  H5  UNL     1       5.893   3.489   0.523  1.00  0.00     0.186 HD
BRANCH  28  30
HETATM   30  O7  UNL     1       3.117   3.215   0.032  1.00  0.00    -0.344 OA
ATOM     31  H7  UNL     1       3.210   4.108   0.344  1.00  0.00     0.219 HD
ENDBRANCH  28  30
ENDBRANCH  19  20
ENDBRANCH  18  19
ENDBRANCH   7  18
BRANCH   6  32
HETATM   32  O5  UNL     1      -0.249   0.922   0.037  1.00  0.00    -0.377 OA
ATOM     33  H5  UNL     1       0.578   1.186  -0.348  1.00  0.00     0.211 HD
ENDBRANCH   6  32
BRANCH   6  34
HETATM   34  C7  UNL     1      -0.667  -0.515  -1.862  1.00  0.00     0.213 C 
BRANCH  34  35
HETATM   35  O6  UNL     1      -1.721   0.264  -2.274  1.00  0.00    -0.397 OA
ATOM     36  H6  UNL     1      -1.825   0.180  -3.215  1.00  0.00     0.209 HD
ENDBRANCH  34  35
ENDBRANCH   6  34
BRANCH   4  37
HETATM   37  O1  UNL     1      -2.870   1.306   0.152  1.00  0.00    -0.226 OA
BRANCH  37  38
HETATM   38  C3  UNL     1      -4.058   1.994   0.501  1.00  0.00     0.298 C 
HETATM   39  C4  UNL     1      -4.140   3.347  -0.128  1.00  0.00     0.261 C 
HETATM   40  O3  UNL     1      -5.514   3.066  -0.360  1.00  0.00    -0.311 OA
HETATM   41  C5  UNL     1      -5.213   1.705  -0.385  1.00  0.00     0.326 C 
HETATM   42  O4  UNL     1      -5.721   0.694  -0.931  1.00  0.00    -0.259 OA
BRANCH  38  43
HETATM   43  O2  UNL     1      -4.349   1.972   1.858  1.00  0.00    -0.354 OA
ATOM     44  H2  UNL     1      -5.146   2.433   2.092  1.00  0.00     0.213 HD
ENDBRANCH  38  43
ENDBRANCH  37  38
ENDBRANCH   4  37
TORSDOF 10
