REMARK  11 active torsions:
REMARK  status: ('A' for Active; 'I' for Inactive)
REMARK    1  A    between atoms: C2_2  and  C3_3 
REMARK    2  A    between atoms: C2_2  and  C11_36 
REMARK    3  A    between atoms: C3_3  and  N1_4 
REMARK    4  A    between atoms: N1_4  and  C4_6 
REMARK    5  A    between atoms: C5_9  and  N3_10 
REMARK    6  A    between atoms: N4_13  and  N5_14 
REMARK    7  A    between atoms: C6_17  and  N6_18 
REMARK    8  A    between atoms: N6_18  and  N7_20 
REMARK    9  A    between atoms: C8_24  and  C9_25 
REMARK   10  A    between atoms: C9_25  and  N9_26 
REMARK   11  A    between atoms: C10_30  and  N11_31 
REMARK       I    between atoms: N15_42  and  C13_44 
REMARK       I    between atoms: C13_44  and  N16_45 
REMARK       I    between atoms: C13_44  and  N17_49 
ROOT
HETATM    1  C4  UNL     1       0.285  -0.721  -0.147  1.00  0.00     0.707 A 
HETATM    2  N2  UNL     1       0.229   0.450   0.494  1.00  0.00    -0.020 N 
ATOM      3  H2  UNL     1      -0.673   0.769   0.847  1.00  0.00     0.203 HD
HETATM    4  C5  UNL     1       1.305   1.226   0.694  1.00  0.00     0.726 A 
HETATM    5  N4  UNL     1       2.504   0.776   0.209  1.00  0.00     0.085 N 
HETATM    6  C6  UNL     1       2.631  -0.387  -0.442  1.00  0.00     0.747 A 
HETATM    7  N12 UNL     1       1.475  -1.119  -0.601  1.00  0.00    -0.018 N 
ATOM      8  H12 UNL     1       1.532  -2.012  -1.091  1.00  0.00     0.203 HD
ENDROOT
BRANCH   1   9
HETATM    9  N1  UNL     1      -0.718  -1.491  -0.358  1.00  0.00    -0.224 N 
ATOM     10  H1  UNL     1      -0.535  -2.359  -0.862  1.00  0.00     0.177 HD
BRANCH   9  11
HETATM   11  C3  UNL     1      -2.065  -1.251   0.044  1.00  0.00     0.150 C 
BRANCH  11  12
HETATM   12  C2  UNL     1      -2.949  -0.819  -1.128  1.00  0.00     0.076 C 
HETATM   13  C1  UNL     1      -2.436   0.454  -1.756  1.00  0.00     0.020 C 
BRANCH  12  14
HETATM   14  C11 UNL     1      -4.296  -0.523  -0.562  1.00  0.00     0.147 A 
HETATM   15  N13 UNL     1      -4.508   0.425   0.364  1.00  0.00    -0.280 N 
HETATM   16  N14 UNL     1      -5.784   0.465   0.678  1.00  0.00    -0.263 N 
ATOM     17  H13 UNL     1      -3.787   1.025   0.764  1.00  0.00     0.189 HD
HETATM   18  C12 UNL     1      -6.358  -0.486  -0.080  1.00  0.00     0.243 A 
ATOM     19  H14 UNL     1      -6.239   1.083   1.350  1.00  0.00     0.190 HD
HETATM   20  N15 UNL     1      -7.633  -0.736  -0.037  1.00  0.00    -0.305 N 
HETATM   21  O3  UNL     1      -5.452  -1.072  -0.820  1.00  0.00    -0.263 OA
HETATM   22  C13 UNL     1      -8.544  -0.018   0.827  1.00  0.00     0.483 C 
ATOM     23  H15 UNL     1      -8.007  -1.470  -0.638  1.00  0.00     0.166 HD
HETATM   24  N16 UNL     1      -8.217  -0.242   2.234  1.00  0.00    -0.033 N 
HETATM   25  N17 UNL     1      -8.624   1.391   0.531  1.00  0.00    -0.033 N 
ATOM     26 3H16 UNL     1      -8.189  -1.236   2.460  1.00  0.00     0.278 HD
ATOM     27 2H16 UNL     1      -7.245  -0.009   2.436  1.00  0.00     0.278 HD
ATOM     28 1H16 UNL     1      -8.859   0.264   2.843  1.00  0.00     0.278 HD
ATOM     29 3H17 UNL     1      -7.698   1.817   0.548  1.00  0.00     0.278 HD
ATOM     30 2H17 UNL     1      -8.861   1.542  -0.450  1.00  0.00     0.278 HD
ATOM     31 1H17 UNL     1      -9.266   1.897   1.140  1.00  0.00     0.278 HD
ENDBRANCH  12  14
ENDBRANCH  11  12
ENDBRANCH   9  11
ENDBRANCH   1   9
BRANCH   4  32
HETATM   32  N3  UNL     1       1.248   2.363   1.317  1.00  0.00    -0.232 N 
ATOM     33  H32 UNL     1       0.355   2.698   1.678  1.00  0.00     0.174 HD
ATOM     34  H31 UNL     1       2.066   2.953   1.469  1.00  0.00     0.174 HD
ENDBRANCH   4  32
BRANCH   6  35
HETATM   35  N6  UNL     1       3.706  -0.853  -0.912  1.00  0.00    -0.120 N 
ATOM     36  H6  UNL     1       3.584  -1.756  -1.371  1.00  0.00     0.206 HD
BRANCH  35  37
HETATM   37  N7  UNL     1       4.992  -0.411  -0.938  1.00  0.00    -0.214 N 
HETATM   38  C7  UNL     1       5.521   0.422  -1.860  1.00  0.00     0.210 A 
HETATM   39  N8  UNL     1       6.798   0.647  -1.613  1.00  0.00    -0.345 N 
HETATM   40  C8  UNL     1       7.168  -0.058  -0.475  1.00  0.00     0.127 A 
ATOM     41  H8  UNL     1       7.413   1.242  -2.168  1.00  0.00     0.167 HD
HETATM   42  C10 UNL     1       6.048  -0.698  -0.080  1.00  0.00     0.226 A 
BRANCH  40  43
HETATM   43  C9  UNL     1       8.495  -0.036   0.074  1.00  0.00     0.141 C 
HETATM   44  N10 UNL     1       8.983  -0.703   1.210  1.00  0.00    -0.081 NA
BRANCH  43  45
HETATM   45  N9  UNL     1       9.361   0.726  -0.603  1.00  0.00    -0.386 N 
ATOM     46  H92 UNL     1       9.007   1.210  -1.428  1.00  0.00     0.157 HD
ATOM     47  H91 UNL     1      10.303   0.742  -0.213  1.00  0.00     0.157 HD
ENDBRANCH  43  45
ENDBRANCH  40  43
BRANCH  42  48
HETATM   48  N11 UNL     1       5.830  -1.557   1.007  1.00  0.00    -0.093 N 
HETATM   49  O1  UNL     1       4.651  -2.059   1.173  1.00  0.00    -0.530 OA
HETATM   50  O2  UNL     1       6.688  -1.974   1.962  1.00  0.00    -0.530 OA
ENDBRANCH  42  48
ENDBRANCH  35  37
ENDBRANCH   6  35
BRANCH   5  51
HETATM   51  N5  UNL     1       3.607   1.606   0.436  1.00  0.00    -0.309 N 
ATOM     52  H52 UNL     1       3.510   2.492   0.932  1.00  0.00     0.178 HD
ATOM     53  H51 UNL     1       4.500   1.271   0.075  1.00  0.00     0.178 HD
ENDBRANCH   5  51
TORSDOF 11
