REMARK  9 active torsions:
REMARK  status: ('A' for Active; 'I' for Inactive)
REMARK    1  A    between atoms: C1_4  and  C2_5 
REMARK    2  A    between atoms: C1_4  and  N8_26 
REMARK    3  A    between atoms: C2_5  and  N2_6 
REMARK    4  A    between atoms: N8_26  and  C11_28 
REMARK    5  A    between atoms: C11_28  and  C12_29 
REMARK    6  A    between atoms: C13_34  and  C14_35 
REMARK    7  A    between atoms: C14_35  and  N11_36 
REMARK    8  A    between atoms: C14_35  and  O3_40 
REMARK    9  A    between atoms: C14_35  and  C15_42 
ROOT
HETATM    1  N1  UNL     1       0.471  -2.014  -0.530  1.00  0.00    -0.388 N 
ATOM      2  H11 UNL     1       0.920  -2.314  -1.395  1.00  0.00     0.157 HD
ATOM      3  H12 UNL     1       0.368  -2.642   0.267  1.00  0.00     0.157 HD
HETATM    4  C1  UNL     1       0.012  -0.819  -0.408  1.00  0.00     0.089 C 
ENDROOT
BRANCH   4   5
HETATM    5  C2  UNL     1      -0.645  -0.380   0.858  1.00  0.00     0.208 C 
BRANCH   5   6
HETATM    6  N2  UNL     1      -2.013   0.032   0.640  1.00  0.00    -0.310 N 
HETATM    7  C3  UNL     1      -2.497   1.239   0.342  1.00  0.00     0.125 A 
HETATM    8  N3  UNL     1      -1.819   2.403   0.166  1.00  0.00    -0.338 N 
HETATM    9  C6  UNL     1      -3.887   1.186   0.219  1.00  0.00     0.069 A 
HETATM   10  C4  UNL     1      -2.518   3.512  -0.132  1.00  0.00     0.183 A 
ATOM     11  H3  UNL     1      -0.804   2.435   0.258  1.00  0.00     0.168 HD
HETATM   12  N4  UNL     1      -3.856   3.458  -0.250  1.00  0.00    -0.340 N 
HETATM   13  C5  UNL     1      -4.579   2.316  -0.083  1.00  0.00     0.132 A 
ATOM     14  H4  UNL     1      -4.356   4.318  -0.477  1.00  0.00     0.167 HD
HETATM   15  N5  UNL     1      -5.964   2.438  -0.242  1.00  0.00    -0.082 NA
HETATM   16  C7  UNL     1      -4.251  -0.109   0.453  1.00  0.00     0.094 A 
HETATM   17  C8  UNL     1      -5.470  -0.728   0.464  1.00  0.00     0.264 A 
HETATM   18  C10 UNL     1      -3.065  -0.810   0.714  1.00  0.00     0.130 A 
HETATM   19  O1  UNL     1      -6.560  -0.166   0.242  1.00  0.00    -0.267 OA
HETATM   20  N6  UNL     1      -5.480  -2.071   0.743  1.00  0.00    -0.275 N 
HETATM   21  C9  UNL     1      -4.344  -2.739   0.992  1.00  0.00     0.328 A 
ATOM     22  H6  UNL     1      -6.369  -2.571   0.761  1.00  0.00     0.173 HD
HETATM   23  O2  UNL     1      -4.405  -3.969   1.242  1.00  0.00    -0.247 OA
HETATM   24  N7  UNL     1      -3.146  -2.133   0.981  1.00  0.00    -0.293 N 
ATOM     25  H7  UNL     1      -2.300  -2.669   1.173  1.00  0.00     0.172 HD
ENDBRANCH   5   6
ENDBRANCH   4   5
BRANCH   4  26
HETATM   26  N8  UNL     1       0.155   0.056  -1.518  1.00  0.00    -0.371 N 
ATOM     27  H8  UNL     1      -0.537  -0.004  -2.265  1.00  0.00     0.161 HD
BRANCH  26  28
HETATM   28  C11 UNL     1       1.217   1.024  -1.657  1.00  0.00     0.207 C 
BRANCH  28  29
HETATM   29  C12 UNL     1       2.554   0.380  -1.662  1.00  0.00     0.158 A 
HETATM   30  N9  UNL     1       3.270  -0.083  -2.688  1.00  0.00    -0.280 N 
HETATM   31  N10 UNL     1       4.414  -0.580  -2.225  1.00  0.00    -0.277 N 
ATOM     32  H9  UNL     1       2.987  -0.060  -3.668  1.00  0.00     0.189 HD
HETATM   33  C13 UNL     1       4.394  -0.416  -0.877  1.00  0.00     0.213 A 
ATOM     34  H10 UNL     1       5.161  -1.002  -2.776  1.00  0.00     0.189 HD
HETATM   35  O5  UNL     1       3.264   0.162  -0.584  1.00  0.00    -0.275 OA
BRANCH  33  36
HETATM   36  C14 UNL     1       5.468  -0.822   0.089  1.00  0.00     0.368 C 
BRANCH  36  37
HETATM   37  N11 UNL     1       5.143  -2.027   0.784  1.00  0.00    -0.030 N 
ATOM     38 3H11 UNL     1       4.238  -1.952   1.249  1.00  0.00     0.279 HD
ATOM     39 2H11 UNL     1       4.929  -2.782   0.132  1.00  0.00     0.279 HD
ATOM     40 1H11 UNL     1       5.873  -2.303   1.441  1.00  0.00     0.279 HD
ENDBRANCH  36  37
BRANCH  36  41
HETATM   41  O3  UNL     1       6.646  -1.017  -0.627  1.00  0.00    -0.352 OA
ATOM     42  H3  UNL     1       7.326  -1.274  -0.015  1.00  0.00     0.213 HD
ENDBRANCH  36  41
BRANCH  36  43
HETATM   43  C15 UNL     1       5.654   0.336   1.032  1.00  0.00     0.303 C 
HETATM   44  N12 UNL     1       6.867   1.047   1.106  1.00  0.00    -0.057 NA
HETATM   45  O4  UNL     1       4.707   0.687   1.781  1.00  0.00    -0.271 OA
ENDBRANCH  36  43
ENDBRANCH  33  36
ENDBRANCH  28  29
ENDBRANCH  26  28
ENDBRANCH   4  26
TORSDOF 9
