REMARK  13 active torsions:
REMARK  status: ('A' for Active; 'I' for Inactive)
REMARK    1  A    between atoms: C2_3  and  N2_4 
REMARK    2  A    between atoms: C2_3  and  C12_31 
REMARK    3  A    between atoms: N2_4  and  C3_6 
REMARK    4  A    between atoms: C5_10  and  O1_11 
REMARK    5  A    between atoms: C6_13  and  O2_14 
REMARK    6  A    between atoms: C8_17  and  N4_18 
REMARK    7  A    between atoms: C8_17  and  O3_22 
REMARK    8  A    between atoms: C9_24  and  C10_25 
REMARK    9  A    between atoms: C10_25  and  O4_26 
REMARK   10  A    between atoms: C10_25  and  C11_28 
REMARK   11  A    between atoms: N5_33  and  C14_34 
REMARK   12  A    between atoms: C14_34  and  C15_35 
REMARK   13  A    between atoms: C15_35  and  C16_36 
ROOT
HETATM    1  N1  UNL     1       1.183  -3.118  -1.279  1.00  0.00    -0.195 NA
HETATM    2  C1  UNL     1       1.088  -1.965  -1.141  1.00  0.00     0.091 C 
HETATM    3  C2  UNL     1       0.965  -0.506  -0.982  1.00  0.00     0.243 C 
ENDROOT
BRANCH   3   4
HETATM    4  N2  UNL     1       0.041  -0.248   0.095  1.00  0.00    -0.357 N 
ATOM      5  H2  UNL     1       0.323   0.270   0.928  1.00  0.00     0.162 HD
BRANCH   4   6
HETATM    6  C3  UNL     1      -1.296  -0.755  -0.060  1.00  0.00     0.094 C 
HETATM    7  N3  UNL     1      -1.524  -2.008  -0.124  1.00  0.00    -0.376 N 
HETATM    8  C4  UNL     1      -2.905  -2.309  -0.276  1.00  0.00     0.163 C 
ATOM      9  H3  UNL     1      -0.794  -2.718  -0.072  1.00  0.00     0.160 HD
HETATM   10  C5  UNL     1      -3.550  -0.971  -0.597  1.00  0.00     0.122 C 
HETATM   11  C6  UNL     1      -4.772  -0.865   0.280  1.00  0.00     0.160 C 
HETATM   12  C9  UNL     1      -2.557   0.061  -0.164  1.00  0.00     0.145 C 
HETATM   13  C7  UNL     1      -4.579   0.362   1.127  1.00  0.00     0.104 C 
HETATM   14  C8  UNL     1      -3.070   0.497   1.169  1.00  0.00     0.245 C 
BRANCH  10  15
HETATM   15  O1  UNL     1      -3.848  -0.912  -1.963  1.00  0.00    -0.384 OA
ATOM     16  H1  UNL     1      -4.251  -0.076  -2.164  1.00  0.00     0.210 HD
ENDBRANCH  10  15
BRANCH  11  17
HETATM   17  O2  UNL     1      -5.950  -0.898  -0.438  1.00  0.00    -0.392 OA
ATOM     18  H2  UNL     1      -6.720  -0.831   0.115  1.00  0.00     0.210 HD
ENDBRANCH  11  17
BRANCH  14  19
HETATM   19  N4  UNL     1      -2.622   1.780   1.597  1.00  0.00    -0.045 N 
ATOM     20  H43 UNL     1      -3.033   2.515   1.022  1.00  0.00     0.278 HD
ATOM     21  H42 UNL     1      -3.030   2.021   2.500  1.00  0.00     0.278 HD
ATOM     22  H41 UNL     1      -1.606   1.871   1.625  1.00  0.00     0.278 HD
ENDBRANCH  14  19
BRANCH  14  23
HETATM   23  O3  UNL     1      -2.619  -0.432   2.115  1.00  0.00    -0.364 OA
ATOM     24  H3  UNL     1      -1.673  -0.347   2.141  1.00  0.00     0.212 HD
ENDBRANCH  14  23
BRANCH  12  25
HETATM   25  C10 UNL     1      -2.358   1.179  -1.148  1.00  0.00     0.242 C 
BRANCH  25  26
HETATM   26  O4  UNL     1      -1.249   1.956  -0.650  1.00  0.00    -0.383 OA
ATOM     27  H4  UNL     1      -1.123   2.663  -1.272  1.00  0.00     0.210 HD
ENDBRANCH  25  26
BRANCH  25  28
HETATM   28  C11 UNL     1      -3.467   2.067  -1.410  1.00  0.00     0.204 C 
HETATM   29  O5  UNL     1      -3.364   3.304  -1.083  1.00  0.00    -0.646 OA
HETATM   30  O6  UNL     1      -4.675   1.770  -1.989  1.00  0.00    -0.646 OA
ENDBRANCH  25  28
ENDBRANCH  12  25
ENDBRANCH   4   6
ENDBRANCH   3   4
BRANCH   3  31
HETATM   31  C12 UNL     1       2.272   0.098  -0.785  1.00  0.00     0.081 A 
HETATM   32  C13 UNL     1       3.493  -0.501  -0.992  1.00  0.00     0.141 A 
HETATM   33  N5  UNL     1       4.462   0.385  -0.698  1.00  0.00    -0.287 N 
HETATM   34  N6  UNL     1       3.857   1.488  -0.324  1.00  0.00    -0.241 N 
HETATM   35  N7  UNL     1       2.523   1.345  -0.366  1.00  0.00    -0.286 N 
ATOM     36  H6  UNL     1       4.337   2.342  -0.039  1.00  0.00     0.208 HD
ATOM     37  H7  UNL     1       1.830   2.053  -0.124  1.00  0.00     0.188 HD
BRANCH  33  38
HETATM   38  C14 UNL     1       5.902   0.223  -0.759  1.00  0.00     0.150 C 
BRANCH  38  39
HETATM   39  C15 UNL     1       6.478  -0.288   0.543  1.00  0.00     0.033 C 
BRANCH  39  40
HETATM   40  C16 UNL     1       7.971  -0.417   0.365  1.00  0.00     0.088 C 
HETATM   41  S1  UNL     1       8.602   1.245  -0.040  1.00  0.00    -0.098 SA
ENDBRANCH  39  40
ENDBRANCH  38  39
ENDBRANCH  33  38
ENDBRANCH   3  31
TORSDOF 13
