REMARK  18 active torsions:
REMARK  status: ('A' for Active; 'I' for Inactive)
REMARK    1  A    between atoms: C2_2  and  C3_3 
REMARK    2  A    between atoms: C3_3  and  C4_4 
REMARK    3  A    between atoms: C3_3  and  N3_21 
REMARK    4  A    between atoms: N1_8  and  C8_9 
REMARK    5  A    between atoms: C8_9  and  C9_10 
REMARK    6  A    between atoms: C9_10  and  N2_11 
REMARK    7  A    between atoms: N2_11  and  C10_12 
REMARK    8  A    between atoms: N2_11  and  C11_14 
REMARK    9  A    between atoms: C11_14  and  C13_16 
REMARK   10  A    between atoms: C13_16  and  C14_17 
REMARK   11  A    between atoms: C14_17  and  C15_18 
REMARK   12  A    between atoms: C15_18  and  C16_19 
REMARK   13  A    between atoms: N3_21  and  C18_22 
REMARK   14  A    between atoms: N3_21  and  N4_27 
REMARK   15  A    between atoms: C18_22  and  C19_23 
REMARK   16  A    between atoms: C19_23  and  C20_24 
REMARK   17  A    between atoms: C20_24  and  C21_25 
REMARK   18  A    between atoms: N4_27  and  C23_29 
ROOT
HETATM    1  C4  UNL     1       1.431  -0.086  -1.694  1.00  0.00     0.251 C 
HETATM    2  C5  UNL     1       1.489   1.352  -2.001  1.00  0.00     0.040 C 
HETATM    3  C6  UNL     1       0.040   1.716  -2.315  1.00  0.00     0.032 C 
HETATM    4  C7  UNL     1      -0.670   0.807  -1.382  1.00  0.00     0.273 C 
HETATM    5  N1  UNL     1       0.020  -0.478  -1.443  1.00  0.00     0.100 N 
ENDROOT
BRANCH   1   6
HETATM    6  C3  UNL     1       2.239  -0.408  -0.461  1.00  0.00     0.162 C 
BRANCH   6   7
HETATM    7  C2  UNL     1       2.022  -1.919  -0.300  1.00  0.00    -0.008 C 
HETATM    8  C1  UNL     1       1.459  -2.444   0.749  1.00  0.00     0.009 C 
ENDBRANCH   6   7
BRANCH   6   9
HETATM    9  N3  UNL     1       3.626  -0.269  -0.571  1.00  0.00    -0.295 N 
BRANCH   9  10
HETATM   10  C18 UNL     1       4.295   0.937  -0.603  1.00  0.00     0.084 C 
BRANCH  10  11
HETATM   11  C19 UNL     1       4.307   1.786   0.643  1.00  0.00     0.046 C 
BRANCH  11  12
HETATM   12  C20 UNL     1       4.938   1.091   1.828  1.00  0.00     0.005 C 
BRANCH  12  13
HETATM   13  C21 UNL     1       4.911   2.007   3.010  1.00  0.00    -0.004 C 
HETATM   14  C22 UNL     1       3.516   2.402   3.385  1.00  0.00     0.005 C 
ENDBRANCH  12  13
ENDBRANCH  11  12
ENDBRANCH  10  11
ENDBRANCH   9  10
BRANCH   9  15
HETATM   15  N4  UNL     1       4.261  -1.368  -1.120  1.00  0.00    -0.275 N 
ATOM     16  H4  UNL     1       4.219  -1.463  -2.135  1.00  0.00     0.189 HD
BRANCH  15  17
HETATM   17  C23 UNL     1       4.956  -2.363  -0.422  1.00  0.00     0.368 C 
HETATM   18  O2  UNL     1       5.104  -2.400   0.825  1.00  0.00    -0.282 OA
ENDBRANCH  15  17
ENDBRANCH   9  15
ENDBRANCH   6   9
ENDBRANCH   1   6
BRANCH   5  19
HETATM   19  C8  UNL     1      -0.495  -1.192  -2.581  1.00  0.00     0.318 C 
BRANCH  19  20
HETATM   20  C9  UNL     1      -1.581  -2.146  -2.456  1.00  0.00     0.102 C 
BRANCH  20  21
HETATM   21  N2  UNL     1      -2.849  -1.784  -1.926  1.00  0.00    -0.310 N 
BRANCH  21  22
HETATM   22  C10 UNL     1      -3.787  -1.187  -2.843  1.00  0.00     0.359 C 
HETATM   23  O1  UNL     1      -4.944  -0.854  -2.600  1.00  0.00    -0.283 OA
ENDBRANCH  21  22
BRANCH  21  24
HETATM   24  C11 UNL     1      -3.188  -2.087  -0.576  1.00  0.00    -0.008 C 
HETATM   25  C12 UNL     1      -4.247  -3.170  -0.544  1.00  0.00     0.064 C 
BRANCH  24  26
HETATM   26  C13 UNL     1      -3.353  -1.057   0.451  1.00  0.00     0.052 C 
BRANCH  26  27
HETATM   27  C14 UNL     1      -4.340   0.028   0.296  1.00  0.00     0.006 C 
BRANCH  27  28
HETATM   28  C15 UNL     1      -4.274   0.856   1.595  1.00  0.00     0.000 C 
BRANCH  28  29
HETATM   29  C16 UNL     1      -5.243   1.996   1.549  1.00  0.00    -0.005 C 
HETATM   30  C17 UNL     1      -5.114   2.749   2.856  1.00  0.00     0.005 C 
ENDBRANCH  28  29
ENDBRANCH  27  28
ENDBRANCH  26  27
ENDBRANCH  24  26
ENDBRANCH  21  24
ENDBRANCH  20  21
ENDBRANCH  19  20
ENDBRANCH   5  19
TORSDOF 18
