REMARK  18 active torsions:
REMARK  status: ('A' for Active; 'I' for Inactive)
REMARK    1  A    between atoms: N2_4  and  C1_6 
REMARK    2  A    between atoms: C1_6  and  O1_7 
REMARK    3  A    between atoms: O1_7  and  C2_8 
REMARK    4  A    between atoms: C2_8  and  C3_9 
REMARK    5  A    between atoms: C3_9  and  O2_10 
REMARK    6  A    between atoms: O2_10  and  C4_11 
REMARK    7  A    between atoms: C4_11  and  C5_12 
REMARK    8  A    between atoms: C5_12  and  C6_13 
REMARK    9  A    between atoms: C6_13  and  C7_14 
REMARK   10  A    between atoms: C7_14  and  C8_15 
REMARK   11  A    between atoms: C8_15  and  C9_16 
REMARK   12  A    between atoms: C9_16  and  C10_17 
REMARK   13  A    between atoms: C10_17  and  C11_18 
REMARK   14  A    between atoms: C11_18  and  C12_19 
REMARK   15  A    between atoms: C12_19  and  N3_20 
REMARK   16  A    between atoms: C16_24  and  C17_25 
REMARK   17  A    between atoms: C17_25  and  C18_26 
REMARK   18  A    between atoms: C19_27  and  C20_28 
ROOT
HETATM    1  C8  UNL     1      -1.865  -1.038  -0.161  1.00  0.00     0.000 C 
ENDROOT
BRANCH   1   2
HETATM    2  C7  UNL     1      -2.244  -1.670   1.144  1.00  0.00     0.000 C 
BRANCH   2   3
HETATM    3  C6  UNL     1      -2.925  -0.754   2.089  1.00  0.00     0.002 C 
BRANCH   3   4
HETATM    4  C5  UNL     1      -4.212  -0.193   1.476  1.00  0.00     0.026 C 
BRANCH   4   5
HETATM    5  C4  UNL     1      -5.139  -1.308   1.135  1.00  0.00     0.167 C 
BRANCH   5   6
HETATM    6  O2  UNL     1      -6.334  -1.061   0.700  1.00  0.00    -0.389 OA
BRANCH   6   7
HETATM    7  C3  UNL     1      -6.791  -0.417  -0.352  1.00  0.00     0.194 C 
BRANCH   7   8
HETATM    8  C2  UNL     1      -6.584   1.056  -0.409  1.00  0.00     0.202 C 
BRANCH   8   9
HETATM    9  O1  UNL     1      -7.066   1.654  -1.518  1.00  0.00    -0.343 OA
BRANCH   9  10
HETATM   10  C1  UNL     1      -8.342   1.670  -1.893  1.00  0.00     0.241 C 
BRANCH  10  11
HETATM   11  N2  UNL     1      -8.980   0.445  -2.255  1.00  0.00    -0.297 N 
HETATM   12  N1  UNL     1     -10.195   0.286  -2.270  1.00  0.00    -0.344 N 
ATOM     13  H12 UNL     1     -10.770   1.086  -2.006  1.00  0.00     0.176 HD
ATOM     14  H11 UNL     1     -10.651  -0.589  -2.529  1.00  0.00     0.176 HD
ATOM     15  H2  UNL     1      -8.390  -0.344  -2.517  1.00  0.00     0.187 HD
ENDBRANCH  10  11
ENDBRANCH   9  10
ENDBRANCH   8   9
ENDBRANCH   7   8
ENDBRANCH   6   7
ENDBRANCH   5   6
ENDBRANCH   4   5
ENDBRANCH   3   4
ENDBRANCH   2   3
ENDBRANCH   1   2
BRANCH   1  16
HETATM   16  C9  UNL     1      -0.943   0.133  -0.004  1.00  0.00     0.000 C 
BRANCH  16  17
HETATM   17  C10 UNL     1       0.361  -0.189   0.664  1.00  0.00     0.002 C 
BRANCH  17  18
HETATM   18  C11 UNL     1       1.120  -1.209  -0.117  1.00  0.00     0.020 C 
BRANCH  18  19
HETATM   19  C12 UNL     1       2.449  -1.588   0.501  1.00  0.00     0.128 C 
BRANCH  19  20
HETATM   20  N3  UNL     1       3.314  -0.435   0.615  1.00  0.00    -0.366 N 
HETATM   21  C13 UNL     1       3.351   0.361   1.694  1.00  0.00     0.090 A 
HETATM   22  C14 UNL     1       4.188   1.459   1.779  1.00  0.00     0.018 A 
HETATM   23  C15 UNL     1       5.028   1.773   0.730  1.00  0.00     0.010 A 
HETATM   24  C16 UNL     1       4.990   0.956  -0.378  1.00  0.00    -0.039 A 
HETATM   25  C21 UNL     1       4.134  -0.126  -0.405  1.00  0.00     0.097 A 
BRANCH  24  26
HETATM   26  C17 UNL     1       5.874   1.253  -1.531  1.00  0.00     0.066 C 
BRANCH  26  27
HETATM   27  C18 UNL     1       7.149   0.534  -1.316  1.00  0.00    -0.025 C 
HETATM   28  C19 UNL     1       8.273   1.220  -1.235  1.00  0.00    -0.020 C 
BRANCH  28  29
HETATM   29  C20 UNL     1       9.602   0.563  -1.018  1.00  0.00     0.112 C 
HETATM   30  S1  UNL     1       9.462  -1.219  -0.889  1.00  0.00    -0.094 SA
ENDBRANCH  28  29
ENDBRANCH  26  27
ENDBRANCH  24  26
ENDBRANCH  19  20
ENDBRANCH  18  19
ENDBRANCH  17  18
ENDBRANCH  16  17
ENDBRANCH   1  16
TORSDOF 18
