REMARK  19 active torsions:
REMARK  status: ('A' for Active; 'I' for Inactive)
REMARK    1  A    between atoms: C2_2  and  N1_3 
REMARK    2  A    between atoms: N1_3  and  C3_4 
REMARK    3  A    between atoms: N1_3  and  C5_6 
REMARK    4  A    between atoms: N1_3  and  C8_10 
REMARK    5  A    between atoms: C5_6  and  C6_7 
REMARK    6  A    between atoms: C8_10  and  C9_11 
REMARK    7  A    between atoms: C9_11  and  C10_12 
REMARK    8  A    between atoms: C10_12  and  C11_13 
REMARK    9  A    between atoms: C11_13  and  O1_14 
REMARK   10  A    between atoms: O1_14  and  C12_15 
REMARK   11  A    between atoms: C12_15  and  C13_16 
REMARK   12  A    between atoms: C13_16  and  C14_17 
REMARK   13  A    between atoms: C14_17  and  C15_18 
REMARK   14  A    between atoms: C15_18  and  N3_19 
REMARK   15  A    between atoms: N3_19  and  O2_20 
REMARK   16  A    between atoms: N3_19  and  C16_22 
REMARK   17  A    between atoms: C16_22  and  C17_23 
REMARK   18  A    between atoms: C17_23  and  C18_24 
REMARK   19  A    between atoms: C18_24  and  C19_25 
ROOT
HETATM    1  C6  UNL     1      -8.294   0.388  -0.216  1.00  0.00     0.151 C 
HETATM    2  C7  UNL     1      -8.319   0.623  -1.639  1.00  0.00     0.060 C 
HETATM    3  N2  UNL     1      -8.375   0.817  -2.783  1.00  0.00    -0.197 NA
ENDROOT
BRANCH   1   4
HETATM    4  C5  UNL     1      -7.177  -0.382   0.315  1.00  0.00     0.251 C 
BRANCH   4   5
HETATM    5  N1  UNL     1      -5.820   0.086   0.209  1.00  0.00    -0.067 N 
BRANCH   5   6
HETATM    6  C2  UNL     1      -5.256  -0.318  -1.052  1.00  0.00     0.233 C 
HETATM    7  C1  UNL     1      -5.561  -1.769  -1.355  1.00  0.00     0.035 C 
ENDBRANCH   5   6
BRANCH   5   8
HETATM    8  C3  UNL     1      -5.767   1.491   0.438  1.00  0.00     0.233 C 
HETATM    9  C4  UNL     1      -5.368   2.354  -0.708  1.00  0.00     0.035 C 
ENDBRANCH   5   8
BRANCH   5  10
HETATM   10  C8  UNL     1      -5.128  -0.566   1.315  1.00  0.00     0.237 C 
BRANCH  10  11
HETATM   11  C9  UNL     1      -3.691  -0.743   1.270  1.00  0.00     0.030 C 
BRANCH  11  12
HETATM   12  C10 UNL     1      -2.788   0.447   1.240  1.00  0.00     0.028 C 
BRANCH  12  13
HETATM   13  C11 UNL     1      -1.357  -0.159   1.212  1.00  0.00     0.167 C 
BRANCH  13  14
HETATM   14  O1  UNL     1      -1.343  -0.924   0.057  1.00  0.00    -0.391 OA
BRANCH  14  15
HETATM   15  C12 UNL     1      -0.177  -1.577  -0.219  1.00  0.00     0.167 C 
BRANCH  15  16
HETATM   16  C13 UNL     1       0.933  -0.560  -0.391  1.00  0.00     0.028 C 
BRANCH  16  17
HETATM   17  C14 UNL     1       2.187  -1.362  -0.712  1.00  0.00     0.024 C 
BRANCH  17  18
HETATM   18  C15 UNL     1       3.330  -0.344  -0.906  1.00  0.00     0.155 C 
BRANCH  18  19
HETATM   19  N3  UNL     1       3.544   0.419   0.242  1.00  0.00    -0.276 N 
BRANCH  19  20
HETATM   20  O2  UNL     1       3.446  -0.292   1.393  1.00  0.00    -0.288 OA
ATOM     21  H2  UNL     1       3.592   0.228   2.175  1.00  0.00     0.244 HD
ENDBRANCH  19  20
BRANCH  19  22
HETATM   22  C16 UNL     1       4.477   1.440   0.333  1.00  0.00     0.090 C 
BRANCH  22  23
HETATM   23  C17 UNL     1       5.902   1.131   0.424  1.00  0.00     0.051 C 
BRANCH  23  24
HETATM   24  C18 UNL     1       6.476   0.351  -0.685  1.00  0.00     0.043 C 
BRANCH  24  25
HETATM   25  C19 UNL     1       7.982   0.201  -0.504  1.00  0.00    -0.058 A 
HETATM   26  C20 UNL     1       8.503  -0.850   0.211  1.00  0.00     0.007 A 
HETATM   27  C21 UNL     1       9.870  -1.016   0.388  1.00  0.00     0.001 A 
HETATM   28  C22 UNL     1      10.739  -0.102  -0.168  1.00  0.00     0.000 A 
HETATM   29  C23 UNL     1      10.227   0.951  -0.884  1.00  0.00     0.001 A 
HETATM   30  C24 UNL     1       8.855   1.112  -1.057  1.00  0.00     0.007 A 
ENDBRANCH  24  25
ENDBRANCH  23  24
ENDBRANCH  22  23
ENDBRANCH  19  22
ENDBRANCH  18  19
ENDBRANCH  17  18
ENDBRANCH  16  17
ENDBRANCH  15  16
ENDBRANCH  14  15
ENDBRANCH  13  14
ENDBRANCH  12  13
ENDBRANCH  11  12
ENDBRANCH  10  11
ENDBRANCH   5  10
ENDBRANCH   4   5
ENDBRANCH   1   4
TORSDOF 19
