REMARK  3 active torsions:
REMARK  status: ('A' for Active; 'I' for Inactive)
REMARK    1  A    between atoms: C2_2  and  N1_3 
REMARK       I    between atoms: N1_3  and  C3_5 
REMARK       I    between atoms: C3_5  and  N5_19 
REMARK       I    between atoms: N2_6  and  C4_8 
REMARK       I    between atoms: C4_8  and  N3_10 
REMARK    2  A    between atoms: N3_10  and  N4_12 
REMARK       I    between atoms: N4_12  and  C5_14 
REMARK    3  A    between atoms: C5_14  and  C6_16 
ROOT
HETATM    1  N1  UNL     1      -3.062   1.049   0.445  1.00  0.00    -0.226 N 
ATOM      2  H1  UNL     1      -3.370   1.436   1.337  1.00  0.00     0.177 HD
HETATM    3  C3  UNL     1      -1.924   0.184   0.409  1.00  0.00     0.679 C 
HETATM    4  N2  UNL     1      -0.802   0.725   0.258  1.00  0.00    -0.140 N 
ATOM      5  H2  UNL     1      -0.835   1.741   0.178  1.00  0.00     0.189 HD
HETATM    6  C4  UNL     1       0.482   0.187   0.180  1.00  0.00     0.353 C 
HETATM    7  O1  UNL     1       0.732  -0.974  -0.185  1.00  0.00    -0.245 OA
HETATM    8  N3  UNL     1       1.560   1.036   0.543  1.00  0.00    -0.248 N 
ATOM      9  H3  UNL     1       1.395   1.995   0.849  1.00  0.00     0.192 HD
HETATM   10  N5  UNL     1      -2.072  -1.216   0.536  1.00  0.00    -0.227 N 
HETATM   11  C9  UNL     1      -2.799  -1.964  -0.491  1.00  0.00     0.168 C 
HETATM   12  C10 UNL     1      -1.544  -1.983   1.646  1.00  0.00     0.168 C 
ENDROOT
BRANCH   8  13
HETATM   13  N4  UNL     1       2.858   0.513   0.467  1.00  0.00    -0.266 N 
HETATM   14  C5  UNL     1       3.367   0.261  -0.844  1.00  0.00     0.240 C 
HETATM   15  O2  UNL     1       2.687   0.496  -1.875  1.00  0.00    -0.271 OA
ATOM     16  H4  UNL     1       3.410   0.322   1.303  1.00  0.00     0.190 HD
BRANCH  14  17
HETATM   17  C6  UNL     1       4.736  -0.290  -0.953  1.00  0.00     0.080 A 
HETATM   18  C7  UNL     1       5.718   0.363  -0.012  1.00  0.00     0.015 A 
HETATM   19  C8  UNL     1       5.342  -1.082   0.158  1.00  0.00     0.015 A 
ENDBRANCH  14  17
ENDBRANCH   8  13
BRANCH   1  20
HETATM   20  C2  UNL     1      -3.787   1.385  -0.771  1.00  0.00     0.133 C 
HETATM   21  C1  UNL     1      -4.916   2.330  -0.491  1.00  0.00     0.027 C 
ENDBRANCH   1  20
TORSDOF 3
