REMARK  2 active torsions:
REMARK  status: ('A' for Active; 'I' for Inactive)
REMARK       I    between atoms: N2_6  and  C4_8 
REMARK       I    between atoms: C4_8  and  N4_12 
REMARK    1  A    between atoms: N4_12  and  C6_14 
REMARK    2  A    between atoms: C6_14  and  C7_15 
ROOT
HETATM    1  C7  UNL     1       3.820   0.986   0.556  1.00  0.00     0.144 C 
HETATM    2  C8  UNL     1       5.295   1.133   0.505  1.00  0.00     0.060 C 
HETATM    3  N5  UNL     1       6.447   1.250   0.476  1.00  0.00    -0.197 NA
ENDROOT
BRANCH   1   4
HETATM    4  C6  UNL     1       3.543  -0.510   0.629  1.00  0.00     0.152 C 
BRANCH   4   5
HETATM    5  N4  UNL     1       2.152  -0.827   0.685  1.00  0.00    -0.225 N 
HETATM    6  C4  UNL     1       1.258  -0.614  -0.413  1.00  0.00     0.675 C 
HETATM    7  N2  UNL     1       0.360   0.425  -0.403  1.00  0.00    -0.176 N 
HETATM    8  N3  UNL     1       1.336  -1.440  -1.434  1.00  0.00    -0.231 N 
HETATM    9  C3  UNL     1      -0.820   0.682  -0.222  1.00  0.00     0.130 A 
ATOM     10  H2  UNL     1       0.854   1.289  -0.626  1.00  0.00     0.186 HD
HETATM   11  N1  UNL     1      -1.215   2.067  -0.358  1.00  0.00    -0.328 N 
HETATM   12  C9  UNL     1      -1.848  -0.278   0.111  1.00  0.00     0.005 A 
HETATM   13  C2  UNL     1      -2.556   2.455  -0.170  1.00  0.00     0.097 A 
ATOM     14  H1  UNL     1      -0.515   2.770  -0.593  1.00  0.00     0.169 HD
HETATM   15  C1  UNL     1      -2.948   3.734  -0.290  1.00  0.00     0.063 C 
HETATM   16  N6  UNL     1      -3.508   1.457   0.154  1.00  0.00    -0.346 N 
HETATM   17  C11 UNL     1      -3.111   0.110   0.284  1.00  0.00     0.016 A 
ATOM     18  H6  UNL     1      -4.485   1.714   0.294  1.00  0.00     0.167 HD
HETATM   19  C12 UNL     1      -4.151  -0.908   0.627  1.00  0.00     0.069 C 
HETATM   20  C10 UNL     1      -1.573  -1.747   0.282  1.00  0.00     0.054 C 
HETATM   21  C5  UNL     1       2.272  -2.538  -1.463  1.00  0.00     0.165 C 
ATOM     22  H3  UNL     1       0.715  -1.300  -2.231  1.00  0.00     0.177 HD
ATOM     23  H4  UNL     1       1.778  -1.224   1.547  1.00  0.00     0.177 HD
ENDBRANCH   4   5
ENDBRANCH   1   4
TORSDOF 2
