REMARK  14 active torsions:
REMARK  status: ('A' for Active; 'I' for Inactive)
REMARK    1  A    between atoms: C2_2  and  C3_3 
REMARK    2  A    between atoms: C3_3  and  C4_4 
REMARK    3  A    between atoms: C4_4  and  C5_5 
REMARK    4  A    between atoms: C5_5  and  O1_6 
REMARK    5  A    between atoms: O1_6  and  C6_7 
REMARK    6  A    between atoms: C6_7  and  C8_9 
REMARK    7  A    between atoms: C10_11  and  O2_12 
REMARK    8  A    between atoms: N1_14  and  C11_15 
REMARK    9  A    between atoms: C11_15  and  C12_16 
REMARK   10  A    between atoms: C12_16  and  O3_17 
REMARK   11  A    between atoms: O3_17  and  C13_18 
REMARK   12  A    between atoms: C13_18  and  C14_19 
REMARK   13  A    between atoms: C14_19  and  O4_20 
REMARK   14  A    between atoms: C14_19  and  C15_22 
ROOT
HETATM    1  C8  UNL     1      -1.016  -0.693  -0.126  1.00  0.00    -0.010 A 
HETATM    2  C9  UNL     1      -0.696  -2.017   0.040  1.00  0.00     0.067 A 
HETATM    3  C10 UNL     1       0.637  -2.091   0.367  1.00  0.00     0.142 A 
HETATM    4  N1  UNL     1       1.132  -0.843   0.403  1.00  0.00    -0.335 N 
HETATM    5  C17 UNL     1       0.132   0.015   0.104  1.00  0.00     0.103 A 
ENDROOT
BRANCH   4   6
HETATM    6  C11 UNL     1       2.521  -0.485   0.714  1.00  0.00     0.156 C 
BRANCH   6   7
HETATM    7  C12 UNL     1       3.367  -0.439  -0.517  1.00  0.00     0.188 C 
BRANCH   7   8
HETATM    8  O3  UNL     1       4.656  -0.116  -0.218  1.00  0.00    -0.387 OA
BRANCH   8   9
HETATM    9  C13 UNL     1       4.839   1.105   0.385  1.00  0.00     0.199 C 
BRANCH   9  10
HETATM   10  C14 UNL     1       6.307   1.388   0.667  1.00  0.00     0.141 C 
BRANCH  10  11
HETATM   11  O4  UNL     1       6.386   2.655   1.288  1.00  0.00    -0.393 OA
ATOM     12  H4  UNL     1       7.303   2.832   1.464  1.00  0.00     0.210 HD
ENDBRANCH  10  11
BRANCH  10  13
HETATM   13  C15 UNL     1       7.116   1.482  -0.589  1.00  0.00     0.029 C 
HETATM   14  C16 UNL     1       7.050   0.190  -1.365  1.00  0.00     0.007 C 
ENDBRANCH  10  13
ENDBRANCH   9  10
ENDBRANCH   8   9
ENDBRANCH   7   8
ENDBRANCH   6   7
ENDBRANCH   4   6
BRANCH   3  15
HETATM   15  O2  UNL     1       1.399  -3.242   0.628  1.00  0.00    -0.346 OA
ATOM     16  H2  UNL     1       2.320  -3.293   0.854  1.00  0.00     0.219 HD
ENDBRANCH   3  15
BRANCH   1  17
HETATM   17  C6  UNL     1      -2.326  -0.050  -0.485  1.00  0.00     0.151 C 
HETATM   18  C7  UNL     1      -2.081   1.442  -0.758  1.00  0.00     0.045 C 
BRANCH  17  19
HETATM   19  O1  UNL     1      -2.955  -0.676  -1.485  1.00  0.00    -0.382 OA
BRANCH  19  20
HETATM   20  C5  UNL     1      -4.122  -1.302  -1.385  1.00  0.00     0.168 C 
BRANCH  20  21
HETATM   21  C4  UNL     1      -5.384  -0.622  -1.060  1.00  0.00     0.026 C 
BRANCH  21  22
HETATM   22  C3  UNL     1      -5.535   0.089   0.229  1.00  0.00     0.002 C 
BRANCH  22  23
HETATM   23  C2  UNL     1      -6.982   0.651   0.290  1.00  0.00    -0.004 C 
HETATM   24  C1  UNL     1      -7.980  -0.471   0.202  1.00  0.00     0.005 C 
ENDBRANCH  22  23
ENDBRANCH  21  22
ENDBRANCH  20  21
ENDBRANCH  19  20
ENDBRANCH  17  19
ENDBRANCH   1  17
TORSDOF 14
