REMARK  13 active torsions:
REMARK  status: ('A' for Active; 'I' for Inactive)
REMARK    1  A    between atoms: C2_2  and  C3_3 
REMARK    2  A    between atoms: C3_3  and  C4_4 
REMARK    3  A    between atoms: C4_4  and  C5_5 
REMARK    4  A    between atoms: C5_5  and  C6_6 
REMARK    5  A    between atoms: C6_6  and  C7_7 
REMARK    6  A    between atoms: C7_7  and  C8_8 
REMARK    7  A    between atoms: C8_8  and  C9_9 
REMARK    8  A    between atoms: C9_9  and  N1_11 
REMARK    9  A    between atoms: N1_11  and  C11_13 
REMARK   10  A    between atoms: C11_13  and  C12_14 
REMARK   11  A    between atoms: C12_14  and  N2_15 
REMARK   12  A    between atoms: N2_15  and  C13_17 
REMARK   13  A    between atoms: C16_20  and  N3_21 
ROOT
HETATM    1  C11 UNL     1      -1.232  -0.063  -1.583  1.00  0.00     0.075 C 
ENDROOT
BRANCH   1   2
HETATM    2  N1  UNL     1      -0.254   0.919  -1.472  1.00  0.00    -0.396 N 
ATOM      3  H1  UNL     1      -0.072   1.525  -2.272  1.00  0.00     0.159 HD
BRANCH   2   4
HETATM    4  C9  UNL     1       0.492   1.105  -0.298  1.00  0.00     0.076 C 
HETATM    5  C10 UNL     1      -0.278   1.489   0.925  1.00  0.00     0.032 C 
BRANCH   4   6
HETATM    6  C8  UNL     1       1.330  -0.118   0.048  1.00  0.00     0.024 C 
BRANCH   6   7
HETATM    7  C7  UNL     1       2.166  -0.604  -1.094  1.00  0.00     0.002 C 
BRANCH   7   8
HETATM    8  C6  UNL     1       3.147   0.432  -1.588  1.00  0.00     0.000 C 
BRANCH   8   9
HETATM    9  C5  UNL     1       4.119   0.871  -0.515  1.00  0.00     0.000 C 
BRANCH   9  10
HETATM   10  C4  UNL     1       4.951  -0.264   0.019  1.00  0.00     0.004 C 
BRANCH  10  11
HETATM   11  C3  UNL     1       5.877   0.267   1.072  1.00  0.00     0.026 C 
BRANCH  11  12
HETATM   12  C2  UNL     1       6.781   1.294   0.518  1.00  0.00    -0.037 C 
HETATM   13  C1  UNL     1       8.087   1.100   0.549  1.00  0.00     0.007 C 
ENDBRANCH  11  12
ENDBRANCH  10  11
ENDBRANCH   9  10
ENDBRANCH   8   9
ENDBRANCH   7   8
ENDBRANCH   6   7
ENDBRANCH   4   6
ENDBRANCH   2   4
ENDBRANCH   1   2
BRANCH   1  14
HETATM   14  C12 UNL     1      -2.495   0.079  -0.791  1.00  0.00     0.164 C 
BRANCH  14  15
HETATM   15  N2  UNL     1      -3.391  -1.058  -1.071  1.00  0.00    -0.385 N 
ATOM     16  H2  UNL     1      -3.117  -1.794  -1.721  1.00  0.00     0.160 HD
BRANCH  15  17
HETATM   17  C13 UNL     1      -4.641  -1.098  -0.412  1.00  0.00     0.028 A 
HETATM   18  C14 UNL     1      -5.036  -0.110   0.459  1.00  0.00     0.031 A 
HETATM   19  C15 UNL     1      -6.250  -0.137   1.107  1.00  0.00     0.038 A 
HETATM   20  C16 UNL     1      -7.141  -1.193   0.894  1.00  0.00     0.103 A 
HETATM   21  C17 UNL     1      -6.763  -2.197   0.020  1.00  0.00     0.038 A 
HETATM   22  C18 UNL     1      -5.542  -2.144  -0.613  1.00  0.00     0.031 A 
BRANCH  20  23
HETATM   23  N3  UNL     1      -8.380  -1.205   1.564  1.00  0.00    -0.116 N 
HETATM   24  O1  UNL     1      -8.687  -0.292   2.340  1.00  0.00    -0.532 OA
HETATM   25  O2  UNL     1      -9.250  -2.236   1.355  1.00  0.00    -0.532 OA
ENDBRANCH  20  23
ENDBRANCH  15  17
ENDBRANCH  14  15
ENDBRANCH   1  14
TORSDOF 13
