REMARK  5 active torsions:
REMARK  status: ('A' for Active; 'I' for Inactive)
REMARK    1  A    between atoms: C4_4  and  C5_5 
REMARK    2  A    between atoms: C5_5  and  N1_6 
REMARK    3  A    between atoms: N1_6  and  C6_9 
REMARK    4  A    between atoms: C6_9  and  C7_10 
REMARK    5  A    between atoms: C7_10  and  N2_11 
ROOT
HETATM    1  N1  UNL     1      -0.372   0.381  -0.888  1.00  0.00    -0.071 N 
ATOM      2  H11 UNL     1      -0.805   1.152  -1.397  1.00  0.00     0.277 HD
ATOM      3  H12 UNL     1      -0.486  -0.363  -1.576  1.00  0.00     0.277 HD
ENDROOT
BRANCH   1   4
HETATM    4  C5  UNL     1      -1.109   0.085   0.304  1.00  0.00     0.264 C 
BRANCH   4   5
HETATM    5  C4  UNL     1      -2.559  -0.141  -0.091  1.00  0.00     0.147 C 
HETATM    6  C3  UNL     1      -3.435  -0.540   1.047  1.00  0.00     0.034 C 
HETATM    7  C2  UNL     1      -4.709   0.248   1.092  1.00  0.00     0.004 C 
HETATM    8  C1  UNL     1      -5.241   0.432  -0.294  1.00  0.00     0.026 C 
HETATM    9  C12 UNL     1      -4.232   0.854  -1.310  1.00  0.00     0.168 C 
HETATM   10  O1  UNL     1      -3.007   1.051  -0.687  1.00  0.00    -0.384 OA
ENDBRANCH   4   5
ENDBRANCH   1   4
BRANCH   1  11
HETATM   11  C6  UNL     1       1.023   0.647  -0.655  1.00  0.00     0.252 C 
BRANCH  11  12
HETATM   12  C7  UNL     1       1.765  -0.607  -0.187  1.00  0.00     0.149 C 
BRANCH  12  13
HETATM   13  N2  UNL     1       3.088  -0.318   0.015  1.00  0.00    -0.392 N 
HETATM   14  C8  UNL     1       3.977  -0.011  -1.024  1.00  0.00     0.122 C 
HETATM   15  C9  UNL     1       5.263  -0.614  -0.434  1.00  0.00     0.025 C 
HETATM   16  C10 UNL     1       5.157  -0.082   0.994  1.00  0.00     0.046 C 
HETATM   17  C11 UNL     1       3.663  -0.169   1.277  1.00  0.00     0.058 C 
ENDBRANCH  12  13
ENDBRANCH  11  12
ENDBRANCH   1  11
TORSDOF 5
