REMARK  1 active torsions:
REMARK  status: ('A' for Active; 'I' for Inactive)
REMARK    1  A    between atoms: C4_5  and  N2_6 
ROOT
HETATM    1  N1  UNL     1       3.675  -0.809  -0.027  1.00  0.00    -0.190 NA
HETATM    2  C1  UNL     1       2.559  -0.482  -0.045  1.00  0.00     0.118 C 
HETATM    3  C2  UNL     1       1.170  -0.084  -0.046  1.00  0.00     0.121 A 
HETATM    4  C3  UNL     1       0.163  -1.005   0.170  1.00  0.00     0.089 A 
HETATM    5  C4  UNL     1      -1.168  -0.641   0.173  1.00  0.00     0.105 A 
HETATM    6  N3  UNL     1      -1.443   0.656  -0.045  1.00  0.00    -0.295 N 
ATOM      7  H3  UNL     1      -2.419   0.951  -0.048  1.00  0.00     0.172 HD
HETATM    8  C5  UNL     1      -0.489   1.587  -0.260  1.00  0.00     0.326 A 
HETATM    9  O1  UNL     1      -0.789   2.802  -0.463  1.00  0.00    -0.247 OA
HETATM   10  N4  UNL     1       0.801   1.202  -0.257  1.00  0.00    -0.300 N 
ATOM     11  H4  UNL     1       1.525   1.902  -0.419  1.00  0.00     0.171 HD
ENDROOT
BRANCH   5  12
HETATM   12  N2  UNL     1      -2.117  -1.519   0.379  1.00  0.00    -0.385 N 
ATOM     13  H22 UNL     1      -1.908  -2.504   0.544  1.00  0.00     0.157 HD
ATOM     14  H21 UNL     1      -3.101  -1.250   0.381  1.00  0.00     0.157 HD
ENDBRANCH   5  12
TORSDOF 1
