REMARK  1 active torsions:
REMARK  status: ('A' for Active; 'I' for Inactive)
REMARK       I    between atoms: C1_2  and  N2_4 
REMARK    1  A    between atoms: N2_4  and  N3_6 
ROOT
HETATM    1  N3  UNL     1       0.629  -0.236   0.479  1.00  0.00    -0.121 N 
HETATM    2  N4  UNL     1       1.255   0.902   0.772  1.00  0.00     0.009 NA
HETATM    3  N5  UNL     1       2.179   0.305   1.515  1.00  0.00    -0.231 N 
ATOM      4  H5  UNL     1       2.992   0.597   2.058  1.00  0.00     0.189 HD
HETATM    5  C2  UNL     1       1.562  -0.859   1.231  1.00  0.00     0.372 A 
HETATM    6  O2  UNL     1       1.770  -2.081   1.547  1.00  0.00    -0.242 OA
ENDROOT
BRANCH   1   7
HETATM    7  N2  UNL     1      -0.487  -0.600  -0.272  1.00  0.00    -0.230 N 
HETATM    8  C1  UNL     1      -1.248   0.375  -0.949  1.00  0.00     0.348 C 
HETATM    9  N1  UNL     1      -2.378  -0.017  -1.706  1.00  0.00    -0.038 NA
HETATM   10  O1  UNL     1      -0.920   1.592  -0.880  1.00  0.00    -0.249 OA
ATOM     11  H2  UNL     1      -0.756  -1.582  -0.333  1.00  0.00     0.193 HD
ENDBRANCH   1   7
TORSDOF 1
