REMARK  1 active torsions:
REMARK  status: ('A' for Active; 'I' for Inactive)
REMARK    1  A    between atoms: C2_9  and  N5_10 
REMARK       I    between atoms: N5_10  and  C3_12 
ROOT
HETATM    1  C1  UNL     1      -2.060   1.310  -0.081  1.00  0.00     0.199 C 
HETATM    2  N1  UNL     1      -1.460  -0.013  -0.124  1.00  0.00    -0.111 N 
HETATM    3  N2  UNL     1      -2.041  -1.176  -0.216  1.00  0.00    -0.211 N 
ATOM      4  H2  UNL     1      -3.048  -1.328  -0.273  1.00  0.00     0.210 HD
HETATM    5  N3  UNL     1      -1.126  -2.128  -0.224  1.00  0.00    -0.213 N 
ATOM      6  H3  UNL     1      -1.306  -3.130  -0.288  1.00  0.00     0.210 HD
HETATM    7  N4  UNL     1       0.047  -1.567  -0.136  1.00  0.00    -0.115 N 
ATOM      8  H4  UNL     1       0.945  -2.050  -0.119  1.00  0.00     0.207 HD
HETATM    9  C2  UNL     1      -0.141  -0.236  -0.072  1.00  0.00     0.718 A 
ENDROOT
BRANCH   9  10
HETATM   10  N5  UNL     1       0.768   0.704   0.024  1.00  0.00    -0.161 N 
HETATM   11  C3  UNL     1       2.126   0.282   0.067  1.00  0.00     0.200 C 
HETATM   12  N6  UNL     1       3.025   0.987  -0.485  1.00  0.00    -0.373 N 
HETATM   13  N7  UNL     1       2.434  -0.918   0.727  1.00  0.00    -0.063 NA
ATOM     14  H62 UNL     1       2.801   1.859  -0.965  1.00  0.00     0.158 HD
ATOM     15  H61 UNL     1       3.999   0.684  -0.454  1.00  0.00     0.158 HD
ATOM     16  H5  UNL     1       0.514   1.691   0.066  1.00  0.00     0.187 HD
ENDBRANCH   9  10
TORSDOF 1
