REMARK  2 active torsions:
REMARK  status: ('A' for Active; 'I' for Inactive)
REMARK    1  A    between atoms: C3_9  and  N5_10 
REMARK    2  A    between atoms: N5_10  and  N6_12 
ROOT
HETATM    1  C1  UNL     1       0.331   2.593  -0.149  1.00  0.00     0.199 C 
HETATM    2  N1  UNL     1      -0.067   1.181  -0.161  1.00  0.00    -0.110 N 
HETATM    3  N2  UNL     1      -1.283   0.682  -0.029  1.00  0.00    -0.210 N 
ATOM      4  H2  UNL     1      -2.125   1.243   0.102  1.00  0.00     0.211 HD
HETATM    5  N3  UNL     1      -1.268  -0.635  -0.089  1.00  0.00    -0.209 N 
HETATM    6  C2  UNL     1      -2.477  -1.435   0.029  1.00  0.00     0.202 C 
HETATM    7  N4  UNL     1      -0.027  -1.006  -0.263  1.00  0.00    -0.112 N 
ATOM      8  H4  UNL     1       0.306  -1.966  -0.348  1.00  0.00     0.207 HD
HETATM    9  C3  UNL     1       0.736   0.107  -0.311  1.00  0.00     0.729 A 
ENDROOT
BRANCH   9  10
HETATM   10  N5  UNL     1       2.003   0.179  -0.468  1.00  0.00    -0.136 N 
ATOM     11  H5  UNL     1       2.433   1.104  -0.481  1.00  0.00     0.205 HD
BRANCH  10  12
HETATM   12  N6  UNL     1       2.826  -0.925  -0.622  1.00  0.00    -0.331 N 
ATOM     13  H62 UNL     1       2.379  -1.842  -0.607  1.00  0.00     0.177 HD
ATOM     14  H61 UNL     1       3.837  -0.868  -0.747  1.00  0.00     0.177 HD
ENDBRANCH  10  12
ENDBRANCH   9  10
TORSDOF 2
