REMARK  2 active torsions:
REMARK  status: ('A' for Active; 'I' for Inactive)
REMARK    1  A    between atoms: C1_4  and  C2_5 
REMARK    2  A    between atoms: C4_11  and  N4_12 
ROOT
HETATM    1  C2  UNL     1       0.725  -0.544  -0.194  1.00  0.00     0.076 A 
HETATM    2  N2  UNL     1      -0.080  -1.621  -0.210  1.00  0.00    -0.350 N 
ATOM      3  H2  UNL     1       0.319  -2.539  -0.405  1.00  0.00     0.166 HD
HETATM    4  C3  UNL     1      -1.420  -1.513   0.029  1.00  0.00     0.182 A 
HETATM    5  N3  UNL     1      -1.978  -0.320   0.288  1.00  0.00    -0.337 N 
ATOM      6  H3  UNL     1      -2.981  -0.258   0.464  1.00  0.00     0.168 HD
HETATM    7  C4  UNL     1      -1.226   0.793   0.317  1.00  0.00     0.126 A 
HETATM    8  C5  UNL     1       0.135   0.687   0.075  1.00  0.00     0.117 A 
HETATM    9  N5  UNL     1       0.985   1.807   0.089  1.00  0.00    -0.096 NA
ENDROOT
BRANCH   1  10
HETATM   10  C1  UNL     1       2.153  -0.666  -0.449  1.00  0.00     0.112 C 
HETATM   11  N1  UNL     1       2.691  -1.809  -0.698  1.00  0.00    -0.406 N 
ATOM     12  H12 UNL     1       2.092  -2.634  -0.713  1.00  0.00     0.155 HD
ATOM     13  H11 UNL     1       3.692  -1.894  -0.877  1.00  0.00     0.155 HD
ENDBRANCH   1  10
BRANCH   7  14
HETATM   14  N4  UNL     1      -1.732   1.953   0.562  1.00  0.00    -0.384 N 
ATOM     15  H42 UNL     1      -2.733   2.031   0.740  1.00  0.00     0.157 HD
ATOM     16  H41 UNL     1      -1.161   2.798   0.584  1.00  0.00     0.157 HD
ENDBRANCH   7  14
TORSDOF 2
