REMARK  4 active torsions:
REMARK  status: ('A' for Active; 'I' for Inactive)
REMARK    1  A    between atoms: O1_2  and  C2_3 
REMARK    2  A    between atoms: C4_5  and  C5_6 
REMARK    3  A    between atoms: C5_6  and  N1_7 
REMARK    4  A    between atoms: C6_13  and  N3_14 
ROOT
HETATM    1  C2  UNL     1       1.246  -0.379   0.331  1.00  0.00     0.158 A 
HETATM    2  C3  UNL     1      -0.020  -0.539   0.860  1.00  0.00     0.083 A 
HETATM    3  C4  UNL     1      -1.062   0.277   0.452  1.00  0.00     0.056 A 
HETATM    4  N2  UNL     1      -0.762   1.213  -0.473  1.00  0.00    -0.194 N 
ATOM      5  H2  UNL     1      -1.500   1.835  -0.802  1.00  0.00     0.184 HD
HETATM    6  C6  UNL     1       0.478   1.352  -0.975  1.00  0.00     0.678 A 
HETATM    7  N4  UNL     1       1.497   0.563  -0.584  1.00  0.00    -0.171 N 
ATOM      8  H4  UNL     1       2.432   0.681  -0.974  1.00  0.00     0.186 HD
ENDROOT
BRANCH   3   9
HETATM    9  C5  UNL     1      -2.427   0.112   1.014  1.00  0.00     0.287 C 
BRANCH   9  10
HETATM   10  N1  UNL     1      -3.183  -0.824   0.209  1.00  0.00    -0.074 N 
ATOM     11  H13 UNL     1      -3.204  -0.553  -0.774  1.00  0.00     0.274 HD
ATOM     12  H12 UNL     1      -2.701  -1.717   0.107  1.00  0.00     0.274 HD
ATOM     13  H11 UNL     1      -4.120  -0.937   0.595  1.00  0.00     0.274 HD
ENDBRANCH   9  10
ENDBRANCH   3   9
BRANCH   1  14
HETATM   14  O1  UNL     1       2.235  -1.256   0.808  1.00  0.00    -0.340 OA
HETATM   15  C1  UNL     1       3.553  -1.147   0.310  1.00  0.00     0.211 C 
ENDBRANCH   1  14
BRANCH   6  16
HETATM   16  N3  UNL     1       0.742   2.255  -1.859  1.00  0.00    -0.234 N 
ATOM     17  H32 UNL     1      -0.030   2.853  -2.155  1.00  0.00     0.174 HD
ATOM     18  H31 UNL     1       1.682   2.360  -2.240  1.00  0.00     0.174 HD
ENDBRANCH   6  16
TORSDOF 4
