REMARK  2 active torsions:
REMARK  status: ('A' for Active; 'I' for Inactive)
REMARK    1  A    between atoms: C2_2  and  N1_4 
REMARK    2  A    between atoms: N1_4  and  C4_6 
ROOT
HETATM    1  C4  UNL     1       0.935   0.370   0.176  1.00  0.00     0.242 A 
HETATM    2  N2  UNL     1       1.346  -0.585  -0.696  1.00  0.00    -0.262 N 
ATOM      3  H2  UNL     1       0.723  -1.188  -1.234  1.00  0.00     0.190 HD
HETATM    4  N3  UNL     1       2.665  -0.626  -0.752  1.00  0.00    -0.262 N 
ATOM      5  H3  UNL     1       3.239  -1.246  -1.323  1.00  0.00     0.190 HD
HETATM    6  C5  UNL     1       3.094   0.323   0.103  1.00  0.00     0.239 A 
HETATM    7  N4  UNL     1       4.333   0.605   0.343  1.00  0.00    -0.364 N 
ATOM      8  H41 UNL     1       4.658   1.323   0.990  1.00  0.00     0.159 HD
ATOM      9  H42 UNL     1       5.149   0.157  -0.074  1.00  0.00     0.159 HD
HETATM   10  O1  UNL     1       2.040   0.901   0.642  1.00  0.00    -0.245 OA
ENDROOT
BRANCH   1  11
HETATM   11  N1  UNL     1      -0.399   0.727   0.518  1.00  0.00    -0.351 N 
ATOM     12  H1  UNL     1      -0.554   1.473   1.196  1.00  0.00     0.163 HD
BRANCH  11  13
HETATM   13  C2  UNL     1      -1.536   0.066  -0.066  1.00  0.00     0.076 C 
HETATM   14  C1  UNL     1      -1.517  -1.435   0.248  1.00  0.00     0.032 C 
HETATM   15  C3  UNL     1      -2.790   0.689   0.497  1.00  0.00     0.032 C 
ENDBRANCH  11  13
ENDBRANCH   1  11
TORSDOF 2
