REMARK  3 active torsions:
REMARK  status: ('A' for Active; 'I' for Inactive)
REMARK    1  A    between atoms: N1_3  and  N2_5 
REMARK    2  A    between atoms: N3_7  and  C3_9 
REMARK    3  A    between atoms: C5_15  and  N6_16 
ROOT
HETATM    1  C3  UNL     1      -1.330   0.532  -0.062  1.00  0.00     0.111 A 
HETATM    2  C4  UNL     1      -2.068   1.684   0.051  1.00  0.00     0.142 A 
HETATM    3  N4  UNL     1      -3.324   1.380  -0.307  1.00  0.00    -0.308 N 
ATOM      4  H4  UNL     1      -4.096   2.047  -0.319  1.00  0.00     0.186 HD
HETATM    5  N5  UNL     1      -3.432   0.124  -0.637  1.00  0.00    -0.284 N 
ATOM      6  H5  UNL     1      -4.283  -0.347  -0.944  1.00  0.00     0.188 HD
HETATM    7  C5  UNL     1      -2.198  -0.447  -0.497  1.00  0.00     0.143 A 
ENDROOT
BRANCH   1   8
HETATM    8  N3  UNL     1       0.057   0.448   0.231  1.00  0.00    -0.281 N 
HETATM    9  N2  UNL     1       0.542  -0.473   0.949  1.00  0.00    -0.243 N 
ATOM     10  H2  UNL     1      -0.055  -1.197   1.348  1.00  0.00     0.208 HD
ATOM     11  H3  UNL     1       0.684   1.156  -0.151  1.00  0.00     0.188 HD
BRANCH   9  12
HETATM   12  N1  UNL     1       1.919  -0.469   1.180  1.00  0.00    -0.302 N 
HETATM   13  C2  UNL     1       2.687  -0.051   0.235  1.00  0.00     0.077 C 
HETATM   14  C1  UNL     1       4.176  -0.015   0.403  1.00  0.00     0.056 C 
ATOM     15  H1  UNL     1       2.304  -0.787   2.069  1.00  0.00     0.187 HD
ENDBRANCH   9  12
ENDBRANCH   1   8
BRANCH   7  16
HETATM   16  N6  UNL     1      -1.901  -1.680  -0.730  1.00  0.00    -0.383 N 
ATOM     17  H62 UNL     1      -0.980  -2.106  -0.626  1.00  0.00     0.157 HD
ATOM     18  H61 UNL     1      -2.543  -2.404  -1.052  1.00  0.00     0.157 HD
ENDBRANCH   7  16
TORSDOF 3
