REMARK  1 active torsions:
REMARK  status: ('A' for Active; 'I' for Inactive)
REMARK    1  A    between atoms: C1_4  and  C2_5 
ROOT
HETATM    1  C2  UNL     1       1.509   0.329  -0.001  1.00  0.00     0.024 A 
HETATM    2  C3  UNL     1       0.478   1.241  -0.068  1.00  0.00     0.046 A 
HETATM    3  C4  UNL     1      -0.845   0.838  -0.065  1.00  0.00     0.088 A 
HETATM    4  N2  UNL     1      -1.925   1.754  -0.134  1.00  0.00    -0.099 NA
HETATM    5  C5  UNL     1      -1.163  -0.503   0.007  1.00  0.00     0.142 A 
HETATM    6  N3  UNL     1      -2.529  -0.940   0.012  1.00  0.00    -0.081 NA
HETATM    7  N4  UNL     1      -0.145  -1.376   0.073  1.00  0.00    -0.329 N 
ATOM      8  H4  UNL     1      -0.364  -2.371   0.128  1.00  0.00     0.168 HD
HETATM    9  C6  UNL     1       1.154  -1.007   0.071  1.00  0.00     0.111 A 
HETATM   10  N5  UNL     1       2.123  -1.860   0.134  1.00  0.00    -0.385 N 
ATOM     11  H51 UNL     1       1.861  -2.844   0.187  1.00  0.00     0.157 HD
ATOM     12  H52 UNL     1       3.104  -1.581   0.132  1.00  0.00     0.157 HD
ENDROOT
BRANCH   1  13
HETATM   13  C1  UNL     1       2.897   0.765  -0.005  1.00  0.00     0.095 C 
HETATM   14  N1  UNL     1       3.894  -0.041   0.056  1.00  0.00    -0.407 N 
ATOM     15  H12 UNL     1       3.684  -1.038   0.110  1.00  0.00     0.155 HD
ATOM     16  H11 UNL     1       4.867   0.265   0.053  1.00  0.00     0.155 HD
ENDBRANCH   1  13
TORSDOF 1
