REMARK  4 active torsions:
REMARK  status: ('A' for Active; 'I' for Inactive)
REMARK    1  A    between atoms: N1_1  and  N2_4 
REMARK    2  A    between atoms: N2_4  and  C1_6 
REMARK    3  A    between atoms: C4_9  and  O1_10 
REMARK    4  A    between atoms: O1_10  and  N3_11 
ROOT
HETATM    1  C1  UNL     1       1.121  -0.424   0.335  1.00  0.00     0.047 A 
HETATM    2  C2  UNL     1       0.669   0.890   0.350  1.00  0.00     0.034 A 
HETATM    3  C3  UNL     1      -0.690   1.162   0.397  1.00  0.00     0.041 A 
HETATM    4  C4  UNL     1      -1.570   0.115   0.429  1.00  0.00     0.098 A 
HETATM    5  C5  UNL     1      -1.130  -1.202   0.415  1.00  0.00     0.041 A 
HETATM    6  C6  UNL     1       0.227  -1.466   0.368  1.00  0.00     0.034 A 
ENDROOT
BRANCH   1   7
HETATM    7  N2  UNL     1       2.515  -0.662   0.287  1.00  0.00    -0.307 N 
ATOM      8  H2  UNL     1       2.830  -1.632   0.276  1.00  0.00     0.186 HD
BRANCH   7   9
HETATM    9  N1  UNL     1       3.476   0.323   0.254  1.00  0.00    -0.345 N 
ATOM     10  H12 UNL     1       3.143   1.287   0.266  1.00  0.00     0.176 HD
ATOM     11  H11 UNL     1       4.481   0.151   0.219  1.00  0.00     0.176 HD
ENDBRANCH   7   9
ENDBRANCH   1   7
BRANCH   4  12
HETATM   12  O1  UNL     1      -2.919   0.357   0.476  1.00  0.00    -0.245 OA
BRANCH  12  13
HETATM   13  N3  UNL     1      -3.631   0.476  -0.680  1.00  0.00    -0.305 N 
ATOM     14  H32 UNL     1      -3.145   0.382  -1.572  1.00  0.00     0.184 HD
ATOM     15  H31 UNL     1      -4.634   0.656  -0.645  1.00  0.00     0.184 HD
ENDBRANCH  12  13
ENDBRANCH   4  12
TORSDOF 4
