REMARK  2 active torsions:
REMARK  status: ('A' for Active; 'I' for Inactive)
REMARK    1  A    between atoms: N1_1  and  N2_4 
REMARK    2  A    between atoms: N2_4  and  C1_6 
ROOT
HETATM    1  C1  UNL     1       1.125  -0.451   0.249  1.00  0.00     0.049 A 
HETATM    2  C2  UNL     1       1.106   0.928   0.234  1.00  0.00     0.033 A 
HETATM    3  C3  UNL     1      -0.117   1.552   0.146  1.00  0.00     0.031 A 
HETATM    4  C4  UNL     1      -1.287   0.823   0.075  1.00  0.00     0.070 A 
HETATM    5  N3  UNL     1      -2.540   1.500  -0.015  1.00  0.00    -0.100 NA
HETATM    6  C5  UNL     1      -1.286  -0.562   0.089  1.00  0.00     0.072 A 
HETATM    7  N4  UNL     1      -2.487  -1.326   0.017  1.00  0.00    -0.100 NA
HETATM    8  C6  UNL     1      -0.050  -1.170   0.178  1.00  0.00     0.059 A 
ENDROOT
BRANCH   1   9
HETATM    9  N2  UNL     1       2.370  -1.138   0.339  1.00  0.00    -0.307 N 
ATOM     10  H2  UNL     1       2.387  -2.158   0.350  1.00  0.00     0.186 HD
BRANCH   9  11
HETATM   11  N1  UNL     1       3.568  -0.421   0.412  1.00  0.00    -0.345 N 
ATOM     12  H12 UNL     1       3.533   0.598   0.400  1.00  0.00     0.176 HD
ATOM     13  H11 UNL     1       4.459  -0.913   0.476  1.00  0.00     0.176 HD
ENDBRANCH   9  11
ENDBRANCH   1   9
TORSDOF 2
