REMARK  15 active torsions:
REMARK  status: ('A' for Active; 'I' for Inactive)
REMARK    1  A    between atoms: C2_2  and  C3_3 
REMARK    2  A    between atoms: C3_3  and  C4_4 
REMARK    3  A    between atoms: C4_4  and  C5_5 
REMARK    4  A    between atoms: C5_5  and  C6_6 
REMARK    5  A    between atoms: C6_6  and  C7_7 
REMARK    6  A    between atoms: C7_7  and  N1_8 
REMARK    7  A    between atoms: C9_11  and  C10_12 
REMARK    8  A    between atoms: C10_12  and  C11_13 
REMARK    9  A    between atoms: C11_13  and  C12_14 
REMARK   10  A    between atoms: C12_14  and  C13_15 
REMARK   11  A    between atoms: C17_21  and  C18_22 
REMARK   12  A    between atoms: C18_22  and  C19_23 
REMARK   13  A    between atoms: C23_30  and  C24_31 
REMARK   14  A    between atoms: C31_44  and  C32_45 
REMARK   15  A    between atoms: C32_45  and  C33_46 
ROOT
HETATM    1  N1  UNL     1       1.964  -0.382   0.037  1.00  0.00    -0.337 N 
HETATM    2  C8  UNL     1       1.612   0.988   0.020  1.00  0.00     0.243 C 
HETATM    3  O1  UNL     1       2.565   1.851   0.083  1.00  0.00    -0.271 OA
HETATM    4  C9  UNL     1       0.232   1.565  -0.062  1.00  0.00     0.179 C 
HETATM    5  N2  UNL     1      -0.330   1.797   1.261  1.00  0.00    -0.341 N 
HETATM    6  C15 UNL     1       0.489   2.718   2.083  1.00  0.00     0.153 C 
HETATM    7  C16 UNL     1      -1.512   1.233   1.780  1.00  0.00     0.243 C 
HETATM    8  O2  UNL     1      -1.337   0.648   2.918  1.00  0.00    -0.271 OA
HETATM    9  C17 UNL     1      -2.877   1.207   1.247  1.00  0.00     0.177 C 
HETATM   10  N3  UNL     1      -3.121   0.319   0.151  1.00  0.00    -0.346 N 
ATOM     11  H3  UNL     1      -2.805   0.640  -0.764  1.00  0.00     0.163 HD
HETATM   12  C22 UNL     1      -3.746  -0.948   0.181  1.00  0.00     0.241 C 
HETATM   13  O3  UNL     1      -4.056  -1.400  -0.982  1.00  0.00    -0.271 OA
HETATM   14  C23 UNL     1      -4.055  -1.749   1.392  1.00  0.00     0.180 C 
HETATM   15  N4  UNL     1      -2.963  -2.542   1.879  1.00  0.00    -0.346 N 
ATOM     16  H4  UNL     1      -2.806  -2.476   2.885  1.00  0.00     0.163 HD
HETATM   17  C27 UNL     1      -2.084  -3.384   1.212  1.00  0.00     0.240 C 
HETATM   18  O4  UNL     1      -1.952  -4.585   1.652  1.00  0.00    -0.271 OA
HETATM   19  C28 UNL     1      -1.230  -3.139   0.029  1.00  0.00     0.172 C 
HETATM   20  C29 UNL     1      -1.513  -4.197  -1.053  1.00  0.00     0.042 C 
HETATM   21  N5  UNL     1       0.191  -3.261   0.372  1.00  0.00    -0.346 N 
ATOM     22  H5  UNL     1       0.434  -3.802   1.202  1.00  0.00     0.163 HD
HETATM   23  C30 UNL     1       1.250  -2.680  -0.368  1.00  0.00     0.241 C 
HETATM   24  O5  UNL     1       2.234  -3.477  -0.567  1.00  0.00    -0.271 OA
HETATM   25  C31 UNL     1       1.300  -1.309  -0.894  1.00  0.00     0.179 C 
ENDROOT
BRANCH   1  26
HETATM   26  C7  UNL     1       2.969  -0.836   0.963  1.00  0.00     0.127 C 
BRANCH  26  27
HETATM   27  C6  UNL     1       4.383  -0.789   0.427  1.00  0.00     0.020 C 
BRANCH  27  28
HETATM   28  C5  UNL     1       5.239  -1.304   1.601  1.00  0.00     0.002 C 
BRANCH  28  29
HETATM   29  C4  UNL     1       6.695  -1.319   1.227  1.00  0.00     0.000 C 
BRANCH  29  30
HETATM   30  C3  UNL     1       7.471  -1.828   2.414  1.00  0.00    -0.000 C 
BRANCH  30  31
HETATM   31  C2  UNL     1       7.301  -0.976   3.632  1.00  0.00    -0.005 C 
HETATM   32  C1  UNL     1       7.748   0.447   3.445  1.00  0.00     0.005 C 
ENDBRANCH  30  31
ENDBRANCH  29  30
ENDBRANCH  28  29
ENDBRANCH  27  28
ENDBRANCH  26  27
ENDBRANCH   1  26
BRANCH  25  33
HETATM   33  C32 UNL     1       1.909  -1.214  -2.260  1.00  0.00     0.039 C 
BRANCH  33  34
HETATM   34  C33 UNL     1       1.327  -2.090  -3.295  1.00  0.00    -0.020 C 
HETATM   35  C34 UNL     1       2.094  -1.846  -4.604  1.00  0.00     0.009 C 
HETATM   36  C35 UNL     1      -0.108  -1.655  -3.634  1.00  0.00     0.009 C 
ENDBRANCH  33  34
ENDBRANCH  25  33
BRANCH   4  37
HETATM   37  C10 UNL     1       0.334   2.897  -0.775  1.00  0.00     0.035 C 
BRANCH  37  38
HETATM   38  C11 UNL     1       0.874   2.751  -2.178  1.00  0.00     0.002 C 
BRANCH  38  39
HETATM   39  C12 UNL     1       1.009   4.056  -2.914  1.00  0.00    -0.000 C 
BRANCH  39  40
HETATM   40  C13 UNL     1      -0.327   4.739  -3.051  1.00  0.00    -0.005 C 
HETATM   41  C14 UNL     1      -0.096   6.030  -3.822  1.00  0.00     0.005 C 
ENDBRANCH  39  40
ENDBRANCH  38  39
ENDBRANCH  37  38
ENDBRANCH   4  37
BRANCH   9  42
HETATM   42  C18 UNL     1      -3.399   2.615   0.912  1.00  0.00     0.038 C 
BRANCH  42  43
HETATM   43  C19 UNL     1      -4.786   2.609   0.383  1.00  0.00    -0.020 C 
HETATM   44  C20 UNL     1      -5.707   2.008   1.426  1.00  0.00     0.009 C 
HETATM   45  C21 UNL     1      -5.195   4.076   0.246  1.00  0.00     0.009 C 
ENDBRANCH  42  43
ENDBRANCH   9  42
BRANCH  14  46
HETATM   46  C24 UNL     1      -5.349  -2.518   1.239  1.00  0.00     0.009 C 
HETATM   47  C25 UNL     1      -5.397  -3.490   0.116  1.00  0.00     0.012 C 
HETATM   48  C26 UNL     1      -5.740  -3.228   2.507  1.00  0.00     0.012 C 
ENDBRANCH  14  46
TORSDOF 15
