REMARK  17 active torsions:
REMARK  status: ('A' for Active; 'I' for Inactive)
REMARK    1  A    between atoms: C2_2  and  C3_3 
REMARK    2  A    between atoms: C3_3  and  C4_4 
REMARK    3  A    between atoms: C4_4  and  C5_5 
REMARK    4  A    between atoms: C5_5  and  C6_6 
REMARK    5  A    between atoms: C6_6  and  C7_7 
REMARK    6  A    between atoms: C6_6  and  N3_32 
REMARK    7  A    between atoms: C7_7  and  C8_8 
REMARK    8  A    between atoms: C8_8  and  C9_9 
REMARK       I    between atoms: C9_9  and  N1_11 
REMARK    9  A    between atoms: N1_11  and  C10_13 
REMARK   10  A    between atoms: C10_13  and  C11_14 
REMARK   11  A    between atoms: C10_13  and  C20_28 
REMARK       I    between atoms: C11_14  and  N2_16 
REMARK   12  A    between atoms: N2_16  and  C12_18 
REMARK   13  A    between atoms: C12_18  and  C13_19 
REMARK   14  A    between atoms: C13_19  and  O4_21 
REMARK   15  A    between atoms: O4_21  and  C14_22 
REMARK       I    between atoms: N3_32  and  C24_34 
REMARK   16  A    between atoms: C24_34  and  C25_36 
REMARK   17  A    between atoms: C25_36  and  N4_37 
REMARK       I    between atoms: N4_37  and  C26_39 
REMARK       I    between atoms: C26_39  and  N5_41 
ROOT
HETATM    1  C7  UNL     1       1.156  -4.138   0.246  1.00  0.00     0.034 C 
ENDROOT
BRANCH   1   2
HETATM    2  C6  UNL     1       1.155  -3.715  -1.270  1.00  0.00     0.084 C 
BRANCH   2   3
HETATM    3  C5  UNL     1       1.050  -5.013  -1.986  1.00  0.00     0.025 C 
BRANCH   3   4
HETATM    4  C4  UNL     1       0.974  -5.062  -3.451  1.00  0.00     0.002 C 
BRANCH   4   5
HETATM    5  C3  UNL     1      -0.175  -4.482  -4.149  1.00  0.00    -0.000 C 
BRANCH   5   6
HETATM    6  C2  UNL     1      -0.481  -3.042  -4.068  1.00  0.00    -0.005 C 
HETATM    7  C1  UNL     1       0.557  -2.096  -4.566  1.00  0.00     0.005 C 
ENDBRANCH   5   6
ENDBRANCH   4   5
ENDBRANCH   3   4
ENDBRANCH   2   3
BRANCH   2   8
HETATM    8  N3  UNL     1       2.499  -3.196  -1.538  1.00  0.00    -0.355 N 
HETATM    9  C24 UNL     1       3.004  -1.918  -1.512  1.00  0.00     0.235 C 
HETATM   10  O5  UNL     1       2.375  -0.896  -1.229  1.00  0.00    -0.272 OA
ATOM     11  H3  UNL     1       3.182  -3.911  -1.789  1.00  0.00     0.162 HD
BRANCH   9  12
HETATM   12  C25 UNL     1       4.466  -1.749  -1.854  1.00  0.00     0.227 C 
BRANCH  12  13
HETATM   13  N4  UNL     1       4.923  -0.376  -1.581  1.00  0.00    -0.334 N 
HETATM   14  C26 UNL     1       4.939   0.089  -0.266  1.00  0.00     0.318 C 
HETATM   15  O6  UNL     1       4.552  -0.714   0.655  1.00  0.00    -0.247 OA
HETATM   16  N5  UNL     1       5.356   1.381   0.165  1.00  0.00    -0.334 N 
HETATM   17  C27 UNL     1       5.680   2.379  -0.777  1.00  0.00     0.127 C 
HETATM   18  C34 UNL     1       5.463   1.472   1.629  1.00  0.00     0.136 C 
HETATM   19  C28 UNL     1       5.116   3.741  -0.588  1.00  0.00     0.020 C 
HETATM   20  C29 UNL     1       4.296   3.997   0.611  1.00  0.00     0.002 C 
HETATM   21  C30 UNL     1       4.955   3.877   1.928  1.00  0.00     0.010 C 
HETATM   22  C31 UNL     1       5.977   2.789   2.068  1.00  0.00    -0.031 C 
HETATM   23  C32 UNL     1       6.051   2.613   3.630  1.00  0.00     0.016 C 
HETATM   24  C33 UNL     1       7.366   3.136   1.691  1.00  0.00     0.016 C 
ATOM     25  H4  UNL     1       5.225   0.228  -2.345  1.00  0.00     0.164 HD
ENDBRANCH  12  13
ENDBRANCH   9  12
ENDBRANCH   2   8
ENDBRANCH   1   2
BRANCH   1  26
HETATM   26  C8  UNL     1       1.137  -2.909   1.139  1.00  0.00     0.105 C 
BRANCH  26  27
HETATM   27  C9  UNL     1      -0.108  -2.155   0.947  1.00  0.00     0.218 C 
HETATM   28  O1  UNL     1      -1.086  -2.807   0.427  1.00  0.00    -0.274 OA
HETATM   29  N1  UNL     1      -0.385  -0.801   1.244  1.00  0.00    -0.347 N 
ATOM     30  H1  UNL     1       0.331  -0.212   1.668  1.00  0.00     0.163 HD
BRANCH  29  31
HETATM   31  C10 UNL     1      -1.692  -0.256   0.942  1.00  0.00     0.181 C 
BRANCH  31  32
HETATM   32  C11 UNL     1      -2.481   0.139   2.134  1.00  0.00     0.241 C 
HETATM   33  O2  UNL     1      -1.907   0.133   3.248  1.00  0.00    -0.271 OA
HETATM   34  N2  UNL     1      -3.828   0.507   2.053  1.00  0.00    -0.341 N 
ATOM     35  H2  UNL     1      -4.234   0.495   1.117  1.00  0.00     0.163 HD
BRANCH  34  36
HETATM   36  C12 UNL     1      -4.716   0.900   3.111  1.00  0.00     0.121 A 
HETATM   37  C18 UNL     1      -4.649   0.065   4.410  1.00  0.00     0.044 A 
HETATM   38  C19 UNL     1      -4.292   1.517   4.369  1.00  0.00     0.044 A 
BRANCH  36  39
HETATM   39  C13 UNL     1      -6.155   1.166   2.669  1.00  0.00     0.288 C 
HETATM   40  O3  UNL     1      -7.022   1.493   3.475  1.00  0.00    -0.262 OA
BRANCH  39  41
HETATM   41  O4  UNL     1      -6.472   1.027   1.325  1.00  0.00    -0.309 OA
BRANCH  41  42
HETATM   42  C14 UNL     1      -7.717   1.209   0.738  1.00  0.00     0.060 C 
HETATM   43  C15 UNL     1      -8.775   0.269   1.285  1.00  0.00     0.045 C 
HETATM   44  C16 UNL     1      -7.553   0.881  -0.753  1.00  0.00     0.045 C 
HETATM   45  C17 UNL     1      -8.238   2.621   0.800  1.00  0.00     0.045 C 
ENDBRANCH  41  42
ENDBRANCH  39  41
ENDBRANCH  36  39
ENDBRANCH  34  36
ENDBRANCH  31  32
BRANCH  31  46
HETATM   46  C20 UNL     1      -1.650   0.901  -0.017  1.00  0.00     0.021 A 
HETATM   47  C21 UNL     1      -1.093   0.778  -1.384  1.00  0.00     0.012 A 
HETATM   48  C22 UNL     1      -2.555   0.732  -1.242  1.00  0.00    -0.012 A 
HETATM   49  C23 UNL     1      -3.438   1.910  -1.549  1.00  0.00     0.010 C 
ENDBRANCH  31  46
ENDBRANCH  29  31
ENDBRANCH  26  27
ENDBRANCH   1  26
TORSDOF 17
