REMARK  19 active torsions:
REMARK  status: ('A' for Active; 'I' for Inactive)
REMARK    1  A    between atoms: C2_2  and  C3_3 
REMARK    2  A    between atoms: C3_3  and  C4_4 
REMARK    3  A    between atoms: C4_4  and  C5_5 
REMARK    4  A    between atoms: C5_5  and  C6_6 
REMARK    5  A    between atoms: C6_6  and  C7_7 
REMARK    6  A    between atoms: C7_7  and  C8_8 
REMARK    7  A    between atoms: C8_8  and  C9_9 
REMARK    8  A    between atoms: C9_9  and  C10_10 
REMARK    9  A    between atoms: C10_10  and  N1_11 
REMARK       I    between atoms: N1_11  and  C11_12 
REMARK   10  A    between atoms: C11_12  and  C12_14 
REMARK   11  A    between atoms: C12_14  and  N2_15 
REMARK   12  A    between atoms: C12_14  and  N6_33 
REMARK   13  A    between atoms: N3_21  and  C17_22 
REMARK   14  A    between atoms: C17_22  and  C18_23 
REMARK       I    between atoms: C18_23  and  N4_25 
REMARK   15  A    between atoms: N6_33  and  C24_35 
REMARK   16  A    between atoms: C24_35  and  C25_36 
REMARK   17  A    between atoms: C24_35  and  N8_42 
REMARK   18  A    between atoms: C25_36  and  C26_37 
REMARK   19  A    between atoms: C26_37  and  N7_38 
REMARK       I    between atoms: N8_42  and  C27_43 
REMARK       I    between atoms: C27_43  and  N9_45 
ROOT
HETATM    1  C12 UNL     1       0.396  -0.588  -0.666  1.00  0.00     0.294 C 
ENDROOT
BRANCH   1   2
HETATM    2  C11 UNL     1       1.166  -0.605  -1.970  1.00  0.00     0.329 C 
HETATM    3  N1  UNL     1       2.353   0.013  -2.094  1.00  0.00    -0.412 NA
HETATM    4  O1  UNL     1       0.594  -1.257  -2.911  1.00  0.00    -0.253 OA
BRANCH   3   5
HETATM    5  C10 UNL     1       3.592   0.656  -2.225  1.00  0.00     0.221 C 
BRANCH   5   6
HETATM    6  C9  UNL     1       4.617  -0.414  -2.652  1.00  0.00     0.033 C 
BRANCH   6   7
HETATM    7  C8  UNL     1       4.683  -1.475  -1.621  1.00  0.00     0.002 C 
BRANCH   7   8
HETATM    8  C7  UNL     1       5.244  -1.000  -0.322  1.00  0.00     0.000 C 
BRANCH   8   9
HETATM    9  C6  UNL     1       6.683  -0.539  -0.479  1.00  0.00     0.000 C 
BRANCH   9  10
HETATM   10  C5  UNL     1       7.245  -0.137   0.837  1.00  0.00     0.000 C 
BRANCH  10  11
HETATM   11  C4  UNL     1       6.611   1.014   1.528  1.00  0.00     0.000 C 
BRANCH  11  12
HETATM   12  C3  UNL     1       6.682   2.294   0.718  1.00  0.00    -0.000 C 
BRANCH  12  13
HETATM   13  C2  UNL     1       8.110   2.650   0.377  1.00  0.00    -0.005 C 
HETATM   14  C1  UNL     1       8.994   2.845   1.582  1.00  0.00     0.005 C 
ENDBRANCH  12  13
ENDBRANCH  11  12
ENDBRANCH  10  11
ENDBRANCH   9  10
ENDBRANCH   8   9
ENDBRANCH   7   8
ENDBRANCH   6   7
ENDBRANCH   5   6
ENDBRANCH   3   5
ENDBRANCH   1   2
BRANCH   1  15
HETATM   15  N2  UNL     1      -0.169   0.669  -0.352  1.00  0.00    -0.345 N 
HETATM   16  C13 UNL     1      -1.015   1.396  -0.975  1.00  0.00     0.119 A 
HETATM   17  C14 UNL     1      -1.663   1.184  -2.184  1.00  0.00     0.075 A 
HETATM   18  N5  UNL     1      -1.474   2.621  -0.545  1.00  0.00    -0.283 N 
HETATM   19  C15 UNL     1      -2.467   2.277  -2.414  1.00  0.00     0.029 A 
HETATM   20  C16 UNL     1      -3.348   2.477  -3.605  1.00  0.00     0.070 C 
HETATM   21  N3  UNL     1      -2.324   3.134  -1.389  1.00  0.00    -0.286 N 
ATOM     22  H5  UNL     1      -1.185   3.070   0.324  1.00  0.00     0.189 HD
ATOM     23  H2  UNL     1       0.157   1.067   0.529  1.00  0.00     0.163 HD
BRANCH  21  24
HETATM   24  C17 UNL     1      -2.986   4.422  -1.220  1.00  0.00     0.251 C 
BRANCH  24  25
HETATM   25  C18 UNL     1      -4.284   4.343  -0.560  1.00  0.00     0.239 C 
HETATM   26  O2  UNL     1      -5.281   4.063  -1.280  1.00  0.00    -0.271 OA
HETATM   27  N4  UNL     1      -4.530   4.554   0.817  1.00  0.00    -0.351 N 
HETATM   28  C19 UNL     1      -3.537   4.903   1.804  1.00  0.00     0.126 C 
HETATM   29  C23 UNL     1      -5.900   4.421   1.349  1.00  0.00     0.126 C 
HETATM   30  C20 UNL     1      -3.753   6.385   2.109  1.00  0.00     0.020 C 
HETATM   31  C21 UNL     1      -5.169   6.750   1.690  1.00  0.00     0.003 C 
HETATM   32  C22 UNL     1      -6.173   5.689   2.104  1.00  0.00     0.020 C 
ENDBRANCH  24  25
ENDBRANCH  21  24
ENDBRANCH   1  15
BRANCH   1  33
HETATM   33  N6  UNL     1      -0.589  -1.646  -0.781  1.00  0.00    -0.338 N 
ATOM     34  H6  UNL     1      -0.803  -2.067  -1.685  1.00  0.00     0.164 HD
BRANCH  33  35
HETATM   35  C24 UNL     1      -1.260  -2.088   0.423  1.00  0.00     0.160 C 
BRANCH  35  36
HETATM   36  C25 UNL     1      -0.508  -2.025   1.730  1.00  0.00     0.119 C 
BRANCH  36  37
HETATM   37  C26 UNL     1       0.568  -3.089   1.754  1.00  0.00     0.238 C 
BRANCH  37  38
HETATM   38  N7  UNL     1       1.316  -3.059   2.985  1.00  0.00    -0.079 N 
ATOM     39  H73 UNL     1       1.704  -2.133   3.163  1.00  0.00     0.274 HD
ATOM     40  H72 UNL     1       0.702  -3.132   3.796  1.00  0.00     0.274 HD
ATOM     41  H71 UNL     1       2.041  -3.776   3.001  1.00  0.00     0.274 HD
ENDBRANCH  37  38
ENDBRANCH  36  37
ENDBRANCH  35  36
BRANCH  35  42
HETATM   42  N8  UNL     1      -2.378  -2.530   0.405  1.00  0.00    -0.338 NA
HETATM   43  C27 UNL     1      -3.560  -3.036   0.646  1.00  0.00     0.397 C 
HETATM   44  O3  UNL     1      -4.523  -2.430   1.256  1.00  0.00    -0.230 OA
HETATM   45  N9  UNL     1      -3.881  -4.390   0.218  1.00  0.00    -0.322 N 
HETATM   46  C28 UNL     1      -5.183  -4.883   0.532  1.00  0.00     0.129 C 
HETATM   47  C33 UNL     1      -2.812  -5.067  -0.492  1.00  0.00     0.129 C 
HETATM   48  C29 UNL     1      -5.377  -6.263  -0.064  1.00  0.00     0.020 C 
HETATM   49  C30 UNL     1      -4.431  -7.284   0.498  1.00  0.00     0.002 C 
HETATM   50  C31 UNL     1      -3.306  -6.676   1.283  1.00  0.00     0.002 C 
HETATM   51  C32 UNL     1      -2.250  -6.180   0.337  1.00  0.00     0.020 C 
ENDBRANCH  35  42
ENDBRANCH  33  35
ENDBRANCH   1  33
TORSDOF 19
