REMARK  20 active torsions:
REMARK  status: ('A' for Active; 'I' for Inactive)
REMARK    1  A    between atoms: C2_2  and  C3_3 
REMARK    2  A    between atoms: C3_3  and  C4_4 
REMARK       I    between atoms: N1_7  and  C7_8 
REMARK    3  A    between atoms: C7_8  and  C8_10 
REMARK    4  A    between atoms: C8_10  and  N2_11 
REMARK    5  A    between atoms: C8_10  and  C24_36 
REMARK    6  A    between atoms: N2_11  and  C9_13 
REMARK    7  A    between atoms: C9_13  and  C10_14 
REMARK    8  A    between atoms: C9_13  and  C12_16 
REMARK    9  A    between atoms: C12_16  and  O2_17 
REMARK   10  A    between atoms: N3_19  and  C13_21 
REMARK   11  A    between atoms: C13_21  and  O3_22 
REMARK   12  A    between atoms: C13_21  and  N4_24 
REMARK   13  A    between atoms: N4_24  and  C14_26 
REMARK   14  A    between atoms: C24_36  and  C25_37 
REMARK   15  A    between atoms: C24_36  and  N5_45 
REMARK   16  A    between atoms: C25_37  and  C26_38 
REMARK   17  A    between atoms: C26_38  and  C27_39 
REMARK   18  A    between atoms: C27_39  and  C28_40 
REMARK   19  A    between atoms: C28_40  and  C29_41 
REMARK   20  A    between atoms: C29_41  and  C30_42 
ROOT
HETATM    1  C8  UNL     1      -1.337  -0.191  -0.727  1.00  0.00     0.120 C 
ENDROOT
BRANCH   1   2
HETATM    2  C7  UNL     1      -1.336  -1.578  -0.226  1.00  0.00     0.272 C 
HETATM    3  N1  UNL     1      -2.107  -2.645  -0.836  1.00  0.00    -0.346 N 
HETATM    4  C6  UNL     1      -2.890  -2.518  -2.027  1.00  0.00     0.126 C 
HETATM    5  C35 UNL     1      -2.247  -4.019  -0.363  1.00  0.00     0.130 C 
HETATM    6  C5  UNL     1      -4.190  -3.209  -1.568  1.00  0.00     0.026 C 
HETATM    7  C4  UNL     1      -3.659  -4.379  -0.750  1.00  0.00     0.005 C 
HETATM    8  O1  UNL     1      -0.683  -2.009   0.763  1.00  0.00    -0.266 OA
BRANCH   7   9
HETATM    9  C3  UNL     1      -4.475  -4.579   0.490  1.00  0.00     0.006 C 
BRANCH   9  10
HETATM   10  C2  UNL     1      -5.929  -4.873   0.182  1.00  0.00    -0.004 C 
HETATM   11  C1  UNL     1      -6.037  -6.120  -0.641  1.00  0.00     0.005 C 
ENDBRANCH   9  10
ENDBRANCH   7   9
ENDBRANCH   1   2
BRANCH   1  12
HETATM   12  N2  UNL     1      -0.131   0.497  -0.767  1.00  0.00    -0.372 N 
ATOM     13  H2  UNL     1       0.190   0.673  -1.719  1.00  0.00     0.160 HD
BRANCH  12  14
HETATM   14  C9  UNL     1       0.728   0.995   0.182  1.00  0.00     0.156 C 
BRANCH  14  15
HETATM   15  C10 UNL     1       1.394   0.281   1.254  1.00  0.00     0.029 C 
HETATM   16  C11 UNL     1       2.207   1.326   2.068  1.00  0.00     0.007 C 
ENDBRANCH  14  15
BRANCH  14  17
HETATM   17  C12 UNL     1       1.758   1.765  -0.635  1.00  0.00     0.141 C 
HETATM   18  N3  UNL     1       3.073   1.877  -0.854  1.00  0.00    -0.305 N 
ATOM     19  H3  UNL     1       3.207   2.750  -1.364  1.00  0.00     0.171 HD
BRANCH  17  20
HETATM   20  O2  UNL     1       1.084   2.659  -1.437  1.00  0.00    -0.348 OA
ATOM     21  H2  UNL     1       1.726   3.139  -1.946  1.00  0.00     0.219 HD
ENDBRANCH  17  20
BRANCH  18  22
HETATM   22  C13 UNL     1       4.341   1.318  -0.688  1.00  0.00     0.219 C 
BRANCH  22  23
HETATM   23  O3  UNL     1       5.328   2.000  -1.296  1.00  0.00    -0.332 OA
ATOM     24  H3  UNL     1       6.191   1.619  -1.183  1.00  0.00     0.220 HD
ENDBRANCH  22  23
BRANCH  22  25
HETATM   25  N4  UNL     1       4.859   0.203  -0.043  1.00  0.00    -0.347 N 
ATOM     26  H4  UNL     1       4.207  -0.398   0.461  1.00  0.00     0.163 HD
BRANCH  25  27
HETATM   27  C14 UNL     1       6.273  -0.171  -0.035  1.00  0.00     0.034 C 
HETATM   28  C15 UNL     1       6.769  -0.467  -1.405  1.00  0.00     0.035 C 
HETATM   29  C16 UNL     1       8.238  -0.878  -1.345  1.00  0.00    -0.012 C 
HETATM   30  C17 UNL     1       8.340  -2.146  -0.563  1.00  0.00     0.009 C 
HETATM   31  C21 UNL     1       9.030   0.212  -0.686  1.00  0.00     0.009 C 
HETATM   32  C18 UNL     1       7.810  -1.867   0.837  1.00  0.00    -0.012 C 
HETATM   33  C19 UNL     1       8.666  -0.825   1.507  1.00  0.00     0.009 C 
HETATM   34  C23 UNL     1       6.370  -1.488   0.753  1.00  0.00     0.035 C 
HETATM   35  C20 UNL     1       8.546   0.456   0.710  1.00  0.00    -0.012 C 
HETATM   36  C22 UNL     1       7.072   0.826   0.736  1.00  0.00     0.035 C 
ENDBRANCH  25  27
ENDBRANCH  22  25
ENDBRANCH  18  22
ENDBRANCH  14  17
ENDBRANCH  12  14
ENDBRANCH   1  12
BRANCH   1  37
HETATM   37  C24 UNL     1      -2.577   0.605  -0.375  1.00  0.00     0.039 C 
BRANCH  37  38
HETATM   38  C25 UNL     1      -2.513   2.020  -0.935  1.00  0.00     0.059 C 
BRANCH  38  39
HETATM   39  C26 UNL     1      -3.787   2.783  -0.619  1.00  0.00     0.006 C 
BRANCH  39  40
HETATM   40  C27 UNL     1      -3.740   4.189  -1.161  1.00  0.00     0.001 C 
BRANCH  40  41
HETATM   41  C28 UNL     1      -5.062   4.844  -0.788  1.00  0.00     0.010 C 
BRANCH  41  42
HETATM   42  C29 UNL     1      -5.118   6.272  -1.286  1.00  0.00     0.113 C 
BRANCH  42  43
HETATM   43  C30 UNL     1      -6.419   6.866  -0.903  1.00  0.00     0.172 C 
HETATM   44  O4  UNL     1      -6.612   8.074  -1.250  1.00  0.00    -0.648 OA
HETATM   45  O5  UNL     1      -7.395   6.164  -0.201  1.00  0.00    -0.648 OA
ENDBRANCH  42  43
ENDBRANCH  41  42
ENDBRANCH  40  41
ENDBRANCH  39  40
ENDBRANCH  38  39
ENDBRANCH  37  38
BRANCH  37  46
HETATM   46  N5  UNL     1      -3.097   0.538   0.902  1.00  0.00    -0.382 N 
HETATM   47  C31 UNL     1      -3.723  -0.589   1.459  1.00  0.00     0.123 C 
HETATM   48  C32 UNL     1      -4.349  -0.043   2.755  1.00  0.00     0.021 C 
HETATM   49  C33 UNL     1      -3.524   1.161   3.069  1.00  0.00     0.021 C 
HETATM   50  C34 UNL     1      -2.476   1.233   1.990  1.00  0.00     0.123 C 
ENDBRANCH  37  46
ENDBRANCH   1  37
TORSDOF 20
