REMARK  17 active torsions:
REMARK  status: ('A' for Active; 'I' for Inactive)
REMARK    1  A    between atoms: C2_2  and  C3_3 
REMARK    2  A    between atoms: C3_3  and  C4_4 
REMARK    3  A    between atoms: C4_4  and  N1_5 
REMARK    4  A    between atoms: C4_4  and  C28_39 
REMARK       I    between atoms: N1_5  and  C5_6 
REMARK       I    between atoms: C5_6  and  N2_8 
REMARK    5  A    between atoms: N2_8  and  C6_10 
REMARK    6  A    between atoms: C6_10  and  C7_11 
REMARK    7  A    between atoms: C7_11  and  C8_12 
REMARK    8  A    between atoms: C8_12  and  C9_13 
REMARK    9  A    between atoms: C9_13  and  C10_14 
REMARK   10  A    between atoms: C10_14  and  C11_15 
REMARK   11  A    between atoms: C10_14  and  C16_24 
REMARK       I    between atoms: C11_15  and  N3_17 
REMARK   12  A    between atoms: N3_17  and  C12_19 
REMARK   13  A    between atoms: C12_19  and  C13_20 
REMARK   14  A    between atoms: C13_20  and  N4_21 
REMARK       I    between atoms: C16_24  and  N5_26 
REMARK   15  A    between atoms: N5_26  and  C17_28 
REMARK   16  A    between atoms: C28_39  and  O4_40 
REMARK   17  A    between atoms: C28_39  and  N6_42 
ROOT
HETATM    1  C10 UNL     1      -2.817  -0.241  -0.549  1.00  0.00     0.169 C 
ENDROOT
BRANCH   1   2
HETATM    2  C9  UNL     1      -1.609   0.360   0.185  1.00  0.00     0.024 C 
BRANCH   2   3
HETATM    3  C8  UNL     1      -0.522  -0.757   0.155  1.00  0.00     0.003 C 
BRANCH   3   4
HETATM    4  C7  UNL     1       0.106  -0.835  -1.178  1.00  0.00     0.020 C 
BRANCH   4   5
HETATM    5  C6  UNL     1       1.105   0.227  -1.590  1.00  0.00     0.125 C 
BRANCH   5   6
HETATM    6  N2  UNL     1       2.398   0.055  -1.050  1.00  0.00    -0.331 N 
HETATM    7  C5  UNL     1       2.982   0.068   0.239  1.00  0.00     0.394 C 
HETATM    8  N1  UNL     1       4.307  -0.349   0.417  1.00  0.00    -0.352 NA
HETATM    9  O1  UNL     1       2.215   0.450   1.172  1.00  0.00    -0.230 OA
ATOM     10  H2  UNL     1       3.090  -0.125  -1.777  1.00  0.00     0.165 HD
BRANCH   8  11
HETATM   11  C4  UNL     1       5.593  -0.754   0.592  1.00  0.00     0.140 C 
BRANCH  11  12
HETATM   12  C3  UNL     1       6.116  -1.696  -0.415  1.00  0.00     0.077 C 
BRANCH  12  13
HETATM   13  C2  UNL     1       7.471  -2.286  -0.135  1.00  0.00     0.003 C 
HETATM   14  C1  UNL     1       7.939  -3.187  -1.251  1.00  0.00     0.005 C 
ENDBRANCH  12  13
ENDBRANCH  11  12
BRANCH  11  15
HETATM   15  C28 UNL     1       6.450   0.373   1.025  1.00  0.00     0.176 C 
BRANCH  15  16
HETATM   16  O4  UNL     1       6.012   0.893   2.167  1.00  0.00    -0.344 OA
ATOM     17  H4  UNL     1       6.562   1.616   2.445  1.00  0.00     0.219 HD
ENDBRANCH  15  16
BRANCH  15  18
HETATM   18  N6  UNL     1       7.568   1.002   0.541  1.00  0.00    -0.355 N 
HETATM   19  C29 UNL     1       8.346   1.738   1.583  1.00  0.00     0.125 C 
HETATM   20  C30 UNL     1       9.540   0.876   1.868  1.00  0.00     0.020 C 
HETATM   21  C31 UNL     1      10.636   0.937   0.868  1.00  0.00     0.002 C 
HETATM   22  C32 UNL     1      10.247   0.708  -0.554  1.00  0.00     0.002 C 
HETATM   23  C33 UNL     1       9.258   1.704  -1.084  1.00  0.00     0.025 C 
HETATM   24  C34 UNL     1       7.859   1.137  -0.847  1.00  0.00     0.082 C 
HETATM   25  C35 UNL     1       6.863   2.120  -1.508  1.00  0.00     0.032 C 
ENDBRANCH  15  18
ENDBRANCH  11  15
ENDBRANCH   8  11
ENDBRANCH   5   6
ENDBRANCH   4   5
ENDBRANCH   3   4
ENDBRANCH   2   3
ENDBRANCH   1   2
BRANCH   1  26
HETATM   26  C11 UNL     1      -3.287  -1.388   0.288  1.00  0.00     0.231 C 
HETATM   27  O2  UNL     1      -3.029  -1.308   1.544  1.00  0.00    -0.273 OA
HETATM   28  N3  UNL     1      -3.977  -2.525  -0.130  1.00  0.00    -0.356 N 
ATOM     29  H3  UNL     1      -4.196  -2.656  -1.118  1.00  0.00     0.162 HD
BRANCH  28  30
HETATM   30  C12 UNL     1      -4.382  -3.518   0.839  1.00  0.00     0.166 C 
BRANCH  30  31
HETATM   31  C13 UNL     1      -5.054  -4.740   0.412  1.00  0.00     0.076 C 
BRANCH  31  32
HETATM   32  N4  UNL     1      -4.399  -5.687  -0.363  1.00  0.00    -0.400 N 
HETATM   33  C14 UNL     1      -4.023  -5.529  -1.687  1.00  0.00     0.148 C 
HETATM   34  C15 UNL     1      -4.616  -7.062  -0.002  1.00  0.00     0.148 C 
ENDBRANCH  31  32
ENDBRANCH  30  31
ENDBRANCH  28  30
ENDBRANCH   1  26
BRANCH   1  35
HETATM   35  C16 UNL     1      -3.959   0.677  -0.615  1.00  0.00     0.231 C 
HETATM   36  O3  UNL     1      -4.307   1.054  -1.762  1.00  0.00    -0.273 OA
HETATM   37  N5  UNL     1      -4.669   1.125   0.511  1.00  0.00    -0.351 N 
ATOM     38  H5  UNL     1      -4.335   0.832   1.429  1.00  0.00     0.163 HD
BRANCH  37  39
HETATM   39  C17 UNL     1      -5.827   1.963   0.460  1.00  0.00     0.034 C 
HETATM   40  C18 UNL     1      -6.914   1.163  -0.272  1.00  0.00     0.035 C 
HETATM   41  C19 UNL     1      -8.239   1.845  -0.186  1.00  0.00    -0.011 C 
HETATM   42  C20 UNL     1      -8.625   2.113   1.224  1.00  0.00     0.009 C 
HETATM   43  C25 UNL     1      -8.112   3.169  -0.910  1.00  0.00     0.014 C 
HETATM   44  C21 UNL     1      -7.588   2.990   1.872  1.00  0.00    -0.011 C 
HETATM   45  C22 UNL     1      -7.491   4.318   1.130  1.00  0.00     0.014 C 
HETATM   46  C27 UNL     1      -6.276   2.284   1.872  1.00  0.00     0.035 C 
HETATM   47  C23 UNL     1      -7.020   3.992  -0.267  1.00  0.00    -0.041 C 
HETATM   48  C24 UNL     1      -6.911   5.278  -1.061  1.00  0.00     0.015 C 
HETATM   49  C26 UNL     1      -5.684   3.253  -0.261  1.00  0.00     0.040 C 
ENDBRANCH  37  39
ENDBRANCH   1  35
TORSDOF 17
