REMARK  19 active torsions:
REMARK  status: ('A' for Active; 'I' for Inactive)
REMARK    1  A    between atoms: C2_2  and  C4_4 
REMARK    2  A    between atoms: C4_4  and  N1_5 
REMARK       I    between atoms: N1_5  and  C5_6 
REMARK    3  A    between atoms: C5_6  and  C6_8 
REMARK    4  A    between atoms: C10_12  and  C11_13 
REMARK       I    between atoms: C11_13  and  N2_15 
REMARK    5  A    between atoms: N2_15  and  C12_17 
REMARK    6  A    between atoms: C12_17  and  C13_18 
REMARK    7  A    between atoms: C12_17  and  C34_46 
REMARK    8  A    between atoms: C13_18  and  O3_19 
REMARK    9  A    between atoms: C13_18  and  N3_21 
REMARK   10  A    between atoms: N3_21  and  C15_23 
REMARK   11  A    between atoms: C15_23  and  C16_24 
REMARK   12  A    between atoms: C15_23  and  C23_31 
REMARK   13  A    between atoms: C16_24  and  C17_25 
REMARK   14  A    between atoms: C23_31  and  N4_32 
REMARK   15  A    between atoms: C23_31  and  C30_42 
REMARK   16  A    between atoms: N4_32  and  C24_34 
REMARK   17  A    between atoms: C24_34  and  C25_35 
REMARK   18  A    between atoms: C24_34  and  C29_39 
REMARK   19  A    between atoms: C25_35  and  C26_36 
ROOT
HETATM    1  N3  UNL     1      -1.359   0.574   0.562  1.00  0.00    -0.361 N 
HETATM    2  C14 UNL     1      -1.973   0.375   1.827  1.00  0.00     0.152 C 
ENDROOT
BRANCH   1   3
HETATM    3  C13 UNL     1       0.034   0.352   0.410  1.00  0.00     0.137 C 
BRANCH   3   4
HETATM    4  C12 UNL     1       1.076   0.077   1.403  1.00  0.00     0.162 C 
BRANCH   4   5
HETATM    5  N2  UNL     1       2.277  -0.463   0.688  1.00  0.00    -0.348 N 
HETATM    6  C11 UNL     1       3.019  -1.527   1.206  1.00  0.00     0.223 C 
HETATM    7  O2  UNL     1       2.733  -2.124   2.276  1.00  0.00    -0.273 OA
ATOM      8  H2  UNL     1       2.559  -0.044  -0.198  1.00  0.00     0.163 HD
BRANCH   6   9
HETATM    9  C10 UNL     1       4.256  -2.027   0.474  1.00  0.00     0.092 A 
HETATM   10  C6  UNL     1       5.225  -0.892   0.305  1.00  0.00     0.106 A 
HETATM   11  C7  UNL     1       5.454  -0.636  -1.138  1.00  0.00     0.016 A 
HETATM   12  C8  UNL     1       4.630  -1.656  -1.905  1.00  0.00     0.002 A 
HETATM   13  C9  UNL     1       3.930  -2.525  -0.888  1.00  0.00     0.015 A 
BRANCH  10  14
HETATM   14  C5  UNL     1       6.498  -1.071   1.101  1.00  0.00     0.295 C 
HETATM   15  N1  UNL     1       7.539  -1.801   0.576  1.00  0.00    -0.387 NA
HETATM   16  O1  UNL     1       6.474  -0.510   2.212  1.00  0.00    -0.257 OA
BRANCH  15  17
HETATM   17  C4  UNL     1       8.567  -2.521   0.057  1.00  0.00     0.163 C 
BRANCH  17  18
HETATM   18  C2  UNL     1       9.915  -1.838  -0.068  1.00  0.00     0.030 C 
HETATM   19  C1  UNL     1       9.828  -0.612  -0.957  1.00  0.00     0.016 C 
HETATM   20  C3  UNL     1      10.548  -1.446   1.215  1.00  0.00     0.016 C 
ENDBRANCH  17  18
ENDBRANCH  15  17
ENDBRANCH  10  14
ENDBRANCH   6   9
ENDBRANCH   4   5
BRANCH   4  21
HETATM   21  C34 UNL     1       1.677   1.379   1.976  1.00  0.00     0.008 C 
HETATM   22  C35 UNL     1       2.143   2.331   0.922  1.00  0.00     0.012 C 
HETATM   23  C36 UNL     1       0.969   2.011   3.083  1.00  0.00     0.012 C 
ENDBRANCH   4  21
ENDBRANCH   3   4
BRANCH   3  24
HETATM   24  O3  UNL     1       0.456   0.407  -0.820  1.00  0.00    -0.348 OA
ATOM     25  H3  UNL     1      -0.220   0.585  -1.464  1.00  0.00     0.219 HD
ENDBRANCH   3  24
ENDBRANCH   1   3
BRANCH   1  26
HETATM   26  C15 UNL     1      -2.127   1.011  -0.647  1.00  0.00     0.109 C 
BRANCH  26  27
HETATM   27  C16 UNL     1      -2.074   2.521  -0.493  1.00  0.00     0.032 C 
BRANCH  27  28
HETATM   28  C17 UNL     1      -2.618   3.238   0.648  1.00  0.00    -0.013 C 
HETATM   29  C18 UNL     1      -2.279   4.753   0.416  1.00  0.00     0.005 C 
HETATM   30  C19 UNL     1      -3.385   5.665   0.752  1.00  0.00     0.000 C 
HETATM   31  C20 UNL     1      -3.967   5.333   2.098  1.00  0.00     0.000 C 
HETATM   32  C21 UNL     1      -4.522   3.946   2.092  1.00  0.00     0.000 C 
HETATM   33  C22 UNL     1      -4.115   3.281   0.772  1.00  0.00     0.005 C 
ENDBRANCH  27  28
ENDBRANCH  26  27
BRANCH  26  34
HETATM   34  C23 UNL     1      -3.390   0.342  -0.902  1.00  0.00     0.107 C 
BRANCH  34  35
HETATM   35  N4  UNL     1      -3.039  -1.097  -0.927  1.00  0.00    -0.403 N 
ATOM     36  H4  UNL     1      -2.081  -1.390  -1.120  1.00  0.00     0.154 HD
BRANCH  35  37
HETATM   37  C24 UNL     1      -4.037  -2.055  -0.682  1.00  0.00     0.167 C 
BRANCH  37  38
HETATM   38  C25 UNL     1      -4.702  -1.984   0.638  1.00  0.00     0.038 C 
BRANCH  38  39
HETATM   39  C26 UNL     1      -5.780  -2.949   0.927  1.00  0.00    -0.020 C 
HETATM   40  C27 UNL     1      -6.948  -2.916  -0.044  1.00  0.00     0.009 C 
HETATM   41  C28 UNL     1      -5.444  -4.326   1.332  1.00  0.00     0.009 C 
ENDBRANCH  38  39
ENDBRANCH  37  38
BRANCH  37  42
HETATM   42  C29 UNL     1      -3.241  -3.361  -0.679  1.00  0.00     0.253 C 
HETATM   43  N5  UNL     1      -3.704  -4.527  -1.314  1.00  0.00    -0.060 NA
HETATM   44  O4  UNL     1      -2.158  -3.345  -0.090  1.00  0.00    -0.275 OA
ENDBRANCH  37  42
ENDBRANCH  35  37
ENDBRANCH  34  35
BRANCH  34  45
HETATM   45  C30 UNL     1      -3.940   0.598  -2.308  1.00  0.00    -0.029 C 
HETATM   46  C31 UNL     1      -5.311  -0.005  -2.520  1.00  0.00     0.016 C 
HETATM   47  C32 UNL     1      -3.969   1.966  -2.834  1.00  0.00     0.016 C 
HETATM   48  C33 UNL     1      -3.052  -0.194  -3.308  1.00  0.00     0.016 C 
ENDBRANCH  34  45
ENDBRANCH  26  34
ENDBRANCH   1  26
TORSDOF 19
