REMARK  7 active torsions:
REMARK  status: ('A' for Active; 'I' for Inactive)
REMARK    1  A    between atoms: N1_2  and  C3_4 
REMARK    2  A    between atoms: C5_10  and  N4_11 
REMARK    3  A    between atoms: C8_19  and  N6_20 
REMARK    4  A    between atoms: N6_20  and  C9_22 
REMARK    5  A    between atoms: C9_22  and  C10_23 
REMARK    6  A    between atoms: C10_23  and  N7_24 
REMARK    7  A    between atoms: N7_24  and  C11_26 
ROOT
HETATM    1  C3  UNL     1      -1.864   0.574  -0.484  1.00  0.00     0.682 A 
HETATM    2  N2  UNL     1      -2.203   0.378   0.798  1.00  0.00    -0.175 N 
ATOM      3  H2  UNL     1      -3.074   0.773   1.153  1.00  0.00     0.186 HD
HETATM    4  C4  UNL     1      -1.404  -0.340   1.633  1.00  0.00     0.156 A 
HETATM    5  N3  UNL     1      -1.759  -0.536   2.921  1.00  0.00    -0.175 N 
ATOM      6  H3  UNL     1      -2.632  -0.137   3.267  1.00  0.00     0.186 HD
HETATM    7  C5  UNL     1      -0.983  -1.246   3.752  1.00  0.00     0.680 A 
HETATM    8  N5  UNL     1       0.192  -1.796   3.330  1.00  0.00    -0.155 N 
ATOM      9  H5  UNL     1       0.769  -2.333   3.977  1.00  0.00     0.187 HD
HETATM   10  C6  UNL     1       0.585  -1.625   2.054  1.00  0.00     0.277 A 
HETATM   11  O1  UNL     1       1.671  -2.134   1.662  1.00  0.00    -0.266 OA
HETATM   12  C7  UNL     1      -0.218  -0.894   1.206  1.00  0.00     0.122 A 
HETATM   13  C8  UNL     1       0.125  -0.684  -0.128  1.00  0.00     0.136 A 
HETATM   14  N9  UNL     1      -0.703   0.033  -0.908  1.00  0.00    -0.176 N 
ATOM     15  H9  UNL     1      -0.436   0.177  -1.882  1.00  0.00     0.186 HD
ENDROOT
BRANCH  13  16
HETATM   16  N6  UNL     1       1.229  -1.187  -0.519  1.00  0.00    -0.373 N 
ATOM     17  H6  UNL     1       1.751  -1.695   0.195  1.00  0.00     0.161 HD
BRANCH  16  18
HETATM   18  C9  UNL     1       1.839  -1.147  -1.794  1.00  0.00     0.141 C 
BRANCH  18  19
HETATM   19  C10 UNL     1       3.318  -0.871  -1.782  1.00  0.00     0.140 C 
BRANCH  19  20
HETATM   20  N7  UNL     1       3.712   0.383  -1.228  1.00  0.00    -0.385 N 
ATOM     21  H7  UNL     1       4.091   1.086  -1.863  1.00  0.00     0.160 HD
BRANCH  20  22
HETATM   22  C11 UNL     1       3.614   0.711   0.121  1.00  0.00     0.168 C 
HETATM   23  N8  UNL     1       4.433   1.606   0.610  1.00  0.00    -0.396 N 
ATOM     24  H82 UNL     1       5.124   2.045   0.002  1.00  0.00     0.156 HD
ATOM     25  H81 UNL     1       4.361   1.846   1.599  1.00  0.00     0.156 HD
ENDBRANCH  20  22
ENDBRANCH  19  20
ENDBRANCH  18  19
ENDBRANCH  16  18
ENDBRANCH  13  16
BRANCH   1  26
HETATM   26  N1  UNL     1      -2.695   1.329  -1.379  1.00  0.00    -0.226 N 
HETATM   27  C1  UNL     1      -2.597   2.739  -1.572  1.00  0.00     0.168 C 
HETATM   28  C2  UNL     1      -3.707   0.599  -2.139  1.00  0.00     0.168 C 
ENDBRANCH   1  26
BRANCH   7  29
HETATM   29  N4  UNL     1      -1.358  -1.406   4.964  1.00  0.00    -0.234 N 
ATOM     30  H42 UNL     1      -2.236  -0.995   5.280  1.00  0.00     0.174 HD
ATOM     31  H41 UNL     1      -0.768  -1.946   5.596  1.00  0.00     0.174 HD
ENDBRANCH   7  29
TORSDOF 7
