REMARK  16 active torsions:
REMARK  status: ('A' for Active; 'I' for Inactive)
REMARK    1  A    between atoms: C2_3  and  C3_4 
REMARK    2  A    between atoms: C3_4  and  C4_5 
REMARK    3  A    between atoms: C4_5  and  C5_6 
REMARK    4  A    between atoms: C5_6  and  C6_7 
REMARK    5  A    between atoms: C6_7  and  O1_8 
REMARK    6  A    between atoms: O1_8  and  C7_9 
REMARK    7  A    between atoms: C7_9  and  C8_10 
REMARK    8  A    between atoms: C8_10  and  C9_11 
REMARK    9  A    between atoms: C9_11  and  N2_12 
REMARK   10  A    between atoms: N2_12  and  C10_14 
REMARK   11  A    between atoms: C11_17  and  N4_18 
REMARK   12  A    between atoms: N4_18  and  C12_20 
REMARK   13  A    between atoms: C12_20  and  C13_21 
REMARK   14  A    between atoms: C13_21  and  O2_22 
REMARK   15  A    between atoms: C14_26  and  N6_27 
REMARK   16  A    between atoms: N6_27  and  C15_29 
ROOT
HETATM    1  N1  UNL     1       9.615   1.783   0.655  1.00  0.00    -0.197 NA
HETATM    2  C1  UNL     1       8.538   1.366   0.549  1.00  0.00     0.059 C 
HETATM    3  C2  UNL     1       7.157   0.846   0.425  1.00  0.00     0.124 C 
ENDROOT
BRANCH   3   4
HETATM    4  C3  UNL     1       7.022  -0.420   1.205  1.00  0.00     0.014 C 
BRANCH   4   5
HETATM    5  C4  UNL     1       5.655  -1.023   1.129  1.00  0.00     0.003 C 
BRANCH   5   6
HETATM    6  C5  UNL     1       4.642  -0.070   1.667  1.00  0.00     0.026 C 
BRANCH   6   7
HETATM    7  C6  UNL     1       3.246  -0.666   1.608  1.00  0.00     0.167 C 
BRANCH   7   8
HETATM    8  O1  UNL     1       2.842  -0.989   0.336  1.00  0.00    -0.391 OA
BRANCH   8   9
HETATM    9  C7  UNL     1       2.799   0.065  -0.543  1.00  0.00     0.169 C 
BRANCH   9  10
HETATM   10  C8  UNL     1       1.851   1.159  -0.106  1.00  0.00     0.046 C 
BRANCH  10  11
HETATM   11  C9  UNL     1       0.440   0.665   0.027  1.00  0.00     0.140 C 
BRANCH  11  12
HETATM   12  N2  UNL     1      -0.036   0.153  -1.241  1.00  0.00    -0.225 N 
ATOM     13  H2  UNL     1       0.632   0.026  -2.002  1.00  0.00     0.177 HD
BRANCH  12  14
HETATM   14  C10 UNL     1      -1.276  -0.149  -1.444  1.00  0.00     0.707 A 
HETATM   15  N3  UNL     1      -1.606  -0.615  -2.657  1.00  0.00    -0.022 N 
HETATM   16  C11 UNL     1      -2.886  -0.941  -2.907  1.00  0.00     0.707 A 
ATOM     17  H3  UNL     1      -0.895  -0.721  -3.381  1.00  0.00     0.203 HD
HETATM   18  N5  UNL     1      -3.810  -0.791  -1.929  1.00  0.00    -0.022 N 
HETATM   19  C14 UNL     1      -3.500  -0.319  -0.689  1.00  0.00     0.707 A 
ATOM     20  H5  UNL     1      -4.778  -1.042  -2.129  1.00  0.00     0.203 HD
HETATM   21  N7  UNL     1      -2.214  -0.006  -0.479  1.00  0.00    -0.022 N 
ATOM     22  H7  UNL     1      -1.934   0.350   0.435  1.00  0.00     0.203 HD
BRANCH  16  23
HETATM   23  N4  UNL     1      -3.233  -1.396  -4.076  1.00  0.00    -0.223 N 
ATOM     24  H4  UNL     1      -4.201  -1.647  -4.279  1.00  0.00     0.177 HD
BRANCH  23  25
HETATM   25  C12 UNL     1      -2.201  -1.533  -5.076  1.00  0.00     0.164 C 
BRANCH  25  26
HETATM   26  C13 UNL     1      -2.732  -2.073  -6.371  1.00  0.00     0.184 C 
BRANCH  26  27
HETATM   27  O2  UNL     1      -3.300  -3.345  -6.146  1.00  0.00    -0.399 OA
ATOM     28  H2  UNL     1      -3.636  -3.687  -6.966  1.00  0.00     0.209 HD
ENDBRANCH  26  27
ENDBRANCH  25  26
ENDBRANCH  23  25
ENDBRANCH  16  23
BRANCH  19  29
HETATM   29  N6  UNL     1      -4.407  -0.193   0.207  1.00  0.00    -0.220 N 
ATOM     30  H6  UNL     1      -5.369  -0.449  -0.013  1.00  0.00     0.178 HD
BRANCH  29  31
HETATM   31  C15 UNL     1      -4.093   0.298   1.504  1.00  0.00     0.099 C 
HETATM   32  C16 UNL     1      -5.182  -0.005   2.520  1.00  0.00     0.026 C 
HETATM   33  C17 UNL     1      -4.765   0.597   3.830  1.00  0.00     0.002 C 
HETATM   34  C18 UNL     1      -3.357   1.111   3.836  1.00  0.00     0.000 C 
HETATM   35  C19 UNL     1      -3.082   2.115   2.766  1.00  0.00     0.002 C 
HETATM   36  C20 UNL     1      -3.909   1.809   1.537  1.00  0.00     0.026 C 
ENDBRANCH  29  31
ENDBRANCH  19  29
ENDBRANCH  12  14
ENDBRANCH  11  12
ENDBRANCH  10  11
ENDBRANCH   9  10
ENDBRANCH   8   9
ENDBRANCH   7   8
ENDBRANCH   6   7
ENDBRANCH   5   6
ENDBRANCH   4   5
ENDBRANCH   3   4
TORSDOF 16
