REMARK  14 active torsions:
REMARK  status: ('A' for Active; 'I' for Inactive)
REMARK    1  A    between atoms: N1_1  and  C1_4 
REMARK    2  A    between atoms: C5_10  and  C6_11 
REMARK    3  A    between atoms: C7_12  and  C8_13 
REMARK    4  A    between atoms: C13_18  and  N3_19 
REMARK    5  A    between atoms: N3_19  and  C14_21 
REMARK    6  A    between atoms: C14_21  and  C15_22 
REMARK    7  A    between atoms: C15_22  and  O1_23 
REMARK    8  A    between atoms: O1_23  and  C16_24 
REMARK    9  A    between atoms: C16_24  and  C17_25 
REMARK   10  A    between atoms: C17_25  and  O2_26 
REMARK   11  A    between atoms: O2_26  and  C18_27 
REMARK   12  A    between atoms: C18_27  and  C19_28 
REMARK   13  A    between atoms: C19_28  and  N4_29 
REMARK   14  A    between atoms: C21_31  and  N5_32 
ROOT
HETATM    1  C8  UNL     1       4.042  -1.692  -0.705  1.00  0.00    -0.009 A 
HETATM    2  C9  UNL     1       4.508  -2.961  -1.041  1.00  0.00     0.013 A 
HETATM    3  C10 UNL     1       3.685  -3.982  -1.453  1.00  0.00     0.001 A 
HETATM    4  C11 UNL     1       2.344  -3.727  -1.534  1.00  0.00     0.002 A 
HETATM    5  C12 UNL     1       1.862  -2.458  -1.196  1.00  0.00     0.030 A 
HETATM    6  C13 UNL     1       2.711  -1.428  -0.775  1.00  0.00     0.042 A 
ENDROOT
BRANCH   6   7
HETATM    7  N3  UNL     1       2.179  -0.238  -0.229  1.00  0.00    -0.367 N 
ATOM      8  H3  UNL     1       2.725   0.114   0.558  1.00  0.00     0.165 HD
BRANCH   7   9
HETATM    9  C14 UNL     1       1.070   0.569  -0.524  1.00  0.00     0.087 C 
BRANCH   9  10
HETATM   10  C15 UNL     1      -0.299  -0.006  -0.625  1.00  0.00     0.212 C 
BRANCH  10  11
HETATM   11  O1  UNL     1      -1.238   1.020  -0.882  1.00  0.00    -0.384 OA
BRANCH  11  12
HETATM   12  C16 UNL     1      -2.516   0.585  -1.042  1.00  0.00     0.194 C 
BRANCH  12  13
HETATM   13  C17 UNL     1      -3.014  -0.124   0.168  1.00  0.00     0.193 C 
BRANCH  13  14
HETATM   14  O2  UNL     1      -4.357  -0.563  -0.011  1.00  0.00    -0.387 OA
BRANCH  14  15
HETATM   15  C18 UNL     1      -4.715  -1.206   1.139  1.00  0.00     0.198 C 
BRANCH  15  16
HETATM   16  C19 UNL     1      -6.110  -1.746   1.149  1.00  0.00     0.298 C 
BRANCH  16  17
HETATM   17  N4  UNL     1      -7.142  -0.811   0.990  1.00  0.00     0.094 N 
HETATM   18  C20 UNL     1      -7.323  -0.128  -0.245  1.00  0.00     0.306 C 
HETATM   19  C21 UNL     1      -7.219   1.190   0.536  1.00  0.00     0.239 C 
HETATM   20  C22 UNL     1      -7.177   0.355   1.812  1.00  0.00     0.306 C 
BRANCH  19  21
HETATM   21  N5  UNL     1      -8.400   2.024   0.426  1.00  0.00    -0.072 N 
ATOM     22  H53 UNL     1      -8.626   2.202  -0.553  1.00  0.00     0.274 HD
ATOM     23  H52 UNL     1      -9.234   1.506   0.702  1.00  0.00     0.274 HD
ATOM     24  H51 UNL     1      -8.331   2.899   0.945  1.00  0.00     0.274 HD
ENDBRANCH  19  21
ENDBRANCH  16  17
ENDBRANCH  15  16
ENDBRANCH  14  15
ENDBRANCH  13  14
ENDBRANCH  12  13
ENDBRANCH  11  12
ENDBRANCH  10  11
ENDBRANCH   9  10
ENDBRANCH   7   9
ENDBRANCH   6   7
BRANCH   1  25
HETATM   25  C7  UNL     1       5.059  -0.709  -0.294  1.00  0.00     0.014 C 
HETATM   26  C6  UNL     1       5.016   0.565  -0.336  1.00  0.00     0.016 C 
BRANCH  26  27
HETATM   27  C5  UNL     1       5.986   1.542   0.063  1.00  0.00     0.007 A 
HETATM   28  C1  UNL     1       7.215   1.247   0.563  1.00  0.00     0.108 A 
HETATM   29  N2  UNL     1       8.114   2.222   0.933  1.00  0.00    -0.352 N 
HETATM   30  C2  UNL     1       7.777   3.510   0.802  1.00  0.00     0.089 A 
ATOM     31  H2  UNL     1       9.029   1.965   1.304  1.00  0.00     0.166 HD
HETATM   32  C3  UNL     1       6.563   3.885   0.309  1.00  0.00     0.018 A 
HETATM   33  C4  UNL     1       5.675   2.918  -0.057  1.00  0.00     0.016 A 
BRANCH  28  34
HETATM   34  N1  UNL     1       7.649   0.063   0.728  1.00  0.00    -0.385 N 
ATOM     35  H12 UNL     1       8.571  -0.158   1.103  1.00  0.00     0.157 HD
ATOM     36  H11 UNL     1       6.983  -0.659   0.454  1.00  0.00     0.157 HD
ENDBRANCH  28  34
ENDBRANCH  26  27
ENDBRANCH   1  25
TORSDOF 14
