REMARK  16 active torsions:
REMARK  status: ('A' for Active; 'I' for Inactive)
REMARK    1  A    between atoms: C5_6  and  C6_7 
REMARK    2  A    between atoms: C6_7  and  C7_8 
REMARK    3  A    between atoms: C7_8  and  C8_9 
REMARK    4  A    between atoms: C8_9  and  C9_10 
REMARK    5  A    between atoms: C9_10  and  C10_11 
REMARK    6  A    between atoms: C10_11  and  C11_12 
REMARK    7  A    between atoms: C11_12  and  C12_13 
REMARK    8  A    between atoms: C12_13  and  C13_14 
REMARK    9  A    between atoms: C13_14  and  C14_15 
REMARK   10  A    between atoms: C14_15  and  C15_16 
REMARK   11  A    between atoms: C15_16  and  N1_17 
REMARK   12  A    between atoms: C17_19  and  O2_20 
REMARK   13  A    between atoms: C18_22  and  O3_23 
REMARK   14  A    between atoms: C19_25  and  O4_26 
REMARK   15  A    between atoms: C20_28  and  C21_29 
REMARK   16  A    between atoms: C21_29  and  O5_30 
ROOT
HETATM    1  C14 UNL     1      -2.007  -0.735  -1.060  1.00  0.00     0.030 C 
ENDROOT
BRANCH   1   2
HETATM    2  C13 UNL     1      -1.156   0.476  -0.780  1.00  0.00     0.002 C 
BRANCH   2   3
HETATM    3  C12 UNL     1      -0.360   0.330   0.472  1.00  0.00     0.000 C 
BRANCH   3   4
HETATM    4  C11 UNL     1       0.590  -0.834   0.478  1.00  0.00     0.000 C 
BRANCH   4   5
HETATM    5  C10 UNL     1       1.610  -0.768  -0.622  1.00  0.00     0.000 C 
BRANCH   5   6
HETATM    6  C9  UNL     1       2.474   0.448  -0.570  1.00  0.00     0.000 C 
BRANCH   6   7
HETATM    7  C8  UNL     1       3.267   0.593   0.683  1.00  0.00     0.000 C 
BRANCH   7   8
HETATM    8  C7  UNL     1       4.108   1.828   0.661  1.00  0.00     0.005 C 
BRANCH   8   9
HETATM    9  C6  UNL     1       5.144   1.891  -0.409  1.00  0.00     0.038 C 
BRANCH   9  10
HETATM   10  C5  UNL     1       6.133   0.806  -0.266  1.00  0.00    -0.058 C 
HETATM   11  C4  UNL     1       5.955  -0.396  -0.905  1.00  0.00     0.007 C 
HETATM   12  C3  UNL     1       6.502  -1.631  -0.652  1.00  0.00     0.004 C 
HETATM   13  C2  UNL     1       7.762  -1.815  -0.073  1.00  0.00     0.055 C 
HETATM   14  C1  UNL     1       8.684  -0.890   0.391  1.00  0.00     0.171 C 
HETATM   15  O1  UNL     1       9.877  -1.253   0.545  1.00  0.00    -0.289 OA
HETATM   16  C23 UNL     1       8.381   0.433   0.705  1.00  0.00     0.055 C 
HETATM   17  C22 UNL     1       7.212   1.131   0.553  1.00  0.00     0.011 C 
ENDBRANCH   9  10
ENDBRANCH   8   9
ENDBRANCH   7   8
ENDBRANCH   6   7
ENDBRANCH   5   6
ENDBRANCH   4   5
ENDBRANCH   3   4
ENDBRANCH   2   3
ENDBRANCH   1   2
BRANCH   1  18
HETATM   18  C15 UNL     1      -2.973  -0.970   0.047  1.00  0.00     0.273 C 
BRANCH  18  19
HETATM   19  N1  UNL     1      -3.882   0.139   0.244  1.00  0.00     0.100 N 
HETATM   20  C16 UNL     1      -4.645  -0.196   1.438  1.00  0.00     0.307 C 
HETATM   21  C17 UNL     1      -5.455  -1.440   1.224  1.00  0.00     0.177 C 
HETATM   22  C18 UNL     1      -6.206  -1.413  -0.093  1.00  0.00     0.179 C 
HETATM   23  C19 UNL     1      -6.170  -0.038  -0.690  1.00  0.00     0.184 C 
HETATM   24  C20 UNL     1      -4.734   0.407  -0.877  1.00  0.00     0.277 C 
BRANCH  21  25
HETATM   25  O2  UNL     1      -6.356  -1.505   2.304  1.00  0.00    -0.391 OA
ATOM     26  H2  UNL     1      -6.869  -2.293   2.168  1.00  0.00     0.210 HD
ENDBRANCH  21  25
BRANCH  22  27
HETATM   27  O3  UNL     1      -7.563  -1.742   0.088  1.00  0.00    -0.390 OA
ATOM     28  H3  UNL     1      -8.034  -1.725  -0.737  1.00  0.00     0.210 HD
ENDBRANCH  22  27
BRANCH  23  29
HETATM   29  O4  UNL     1      -6.908   0.833   0.082  1.00  0.00    -0.391 OA
ATOM     30  H4  UNL     1      -6.885   1.704  -0.296  1.00  0.00     0.210 HD
ENDBRANCH  23  29
BRANCH  24  31
HETATM   31  C21 UNL     1      -4.760   1.865  -1.297  1.00  0.00     0.202 C 
BRANCH  31  32
HETATM   32  O5  UNL     1      -5.203   2.701  -0.289  1.00  0.00    -0.399 OA
ATOM     33  H5  UNL     1      -5.219   3.614  -0.552  1.00  0.00     0.209 HD
ENDBRANCH  31  32
ENDBRANCH  24  31
ENDBRANCH  18  19
ENDBRANCH   1  18
TORSDOF 16
