REMARK  6 active torsions:
REMARK  status: ('A' for Active; 'I' for Inactive)
REMARK    1  A    between atoms: N1_1  and  C1_4 
REMARK    2  A    between atoms: N3_9  and  C4_10 
REMARK    3  A    between atoms: C4_10  and  C5_11 
REMARK    4  A    between atoms: C5_11  and  C6_12 
REMARK    5  A    between atoms: C6_12  and  N4_13 
REMARK    6  A    between atoms: N4_13  and  C7_15 
ROOT
HETATM    1  C5  UNL     1      -0.814  -0.814   1.091  1.00  0.00     0.040 C 
ENDROOT
BRANCH   1   2
HETATM    2  C4  UNL     1      -1.487   0.306   0.368  1.00  0.00     0.148 C 
BRANCH   2   3
HETATM    3  N3  UNL     1      -2.880   0.143   0.123  1.00  0.00    -0.192 N 
HETATM    4  C1  UNL     1      -3.526  -0.416  -0.937  1.00  0.00     0.677 A 
HETATM    5  N2  UNL     1      -4.850  -0.342  -0.722  1.00  0.00    -0.201 N 
HETATM    6  C2  UNL     1      -5.098   0.252   0.451  1.00  0.00     0.124 A 
ATOM      7  H2  UNL     1      -5.564  -0.689  -1.362  1.00  0.00     0.183 HD
HETATM    8  C3  UNL     1      -3.851   0.550   0.969  1.00  0.00     0.126 A 
BRANCH   4   9
HETATM    9  N1  UNL     1      -2.896  -0.910  -1.936  1.00  0.00    -0.234 N 
ATOM     10  H12 UNL     1      -3.380  -1.329  -2.730  1.00  0.00     0.174 HD
ATOM     11  H11 UNL     1      -1.891  -0.966  -2.099  1.00  0.00     0.174 HD
ENDBRANCH   4   9
ENDBRANCH   2   3
ENDBRANCH   1   2
BRANCH   1  12
HETATM   12  C6  UNL     1       0.647  -0.460   1.256  1.00  0.00     0.124 C 
BRANCH  12  13
HETATM   13  N4  UNL     1       1.322  -0.277   0.006  1.00  0.00    -0.362 N 
ATOM     14  H4  UNL     1       0.805  -0.418  -0.862  1.00  0.00     0.162 HD
BRANCH  13  15
HETATM   15  C7  UNL     1       2.703   0.098  -0.058  1.00  0.00     0.171 C 
HETATM   16  N5  UNL     1       3.073   1.323   0.158  1.00  0.00    -0.361 N 
HETATM   17  C8  UNL     1       4.496   1.482   0.045  1.00  0.00     0.142 C 
ATOM     18  H5  UNL     1       2.430   2.082   0.381  1.00  0.00     0.162 HD
HETATM   19  C9  UNL     1       5.007   0.159  -0.433  1.00  0.00     0.142 C 
HETATM   20  N6  UNL     1       3.831  -0.711  -0.341  1.00  0.00    -0.361 N 
ATOM     21  H6  UNL     1       3.826  -1.724  -0.460  1.00  0.00     0.162 HD
ENDBRANCH  13  15
ENDBRANCH  12  13
ENDBRANCH   1  12
TORSDOF 6
