REMARK  8 active torsions:
REMARK  status: ('A' for Active; 'I' for Inactive)
REMARK    1  A    between atoms: N1_1  and  C1_4 
REMARK    2  A    between atoms: C3_11  and  N5_12 
REMARK    3  A    between atoms: N5_12  and  C4_14 
REMARK    4  A    between atoms: C4_14  and  C5_15 
REMARK    5  A    between atoms: C5_15  and  C6_16 
REMARK    6  A    between atoms: C6_16  and  C7_17 
REMARK    7  A    between atoms: C7_17  and  C8_18 
REMARK    8  A    between atoms: C8_18  and  N6_19 
ROOT
HETATM    1  C1  UNL     1      -4.280  -0.788   1.208  1.00  0.00     0.692 A 
HETATM    2  N2  UNL     1      -4.474   0.233   0.358  1.00  0.00    -0.163 N 
ATOM      3  H2  UNL     1      -5.389   0.681   0.310  1.00  0.00     0.187 HD
HETATM    4  C2  UNL     1      -3.473   0.674  -0.434  1.00  0.00     0.221 A 
HETATM    5  N3  UNL     1      -3.634   1.743  -1.342  1.00  0.00    -0.062 NA
HETATM    6  N4  UNL     1      -2.262   0.064  -0.356  1.00  0.00    -0.162 N 
ATOM      7  H4  UNL     1      -1.503   0.393  -0.952  1.00  0.00     0.187 HD
HETATM    8  C3  UNL     1      -2.034  -0.962   0.485  1.00  0.00     0.695 A 
HETATM    9  N7  UNL     1      -3.069  -1.359   1.251  1.00  0.00    -0.023 N 
ATOM     10  H7  UNL     1      -2.923  -2.135   1.897  1.00  0.00     0.203 HD
ENDROOT
BRANCH   8  11
HETATM   11  N5  UNL     1      -0.881  -1.542   0.559  1.00  0.00    -0.225 N 
ATOM     12  H5  UNL     1      -0.731  -2.318   1.204  1.00  0.00     0.177 HD
BRANCH  11  13
HETATM   13  C4  UNL     1       0.192  -1.073  -0.288  1.00  0.00     0.138 C 
BRANCH  13  14
HETATM   14  C5  UNL     1       1.308  -0.436   0.506  1.00  0.00     0.020 C 
BRANCH  14  15
HETATM   15  C6  UNL     1       2.375   0.016  -0.500  1.00  0.00     0.003 C 
BRANCH  15  16
HETATM   16  C7  UNL     1       3.479   0.649   0.317  1.00  0.00     0.027 C 
BRANCH  16  17
HETATM   17  C8  UNL     1       4.609   1.144  -0.558  1.00  0.00     0.229 C 
BRANCH  17  18
HETATM   18  N6  UNL     1       5.141   0.002  -1.279  1.00  0.00    -0.079 N 
ATOM     19  H63 UNL     1       5.422  -0.761  -0.662  1.00  0.00     0.274 HD
ATOM     20  H62 UNL     1       4.427  -0.504  -1.802  1.00  0.00     0.274 HD
ATOM     21  H61 UNL     1       5.903   0.336  -1.869  1.00  0.00     0.274 HD
ENDBRANCH  17  18
ENDBRANCH  16  17
ENDBRANCH  15  16
ENDBRANCH  14  15
ENDBRANCH  13  14
ENDBRANCH  11  13
ENDBRANCH   8  11
BRANCH   1  22
HETATM   22  N1  UNL     1      -5.230  -1.211   1.965  1.00  0.00    -0.234 N 
ATOM     23  H12 UNL     1      -6.152  -0.776   1.932  1.00  0.00     0.174 HD
ATOM     24  H11 UNL     1      -5.083  -1.987   2.611  1.00  0.00     0.174 HD
ENDBRANCH   1  22
TORSDOF 8
