REMARK  8 active torsions:
REMARK  status: ('A' for Active; 'I' for Inactive)
REMARK    1  A    between atoms: C2_2  and  O1_3 
REMARK    2  A    between atoms: O1_3  and  C3_4 
REMARK    3  A    between atoms: C3_4  and  C4_5 
REMARK    4  A    between atoms: C4_5  and  O2_6 
REMARK    5  A    between atoms: O2_6  and  N1_7 
REMARK    6  A    between atoms: N1_7  and  C5_9 
REMARK    7  A    between atoms: C6_12  and  N3_13 
REMARK    8  A    between atoms: C7_18  and  N5_19 
ROOT
HETATM    1  C5  UNL     1      -1.870  -0.951   0.576  1.00  0.00     0.731 A 
HETATM    2  N2  UNL     1      -3.173  -1.252   0.801  1.00  0.00    -0.020 N 
ATOM      3  H2  UNL     1      -3.454  -2.224   0.934  1.00  0.00     0.203 HD
HETATM    4  C6  UNL     1      -4.098  -0.274   0.850  1.00  0.00     0.705 A 
HETATM    5  N4  UNL     1      -3.727   1.021   0.672  1.00  0.00    -0.022 N 
ATOM      6  H4  UNL     1      -4.429   1.760   0.709  1.00  0.00     0.203 HD
HETATM    7  C7  UNL     1      -2.439   1.333   0.448  1.00  0.00     0.705 A 
HETATM    8  N6  UNL     1      -1.541   0.334   0.406  1.00  0.00    -0.020 N 
ATOM      9  H6  UNL     1      -0.563   0.567   0.236  1.00  0.00     0.203 HD
ENDROOT
BRANCH   1  10
HETATM   10  N1  UNL     1      -0.984  -1.885   0.529  1.00  0.00    -0.095 N 
ATOM     11  H1  UNL     1      -1.250  -2.861   0.660  1.00  0.00     0.213 HD
BRANCH  10  12
HETATM   12  O2  UNL     1       0.314  -1.545   0.301  1.00  0.00    -0.264 OA
BRANCH  12  13
HETATM   13  C4  UNL     1       0.921  -1.519  -0.975  1.00  0.00     0.228 C 
BRANCH  13  14
HETATM   14  C3  UNL     1       2.371  -1.084  -0.751  1.00  0.00     0.196 C 
BRANCH  14  15
HETATM   15  O1  UNL     1       2.327   0.163  -0.168  1.00  0.00    -0.389 OA
BRANCH  15  16
HETATM   16  C2  UNL     1       3.569   0.695   0.098  1.00  0.00     0.163 C 
HETATM   17  C1  UNL     1       4.424   0.866  -1.140  1.00  0.00     0.033 C 
ENDBRANCH  15  16
ENDBRANCH  14  15
ENDBRANCH  13  14
ENDBRANCH  12  13
ENDBRANCH  10  12
ENDBRANCH   1  10
BRANCH   4  18
HETATM   18  N3  UNL     1      -5.349  -0.557   1.065  1.00  0.00    -0.234 N 
ATOM     19  H32 UNL     1      -5.627  -1.529   1.199  1.00  0.00     0.174 HD
ATOM     20  H31 UNL     1      -6.049   0.184   1.102  1.00  0.00     0.174 HD
ENDBRANCH   4  18
BRANCH   7  21
HETATM   21  N5  UNL     1      -2.018   2.538   0.272  1.00  0.00    -0.234 N 
ATOM     22  H52 UNL     1      -2.700   3.296   0.304  1.00  0.00     0.174 HD
ATOM     23  H51 UNL     1      -1.041   2.775   0.102  1.00  0.00     0.174 HD
ENDBRANCH   7  21
TORSDOF 8
