REMARK  5 active torsions:
REMARK  status: ('A' for Active; 'I' for Inactive)
REMARK       I    between atoms: C1_2  and  N1_4 
REMARK    1  A    between atoms: N1_4  and  C2_6 
REMARK    2  A    between atoms: C2_6  and  C3_7 
REMARK    3  A    between atoms: C4_9  and  O4_10 
REMARK    4  A    between atoms: C5_12  and  O5_13 
REMARK    5  A    between atoms: C6_15  and  O6_16 
ROOT
HETATM    1  C3  UNL     1       0.262  -0.318   0.333  1.00  0.00     0.159 C 
HETATM    2  O3  UNL     1      -0.041   0.861   0.888  1.00  0.00    -0.351 OA
HETATM    3  C4  UNL     1      -1.280   1.360   0.835  1.00  0.00     0.288 C 
HETATM    4  C5  UNL     1      -2.421   0.457   0.604  1.00  0.00     0.203 C 
HETATM    5  C6  UNL     1      -2.089  -0.865  -0.024  1.00  0.00     0.168 C 
HETATM    6  C7  UNL     1      -0.709  -0.901  -0.624  1.00  0.00     0.120 C 
HETATM    7  S1  UNL     1      -0.284  -2.672  -0.844  1.00  0.00    -0.087 SA
ENDROOT
BRANCH   1   8
HETATM    8  C2  UNL     1       1.593  -0.178  -0.415  1.00  0.00     0.159 C 
BRANCH   8   9
HETATM    9  N1  UNL     1       2.629   0.213   0.539  1.00  0.00    -0.333 N 
HETATM   10  C1  UNL     1       3.948   0.402   0.072  1.00  0.00     0.283 C 
HETATM   11  O1  UNL     1       4.246   0.242  -1.134  1.00  0.00    -0.630 OA
HETATM   12  O2  UNL     1       4.934   0.771   0.960  1.00  0.00    -0.630 OA
ATOM     13  H1  UNL     1       2.403   0.347   1.525  1.00  0.00     0.165 HD
ENDBRANCH   8   9
ENDBRANCH   1   8
BRANCH   3  14
HETATM   14  O4  UNL     1      -1.305   2.378  -0.150  1.00  0.00    -0.369 OA
ATOM     15  H4  UNL     1      -2.186   2.733  -0.188  1.00  0.00     0.212 HD
ENDBRANCH   3  14
BRANCH   5  16
HETATM   16  O6  UNL     1      -2.982  -1.217  -1.040  1.00  0.00    -0.392 OA
ATOM     17  H6  UNL     1      -2.772  -2.054  -1.438  1.00  0.00     0.210 HD
ENDBRANCH   5  16
BRANCH   4  18
HETATM   18  O5  UNL     1      -3.377   1.071  -0.215  1.00  0.00    -0.388 OA
ATOM     19  H5  UNL     1      -4.113   0.489  -0.364  1.00  0.00     0.210 HD
ENDBRANCH   4  18
TORSDOF 5
