REMARK  3 active torsions:
REMARK  status: ('A' for Active; 'I' for Inactive)
REMARK    1  A    between atoms: C2_2  and  N1_4 
REMARK    2  A    between atoms: N1_4  and  C4_6 
REMARK    3  A    between atoms: C4_6  and  C7_9 
ROOT
HETATM    1  C4  UNL     1      -0.052  -0.795  -0.246  1.00  0.00     0.047 C 
HETATM    2  C5  UNL     1       0.370  -0.474  -1.667  1.00  0.00     0.039 C 
HETATM    3  C6  UNL     1       0.156  -2.327  -0.129  1.00  0.00     0.039 C 
ENDROOT
BRANCH   1   4
HETATM    4  N1  UNL     1      -1.375  -0.577  -0.028  1.00  0.00    -0.408 N 
ATOM      5  H1  UNL     1      -1.911  -1.408   0.221  1.00  0.00     0.154 HD
BRANCH   4   6
HETATM    6  C2  UNL     1      -2.100   0.576  -0.089  1.00  0.00     0.069 C 
HETATM    7  C1  UNL     1      -2.239   1.332  -1.362  1.00  0.00     0.031 C 
HETATM    8  C3  UNL     1      -3.520   0.312   0.400  1.00  0.00     0.031 C 
ENDBRANCH   4   6
ENDBRANCH   1   4
BRANCH   1   9
HETATM    9  C7  UNL     1       0.963  -0.220   0.681  1.00  0.00     0.212 C 
HETATM   10  C8  UNL     1       2.396  -0.549   0.303  1.00  0.00     0.037 C 
HETATM   11  C9  UNL     1       3.218   0.560   0.977  1.00  0.00     0.029 C 
HETATM   12  C10 UNL     1       2.133   1.389   1.649  1.00  0.00     0.233 C 
HETATM   13  N2  UNL     1       1.057   1.233   0.653  1.00  0.00    -0.069 N 
ATOM     14  H22 UNL     1       1.212   1.664  -0.259  1.00  0.00     0.277 HD
ATOM     15  H21 UNL     1       0.195   1.750   0.826  1.00  0.00     0.277 HD
ENDBRANCH   1   9
TORSDOF 3
