REMARK  3 active torsions:
REMARK  status: ('A' for Active; 'I' for Inactive)
REMARK    1  A    between atoms: C2_2  and  N1_3 
REMARK    2  A    between atoms: N1_3  and  C3_5 
REMARK    3  A    between atoms: C3_5  and  C5_7 
ROOT
HETATM    1  C5  UNL     1       0.012  -0.151   0.362  1.00  0.00     0.033 C 
HETATM    2  C6  UNL     1       0.711   1.163   0.484  1.00  0.00     0.008 C 
HETATM    3  C7  UNL     1       1.895   1.313  -0.435  1.00  0.00     0.002 C 
HETATM    4  C8  UNL     1       3.182   0.903   0.262  1.00  0.00     0.027 C 
HETATM    5  C9  UNL     1       3.301  -0.611   0.257  1.00  0.00     0.232 C 
HETATM    6  N2  UNL     1       2.189  -1.127   1.007  1.00  0.00    -0.075 N 
ATOM      7  H21 UNL     1       1.984  -0.552   1.824  1.00  0.00     0.277 HD
ATOM      8  H22 UNL     1       2.426  -1.995   1.487  1.00  0.00     0.277 HD
HETATM    9  C10 UNL     1       1.042  -1.281   0.165  1.00  0.00     0.238 C 
ENDROOT
BRANCH   1  10
HETATM   10  C3  UNL     1      -0.837  -0.240  -0.897  1.00  0.00     0.082 C 
HETATM   11  C4  UNL     1      -1.427  -1.634  -0.884  1.00  0.00     0.032 C 
BRANCH  10  12
HETATM   12  N1  UNL     1      -1.787   0.793  -0.920  1.00  0.00    -0.398 N 
ATOM     13  H1  UNL     1      -1.835   1.413  -1.728  1.00  0.00     0.159 HD
BRANCH  12  14
HETATM   14  C2  UNL     1      -2.669   0.985   0.148  1.00  0.00     0.051 C 
HETATM   15  C1  UNL     1      -3.733  -0.043   0.381  1.00  0.00     0.054 C 
ENDBRANCH  12  14
ENDBRANCH  10  12
ENDBRANCH   1  10
TORSDOF 3
