REMARK  9 active torsions:
REMARK  status: ('A' for Active; 'I' for Inactive)
REMARK    1  A    between atoms: O1_2  and  C2_3 
REMARK    2  A    between atoms: C4_5  and  O2_6 
REMARK    3  A    between atoms: O2_6  and  C5_7 
REMARK    4  A    between atoms: C5_7  and  C6_8 
REMARK    5  A    between atoms: C6_8  and  C9_11 
REMARK    6  A    between atoms: C9_11  and  O3_12 
REMARK    7  A    between atoms: C18_23  and  O5_24 
REMARK    8  A    between atoms: C19_26  and  O6_27 
REMARK    9  A    between atoms: C20_29  and  O7_30 
ROOT
HETATM    1  C2  UNL     1       0.354   2.704  -1.674  1.00  0.00     0.071 A 
HETATM    2  C3  UNL     1       0.990   1.583  -1.193  1.00  0.00     0.074 A 
HETATM    3  C4  UNL     1       0.415   0.667  -0.316  1.00  0.00     0.083 A 
HETATM    4  C10 UNL     1      -0.867   0.966   0.051  1.00  0.00     0.019 A 
HETATM    5  C11 UNL     1      -1.532   2.120  -0.427  1.00  0.00    -0.019 A 
HETATM    6  C12 UNL     1      -0.922   2.971  -1.283  1.00  0.00     0.049 A 
HETATM    7  C13 UNL     1      -2.761   2.595   0.047  1.00  0.00     0.023 C 
HETATM    8  C14 UNL     1      -3.201   2.486   1.373  1.00  0.00    -0.010 C 
HETATM    9  C15 UNL     1      -4.224   3.474   1.744  1.00  0.00     0.052 C 
HETATM   10  C16 UNL     1      -2.785   1.569   2.338  1.00  0.00     0.191 C 
HETATM   11  O4  UNL     1      -2.968   1.833   3.515  1.00  0.00    -0.287 OA
HETATM   12  C17 UNL     1      -2.177   0.366   2.054  1.00  0.00     0.062 A 
HETATM   13  C18 UNL     1      -2.550  -0.641   2.902  1.00  0.00     0.116 A 
HETATM   14  C19 UNL     1      -2.166  -1.917   2.646  1.00  0.00     0.133 A 
HETATM   15  C20 UNL     1      -1.374  -2.225   1.495  1.00  0.00     0.105 A 
HETATM   16  C22 UNL     1      -0.986  -1.222   0.633  1.00  0.00     0.053 A 
HETATM   17  C23 UNL     1      -1.387   0.039   0.933  1.00  0.00    -0.003 A 
ENDROOT
BRANCH   3  18
HETATM   18  O2  UNL     1       1.110  -0.387   0.111  1.00  0.00    -0.349 OA
BRANCH  18  19
HETATM   19  C5  UNL     1       2.303  -0.993   0.018  1.00  0.00     0.186 C 
BRANCH  19  20
HETATM   20  C6  UNL     1       3.080  -1.639  -0.987  1.00  0.00    -0.004 C 
HETATM   21  C7  UNL     1       2.372  -2.895  -1.590  1.00  0.00     0.019 C 
HETATM   22  C8  UNL     1       4.290  -2.323  -0.234  1.00  0.00     0.019 C 
BRANCH  20  23
HETATM   23  C9  UNL     1       3.725  -1.028  -2.165  1.00  0.00     0.175 C 
BRANCH  23  24
HETATM   24  O3  UNL     1       2.892  -0.491  -3.094  1.00  0.00    -0.400 OA
ATOM     25  H3  UNL     1       3.307  -0.098  -3.852  1.00  0.00     0.209 HD
ENDBRANCH  23  24
ENDBRANCH  20  23
ENDBRANCH  19  20
ENDBRANCH  18  19
ENDBRANCH   3  18
BRANCH   1  26
HETATM   26  O1  UNL     1       0.994   3.574  -2.558  1.00  0.00    -0.356 OA
HETATM   27  C1  UNL     1       0.283   4.704  -3.011  1.00  0.00     0.210 C 
ENDBRANCH   1  26
BRANCH  13  28
HETATM   28  O5  UNL     1      -3.322  -0.254   3.998  1.00  0.00    -0.357 OA
ATOM     29  H5  UNL     1      -3.581  -0.953   4.587  1.00  0.00     0.217 HD
ENDBRANCH  13  28
BRANCH  15  30
HETATM   30  O7  UNL     1      -1.057  -3.532   1.318  1.00  0.00    -0.353 OA
HETATM   31  C21 UNL     1      -0.388  -4.257   0.401  1.00  0.00     0.210 C 
ENDBRANCH  15  30
BRANCH  14  32
HETATM   32  O6  UNL     1      -2.523  -2.957   3.482  1.00  0.00    -0.356 OA
ATOM     33  H6  UNL     1      -2.254  -3.850   3.303  1.00  0.00     0.218 HD
ENDBRANCH  14  32
TORSDOF 9
