REMARK  7 active torsions:
REMARK  status: ('A' for Active; 'I' for Inactive)
REMARK    1  A    between atoms: C3_3  and  C5_6 
REMARK    2  A    between atoms: C5_6  and  S1_10 
REMARK    3  A    between atoms: S1_10  and  C6_11 
REMARK    4  A    between atoms: C6_11  and  C7_12 
REMARK    5  A    between atoms: C9_16  and  C10_17 
REMARK    6  A    between atoms: N4_19  and  C12_20 
REMARK    7  A    between atoms: C17_27  and  N6_28 
ROOT
HETATM    1  C1  UNL     1       6.701   0.540  -2.902  1.00  0.00     0.098 C 
HETATM    2  C2  UNL     1       6.897   0.727  -1.706  1.00  0.00    -0.162 C 
HETATM    3  C3  UNL     1       7.161   0.949  -0.289  1.00  0.00     0.214 C 
HETATM    4  C4  UNL     1       8.595   1.250  -0.078  1.00  0.00     0.082 C 
HETATM    5  N1  UNL     1       9.716   1.473   0.103  1.00  0.00    -0.196 NA
ENDROOT
BRANCH   3   6
HETATM    6  C5  UNL     1       6.791  -0.231   0.539  1.00  0.00     0.069 C 
HETATM    7  N2  UNL     1       7.711  -0.944   1.086  1.00  0.00    -0.395 N 
ATOM      8  H22 UNL     1       8.685  -0.681   0.939  1.00  0.00     0.156 HD
ATOM      9  H21 UNL     1       7.457  -1.753   1.653  1.00  0.00     0.156 HD
BRANCH   6  10
HETATM   10  S1  UNL     1       5.106  -0.686   0.793  1.00  0.00    -0.110 SA
BRANCH  10  11
HETATM   11  C6  UNL     1       4.023   0.516   0.004  1.00  0.00     0.123 C 
BRANCH  11  12
HETATM   12  C7  UNL     1       2.589   0.140   0.236  1.00  0.00     0.005 A 
HETATM   13  C8  UNL     1       2.208  -0.973   0.955  1.00  0.00     0.099 A 
HETATM   14  N3  UNL     1       0.920  -1.293   1.151  1.00  0.00    -0.364 N 
HETATM   15  C9  UNL     1      -0.115  -0.582   0.682  1.00  0.00     0.050 A 
ATOM     16  H3  UNL     1       0.715  -2.133   1.693  1.00  0.00     0.165 HD
HETATM   17  C18 UNL     1       0.249   0.547  -0.048  1.00  0.00     0.073 A 
HETATM   18  C19 UNL     1       1.561   0.904  -0.268  1.00  0.00     0.127 A 
HETATM   19  F1  UNL     1       1.890   2.012  -0.984  1.00  0.00    -0.205 F 
BRANCH  15  20
HETATM   20  C10 UNL     1      -1.519  -0.919   0.889  1.00  0.00     0.053 A 
HETATM   21  C11 UNL     1      -2.552  -0.158   0.386  1.00  0.00     0.128 A 
HETATM   22  N4  UNL     1      -3.707  -0.733   0.750  1.00  0.00    -0.296 N 
HETATM   23  N5  UNL     1      -3.439  -1.807   1.448  1.00  0.00    -0.283 N 
HETATM   24  C17 UNL     1      -2.098  -1.961   1.559  1.00  0.00     0.127 A 
ATOM     25  H5  UNL     1      -4.136  -2.435   1.849  1.00  0.00     0.189 HD
BRANCH  22  26
HETATM   26  C12 UNL     1      -5.066  -0.311   0.465  1.00  0.00     0.107 C 
HETATM   27  C13 UNL     1      -5.554  -0.761  -0.878  1.00  0.00     0.027 C 
HETATM   28  C14 UNL     1      -6.266   0.429  -1.497  1.00  0.00     0.002 C 
HETATM   29  C15 UNL     1      -6.421   1.430  -0.377  1.00  0.00     0.002 C 
HETATM   30  C16 UNL     1      -5.188   1.202   0.475  1.00  0.00     0.027 C 
ENDBRANCH  22  26
BRANCH  24  31
HETATM   31  N6  UNL     1      -1.503  -2.917   2.183  1.00  0.00    -0.384 N 
ATOM     32  H62 UNL     1      -0.493  -3.033   2.267  1.00  0.00     0.157 HD
ATOM     33  H61 UNL     1      -1.935  -3.694   2.683  1.00  0.00     0.157 HD
ENDBRANCH  24  31
ENDBRANCH  15  20
ENDBRANCH  11  12
ENDBRANCH  10  11
ENDBRANCH   6  10
ENDBRANCH   3   6
TORSDOF 7
