REMARK  6 active torsions:
REMARK  status: ('A' for Active; 'I' for Inactive)
REMARK    1  A    between atoms: C2_2  and  N1_3 
REMARK    2  A    between atoms: N1_3  and  C3_5 
REMARK    3  A    between atoms: C5_7  and  N2_8 
REMARK    4  A    between atoms: C6_11  and  S1_12 
REMARK    5  A    between atoms: S1_12  and  C7_13 
REMARK    6  A    between atoms: C10_21  and  N5_22 
ROOT
HETATM    1  C7  UNL     1      -0.710   1.865  -2.221  1.00  0.00     0.088 A 
HETATM    2  C8  UNL     1      -0.359   2.247  -3.488  1.00  0.00     0.125 A 
HETATM    3 CL1  UNL     1       0.967   3.331  -3.827  1.00  0.00    -0.063 Cl
HETATM    4  N3  UNL     1      -1.126   1.792  -4.528  1.00  0.00    -0.342 N 
ATOM      5  H3  UNL     1      -0.880   2.065  -5.480  1.00  0.00     0.167 HD
HETATM    6  C9  UNL     1      -2.191   0.999  -4.334  1.00  0.00     0.183 A 
HETATM    7  N4  UNL     1      -2.519   0.639  -3.088  1.00  0.00    -0.337 N 
ATOM      8  H4  UNL     1      -3.331   0.037  -2.953  1.00  0.00     0.168 HD
HETATM    9  C10 UNL     1      -1.818   1.040  -1.993  1.00  0.00     0.124 A 
ENDROOT
BRANCH   1  10
HETATM   10  S1  UNL     1       0.203   2.383  -0.809  1.00  0.00    -0.080 SA
BRANCH  10  11
HETATM   11  C6  UNL     1       1.521   1.343  -0.274  1.00  0.00     0.047 A 
HETATM   12  C5  UNL     1       2.846   1.600  -0.544  1.00  0.00     0.048 A 
HETATM   13  C4  UNL     1       3.844   0.740  -0.054  1.00  0.00     0.078 A 
HETATM   14  C3  UNL     1       3.556  -0.370   0.701  1.00  0.00     0.102 A 
HETATM   15  N6  UNL     1       2.258  -0.608   0.959  1.00  0.00    -0.351 N 
HETATM   16  C18 UNL     1       1.295   0.198   0.501  1.00  0.00     0.111 A 
ATOM     17  H6  UNL     1       2.002  -1.423   1.517  1.00  0.00     0.166 HD
BRANCH  12  18
HETATM   18  N2  UNL     1       3.218   2.630  -1.198  1.00  0.00    -0.398 N 
ATOM     19  H22 UNL     1       4.200   2.820  -1.398  1.00  0.00     0.156 HD
ATOM     20  H21 UNL     1       2.494   3.254  -1.554  1.00  0.00     0.156 HD
ENDBRANCH  12  18
BRANCH  14  21
HETATM   21  N1  UNL     1       4.577  -1.223   1.184  1.00  0.00    -0.377 N 
ATOM     22  H1  UNL     1       4.320  -2.038   1.741  1.00  0.00     0.161 HD
BRANCH  21  23
HETATM   23  C2  UNL     1       5.960  -0.975   0.913  1.00  0.00     0.116 C 
HETATM   24  C1  UNL     1       6.859  -2.016   1.531  1.00  0.00     0.026 C 
ENDBRANCH  21  23
ENDBRANCH  14  21
ENDBRANCH  10  11
ENDBRANCH   1  10
BRANCH   9  25
HETATM   25  N5  UNL     1      -2.230   0.641  -0.701  1.00  0.00    -0.365 N 
HETATM   26  C11 UNL     1      -2.475   1.467   0.445  1.00  0.00     0.125 C 
HETATM   27  C12 UNL     1      -3.809   0.953   0.940  1.00  0.00     0.031 C 
HETATM   28  C13 UNL     1      -3.745  -0.508   0.584  1.00  0.00    -0.023 C 
HETATM   29  C14 UNL     1      -3.865  -1.443   1.746  1.00  0.00     0.011 C 
HETATM   30  C16 UNL     1      -5.028  -1.041   0.025  1.00  0.00     0.011 C 
HETATM   31  C17 UNL     1      -2.528  -0.709  -0.293  1.00  0.00     0.134 C 
HETATM   32  C15 UNL     1      -5.064  -2.066   1.115  1.00  0.00     0.002 C 
ENDBRANCH   9  25
TORSDOF 6
