REMARK  10 active torsions:
REMARK  status: ('A' for Active; 'I' for Inactive)
REMARK    1  A    between atoms: N1_1  and  N2_4 
REMARK    2  A    between atoms: N2_4  and  N3_5 
REMARK    3  A    between atoms: N3_5  and  C1_7 
REMARK    4  A    between atoms: C2_8  and  O1_9 
REMARK    5  A    between atoms: C4_12  and  O2_13 
REMARK    6  A    between atoms: C5_15  and  C6_16 
REMARK    7  A    between atoms: C6_16  and  C7_17 
REMARK    8  A    between atoms: C7_17  and  C8_18 
REMARK    9  A    between atoms: C8_18  and  N4_19 
REMARK   10  A    between atoms: N5_25  and  O3_27 
ROOT
HETATM    1  C1  UNL     1       4.619  -0.422  -0.090  1.00  0.00     0.114 A 
HETATM    2  C2  UNL     1       4.561   0.876  -0.537  1.00  0.00     0.098 A 
HETATM    3  C3  UNL     1       3.379   1.456  -0.923  1.00  0.00     0.076 A 
HETATM    4  C4  UNL     1       2.227   0.668  -0.843  1.00  0.00     0.082 A 
HETATM    5  C5  UNL     1       2.213  -0.636  -0.403  1.00  0.00     0.041 A 
HETATM    6  C14 UNL     1       3.472  -1.157  -0.026  1.00  0.00     0.058 A 
HETATM    7 BR1  UNL     1       3.565  -2.962   0.599  1.00  0.00    -0.047 Br
ENDROOT
BRANCH   5   8
HETATM    8  C6  UNL     1       1.032  -1.461  -0.251  1.00  0.00     0.048 C 
HETATM    9  N5  UNL     1       1.238  -2.687   0.144  1.00  0.00    -0.272 N 
ATOM     10  H5  UNL     1       2.202  -2.974   0.315  1.00  0.00     0.194 HD
BRANCH   8  11
HETATM   11  C7  UNL     1      -0.324  -1.003  -0.395  1.00  0.00     0.080 C 
BRANCH  11  12
HETATM   12  C8  UNL     1      -0.901  -0.164   0.692  1.00  0.00     0.133 C 
BRANCH  12  13
HETATM   13  N4  UNL     1      -2.227   0.207   0.314  1.00  0.00    -0.374 N 
HETATM   14  C9  UNL     1      -3.189  -0.787   0.259  1.00  0.00     0.063 C 
HETATM   15  C10 UNL     1      -4.627  -0.400   0.260  1.00  0.00     0.045 C 
HETATM   16  C11 UNL     1      -4.815   1.010   0.755  1.00  0.00     0.010 C 
HETATM   17  C12 UNL     1      -3.930   1.881  -0.148  1.00  0.00     0.045 C 
HETATM   18  C13 UNL     1      -2.519   1.562   0.267  1.00  0.00     0.063 C 
ENDBRANCH  12  13
ENDBRANCH  11  12
ENDBRANCH   8  11
BRANCH   9  19
HETATM   19  O3  UNL     1       0.265  -3.603   0.342  1.00  0.00    -0.290 OA
ATOM     20  H3  UNL     1       0.415  -4.496   0.630  1.00  0.00     0.244 HD
ENDBRANCH   9  19
ENDBRANCH   5   8
BRANCH   4  21
HETATM   21  O2  UNL     1       1.042   1.278  -1.251  1.00  0.00    -0.360 OA
ATOM     22  H2  UNL     1       0.259   0.743  -1.197  1.00  0.00     0.217 HD
ENDBRANCH   4  21
BRANCH   1  23
HETATM   23  N3  UNL     1       5.870  -1.016   0.311  1.00  0.00    -0.213 N 
ATOM     24  H3  UNL     1       5.913  -1.648   1.110  1.00  0.00     0.204 HD
BRANCH  23  25
HETATM   25  N2  UNL     1       6.896  -0.742  -0.338  1.00  0.00    -0.243 NA
BRANCH  25  26
HETATM   26  N1  UNL     1       8.020  -0.478  -0.730  1.00  0.00    -0.260 N 
ATOM     27  H12 UNL     1       8.386  -0.514   0.221  1.00  0.00     0.193 HD
ATOM     28  H11 UNL     1       8.861  -0.253  -1.262  1.00  0.00     0.193 HD
ENDBRANCH  25  26
ENDBRANCH  23  25
ENDBRANCH   1  23
BRANCH   2  29
HETATM   29  O1  UNL     1       5.742   1.616  -0.596  1.00  0.00    -0.358 OA
ATOM     30  H1  UNL     1       5.702   2.513  -0.905  1.00  0.00     0.217 HD
ENDBRANCH   2  29
TORSDOF 10
