REMARK  7 active torsions:
REMARK  status: ('A' for Active; 'I' for Inactive)
REMARK    1  A    between atoms: N2_5  and  C3_6 
REMARK    2  A    between atoms: C3_6  and  C4_7 
REMARK    3  A    between atoms: N3_10  and  C7_11 
REMARK    4  A    between atoms: C7_11  and  S1_12 
REMARK    5  A    between atoms: S1_12  and  C8_14 
REMARK    6  A    between atoms: C16_26  and  C17_27 
REMARK    7  A    between atoms: C17_27  and  C18_28 
ROOT
HETATM    1  C4  UNL     1       0.507   0.758   1.813  1.00  0.00     0.035 A 
HETATM    2  C5  UNL     1       1.059   1.743   1.058  1.00  0.00     0.044 A 
HETATM    3  C6  UNL     1       2.089   1.452   0.201  1.00  0.00     0.098 A 
HETATM    4  N3  UNL     1       2.566   0.185   0.097  1.00  0.00    -0.298 N 
HETATM    5  C14 UNL     1       1.988  -0.748   0.861  1.00  0.00     0.327 A 
HETATM    6  O2  UNL     1       2.407  -1.938   0.790  1.00  0.00    -0.246 OA
HETATM    7  N4  UNL     1       0.971  -0.489   1.716  1.00  0.00    -0.310 N 
ATOM      8  H4  UNL     1       0.565  -1.237   2.278  1.00  0.00     0.170 HD
ENDROOT
BRANCH   1   9
HETATM    9  C3  UNL     1      -0.600   1.060   2.737  1.00  0.00     0.209 C 
BRANCH   9  10
HETATM   10  N2  UNL     1      -1.859   0.894   2.019  1.00  0.00    -0.251 N 
HETATM   11  N1  UNL     1      -2.453   1.842   1.365  1.00  0.00    -0.295 N 
HETATM   12  C2  UNL     1      -3.616   1.371   0.800  1.00  0.00     0.054 A 
ATOM     13  H1  UNL     1      -2.109   2.798   1.281  1.00  0.00     0.187 HD
HETATM   14  C1  UNL     1      -4.393   2.138   0.090  1.00  0.00     0.045 C 
HETATM   15  C16 UNL     1      -3.694   0.062   1.155  1.00  0.00     0.061 A 
HETATM   16  C15 UNL     1      -2.544  -0.238   1.949  1.00  0.00     0.274 A 
HETATM   17  O3  UNL     1      -2.300  -1.362   2.444  1.00  0.00    -0.266 OA
BRANCH  15  18
HETATM   18  C17 UNL     1      -4.603  -0.818   0.871  1.00  0.00     0.030 C 
BRANCH  18  19
HETATM   19  C18 UNL     1      -5.790  -0.637   0.091  1.00  0.00    -0.035 A 
HETATM   20  C19 UNL     1      -5.880  -0.853  -1.275  1.00  0.00     0.014 A 
HETATM   21  C20 UNL     1      -7.089  -0.699  -1.922  1.00  0.00     0.043 A 
HETATM   22  C21 UNL     1      -8.207  -0.333  -1.229  1.00  0.00     0.116 A 
HETATM   23  F1  UNL     1      -9.374  -0.193  -1.908  1.00  0.00    -0.206 F 
HETATM   24  C22 UNL     1      -8.154  -0.111   0.126  1.00  0.00     0.043 A 
HETATM   25  C23 UNL     1      -6.962  -0.262   0.771  1.00  0.00     0.014 A 
ENDBRANCH  18  19
ENDBRANCH  15  18
ENDBRANCH   9  10
ENDBRANCH   1   9
BRANCH   4  26
HETATM   26  C7  UNL     1       3.666  -0.131  -0.817  1.00  0.00     0.247 C 
BRANCH  26  27
HETATM   27  S1  UNL     1       5.166   0.081   0.107  1.00  0.00     0.068 S 
HETATM   28  O1  UNL     1       5.142  -0.960   1.409  1.00  0.00    -0.251 OA
BRANCH  27  29
HETATM   29  C8  UNL     1       6.575  -0.165  -0.896  1.00  0.00     0.033 A 
HETATM   30  C9  UNL     1       7.076  -1.448  -0.973  1.00  0.00     0.021 A 
HETATM   31  C10 UNL     1       8.197  -1.731  -1.751  1.00  0.00     0.001 A 
HETATM   32  C11 UNL     1       8.813  -0.716  -2.452  1.00  0.00     0.000 A 
HETATM   33  C12 UNL     1       8.295   0.558  -2.359  1.00  0.00     0.001 A 
HETATM   34  C13 UNL     1       7.182   0.847  -1.590  1.00  0.00     0.021 A 
ENDBRANCH  27  29
ENDBRANCH  26  27
ENDBRANCH   4  26
TORSDOF 7
