REMARK  8 active torsions:
REMARK  status: ('A' for Active; 'I' for Inactive)
REMARK    1  A    between atoms: C3_3  and  C4_4 
REMARK    2  A    between atoms: C4_4  and  C5_5 
REMARK    3  A    between atoms: C6_6  and  O1_7 
REMARK    4  A    between atoms: C9_10  and  O2_11 
REMARK    5  A    between atoms: C12_14  and  O3_15 
REMARK    6  A    between atoms: C14_17  and  N1_18 
REMARK    7  A    between atoms: N1_18  and  S1_20 
REMARK    8  A    between atoms: N3_26  and  C16_27 
ROOT
HETATM    1  C1  UNL     1       2.293   1.496   2.020  1.00  0.00     0.046 C 
HETATM    2  C2  UNL     1       1.911   0.735   0.979  1.00  0.00     0.061 A 
HETATM    3  C3  UNL     1       0.629   0.363   0.644  1.00  0.00     0.039 A 
HETATM    4  C14 UNL     1       0.711  -0.419  -0.500  1.00  0.00     0.142 A 
HETATM    5  N2  UNL     1       2.018  -0.485  -0.804  1.00  0.00    -0.277 N 
ATOM      6  H2  UNL     1       2.402  -0.993  -1.601  1.00  0.00     0.189 HD
HETATM    7  N3  UNL     1       2.739   0.197   0.068  1.00  0.00    -0.255 N 
ENDROOT
BRANCH   3   8
HETATM    8  C4  UNL     1      -0.473   0.685   1.286  1.00  0.00     0.034 C 
BRANCH   8   9
HETATM    9  C5  UNL     1      -1.802   0.283   0.915  1.00  0.00     0.032 A 
HETATM   10  C6  UNL     1      -2.518   1.052   0.029  1.00  0.00     0.083 A 
HETATM   11  C8  UNL     1      -3.816   0.696  -0.358  1.00  0.00     0.074 A 
HETATM   12  C9  UNL     1      -4.382  -0.432   0.152  1.00  0.00     0.073 A 
HETATM   13  C11 UNL     1      -3.696  -1.213   1.033  1.00  0.00     0.074 A 
HETATM   14  C12 UNL     1      -2.418  -0.848   1.403  1.00  0.00     0.083 A 
BRANCH  10  15
HETATM   15  O1  UNL     1      -1.985   2.187  -0.503  1.00  0.00    -0.355 OA
HETATM   16  C7  UNL     1      -2.605   3.048  -1.407  1.00  0.00     0.210 C 
ENDBRANCH  10  15
BRANCH  12  17
HETATM   17  O2  UNL     1      -5.684  -0.830  -0.208  1.00  0.00    -0.356 OA
HETATM   18  C10 UNL     1      -6.401  -0.017  -1.127  1.00  0.00     0.210 C 
ENDBRANCH  12  17
BRANCH  14  19
HETATM   19  O3  UNL     1      -1.734  -1.629   2.283  1.00  0.00    -0.355 OA
HETATM   20  C13 UNL     1      -2.330  -2.796   2.806  1.00  0.00     0.210 C 
ENDBRANCH  14  19
ENDBRANCH   8   9
ENDBRANCH   3   8
BRANCH   4  21
HETATM   21  N1  UNL     1      -0.287  -0.966  -1.129  1.00  0.00    -0.268 N 
ATOM     22  H1  UNL     1      -1.227  -0.818  -0.762  1.00  0.00     0.180 HD
BRANCH  21  23
HETATM   23  S1  UNL     1      -0.111  -1.915  -2.531  1.00  0.00     0.228 S 
HETATM   24  C15 UNL     1       0.854  -1.170  -3.796  1.00  0.00     0.186 C 
HETATM   25  O4  UNL     1      -1.452  -2.258  -3.117  1.00  0.00    -0.206 OA
HETATM   26  O5  UNL     1       0.537  -3.241  -2.173  1.00  0.00    -0.206 OA
ENDBRANCH  21  23
ENDBRANCH   4  21
BRANCH   7  27
HETATM   27  C16 UNL     1       4.173   0.373   0.094  1.00  0.00     0.057 A 
HETATM   28  C17 UNL     1       4.934  -0.224   1.083  1.00  0.00     0.034 A 
HETATM   29  C18 UNL     1       6.301  -0.061   1.116  1.00  0.00     0.044 A 
HETATM   30  C19 UNL     1       6.921   0.715   0.140  1.00  0.00     0.116 A 
HETATM   31  F1  UNL     1       8.258   0.894   0.145  1.00  0.00    -0.206 F 
HETATM   32  C20 UNL     1       6.163   1.306  -0.839  1.00  0.00     0.044 A 
HETATM   33  C21 UNL     1       4.811   1.130  -0.850  1.00  0.00     0.034 A 
ENDBRANCH   7  27
TORSDOF 8
