REMARK  8 active torsions:
REMARK  status: ('A' for Active; 'I' for Inactive)
REMARK    1  A    between atoms: C1_2  and  C2_4 
REMARK    2  A    between atoms: C2_4  and  C3_5 
REMARK    3  A    between atoms: C3_5  and  C4_6 
REMARK    4  A    between atoms: C4_6  and  N1_7 
REMARK    5  A    between atoms: C4_6  and  C13_27 
REMARK       I    between atoms: N1_7  and  C5_9 
REMARK    6  A    between atoms: C5_9  and  C6_11 
REMARK    7  A    between atoms: N3_14  and  O4_15 
REMARK    8  A    between atoms: N4_24  and  O5_25 
ROOT
HETATM    1  N1  UNL     1      -0.875  -0.297   0.092  1.00  0.00    -0.346 N 
ATOM      2  H1  UNL     1      -0.840   0.572  -0.441  1.00  0.00     0.163 HD
HETATM    3  C5  UNL     1       0.341  -0.848   0.490  1.00  0.00     0.289 C 
HETATM    4  O3  UNL     1       0.367  -1.912   1.146  1.00  0.00    -0.264 OA
ENDROOT
BRANCH   3   5
HETATM    5  C6  UNL     1       1.602  -0.208   0.156  1.00  0.00     0.218 A 
HETATM    6  N2  UNL     1       1.603   0.942  -0.568  1.00  0.00    -0.252 N 
HETATM    7  N3  UNL     1       2.735   1.538  -0.882  1.00  0.00    -0.160 N 
ATOM      8  H2  UNL     1       0.718   1.348  -0.872  1.00  0.00     0.191 HD
HETATM    9  C7  UNL     1       3.924   1.039  -0.503  1.00  0.00     0.111 A 
HETATM   10  C8  UNL     1       5.089   1.703  -0.859  1.00  0.00     0.055 A 
HETATM   11  C12 UNL     1       3.959  -0.128   0.235  1.00  0.00     0.096 A 
HETATM   12  C9  UNL     1       6.310   1.193  -0.471  1.00  0.00     0.013 A 
HETATM   13 BR1  UNL     1       7.913   2.113  -0.967  1.00  0.00    -0.051 Br
HETATM   14  C10 UNL     1       6.331   0.024   0.267  1.00  0.00     0.021 A 
HETATM   15  C11 UNL     1       5.191  -0.650   0.631  1.00  0.00     0.036 A 
HETATM   16  N4  UNL     1       2.794  -0.718   0.543  1.00  0.00    -0.199 N 
BRANCH   7  17
HETATM   17  O4  UNL     1       2.749   2.709  -1.620  1.00  0.00    -0.267 OA
ATOM     18  H4  UNL     1       3.565   3.139  -1.846  1.00  0.00     0.247 HD
ENDBRANCH   7  17
BRANCH  16  19
HETATM   19  O5  UNL     1       2.811  -1.872   1.270  1.00  0.00    -0.281 OA
ATOM     20  H5  UNL     1       3.648  -2.230   1.542  1.00  0.00     0.245 HD
ENDBRANCH  16  19
ENDBRANCH   3   5
BRANCH   1  21
HETATM   21  C4  UNL     1      -2.188  -0.851   0.369  1.00  0.00     0.120 C 
BRANCH  21  22
HETATM   22  C3  UNL     1      -3.037   0.163   1.104  1.00  0.00     0.040 C 
BRANCH  22  23
HETATM   23  C2  UNL     1      -2.423   0.572   2.408  1.00  0.00     0.115 C 
BRANCH  23  24
HETATM   24  C1  UNL     1      -3.261   1.567   3.125  1.00  0.00     0.172 C 
HETATM   25  O1  UNL     1      -4.269   1.152   3.730  1.00  0.00    -0.648 OA
HETATM   26  O2  UNL     1      -2.987   2.909   3.156  1.00  0.00    -0.648 OA
ENDBRANCH  23  24
ENDBRANCH  22  23
ENDBRANCH  21  22
BRANCH  21  27
HETATM   27  C13 UNL     1      -2.892  -1.229  -0.875  1.00  0.00    -0.020 A 
HETATM   28  C14 UNL     1      -2.925  -0.400  -1.975  1.00  0.00     0.012 A 
HETATM   29  C15 UNL     1      -3.589  -0.773  -3.131  1.00  0.00     0.018 A 
HETATM   30  C16 UNL     1      -4.237  -1.986  -3.212  1.00  0.00     0.087 A 
HETATM   31  N5  UNL     1      -4.198  -2.788  -2.128  1.00  0.00    -0.375 N 
HETATM   32  C17 UNL     1      -3.548  -2.432  -0.986  1.00  0.00     0.096 A 
ATOM     33  H5  UNL     1      -4.671  -3.691  -2.165  1.00  0.00     0.164 HD
ENDBRANCH  21  27
ENDBRANCH   1  21
TORSDOF 8
