REMARK  6 active torsions:
REMARK  status: ('A' for Active; 'I' for Inactive)
REMARK    1  A    between atoms: N1_2  and  C2_3 
REMARK    2  A    between atoms: N1_2  and  C11_12 
REMARK    3  A    between atoms: C2_3  and  C3_4 
REMARK    4  A    between atoms: C3_4  and  C4_5 
REMARK    5  A    between atoms: C4_5  and  C5_6 
REMARK    6  A    between atoms: C17_25  and  C18_26 
ROOT
HETATM    1  C11 UNL     1       1.285   0.385  -0.764  1.00  0.00     0.681 A 
HETATM    2  N2  UNL     1       1.261  -0.269  -1.948  1.00  0.00    -0.200 N 
ATOM      3  H2  UNL     1       2.053  -0.218  -2.589  1.00  0.00     0.183 HD
HETATM    4  C12 UNL     1       0.187  -0.975  -2.254  1.00  0.00     0.139 A 
HETATM    5  C13 UNL     1      -0.958  -1.092  -1.409  1.00  0.00     0.090 A 
HETATM    6  C14 UNL     1      -0.913  -0.418  -0.207  1.00  0.00     0.151 A 
HETATM    7  N3  UNL     1       0.256   0.297   0.027  1.00  0.00    -0.174 N 
ATOM      8  H3  UNL     1       0.313   0.805   0.910  1.00  0.00     0.186 HD
HETATM    9  N4  UNL     1      -1.729  -0.338   0.716  1.00  0.00    -0.306 N 
ATOM     10  H4  UNL     1      -1.282   0.266   1.406  1.00  0.00     0.170 HD
HETATM   11  C15 UNL     1      -2.915  -0.655   1.258  1.00  0.00     0.262 C 
HETATM   12  O1  UNL     1      -2.972  -1.345   2.350  1.00  0.00    -0.267 OA
HETATM   13  C16 UNL     1      -4.291  -0.323   0.782  1.00  0.00     0.100 C 
HETATM   14  C17 UNL     1      -5.254  -0.107   1.644  1.00  0.00     0.034 C 
HETATM   15  C24 UNL     1      -4.567  -0.202  -0.645  1.00  0.00     0.258 C 
HETATM   16  O2  UNL     1      -5.170   0.834  -1.094  1.00  0.00    -0.267 OA
HETATM   17  N5  UNL     1      -4.208  -1.174  -1.616  1.00  0.00    -0.341 N 
ATOM     18  H5  UNL     1      -4.693  -1.155  -2.513  1.00  0.00     0.164 HD
HETATM   19  C25 UNL     1      -3.185  -2.202  -1.409  1.00  0.00     0.247 C 
HETATM   20  N6  UNL     1      -1.910  -1.801  -1.843  1.00  0.00    -0.370 N 
ATOM     21  H6  UNL     1      -1.693  -2.189  -2.761  1.00  0.00     0.161 HD
ENDROOT
BRANCH   1  22
HETATM   22  N1  UNL     1       2.426   1.162  -0.377  1.00  0.00    -0.222 N 
HETATM   23  C1  UNL     1       2.417   1.840   0.886  1.00  0.00     0.168 C 
BRANCH  22  24
HETATM   24  C2  UNL     1       3.546   1.241  -1.261  1.00  0.00     0.141 C 
BRANCH  24  25
HETATM   25  C3  UNL     1       4.790   0.548  -0.871  1.00  0.00     0.025 C 
BRANCH  25  26
HETATM   26  C4  UNL     1       5.411   1.001   0.421  1.00  0.00     0.040 C 
BRANCH  26  27
HETATM   27  C5  UNL     1       6.669   0.193   0.585  1.00  0.00    -0.058 A 
HETATM   28  C6  UNL     1       7.848   0.664   0.079  1.00  0.00     0.007 A 
HETATM   29  C7  UNL     1       9.019  -0.088   0.230  1.00  0.00     0.001 A 
HETATM   30  C8  UNL     1       9.014  -1.309   0.885  1.00  0.00     0.000 A 
HETATM   31  C9  UNL     1       7.817  -1.767   1.388  1.00  0.00     0.001 A 
HETATM   32  C10 UNL     1       6.650  -1.010   1.234  1.00  0.00     0.007 A 
ENDBRANCH  26  27
ENDBRANCH  25  26
ENDBRANCH  24  25
ENDBRANCH  22  24
ENDBRANCH   1  22
BRANCH  14  33
HETATM   33  C18 UNL     1      -6.634   0.219   1.355  1.00  0.00    -0.035 A 
HETATM   34  C19 UNL     1      -7.410  -0.436   0.398  1.00  0.00     0.014 A 
HETATM   35  C20 UNL     1      -8.719  -0.071   0.173  1.00  0.00     0.043 A 
HETATM   36  C21 UNL     1      -9.310   0.956   0.885  1.00  0.00     0.116 A 
HETATM   37  F1  UNL     1     -10.586   1.341   0.694  1.00  0.00    -0.206 F 
HETATM   38  C22 UNL     1      -8.568   1.618   1.833  1.00  0.00     0.043 A 
HETATM   39  C23 UNL     1      -7.283   1.254   2.050  1.00  0.00     0.014 A 
ENDBRANCH  14  33
TORSDOF 6
