REMARK  8 active torsions:
REMARK  status: ('A' for Active; 'I' for Inactive)
REMARK    1  A    between atoms: C5_5  and  C6_6 
REMARK    2  A    between atoms: C6_6  and  N1_7 
REMARK    3  A    between atoms: N1_7  and  C8_9 
REMARK    4  A    between atoms: C8_9  and  O1_10 
REMARK    5  A    between atoms: C8_9  and  C9_12 
REMARK    6  A    between atoms: C9_12  and  N2_13 
REMARK       I    between atoms: N2_13  and  C10_14 
REMARK    7  A    between atoms: C10_14  and  C11_16 
REMARK    8  A    between atoms: C14_19  and  N3_20 
ROOT
HETATM    1  C1  UNL     1      -7.585  -1.702   0.423  1.00  0.00     0.018 C 
HETATM    2  C2  UNL     1      -6.537  -1.316  -0.049  1.00  0.00    -0.076 C 
HETATM    3  C3  UNL     1      -5.284  -0.873  -0.601  1.00  0.00     0.034 A 
HETATM    4  C4  UNL     1      -4.247  -0.544   0.234  1.00  0.00     0.030 A 
HETATM    5  C5  UNL     1      -2.988  -0.105  -0.225  1.00  0.00    -0.039 A 
HETATM    6  C18 UNL     1      -2.851  -0.021  -1.579  1.00  0.00     0.010 A 
HETATM    7  C19 UNL     1      -3.886  -0.347  -2.464  1.00  0.00     0.021 A 
HETATM    8  C20 UNL     1      -5.093  -0.771  -1.966  1.00  0.00     0.029 A 
HETATM    9 BR1  UNL     1      -6.525  -1.232  -3.116  1.00  0.00    -0.050 Br
ENDROOT
BRANCH   5  10
HETATM   10  C6  UNL     1      -1.948   0.194   0.792  1.00  0.00     0.163 C 
BRANCH  10  11
HETATM   11  N1  UNL     1      -1.930   1.535   1.276  1.00  0.00    -0.360 N 
HETATM   12  C7  UNL     1      -3.105   1.953   2.118  1.00  0.00     0.152 C 
BRANCH  11  13
HETATM   13  C8  UNL     1      -0.948   2.484   1.029  1.00  0.00     0.167 C 
BRANCH  13  14
HETATM   14  O1  UNL     1      -1.219   3.647   1.623  1.00  0.00    -0.344 OA
ATOM     15  H1  UNL     1      -0.547   4.297   1.454  1.00  0.00     0.219 HD
ENDBRANCH  13  14
BRANCH  13  16
HETATM   16  C9  UNL     1       0.302   2.540   0.296  1.00  0.00     0.242 C 
BRANCH  16  17
HETATM   17  N2  UNL     1       0.827   1.547  -0.451  1.00  0.00    -0.375 NA
HETATM   18  C10 UNL     1       1.363   0.530  -1.216  1.00  0.00     0.325 C 
HETATM   19  O2  UNL     1       0.887   0.002  -2.244  1.00  0.00    -0.251 OA
BRANCH  18  20
HETATM   20  C11 UNL     1       2.680  -0.023  -0.756  1.00  0.00     0.046 A 
HETATM   21  C12 UNL     1       2.908  -1.366  -0.920  1.00  0.00     0.020 A 
HETATM   22  C13 UNL     1       4.124  -1.908  -0.508  1.00  0.00     0.032 A 
HETATM   23  C14 UNL     1       5.096  -1.106   0.061  1.00  0.00     0.055 A 
HETATM   24  C16 UNL     1       4.801   0.237   0.195  1.00  0.00     0.032 A 
HETATM   25  C17 UNL     1       3.605   0.796  -0.204  1.00  0.00     0.020 A 
BRANCH  23  26
HETATM   26  N3  UNL     1       6.322  -1.664   0.464  1.00  0.00    -0.236 N 
HETATM   27  C15 UNL     1       6.640  -2.171   1.651  1.00  0.00     0.218 A 
HETATM   28  N4  UNL     1       7.940  -2.608   1.655  1.00  0.00    -0.280 N 
HETATM   29  N5  UNL     1       8.378  -2.342   0.426  1.00  0.00    -0.007 NA
ATOM     30  H4  UNL     1       8.454  -3.038   2.424  1.00  0.00     0.184 HD
HETATM   31  N6  UNL     1       7.407  -1.780  -0.280  1.00  0.00    -0.000 NA
ENDBRANCH  23  26
ENDBRANCH  18  20
ENDBRANCH  16  17
ENDBRANCH  13  16
ENDBRANCH  11  13
ENDBRANCH  10  11
ENDBRANCH   5  10
TORSDOF 8
