REMARK  6 active torsions:
REMARK  status: ('A' for Active; 'I' for Inactive)
REMARK    1  A    between atoms: C2_2  and  S1_3 
REMARK    2  A    between atoms: S1_3  and  C3_6 
REMARK    3  A    between atoms: C6_11  and  S2_12 
REMARK    4  A    between atoms: S2_12  and  C7_15 
REMARK    5  A    between atoms: C7_15  and  C8_16 
REMARK    6  A    between atoms: C8_16  and  C9_17 
REMARK       I    between atoms: C9_17  and  N2_19 
ROOT
HETATM    1  S2  UNL     1       0.238  -0.790  -0.044  1.00  0.00     0.177 S 
HETATM    2  O3  UNL     1       0.624  -0.281   1.301  1.00  0.00    -0.223 OA
HETATM    3  O4  UNL     1       1.053  -2.041  -0.340  1.00  0.00    -0.223 OA
ENDROOT
BRANCH   1   4
HETATM    4  C6  UNL     1      -1.483  -1.230  -0.018  1.00  0.00     0.076 A 
HETATM    5  C5  UNL     1      -1.934  -2.281  -0.793  1.00  0.00     0.111 A 
HETATM    6  N1  UNL     1      -3.246  -2.625  -0.781  1.00  0.00    -0.372 N 
HETATM    7  C4  UNL     1      -4.100  -1.924   0.000  1.00  0.00     0.111 A 
ATOM      8  H1  UNL     1      -3.584  -3.400  -1.352  1.00  0.00     0.164 HD
HETATM    9  C3  UNL     1      -3.683  -0.869   0.786  1.00  0.00     0.076 A 
HETATM   10  C15 UNL     1      -2.336  -0.503   0.784  1.00  0.00     0.049 A 
BRANCH   9  11
HETATM   11  S1  UNL     1      -4.799   0.010   1.776  1.00  0.00     0.176 S 
HETATM   12  O1  UNL     1      -5.931  -0.839   2.254  1.00  0.00    -0.223 OA
HETATM   13  O2  UNL     1      -4.116   0.573   2.999  1.00  0.00    -0.223 OA
BRANCH  11  14
HETATM   14  C2  UNL     1      -5.499   1.392   0.873  1.00  0.00     0.141 C 
HETATM   15  C1  UNL     1      -6.230   0.868  -0.351  1.00  0.00     0.021 C 
ENDBRANCH  11  14
ENDBRANCH   9  11
ENDBRANCH   1   4
BRANCH   1  16
HETATM   16  C7  UNL     1       0.535   0.398  -1.299  1.00  0.00     0.155 C 
BRANCH  16  17
HETATM   17  C8  UNL     1       1.921   0.870  -1.480  1.00  0.00     0.118 C 
BRANCH  17  18
HETATM   18  C9  UNL     1       2.533   1.598  -0.388  1.00  0.00     0.224 C 
HETATM   19  O5  UNL     1       1.880   2.020   0.588  1.00  0.00    -0.273 OA
HETATM   20  N2  UNL     1       3.929   1.869  -0.392  1.00  0.00    -0.312 N 
HETATM   21  C10 UNL     1       4.756   0.986  -0.001  1.00  0.00     0.125 A 
ATOM     22  H2  UNL     1       4.269   2.777  -0.710  1.00  0.00     0.170 HD
HETATM   23  N3  UNL     1       4.361  -0.216   0.425  1.00  0.00    -0.351 N 
HETATM   24  C14 UNL     1       6.121   1.242  -0.001  1.00  0.00     0.055 A 
HETATM   25  C11 UNL     1       5.267  -1.144   0.839  1.00  0.00     0.090 A 
ATOM     26  H3  UNL     1       3.367  -0.442   0.441  1.00  0.00     0.166 HD
HETATM   27  C12 UNL     1       6.624  -0.906   0.844  1.00  0.00     0.018 A 
HETATM   28  C13 UNL     1       7.033   0.325   0.409  1.00  0.00     0.024 A 
HETATM   29 BR1  UNL     1       6.681   2.954  -0.607  1.00  0.00    -0.047 Br
ENDBRANCH  17  18
ENDBRANCH  16  17
ENDBRANCH   1  16
TORSDOF 6
