REMARK  10 active torsions:
REMARK  status: ('A' for Active; 'I' for Inactive)
REMARK    1  A    between atoms: C3_3  and  O1_4 
REMARK    2  A    between atoms: C3_3  and  C4_6 
REMARK    3  A    between atoms: C8_13  and  C9_14 
REMARK    4  A    between atoms: C9_14  and  O3_16 
REMARK    5  A    between atoms: O3_16  and  C10_17 
REMARK    6  A    between atoms: C10_17  and  C11_18 
REMARK       I    between atoms: C11_18  and  N2_20 
REMARK    7  A    between atoms: N2_20  and  C13_22 
REMARK    8  A    between atoms: C13_22  and  C14_23 
REMARK       I    between atoms: C14_23  and  N3_25 
REMARK    9  A    between atoms: N3_25  and  C15_27 
REMARK   10  A    between atoms: C15_27  and  C16_28 
ROOT
HETATM    1  C1  UNL     1       3.070  -2.722   1.228  1.00  0.00     0.105 C 
HETATM    2  C2  UNL     1       3.962  -2.176   0.570  1.00  0.00    -0.123 C 
HETATM    3  C3  UNL     1       5.026  -1.620  -0.171  1.00  0.00     0.120 C 
ENDROOT
BRANCH   3   4
HETATM    4  O1  UNL     1       5.567  -2.370  -1.088  1.00  0.00    -0.353 OA
ATOM      5  H1  UNL     1       6.283  -1.996  -1.587  1.00  0.00     0.218 HD
ENDBRANCH   3   4
BRANCH   3   6
HETATM    6  C4  UNL     1       5.603  -0.313  -0.015  1.00  0.00     0.039 A 
HETATM    7  C5  UNL     1       6.985  -0.222  -0.344  1.00  0.00     0.038 A 
HETATM    8  C6  UNL     1       7.744   0.864  -0.028  1.00  0.00     0.027 A 
HETATM    9 BR1  UNL     1       9.607   0.928  -0.499  1.00  0.00    -0.050 Br
HETATM   10  C7  UNL     1       7.138   1.901   0.634  1.00  0.00     0.107 A 
HETATM   11  N1  UNL     1       5.848   1.842   0.949  1.00  0.00    -0.359 N 
HETATM   12  C8  UNL     1       5.055   0.746   0.631  1.00  0.00     0.122 A 
ATOM     13  H1  UNL     1       5.425   2.629   1.441  1.00  0.00     0.165 HD
BRANCH  12  14
HETATM   14  C9  UNL     1       3.621   0.965   0.794  1.00  0.00     0.311 C 
HETATM   15  O2  UNL     1       3.274   1.901   1.610  1.00  0.00    -0.258 OA
BRANCH  14  16
HETATM   16  O3  UNL     1       2.576   0.337   0.199  1.00  0.00    -0.307 OA
BRANCH  16  17
HETATM   17  C10 UNL     1       1.210   0.593   0.363  1.00  0.00     0.281 C 
BRANCH  17  18
HETATM   18  C11 UNL     1       0.894   1.952  -0.123  1.00  0.00     0.244 C 
HETATM   19  O4  UNL     1       1.807   2.638  -0.656  1.00  0.00    -0.271 OA
HETATM   20  N2  UNL     1      -0.429   2.463   0.017  1.00  0.00    -0.346 N 
HETATM   21  C12 UNL     1      -0.727   3.784  -0.459  1.00  0.00     0.153 C 
BRANCH  20  22
HETATM   22  C13 UNL     1      -1.437   1.636   0.634  1.00  0.00     0.228 C 
BRANCH  22  23
HETATM   23  C14 UNL     1      -2.110   0.833  -0.412  1.00  0.00     0.235 C 
HETATM   24  O5  UNL     1      -1.750   0.962  -1.602  1.00  0.00    -0.272 OA
HETATM   25  N3  UNL     1      -3.156  -0.084  -0.115  1.00  0.00    -0.359 N 
ATOM     26  H3  UNL     1      -3.467  -0.205   0.849  1.00  0.00     0.162 HD
BRANCH  25  27
HETATM   27  C15 UNL     1      -3.774  -0.837  -1.163  1.00  0.00     0.131 C 
BRANCH  27  28
HETATM   28  C16 UNL     1      -4.861  -1.756  -0.659  1.00  0.00    -0.035 C 
HETATM   29  C17 UNL     1      -5.425  -2.487  -1.873  1.00  0.00     0.016 C 
HETATM   30  C18 UNL     1      -5.919  -0.923   0.022  1.00  0.00     0.016 C 
HETATM   31  C19 UNL     1      -4.318  -2.741   0.355  1.00  0.00     0.016 C 
ENDBRANCH  27  28
ENDBRANCH  25  27
ENDBRANCH  22  23
ENDBRANCH  20  22
ENDBRANCH  17  18
ENDBRANCH  16  17
ENDBRANCH  14  16
ENDBRANCH  12  14
ENDBRANCH   3   6
TORSDOF 10
