REMARK  8 active torsions:
REMARK  status: ('A' for Active; 'I' for Inactive)
REMARK    1  A    between atoms: C2_2  and  C3_4 
REMARK    2  A    between atoms: C8_10  and  C9_11 
REMARK    3  A    between atoms: C9_11  and  O3_13 
REMARK    4  A    between atoms: O3_13  and  C10_14 
REMARK    5  A    between atoms: C10_14  and  C11_15 
REMARK       I    between atoms: C11_15  and  N1_17 
REMARK    6  A    between atoms: N1_17  and  C12_18 
REMARK    7  A    between atoms: N1_17  and  C14_22 
REMARK    8  A    between atoms: C12_18  and  C13_19 
ROOT
HETATM    1  C10 UNL     1      -0.433  -0.632   0.724  1.00  0.00     0.281 C 
ENDROOT
BRANCH   1   2
HETATM    2  O3  UNL     1       0.908  -0.980   0.613  1.00  0.00    -0.308 OA
BRANCH   2   3
HETATM    3  C9  UNL     1       1.895  -0.108   0.173  1.00  0.00     0.294 C 
HETATM    4  O2  UNL     1       1.456   1.036  -0.109  1.00  0.00    -0.259 OA
BRANCH   3   5
HETATM    5  C8  UNL     1       3.290  -0.512   0.062  1.00  0.00     0.055 A 
HETATM    6  C6  UNL     1       3.645  -1.779   0.421  1.00  0.00    -0.007 A 
HETATM    7  C5  UNL     1       4.963  -2.194   0.365  1.00  0.00     0.124 A 
HETATM    8  C7  UNL     1       2.675  -2.804   0.892  1.00  0.00     0.052 C 
HETATM    9  C4  UNL     1       5.954  -1.362  -0.045  1.00  0.00     0.058 A 
HETATM   10  F1  UNL     1       5.329  -3.469   0.724  1.00  0.00    -0.206 F 
HETATM   11  C3  UNL     1       5.592  -0.052  -0.417  1.00  0.00     0.019 A 
HETATM   12  C19 UNL     1       4.285   0.355  -0.366  1.00  0.00    -0.031 A 
HETATM   13  C20 UNL     1       3.878   1.700  -0.880  1.00  0.00     0.050 C 
BRANCH  11  14
HETATM   14  C2  UNL     1       6.704   0.836  -0.733  1.00  0.00     0.156 C 
HETATM   15  C1  UNL     1       6.759   2.218  -0.223  1.00  0.00     0.097 C 
HETATM   16  O1  UNL     1       7.655   0.393  -1.462  1.00  0.00    -0.293 OA
ENDBRANCH  11  14
ENDBRANCH   3   5
ENDBRANCH   2   3
ENDBRANCH   1   2
BRANCH   1  17
HETATM   17  C11 UNL     1      -1.109  -0.276  -0.533  1.00  0.00     0.244 C 
HETATM   18  O4  UNL     1      -0.505  -0.302  -1.618  1.00  0.00    -0.271 OA
HETATM   19  N1  UNL     1      -2.483   0.106  -0.502  1.00  0.00    -0.336 N 
BRANCH  19  20
HETATM   20  C12 UNL     1      -3.045   0.453  -1.789  1.00  0.00     0.225 C 
BRANCH  20  21
HETATM   21  C13 UNL     1      -3.544  -0.670  -2.577  1.00  0.00     0.249 C 
HETATM   22  N2  UNL     1      -4.134  -0.345  -3.854  1.00  0.00    -0.061 NA
HETATM   23  O5  UNL     1      -3.527  -1.878  -2.293  1.00  0.00    -0.275 OA
ENDBRANCH  20  21
ENDBRANCH  19  20
BRANCH  19  24
HETATM   24  C14 UNL     1      -3.171   0.152   0.748  1.00  0.00     0.106 C 
HETATM   25  C15 UNL     1      -3.455   1.570   1.149  1.00  0.00     0.041 C 
HETATM   26  C16 UNL     1      -4.433   1.665   2.241  1.00  0.00     0.143 C 
HETATM   27  S1  UNL     1      -4.775  -0.026   2.665  1.00  0.00     0.150 S 
HETATM   28  O6  UNL     1      -6.198  -0.278   2.968  1.00  0.00    -0.227 OA
HETATM   29  O7  UNL     1      -3.818  -0.583   3.650  1.00  0.00    -0.227 OA
HETATM   30  C17 UNL     1      -4.369  -0.662   0.987  1.00  0.00     0.127 C 
HETATM   31  C18 UNL     1      -5.588  -0.395   0.182  1.00  0.00     0.028 C 
ENDBRANCH  19  24
ENDBRANCH   1  17
TORSDOF 8
