REMARK  7 active torsions:
REMARK  status: ('A' for Active; 'I' for Inactive)
REMARK    1  A    between atoms: C2_2  and  C3_3 
REMARK    2  A    between atoms: C2_2  and  C7_20 
REMARK    3  A    between atoms: C3_3  and  C4_4 
REMARK    4  A    between atoms: C4_4  and  N1_5 
REMARK    5  A    between atoms: N1_5  and  N2_7 
REMARK    6  A    between atoms: N2_7  and  C5_9 
REMARK    7  A    between atoms: N5_16  and  N6_17 
ROOT
HETATM    1  N2  UNL     1       3.343   1.111  -0.186  1.00  0.00    -0.133 N 
ATOM      2  H2  UNL     1       3.679   2.007  -0.539  1.00  0.00     0.205 HD
ENDROOT
BRANCH   1   3
HETATM    3  N1  UNL     1       2.018   1.027  -0.044  1.00  0.00    -0.319 N 
ATOM      4  H1  UNL     1       1.500   1.893  -0.196  1.00  0.00     0.181 HD
BRANCH   3   5
HETATM    5  C4  UNL     1       1.225  -0.124   0.295  1.00  0.00     0.167 C 
BRANCH   5   6
HETATM    6  C3  UNL     1      -0.243   0.229   0.306  1.00  0.00    -0.003 C 
BRANCH   6   7
HETATM    7  C2  UNL     1      -1.126  -0.350  -0.474  1.00  0.00    -0.082 C 
HETATM    8  C1  UNL     1      -0.730  -1.413  -1.439  1.00  0.00     0.043 C 
BRANCH   7   9
HETATM    9  C7  UNL     1      -2.538   0.041  -0.412  1.00  0.00     0.014 C 
HETATM   10  C8  UNL     1      -2.800   1.096   0.658  1.00  0.00     0.009 C 
HETATM   11  C9  UNL     1      -4.286   1.312   0.817  1.00  0.00     0.001 C 
HETATM   12  C10 UNL     1      -5.077   0.684  -0.302  1.00  0.00     0.000 C 
HETATM   13  C11 UNL     1      -4.826  -0.773  -0.480  1.00  0.00     0.001 C 
HETATM   14  C12 UNL     1      -3.437  -1.144  -0.033  1.00  0.00     0.009 C 
ENDBRANCH   7   9
ENDBRANCH   6   7
ENDBRANCH   5   6
ENDBRANCH   3   5
ENDBRANCH   1   3
BRANCH   1  15
HETATM   15  C5  UNL     1       4.250   0.260   0.046  1.00  0.00     0.734 A 
HETATM   16  N3  UNL     1       4.221  -1.001   0.504  1.00  0.00    -0.127 N 
HETATM   17  N4  UNL     1       5.454  -1.519   0.587  1.00  0.00    -0.260 N 
ATOM     18  H3  UNL     1       3.369  -1.501   0.757  1.00  0.00     0.206 HD
HETATM   19  C6  UNL     1       6.303  -0.573   0.174  1.00  0.00     0.229 A 
ATOM     20  H4  UNL     1       5.698  -2.457   0.905  1.00  0.00     0.190 HD
HETATM   21  S1  UNL     1       7.948  -0.658   0.067  1.00  0.00    -0.037 SA
HETATM   22  N5  UNL     1       5.602   0.509  -0.158  1.00  0.00    -0.062 N 
BRANCH  22  23
HETATM   23  N6  UNL     1       6.075   1.739  -0.642  1.00  0.00    -0.322 N 
ATOM     24  H62 UNL     1       5.538   2.568  -0.896  1.00  0.00     0.178 HD
ATOM     25  H61 UNL     1       7.067   1.922  -0.792  1.00  0.00     0.178 HD
ENDBRANCH  22  23
ENDBRANCH   1  15
TORSDOF 7
