REMARK  2 active torsions:
REMARK  status: ('A' for Active; 'I' for Inactive)
REMARK    1  A    between atoms: N1_2  and  C1_4 
REMARK    2  A    between atoms: C3_6  and  O3_7 
ROOT
HETATM    1  C1  UNL     1       1.110   0.003   0.274  1.00  0.00     0.114 C 
HETATM    2  C2  UNL     1       0.586  -1.056  -0.262  1.00  0.00     0.040 C 
HETATM    3  C3  UNL     1      -0.816  -1.131  -0.662  1.00  0.00     0.164 C 
HETATM    4  C4  UNL     1      -1.661   0.043  -0.327  1.00  0.00     0.150 C 
HETATM    5 CL1  UNL     1      -2.317  -0.197   1.329  1.00  0.00    -0.119 Cl
HETATM    6  C5  UNL     1      -0.887   1.333  -0.299  1.00  0.00     0.219 C 
HETATM    7  O4  UNL     1       0.035   1.538  -1.290  1.00  0.00    -0.230 OA
HETATM    8  O5  UNL     1       0.756   2.221  -0.394  1.00  0.00    -0.226 OA
HETATM    9  C6  UNL     1       0.341   1.242   0.534  1.00  0.00     0.249 C 
ENDROOT
BRANCH   1  10
HETATM   10  N1  UNL     1       2.490   0.015   0.644  1.00  0.00    -0.117 N 
HETATM   11  O1  UNL     1       2.803  -0.394   1.767  1.00  0.00    -0.532 OA
HETATM   12  O2  UNL     1       3.468   0.460  -0.192  1.00  0.00    -0.532 OA
ENDBRANCH   1  10
BRANCH   3  13
HETATM   13  O3  UNL     1      -1.419  -2.283  -0.116  1.00  0.00    -0.390 OA
ATOM     14  H3  UNL     1      -2.331  -2.332  -0.376  1.00  0.00     0.210 HD
ENDBRANCH   3  13
TORSDOF 2
