REMARK  2 active torsions:
REMARK  status: ('A' for Active; 'I' for Inactive)
REMARK    1  A    between atoms: O1_1  and  C1_3 
REMARK    2  A    between atoms: C9_15  and  O5_16 
ROOT
HETATM    1  C1  UNL     1       1.290  -1.910  -0.204  1.00  0.00     0.288 C 
HETATM    2  O2  UNL     1      -0.093  -1.896  -0.063  1.00  0.00    -0.351 OA
HETATM    3  C2  UNL     1      -0.685  -0.780   0.354  1.00  0.00     0.159 C 
HETATM    4  C3  UNL     1      -0.555   0.265  -0.783  1.00  0.00     0.069 C 
HETATM    5  C4  UNL     1      -0.732   1.432   0.101  1.00  0.00     0.160 C 
HETATM    6  O3  UNL     1       0.373   1.402   0.972  1.00  0.00    -0.380 OA
HETATM    7  C5  UNL     1       1.592   1.311   0.354  1.00  0.00     0.203 C 
HETATM    8  C6  UNL     1       2.481   0.184   0.633  1.00  0.00     0.179 A 
HETATM    9  O4  UNL     1       2.123  -0.604   1.777  1.00  0.00    -0.368 OA
HETATM   10  C7  UNL     1       2.303  -1.158   0.497  1.00  0.00     0.208 A 
HETATM   11  C8  UNL     1      -2.004   0.977   0.845  1.00  0.00     0.230 C 
HETATM   12  F1  UNL     1      -3.105   1.566   0.252  1.00  0.00    -0.244 F 
HETATM   13  C9  UNL     1      -2.121  -0.547   0.569  1.00  0.00     0.183 C 
ENDROOT
BRANCH   1  14
HETATM   14  O1  UNL     1       1.675  -2.749  -1.121  1.00  0.00    -0.369 OA
ATOM     15  H1  UNL     1       2.620  -2.759  -1.217  1.00  0.00     0.212 HD
ENDBRANCH   1  14
BRANCH  13  16
HETATM   16  O5  UNL     1      -2.950  -0.802  -0.489  1.00  0.00    -0.390 OA
ATOM     17  H5  UNL     1      -3.878  -0.651  -0.350  1.00  0.00     0.210 HD
ENDBRANCH  13  16
TORSDOF 2
