REMARK  0 active torsions:
REMARK  status: ('A' for Active; 'I' for Inactive)
ROOT
HETATM    1  O1  UNL     1       2.123  -1.604   1.508  1.00  0.00    -0.199 OA
HETATM    2  S1  UNL     1       2.150  -0.964   0.172  1.00  0.00     0.271 S 
HETATM    3  O2  UNL     1       3.364  -1.283  -0.629  1.00  0.00    -0.199 OA
HETATM    4  C1  UNL     1       1.986   0.825   0.288  1.00  0.00     0.214 C 
HETATM    5  C2  UNL     1       0.924   1.024  -0.804  1.00  0.00     0.261 C 
HETATM    6  F1  UNL     1       0.192   2.162  -0.570  1.00  0.00    -0.242 F 
HETATM    7  C3  UNL     1       0.021  -0.158  -0.552  1.00  0.00     0.322 C 
HETATM    8  N1  UNL     1      -0.609   0.017   0.713  1.00  0.00    -0.028 N 
ATOM      9  H11 UNL     1      -0.624   0.994   1.006  1.00  0.00     0.282 HD
ATOM     10  H12 UNL     1      -0.048  -0.355   1.479  1.00  0.00     0.282 HD
HETATM   11  C4  UNL     1      -1.925  -0.559   0.671  1.00  0.00     0.247 C 
HETATM   12  C5  UNL     1      -2.675   0.118  -0.457  1.00  0.00     0.106 C 
HETATM   13  S2  UNL     1      -1.365  -0.015  -1.745  1.00  0.00    -0.096 SA
HETATM   14  O3  UNL     1       0.737  -1.299  -0.716  1.00  0.00    -0.221 OA
ENDROOT
TORSDOF 0
