REMARK  4 active torsions:
REMARK  status: ('A' for Active; 'I' for Inactive)
REMARK    1  A    between atoms: C4_6  and  C5_7 
REMARK    2  A    between atoms: C6_8  and  C7_9 
REMARK    3  A    between atoms: C7_9  and  O3_10 
REMARK    4  A    between atoms: C8_13  and  O5_14 
ROOT
HETATM    1  C1  UNL     1      -4.022   0.982  -0.481  1.00  0.00     0.071 C 
HETATM    2  C2  UNL     1      -3.224  -0.277  -0.410  1.00  0.00     0.259 C 
HETATM    3  O1  UNL     1      -2.280  -0.262  -1.433  1.00  0.00    -0.329 OA
HETATM    4  C3  UNL     1      -1.084  -0.062  -0.812  1.00  0.00     0.300 C 
HETATM    5  O2  UNL     1       0.016  -0.614  -1.399  1.00  0.00    -0.325 OA
HETATM    6  C4  UNL     1       1.129  -0.582  -0.581  1.00  0.00     0.290 C 
HETATM    7  O4  UNL     1       0.957  -1.042   0.682  1.00  0.00    -0.325 OA
HETATM    8  C8  UNL     1      -0.186  -0.605   1.335  1.00  0.00     0.294 C 
HETATM    9  C9  UNL     1      -1.335  -0.911   0.452  1.00  0.00     0.234 C 
HETATM   10  O6  UNL     1      -2.556  -0.443   0.801  1.00  0.00    -0.346 OA
ENDROOT
BRANCH   6  11
HETATM   11  C5  UNL     1       1.745   0.776  -0.513  1.00  0.00     0.031 C 
HETATM   12  C6  UNL     1       3.012   0.936  -0.157  1.00  0.00    -0.001 C 
BRANCH  12  13
HETATM   13  C7  UNL     1       3.902  -0.180   0.195  1.00  0.00     0.191 C 
BRANCH  13  14
HETATM   14  O3  UNL     1       5.028  -0.261  -0.646  1.00  0.00    -0.397 OA
ATOM     15  H3  UNL     1       5.603  -0.982  -0.419  1.00  0.00     0.209 HD
ENDBRANCH  13  14
ENDBRANCH  12  13
ENDBRANCH   6  11
BRANCH   8  16
HETATM   16  O5  UNL     1      -0.112   0.759   1.570  1.00  0.00    -0.368 OA
ATOM     17  H5  UNL     1      -0.895   1.058   2.017  1.00  0.00     0.212 HD
ENDBRANCH   8  16
TORSDOF 4
