REMARK  3 active torsions:
REMARK  status: ('A' for Active; 'I' for Inactive)
REMARK    1  A    between atoms: N1_1  and  C1_4 
REMARK    2  A    between atoms: N3_7  and  C2_8 
REMARK    3  A    between atoms: C2_8  and  N4_9 
ROOT
HETATM    1  N4  UNL     1       0.504  -0.273   0.874  1.00  0.00     0.113 N 
HETATM    2  C3  UNL     1       0.129  -0.950  -0.314  1.00  0.00     0.301 C 
HETATM    3  C4  UNL     1      -1.181  -1.635  -0.302  1.00  0.00     0.198 C 
HETATM    4  O1  UNL     1      -2.148  -0.973  -1.094  1.00  0.00    -0.387 OA
HETATM    5  C5  UNL     1      -3.237  -0.570  -0.365  1.00  0.00     0.193 C 
HETATM    6  C6  UNL     1      -3.311   0.927  -0.182  1.00  0.00     0.193 C 
HETATM    7  O2  UNL     1      -2.673   1.258   1.030  1.00  0.00    -0.387 OA
HETATM    8  C7  UNL     1      -1.301   1.325   0.782  1.00  0.00     0.198 C 
HETATM    9  C8  UNL     1      -0.581   0.299   1.626  1.00  0.00     0.301 C 
ENDROOT
BRANCH   1  10
HETATM   10  C2  UNL     1       1.420   0.846   0.592  1.00  0.00     0.449 C 
BRANCH  10  11
HETATM   11  N3  UNL     1       2.630   0.362  -0.047  1.00  0.00    -0.158 N 
HETATM   12  N2  UNL     1       3.805  -0.063   0.376  1.00  0.00    -0.240 N 
HETATM   13  C1  UNL     1       4.155  -0.249  -0.890  1.00  0.00     0.259 A 
ATOM     14  H2  UNL     1       4.251  -0.193   1.284  1.00  0.00     0.193 HD
HETATM   15  O3  UNL     1       3.000   0.170  -1.274  1.00  0.00    -0.180 OA
BRANCH  13  16
HETATM   16  N1  UNL     1       5.232  -0.681  -1.502  1.00  0.00    -0.363 N 
ATOM     17  H12 UNL     1       6.147  -1.013  -1.198  1.00  0.00     0.159 HD
ATOM     18  H11 UNL     1       5.501  -0.824  -2.475  1.00  0.00     0.159 HD
ENDBRANCH  13  16
ENDBRANCH  10  11
ENDBRANCH   1  10
TORSDOF 3
