REMARK  4 active torsions:
REMARK  status: ('A' for Active; 'I' for Inactive)
REMARK    1  A    between atoms: C2_3  and  C3_4 
REMARK    2  A    between atoms: C8_11  and  O3_12 
REMARK    3  A    between atoms: C9_14  and  C10_15 
REMARK    4  A    between atoms: C10_15  and  O4_16 
ROOT
HETATM    1  N1  UNL     1       0.702   0.693   3.268  1.00  0.00    -0.191 NA
HETATM    2  C1  UNL     1       0.562   0.325   2.179  1.00  0.00     0.134 C 
HETATM    3  C2  UNL     1       0.376  -0.162   0.792  1.00  0.00     0.286 C 
HETATM    4  O2  UNL     1      -0.099  -1.434   0.864  1.00  0.00    -0.337 OA
HETATM    5  C7  UNL     1      -1.009  -1.812  -0.071  1.00  0.00     0.207 C 
HETATM    6  C8  UNL     1      -2.072  -0.808  -0.381  1.00  0.00     0.173 C 
HETATM    7  C9  UNL     1      -1.779   0.515   0.334  1.00  0.00     0.180 C 
HETATM    8  O5  UNL     1      -0.435   0.749   0.164  1.00  0.00    -0.330 OA
ENDROOT
BRANCH   3   9
HETATM    9  C3  UNL     1       1.748  -0.108   0.165  1.00  0.00     0.019 C 
HETATM   10  C4  UNL     1       2.447  -1.116  -0.341  1.00  0.00     0.011 C 
HETATM   11  C5  UNL     1       3.757  -0.560  -0.849  1.00  0.00     0.196 C 
HETATM   12  O1  UNL     1       3.403   0.775  -1.078  1.00  0.00    -0.383 OA
HETATM   13  C6  UNL     1       2.586   1.106  -0.001  1.00  0.00     0.208 C 
ENDBRANCH   3   9
BRANCH   7  14
HETATM   14  C10 UNL     1      -2.555   1.586  -0.389  1.00  0.00     0.199 C 
BRANCH  14  15
HETATM   15  O4  UNL     1      -2.231   2.850   0.128  1.00  0.00    -0.398 OA
ATOM     16  H4  UNL     1      -2.720   3.525  -0.328  1.00  0.00     0.209 HD
ENDBRANCH  14  15
ENDBRANCH   7  14
BRANCH   6  17
HETATM   17  O3  UNL     1      -3.342  -1.189  -0.022  1.00  0.00    -0.391 OA
ATOM     18  H3  UNL     1      -4.018  -0.551  -0.219  1.00  0.00     0.210 HD
ENDBRANCH   6  17
TORSDOF 4
