REMARK  2 active torsions:
REMARK  status: ('A' for Active; 'I' for Inactive)
REMARK    1  A    between atoms: C2_2  and  C3_3 
REMARK    2  A    between atoms: C5_7  and  N2_8 
ROOT
HETATM    1  C3  UNL     1       0.176   0.181  -0.678  1.00  0.00     0.138 A 
HETATM    2  N1  UNL     1       0.617   1.404  -0.185  1.00  0.00    -0.390 N 
ATOM      3  H1  UNL     1       1.538   1.840  -0.137  1.00  0.00     0.159 HD
HETATM    4  C4  UNL     1      -0.513   1.775   0.177  1.00  0.00     0.091 A 
HETATM    5  C5  UNL     1      -1.158   0.572  -0.272  1.00  0.00     0.247 A 
ENDROOT
BRANCH   5   6
HETATM    6  N2  UNL     1      -1.841  -0.223   0.730  1.00  0.00    -0.068 N 
ATOM      7  H23 UNL     1      -1.861  -1.196   0.423  1.00  0.00     0.275 HD
ATOM      8  H22 UNL     1      -1.250  -0.290   1.558  1.00  0.00     0.275 HD
ATOM      9  H21 UNL     1      -2.781   0.052   1.016  1.00  0.00     0.275 HD
ENDBRANCH   5   6
BRANCH   1  10
HETATM   10  C2  UNL     1       0.837  -0.922   0.093  1.00  0.00    -0.010 C 
HETATM   11  C1  UNL     1       2.150  -1.037   0.001  1.00  0.00     0.009 C 
ENDBRANCH   1  10
TORSDOF 2
