REMARK  2 active torsions:
REMARK  status: ('A' for Active; 'I' for Inactive)
REMARK    1  A    between atoms: C3_3  and  N1_4 
REMARK    2  A    between atoms: N1_4  and  C4_7 
ROOT
HETATM    1  N1  UNL     1       0.331   0.523   0.411  1.00  0.00    -0.043 N 
ATOM      2  H11 UNL     1       0.360   0.200   1.378  1.00  0.00     0.280 HD
ATOM      3  H12 UNL     1       0.471   1.522   0.561  1.00  0.00     0.280 HD
ENDROOT
BRANCH   1   4
HETATM    4  C3  UNL     1      -0.961   0.272  -0.171  1.00  0.00     0.189 A 
HETATM    5  C1  UNL     1      -2.189   0.556   0.598  1.00  0.00     0.035 A 
HETATM    6  C2  UNL     1      -1.821  -0.848   0.268  1.00  0.00     0.035 A 
ENDBRANCH   1   4
BRANCH   1   7
HETATM    7  C4  UNL     1       1.417  -0.035  -0.344  1.00  0.00     0.345 A 
HETATM    8  C5  UNL     1       2.784   0.221  -0.070  1.00  0.00     0.231 A 
HETATM    9  O1  UNL     1       2.205  -1.042   0.364  1.00  0.00    -0.353 OA
ENDBRANCH   1   7
TORSDOF 2
