REMARK  5 active torsions:
REMARK  status: ('A' for Active; 'I' for Inactive)
REMARK    1  A    between atoms: C2_2  and  O1_3 
REMARK    2  A    between atoms: O1_3  and  O2_4 
REMARK    3  A    between atoms: C4_9  and  O3_10 
REMARK    4  A    between atoms: C5_12  and  N2_13 
REMARK    5  A    between atoms: N3_19  and  O7_21 
ROOT
HETATM    1  C1  UNL     1      -2.670  -1.083   0.617  1.00  0.00     0.082 C 
HETATM    2  C2  UNL     1      -1.976   0.163   0.157  1.00  0.00     0.109 C 
HETATM    3  C3  UNL     1      -0.690   0.121   0.007  1.00  0.00     0.099 A 
HETATM    4  N1  UNL     1       0.033  -1.101   0.282  1.00  0.00    -0.331 N 
ATOM      5  H1  UNL     1      -0.501  -1.912   0.593  1.00  0.00     0.168 HD
HETATM    6  C4  UNL     1       1.430  -1.242   0.147  1.00  0.00     0.178 A 
HETATM    7  C5  UNL     1       2.181  -0.245  -0.245  1.00  0.00     0.205 A 
HETATM    8  C6  UNL     1       1.606   1.018  -0.551  1.00  0.00     0.239 A 
HETATM    9  O6  UNL     1       2.287   1.989  -0.927  1.00  0.00    -0.283 OA
HETATM   10  C7  UNL     1       0.122   1.264  -0.437  1.00  0.00     0.136 A 
HETATM   11  N3  UNL     1      -0.298   2.372  -0.715  1.00  0.00    -0.263 N 
ATOM     12  H3  UNL     1       0.543   2.887  -0.975  1.00  0.00     0.194 HD
ENDROOT
BRANCH   2  13
HETATM   13  O1  UNL     1      -2.767   1.236  -0.064  1.00  0.00    -0.203 OA
BRANCH  13  14
HETATM   14  O2  UNL     1      -3.926   1.167  -0.767  1.00  0.00    -0.245 OA
ATOM     15  H2  UNL     1      -4.482   1.921  -0.922  1.00  0.00     0.254 HD
ENDBRANCH  13  14
ENDBRANCH   2  13
BRANCH   6  16
HETATM   16  O3  UNL     1       2.015  -2.464   0.439  1.00  0.00    -0.344 OA
ATOM     17  H3  UNL     1       2.956  -2.559   0.348  1.00  0.00     0.219 HD
ENDBRANCH   6  16
BRANCH  11  18
HETATM   18  O7  UNL     1      -1.222   3.228  -0.854  1.00  0.00    -0.289 OA
ATOM     19  H7  UNL     1      -1.550   4.093  -1.071  1.00  0.00     0.244 HD
ENDBRANCH  11  18
BRANCH   7  20
HETATM   20  N2  UNL     1       3.587  -0.420  -0.370  1.00  0.00    -0.107 N 
HETATM   21  O4  UNL     1       4.223  -0.025  -1.371  1.00  0.00    -0.531 OA
HETATM   22  O5  UNL     1       4.282  -1.046   0.638  1.00  0.00    -0.531 OA
ENDBRANCH   7  20
TORSDOF 5
