REMARK  3 active torsions:
REMARK  status: ('A' for Active; 'I' for Inactive)
REMARK    1  A    between atoms: N1_1  and  C1_5 
REMARK    2  A    between atoms: C7_11  and  N2_12 
REMARK    3  A    between atoms: C8_16  and  O1_17 
ROOT
HETATM    1  C1  UNL     1       1.300  -0.526  -0.369  1.00  0.00     0.190 C 
HETATM    2  C2  UNL     1       1.176   0.877  -0.945  1.00  0.00     0.040 C 
HETATM    3  C3  UNL     1      -0.262   1.331  -0.665  1.00  0.00     0.018 C 
HETATM    4  C4  UNL     1      -0.325   1.643   0.823  1.00  0.00     0.008 C 
HETATM    5  C5  UNL     1       0.415   0.576   1.627  1.00  0.00     0.009 C 
HETATM    6  C6  UNL     1       0.331  -0.699   0.781  1.00  0.00     0.049 C 
HETATM    7  C7  UNL     1      -1.094  -0.742   0.260  1.00  0.00     0.218 C 
HETATM    8  C8  UNL     1      -1.127   0.106  -0.994  1.00  0.00     0.153 C 
ENDROOT
BRANCH   1   9
HETATM    9  N1  UNL     1       2.651  -0.782   0.034  1.00  0.00    -0.075 N 
ATOM     10  H13 UNL     1       3.311  -0.624  -0.727  1.00  0.00     0.274 HD
ATOM     11  H12 UNL     1       2.995  -0.073   0.682  1.00  0.00     0.274 HD
ATOM     12  H11 UNL     1       2.734  -1.722   0.420  1.00  0.00     0.274 HD
ENDBRANCH   1   9
BRANCH   7  13
HETATM   13  N2  UNL     1      -1.559  -2.070   0.073  1.00  0.00    -0.072 N 
ATOM     14  H23 UNL     1      -0.930  -2.599  -0.531  1.00  0.00     0.274 HD
ATOM     15  H22 UNL     1      -1.463  -2.618   0.928  1.00  0.00     0.274 HD
ATOM     16  H21 UNL     1      -2.517  -2.099  -0.277  1.00  0.00     0.274 HD
ENDBRANCH   7  13
BRANCH   8  17
HETATM   17  O1  UNL     1      -2.401   0.463  -1.377  1.00  0.00    -0.393 OA
ATOM     18  H1  UNL     1      -2.936  -0.295  -1.581  1.00  0.00     0.210 HD
ENDBRANCH   8  17
TORSDOF 3
