REMARK  6 active torsions:
REMARK  status: ('A' for Active; 'I' for Inactive)
REMARK    1  A    between atoms: C2_2  and  N1_3 
REMARK    2  A    between atoms: C2_2  and  S1_12 
REMARK    3  A    between atoms: N1_3  and  C3_5 
REMARK    4  A    between atoms: C3_5  and  O1_6 
REMARK    5  A    between atoms: N2_8  and  O2_10 
REMARK    6  A    between atoms: S1_12  and  N3_13 
ROOT
HETATM    1  N3  UNL     1      -0.918   1.224  -2.021  1.00  0.00    -0.262 N 
ATOM      2  H3  UNL     1      -0.893   1.599  -2.969  1.00  0.00     0.186 HD
HETATM    3  C4  UNL     1      -0.959   2.061  -0.870  1.00  0.00     0.188 C 
HETATM    4  N4  UNL     1      -0.997   2.809   0.063  1.00  0.00    -0.171 NA
ENDROOT
BRANCH   1   5
HETATM    5  S1  UNL     1      -0.914  -0.389  -1.712  1.00  0.00     0.012 SA
BRANCH   5   6
HETATM    6  C2  UNL     1      -0.822  -0.565  -0.060  1.00  0.00     0.084 C 
HETATM    7  C1  UNL     1      -2.053  -0.587   0.590  1.00  0.00     0.052 C 
BRANCH   6   8
HETATM    8  N1  UNL     1       0.439  -0.561   0.471  1.00  0.00    -0.315 N 
ATOM      9  H1  UNL     1       0.534  -0.576   1.486  1.00  0.00     0.170 HD
BRANCH   8  10
HETATM   10  C3  UNL     1       1.646  -0.537  -0.329  1.00  0.00     0.242 C 
HETATM   11  N2  UNL     1       2.497   0.406  -0.213  1.00  0.00    -0.233 N 
ATOM     12  H2  UNL     1       3.340   0.402  -0.787  1.00  0.00     0.198 HD
BRANCH  10  13
HETATM   13  O1  UNL     1       1.897  -1.545  -1.239  1.00  0.00    -0.331 OA
ATOM     14  H1  UNL     1       2.689  -1.529  -1.764  1.00  0.00     0.221 HD
ENDBRANCH  10  13
BRANCH  11  15
HETATM   15  O2  UNL     1       2.286   1.419   0.674  1.00  0.00    -0.287 OA
ATOM     16  H2  UNL     1       2.920   2.121   0.760  1.00  0.00     0.244 HD
ENDBRANCH  11  15
ENDBRANCH   8  10
ENDBRANCH   6   8
ENDBRANCH   5   6
ENDBRANCH   1   5
TORSDOF 6
