REMARK  3 active torsions:
REMARK  status: ('A' for Active; 'I' for Inactive)
REMARK    1  A    between atoms: O1_1  and  C1_3 
REMARK    2  A    between atoms: C5_7  and  O2_8 
REMARK    3  A    between atoms: C8_12  and  O3_13 
ROOT
HETATM    1  C1  UNL     1       1.739  -0.493   0.180  1.00  0.00     0.147 C 
HETATM    2  C2  UNL     1       0.601  -0.669   1.166  1.00  0.00     0.039 C 
HETATM    3  C3  UNL     1      -0.567  -1.147   0.320  1.00  0.00    -0.003 C 
HETATM    4  C4  UNL     1      -1.909  -0.817   0.990  1.00  0.00     0.037 C 
HETATM    5  C5  UNL     1      -1.848   0.505   0.214  1.00  0.00     0.123 C 
HETATM    6  C6  UNL     1      -0.925  -0.226  -0.770  1.00  0.00     0.021 C 
HETATM    7  C7  UNL     1       0.119   0.637  -1.325  1.00  0.00     0.041 C 
HETATM    8  C8  UNL     1       1.384   0.766  -0.579  1.00  0.00     0.147 C 
ENDROOT
BRANCH   1   9
HETATM    9  O1  UNL     1       2.973  -0.460   0.757  1.00  0.00    -0.393 OA
ATOM     10  H1  UNL     1       3.686  -0.350   0.139  1.00  0.00     0.210 HD
ENDBRANCH   1   9
BRANCH   8  11
HETATM   11  O3  UNL     1       1.321   1.833   0.338  1.00  0.00    -0.393 OA
ATOM     12  H3  UNL     1       1.098   2.624  -0.139  1.00  0.00     0.210 HD
ENDBRANCH   8  11
BRANCH   5  13
HETATM   13  O2  UNL     1      -3.065   0.871  -0.301  1.00  0.00    -0.395 OA
ATOM     14  H2  UNL     1      -3.027   1.690  -0.782  1.00  0.00     0.210 HD
ENDBRANCH   5  13
TORSDOF 3
