REMARK  2 active torsions:
REMARK  status: ('A' for Active; 'I' for Inactive)
REMARK    1  A    between atoms: C6_7  and  O1_8 
REMARK    2  A    between atoms: C7_10  and  O2_11 
ROOT
HETATM    1  C1  UNL     1      -1.157  -0.962   1.267  1.00  0.00     0.052 C 
HETATM    2  C2  UNL     1      -0.568  -0.262   0.063  1.00  0.00     0.185 A 
HETATM    3  C3  UNL     1      -1.548   0.179  -0.963  1.00  0.00     0.074 A 
HETATM    4  C4  UNL     1      -1.218   1.616  -0.632  1.00  0.00     0.276 A 
HETATM    5  N1  UNL     1      -0.187   1.110   0.269  1.00  0.00     0.103 N 
HETATM    6  C5  UNL     1       1.168   1.260  -0.229  1.00  0.00     0.307 C 
HETATM    7  C6  UNL     1       1.764  -0.108   0.123  1.00  0.00     0.177 C 
HETATM    8  C7  UNL     1       0.644  -1.005  -0.423  1.00  0.00     0.187 C 
ENDROOT
BRANCH   7   9
HETATM    9  O1  UNL     1       1.771  -0.211   1.495  1.00  0.00    -0.391 OA
ATOM     10  H1  UNL     1       2.140  -1.059   1.713  1.00  0.00     0.210 HD
ENDBRANCH   7   9
BRANCH   8  11
HETATM   11  O2  UNL     1       0.765  -2.272   0.105  1.00  0.00    -0.390 OA
ATOM     12  H2  UNL     1       1.531  -2.742  -0.202  1.00  0.00     0.210 HD
ENDBRANCH   8  11
TORSDOF 2
