REMARK  4 active torsions:
REMARK  status: ('A' for Active; 'I' for Inactive)
REMARK    1  A    between atoms: C1_2  and  C2_4 
REMARK    2  A    between atoms: C5_7  and  O3_8 
REMARK    3  A    between atoms: C7_11  and  O4_12 
REMARK    4  A    between atoms: O4_12  and  C8_13 
ROOT
HETATM    1  C2  UNL     1      -1.326   0.618  -0.479  1.00  0.00     0.116 C 
HETATM    2  C3  UNL     1      -2.198   0.678   0.776  1.00  0.00     0.020 C 
HETATM    3  C4  UNL     1      -3.120  -0.543   0.649  1.00  0.00     0.033 C 
HETATM    4  C5  UNL     1      -2.302  -1.648   0.057  1.00  0.00     0.120 C 
HETATM    5  C6  UNL     1      -0.838  -1.593   0.421  1.00  0.00     0.064 C 
HETATM    6  C7  UNL     1      -0.210  -0.366  -0.207  1.00  0.00     0.138 C 
ENDROOT
BRANCH   6   7
HETATM    7  O4  UNL     1       0.798   0.159   0.585  1.00  0.00    -0.380 OA
BRANCH   7   8
HETATM    8  C8  UNL     1       1.984   0.137  -0.078  1.00  0.00     0.122 C 
HETATM    9  C9  UNL     1       3.124  -0.582   0.672  1.00  0.00     0.032 C 
HETATM   10  C10 UNL     1       4.041   0.390  -0.083  1.00  0.00     0.005 C 
HETATM   11  C11 UNL     1       2.866   1.365  -0.021  1.00  0.00     0.032 C 
ENDBRANCH   7   8
ENDBRANCH   6   7
BRANCH   1  12
HETATM   12  C1  UNL     1      -0.849   1.958  -0.855  1.00  0.00     0.179 C 
HETATM   13  O1  UNL     1      -1.132   2.949  -0.148  1.00  0.00    -0.648 OA
HETATM   14  O2  UNL     1      -0.092   2.120  -1.986  1.00  0.00    -0.648 OA
ENDBRANCH   1  12
BRANCH   4  15
HETATM   15  O3  UNL     1      -2.819  -2.869   0.543  1.00  0.00    -0.395 OA
ATOM     16  H3  UNL     1      -2.300  -3.570   0.167  1.00  0.00     0.210 HD
ENDBRANCH   4  15
TORSDOF 4
