REMARK  4 active torsions:
REMARK  status: ('A' for Active; 'I' for Inactive)
REMARK    1  A    between atoms: C2_2  and  O1_4 
REMARK    2  A    between atoms: C2_2  and  C4_6 
REMARK    3  A    between atoms: C5_7  and  C6_8 
REMARK       I    between atoms: C6_8  and  N1_10 
REMARK    4  A    between atoms: N1_10  and  N2_12 
ROOT
HETATM    1  C6  UNL     1      -0.344  -0.102  -0.342  1.00  0.00     0.259 C 
HETATM    2  O2  UNL     1      -0.173  -0.021  -1.589  1.00  0.00    -0.267 OA
HETATM    3  N1  UNL     1       0.767  -0.140   0.526  1.00  0.00    -0.265 N 
ATOM      4  H1  UNL     1       0.622  -0.203   1.534  1.00  0.00     0.190 HD
ENDROOT
BRANCH   1   5
HETATM    5  C5  UNL     1      -1.698  -0.161   0.198  1.00  0.00     0.075 C 
HETATM    6  C4  UNL     1      -2.703  -0.129  -0.632  1.00  0.00     0.015 C 
BRANCH   6   7
HETATM    7  C2  UNL     1      -4.134  -0.176  -0.304  1.00  0.00     0.068 C 
HETATM    8  C1  UNL     1      -4.671   1.060   0.352  1.00  0.00     0.050 C 
HETATM    9  C3  UNL     1      -4.348  -1.383   0.610  1.00  0.00     0.050 C 
BRANCH   7  10
HETATM   10  O1  UNL     1      -4.922  -0.423  -1.453  1.00  0.00    -0.387 OA
ATOM     11  H1  UNL     1      -4.582  -1.206  -1.869  1.00  0.00     0.211 HD
ENDBRANCH   7  10
ENDBRANCH   6   7
ENDBRANCH   1   5
BRANCH   3  12
HETATM   12  N2  UNL     1       2.019  -0.093   0.031  1.00  0.00    -0.304 N 
HETATM   13  C7  UNL     1       2.515   1.077  -0.577  1.00  0.00     0.083 C 
HETATM   14  C8  UNL     1       3.767   1.544   0.159  1.00  0.00     0.046 C 
HETATM   15  C9  UNL     1       4.778   0.461   0.335  1.00  0.00     0.007 C 
HETATM   16  C10 UNL     1       4.311  -0.839  -0.271  1.00  0.00     0.022 C 
HETATM   17  C11 UNL     1       2.939  -1.120   0.349  1.00  0.00     0.148 C 
ENDBRANCH   3  12
TORSDOF 4
