REMARK  4 active torsions:
REMARK  status: ('A' for Active; 'I' for Inactive)
REMARK    1  A    between atoms: C2_2  and  C4_4 
REMARK    2  A    between atoms: C9_10  and  C10_11 
REMARK    3  A    between atoms: C10_11  and  O1_12 
REMARK    4  A    between atoms: C10_11  and  C11_14 
ROOT
HETATM    1  C4  UNL     1       0.669  -0.310   0.899  1.00  0.00     0.059 C 
HETATM    2  C5  UNL     1       0.563  -1.757   0.476  1.00  0.00     0.281 C 
HETATM    3  N1  UNL     1      -0.047  -1.264  -0.770  1.00  0.00     0.102 N 
HETATM    4  C6  UNL     1      -1.212  -2.073  -1.029  1.00  0.00     0.273 C 
HETATM    5  C7  UNL     1      -2.384  -1.462  -0.353  1.00  0.00     0.033 C 
HETATM    6  C8  UNL     1      -1.763  -0.407   0.526  1.00  0.00     0.047 C 
HETATM    7  C9  UNL     1      -0.392  -0.085  -0.089  1.00  0.00     0.200 C 
ENDROOT
BRANCH   7   8
HETATM    8  C10 UNL     1      -0.470   1.225  -0.787  1.00  0.00     0.258 C 
BRANCH   8   9
HETATM    9  O1  UNL     1      -0.843   2.198   0.178  1.00  0.00    -0.382 OA
ATOM     10  H1  UNL     1      -0.893   3.035  -0.268  1.00  0.00     0.210 HD
ENDBRANCH   8   9
BRANCH   8  11
HETATM   11  C11 UNL     1      -1.558   1.235  -1.791  1.00  0.00     0.205 C 
HETATM   12  O2  UNL     1      -1.481   0.499  -2.807  1.00  0.00    -0.646 OA
HETATM   13  O3  UNL     1      -2.700   2.026  -1.693  1.00  0.00    -0.646 OA
ENDBRANCH   8  11
ENDBRANCH   7   8
BRANCH   1  14
HETATM   14  C2  UNL     1       2.048   0.177   0.748  1.00  0.00    -0.014 C 
HETATM   15  C1  UNL     1       2.253   1.624   1.144  1.00  0.00     0.010 C 
HETATM   16  C3  UNL     1       2.738  -0.092  -0.543  1.00  0.00     0.010 C 
ENDBRANCH   1  14
TORSDOF 4
