REMARK  3 active torsions:
REMARK  status: ('A' for Active; 'I' for Inactive)
REMARK    1  A    between atoms: C2_2  and  N2_5 
REMARK       I    between atoms: N2_5  and  C4_7 
REMARK    2  A    between atoms: C4_7  and  C5_9 
REMARK    3  A    between atoms: C8_12  and  C9_13 
ROOT
HETATM    1  C1  UNL     1      -4.344  -0.657   0.646  1.00  0.00     0.048 C 
HETATM    2  C2  UNL     1      -3.595   0.395  -0.130  1.00  0.00     0.188 C 
HETATM    3  C3  UNL     1      -4.035   0.411  -1.517  1.00  0.00     0.084 C 
HETATM    4  N1  UNL     1      -4.390   0.440  -2.614  1.00  0.00    -0.195 NA
ENDROOT
BRANCH   2   5
HETATM    5  N2  UNL     1      -2.163   0.176  -0.127  1.00  0.00    -0.344 N 
HETATM    6  C4  UNL     1      -1.245   1.084   0.442  1.00  0.00     0.222 C 
HETATM    7  O1  UNL     1      -1.692   2.131   0.970  1.00  0.00    -0.273 OA
ATOM      8  H2  UNL     1      -1.801  -0.675  -0.557  1.00  0.00     0.163 HD
BRANCH   6   9
HETATM    9  C5  UNL     1       0.208   0.816   0.419  1.00  0.00     0.078 C 
HETATM   10  C6  UNL     1       0.700   0.691  -1.028  1.00  0.00     0.015 C 
HETATM   11  C7  UNL     1       2.223   0.680  -0.938  1.00  0.00     0.016 C 
HETATM   12  C8  UNL     1       2.572  -0.672  -0.304  1.00  0.00     0.087 C 
HETATM   13  C10 UNL     1       2.032  -0.639   1.112  1.00  0.00     0.016 C 
HETATM   14  C11 UNL     1       0.540  -0.536   1.065  1.00  0.00     0.015 C 
BRANCH  12  15
HETATM   15  C9  UNL     1       4.028  -0.804  -0.351  1.00  0.00     0.177 C 
HETATM   16  O2  UNL     1       4.524  -1.768  -0.982  1.00  0.00    -0.648 OA
HETATM   17  O3  UNL     1       4.893   0.084   0.267  1.00  0.00    -0.648 OA
ENDBRANCH  12  15
ENDBRANCH   6   9
ENDBRANCH   2   5
TORSDOF 3
