REMARK  5 active torsions:
REMARK  status: ('A' for Active; 'I' for Inactive)
REMARK    1  A    between atoms: N1_2  and  N2_3 
REMARK    2  A    between atoms: N1_2  and  C2_6 
REMARK    3  A    between atoms: C4_10  and  C5_11 
REMARK    4  A    between atoms: C5_11  and  N4_12 
REMARK    5  A    between atoms: C5_11  and  N5_16 
ROOT
HETATM    1  C2  UNL     1      -1.153  -0.280  -0.254  1.00  0.00     0.698 A 
HETATM    2  N3  UNL     1      -0.810  -1.546  -0.546  1.00  0.00    -0.198 N 
ATOM      3  H3  UNL     1      -1.460  -2.273  -0.845  1.00  0.00     0.183 HD
HETATM    4  C3  UNL     1       0.511  -1.716  -0.388  1.00  0.00     0.135 A 
HETATM    5  C4  UNL     1       0.997  -0.496   0.020  1.00  0.00     0.099 A 
HETATM    6  N6  UNL     1      -0.035   0.363   0.095  1.00  0.00    -0.189 N 
ATOM      7  H6  UNL     1       0.026   1.343   0.372  1.00  0.00     0.184 HD
ENDROOT
BRANCH   5   8
HETATM    8  C5  UNL     1       2.425  -0.164   0.332  1.00  0.00     0.429 C 
BRANCH   8   9
HETATM    9  N4  UNL     1       2.690   1.112  -0.316  1.00  0.00    -0.045 N 
ATOM     10  H43 UNL     1       2.480   1.113  -1.314  1.00  0.00     0.277 HD
ATOM     11  H42 UNL     1       2.034   1.847  -0.052  1.00  0.00     0.277 HD
ATOM     12  H41 UNL     1       3.662   1.338  -0.104  1.00  0.00     0.277 HD
ENDBRANCH   8   9
BRANCH   8  13
HETATM   13  N5  UNL     1       3.282  -1.174  -0.248  1.00  0.00    -0.045 N 
ATOM     14  H53 UNL     1       3.028  -2.116   0.050  1.00  0.00     0.277 HD
ATOM     15  H52 UNL     1       3.121  -1.292  -1.248  1.00  0.00     0.277 HD
ATOM     16  H51 UNL     1       4.254  -0.948  -0.036  1.00  0.00     0.277 HD
ENDBRANCH   8  13
ENDBRANCH   5   8
BRANCH   1  17
HETATM   17  N1  UNL     1      -2.449   0.326  -0.289  1.00  0.00    -0.135 N 
HETATM   18  C1  UNL     1      -2.688   1.689   0.046  1.00  0.00     0.197 C 
BRANCH  17  19
HETATM   19  N2  UNL     1      -3.519  -0.490  -0.677  1.00  0.00    -0.329 N 
ATOM     20  H22 UNL     1      -4.443  -0.058  -0.702  1.00  0.00     0.177 HD
ATOM     21  H21 UNL     1      -3.348  -1.466  -0.917  1.00  0.00     0.177 HD
ENDBRANCH  17  19
ENDBRANCH   1  17
TORSDOF 5
