REMARK  5 active torsions:
REMARK  status: ('A' for Active; 'I' for Inactive)
REMARK    1  A    between atoms: C2_2  and  N1_3 
REMARK    2  A    between atoms: N1_3  and  C3_5 
REMARK    3  A    between atoms: C4_8  and  C5_9 
REMARK    4  A    between atoms: C5_9  and  N3_10 
REMARK    5  A    between atoms: N4_14  and  N5_15 
ROOT
HETATM    1  C3  UNL     1       0.514   0.383  -0.090  1.00  0.00     0.695 A 
HETATM    2  N2  UNL     1      -0.703   0.914   0.110  1.00  0.00    -0.174 N 
ATOM      3  H2  UNL     1      -0.897   1.893   0.320  1.00  0.00     0.185 HD
HETATM    4  C4  UNL     1      -1.625  -0.061  -0.013  1.00  0.00     0.163 A 
HETATM    5  N4  UNL     1      -0.962  -1.184  -0.287  1.00  0.00    -0.174 N 
HETATM    6  N6  UNL     1       0.359  -0.931  -0.339  1.00  0.00    -0.110 N 
ATOM      7  H6  UNL     1       1.100  -1.605  -0.530  1.00  0.00     0.208 HD
ENDROOT
BRANCH   4   8
HETATM    8  C5  UNL     1      -3.099   0.035   0.120  1.00  0.00     0.310 C 
BRANCH   8   9
HETATM    9  N3  UNL     1      -3.546   1.363   0.419  1.00  0.00    -0.072 N 
ATOM     10  H33 UNL     1      -3.080   1.726   1.251  1.00  0.00     0.274 HD
ATOM     11  H32 UNL     1      -3.198   2.029  -0.271  1.00  0.00     0.274 HD
ATOM     12  H31 UNL     1      -4.560   1.429   0.510  1.00  0.00     0.274 HD
ENDBRANCH   8   9
ENDBRANCH   4   8
BRANCH   5  13
HETATM   13  N5  UNL     1      -1.525  -2.440  -0.494  1.00  0.00    -0.322 N 
ATOM     14  H52 UNL     1      -2.526  -2.632  -0.455  1.00  0.00     0.179 HD
ATOM     15  H51 UNL     1      -1.018  -3.300  -0.704  1.00  0.00     0.179 HD
ENDBRANCH   5  13
BRANCH   1  16
HETATM   16  N1  UNL     1       1.647   0.986  -0.057  1.00  0.00    -0.225 N 
ATOM     17  H1  UNL     1       1.672   1.986   0.141  1.00  0.00     0.177 HD
BRANCH  16  18
HETATM   18  C2  UNL     1       2.893   0.282  -0.294  1.00  0.00     0.134 C 
HETATM   19  C1  UNL     1       4.007   1.308  -0.073  1.00  0.00     0.027 C 
ENDBRANCH  16  18
ENDBRANCH   1  16
TORSDOF 5
