REMARK  5 active torsions:
REMARK  status: ('A' for Active; 'I' for Inactive)
REMARK    1  A    between atoms: N1_1  and  C1_5 
REMARK    2  A    between atoms: C1_5  and  C2_6 
REMARK    3  A    between atoms: C2_6  and  N2_7 
REMARK    4  A    between atoms: C2_6  and  C3_11 
REMARK    5  A    between atoms: C3_11  and  N3_12 
ROOT
HETATM    1  C2  UNL     1      -1.426   0.066   0.297  1.00  0.00     0.228 C 
ENDROOT
BRANCH   1   2
HETATM    2  C1  UNL     1      -2.830  -0.340   0.635  1.00  0.00     0.264 C 
BRANCH   2   3
HETATM    3  N1  UNL     1      -3.697   0.786   0.339  1.00  0.00    -0.077 N 
ATOM      4  H13 UNL     1      -3.408   1.644   0.809  1.00  0.00     0.274 HD
ATOM      5  H12 UNL     1      -3.600   1.120  -0.620  1.00  0.00     0.274 HD
ATOM      6  H11 UNL     1      -4.652   0.510   0.569  1.00  0.00     0.274 HD
ENDBRANCH   2   3
ENDBRANCH   1   2
BRANCH   1   7
HETATM    7  N2  UNL     1      -1.401   0.401  -1.133  1.00  0.00    -0.072 N 
ATOM      8  H23 UNL     1      -1.752  -0.351  -1.725  1.00  0.00     0.274 HD
ATOM      9  H22 UNL     1      -2.093   1.105  -1.390  1.00  0.00     0.274 HD
ATOM     10  H21 UNL     1      -0.446   0.677  -1.363  1.00  0.00     0.274 HD
ENDBRANCH   1   7
BRANCH   1  11
HETATM   11  C3  UNL     1      -0.439  -1.069   0.496  1.00  0.00     0.182 C 
BRANCH  11  12
HETATM   12  N3  UNL     1       0.907  -0.584   0.142  1.00  0.00    -0.300 N 
HETATM   13  C4  UNL     1       1.491  -0.629  -1.065  1.00  0.00     0.113 A 
HETATM   14  C5  UNL     1       2.747  -0.075  -0.980  1.00  0.00     0.065 A 
HETATM   15  C6  UNL     1       2.911   0.313   0.333  1.00  0.00     0.132 A 
HETATM   16  N4  UNL     1       4.080   0.937   0.862  1.00  0.00    -0.081 NA
HETATM   17  N5  UNL     1       1.783  -0.016   0.950  1.00  0.00    -0.286 N 
ATOM     18  H5  UNL     1       1.611   0.152   1.941  1.00  0.00     0.188 HD
ENDBRANCH  11  12
ENDBRANCH   1  11
TORSDOF 5
