REMARK  2 active torsions:
REMARK  status: ('A' for Active; 'I' for Inactive)
REMARK    1  A    between atoms: C3_9  and  C4_10 
REMARK    2  A    between atoms: C4_10  and  N4_11 
REMARK       I    between atoms: N4_11  and  C5_13 
REMARK       I    between atoms: C5_13  and  N5_14 
REMARK       I    between atoms: C5_13  and  N6_18 
ROOT
HETATM    1  N4  UNL     1       1.189   0.206   0.669  1.00  0.00    -0.369 N 
ATOM      2  H4  UNL     1       0.926   0.838   1.425  1.00  0.00     0.157 HD
HETATM    3  C5  UNL     1       2.503   0.222   0.222  1.00  0.00     0.476 C 
HETATM    4  N5  UNL     1       2.830   1.643  -0.164  1.00  0.00    -0.033 N 
ATOM      5  H51 UNL     1       3.796   1.655  -0.492  1.00  0.00     0.278 HD
ATOM      6  H52 UNL     1       2.657   2.310   0.588  1.00  0.00     0.278 HD
ATOM      7  H53 UNL     1       2.174   2.033  -0.841  1.00  0.00     0.278 HD
HETATM    8  N6  UNL     1       2.722  -0.571  -0.981  1.00  0.00    -0.033 N 
ATOM      9  H61 UNL     1       3.688  -0.559  -1.309  1.00  0.00     0.278 HD
ATOM     10  H62 UNL     1       2.086  -0.282  -1.724  1.00  0.00     0.278 HD
ATOM     11  H63 UNL     1       2.400  -1.529  -0.844  1.00  0.00     0.278 HD
ENDROOT
BRANCH   1  12
HETATM   12  C4  UNL     1       0.200  -0.642   0.128  1.00  0.00     0.178 C 
BRANCH  12  13
HETATM   13  C3  UNL     1      -0.990   0.283  -0.163  1.00  0.00     0.068 A 
HETATM   14  C2  UNL     1      -2.306  -0.118  -0.303  1.00  0.00     0.049 A 
HETATM   15  C1  UNL     1      -2.854  -1.462  -0.026  1.00  0.00     0.072 C 
HETATM   16  N1  UNL     1      -3.008   1.005  -0.740  1.00  0.00    -0.289 N 
HETATM   17  N2  UNL     1      -2.072   1.930  -0.844  1.00  0.00    -0.242 N 
ATOM     18  H1  UNL     1      -4.006   1.091  -0.933  1.00  0.00     0.188 HD
HETATM   19  N3  UNL     1      -0.945   1.503  -0.529  1.00  0.00    -0.287 N 
ATOM     20  H2  UNL     1      -2.251   2.887  -1.148  1.00  0.00     0.208 HD
ATOM     21  H3  UNL     1      -0.092   2.061  -0.560  1.00  0.00     0.188 HD
ENDBRANCH  12  13
ENDBRANCH   1  12
TORSDOF 2
