REMARK  11 active torsions:
REMARK  status: ('A' for Active; 'I' for Inactive)
REMARK    1  A    between atoms: C2_2  and  C3_3 
REMARK    2  A    between atoms: C2_2  and  C5_8 
REMARK    3  A    between atoms: C3_3  and  C4_4 
REMARK    4  A    between atoms: C6_9  and  O1_10 
REMARK    5  A    between atoms: C7_12  and  O2_13 
REMARK    6  A    between atoms: C8_15  and  O3_16 
REMARK    7  A    between atoms: C9_18  and  S1_19 
REMARK    8  A    between atoms: S1_19  and  C10_20 
REMARK    9  A    between atoms: C11_21  and  N2_22 
REMARK   10  A    between atoms: N2_22  and  O4_23 
REMARK   11  A    between atoms: C17_31  and  C18_32 
ROOT
HETATM    1  C5  UNL     1       2.910  -0.550   0.403  1.00  0.00     0.115 C 
HETATM    2  C6  UNL     1       2.971  -1.572  -0.689  1.00  0.00     0.172 C 
HETATM    3  C7  UNL     1       1.833  -2.544  -0.686  1.00  0.00     0.180 C 
HETATM    4  C8  UNL     1       0.754  -2.162   0.339  1.00  0.00     0.182 C 
HETATM    5  C9  UNL     1       0.498  -0.702   0.109  1.00  0.00     0.173 C 
HETATM    6  N4  UNL     1       1.634   0.007   0.666  1.00  0.00    -0.394 N 
HETATM    7  C19 UNL     1       1.425   0.476   1.994  1.00  0.00     0.145 C 
ENDROOT
BRANCH   5   8
HETATM    8  S1  UNL     1      -0.937  -0.016   0.825  1.00  0.00    -0.133 SA
BRANCH   8   9
HETATM    9  C10 UNL     1      -2.545  -0.527   0.311  1.00  0.00     0.104 C 
HETATM   10  C11 UNL     1      -2.848  -0.099  -1.077  1.00  0.00     0.124 C 
HETATM   11  C12 UNL     1      -3.346   1.312  -1.202  1.00  0.00     0.061 C 
HETATM   12  C13 UNL     1      -4.147   1.760  -0.005  1.00  0.00     0.230 C 
HETATM   13  C14 UNL     1      -5.400   0.939   0.178  1.00  0.00     0.032 A 
HETATM   14  N3  UNL     1      -3.468   1.542   1.258  1.00  0.00     0.100 N 
HETATM   15  C15 UNL     1      -5.660   0.949   1.617  1.00  0.00     0.027 A 
HETATM   16  C18 UNL     1      -4.943  -0.195   1.007  1.00  0.00     0.033 A 
HETATM   17  C16 UNL     1      -4.575   1.839   2.187  1.00  0.00     0.279 C 
HETATM   18  C17 UNL     1      -3.516   0.075   1.324  1.00  0.00     0.243 C 
BRANCH  10  19
HETATM   19  N2  UNL     1      -1.762  -0.323  -1.991  1.00  0.00    -0.098 NA
BRANCH  19  20
HETATM   20  O4  UNL     1      -2.031   0.078  -3.248  1.00  0.00    -0.296 OA
ATOM     21  H4  UNL     1      -1.313  -0.070  -3.852  1.00  0.00     0.238 HD
ENDBRANCH  19  20
ENDBRANCH  10  19
ENDBRANCH   8   9
ENDBRANCH   5   8
BRANCH   4  22
HETATM   22  O3  UNL     1      -0.319  -2.979   0.073  1.00  0.00    -0.390 OA
ATOM     23  H3  UNL     1      -0.986  -2.743   0.707  1.00  0.00     0.210 HD
ENDBRANCH   4  22
BRANCH   3  24
HETATM   24  O2  UNL     1       2.222  -3.849  -0.382  1.00  0.00    -0.390 OA
ATOM     25  H2  UNL     1       1.500  -4.466  -0.380  1.00  0.00     0.210 HD
ENDBRANCH   3  24
BRANCH   1  26
HETATM   26  C2  UNL     1       3.873   0.575   0.235  1.00  0.00     0.011 C 
HETATM   27  C1  UNL     1       5.314   0.188   0.195  1.00  0.00     0.012 C 
BRANCH  26  28
HETATM   28  C3  UNL     1       3.590   1.399  -1.016  1.00  0.00     0.050 C 
BRANCH  28  29
HETATM   29  C4  UNL     1       4.441   2.621  -1.053  1.00  0.00     0.053 C 
HETATM   30  N1  UNL     1       4.919   3.097  -2.132  1.00  0.00    -0.411 N 
ATOM     31  H12 UNL     1       4.700   2.609  -3.000  1.00  0.00     0.155 HD
ATOM     32  H11 UNL     1       5.502   3.934  -2.157  1.00  0.00     0.155 HD
ENDBRANCH  28  29
ENDBRANCH  26  28
ENDBRANCH   1  26
BRANCH   2  33
HETATM   33  O1  UNL     1       4.138  -2.328  -0.508  1.00  0.00    -0.391 OA
ATOM     34  H1  UNL     1       4.177  -2.977  -1.201  1.00  0.00     0.210 HD
ENDBRANCH   2  33
TORSDOF 11
