REMARK  15 active torsions:
REMARK  status: ('A' for Active; 'I' for Inactive)
REMARK    1  A    between atoms: C2_2  and  O2_4 
REMARK    2  A    between atoms: O2_4  and  C3_5 
REMARK    3  A    between atoms: C3_5  and  C4_6 
REMARK    4  A    between atoms: C4_6  and  C5_7 
REMARK    5  A    between atoms: C4_6  and  O3_13 
REMARK    6  A    between atoms: C5_7  and  C6_8 
REMARK    7  A    between atoms: C6_8  and  N1_9 
REMARK    8  A    between atoms: O3_13  and  C7_14 
REMARK    9  A    between atoms: C11_18  and  C12_19 
REMARK   10  A    between atoms: C13_20  and  C19_30 
REMARK   11  A    between atoms: C15_22  and  O4_23 
REMARK   12  A    between atoms: C15_22  and  C17_28 
REMARK   13  A    between atoms: C16_25  and  O5_26 
REMARK   14  A    between atoms: C20_31  and  O6_32 
REMARK   15  A    between atoms: C21_34  and  N2_35 
ROOT
HETATM    1  C7  UNL     1       0.919  -0.826  -0.193  1.00  0.00     0.155 C 
HETATM    2  C8  UNL     1       0.154  -1.246  -1.409  1.00  0.00     0.039 C 
HETATM    3  C9  UNL     1      -1.277  -1.693  -1.084  1.00  0.00    -0.009 C 
HETATM    4  C10 UNL     1      -2.041  -1.812  -2.341  1.00  0.00     0.010 C 
HETATM    5  C11 UNL     1      -1.750  -0.792  -0.011  1.00  0.00     0.027 C 
HETATM    6  C20 UNL     1      -1.077  -1.296   1.264  1.00  0.00     0.156 C 
HETATM    7  C21 UNL     1       0.393  -1.420   1.085  1.00  0.00     0.241 C 
ENDROOT
BRANCH   1   8
HETATM    8  O3  UNL     1       2.222  -1.294  -0.350  1.00  0.00    -0.376 OA
BRANCH   8   9
HETATM    9  C4  UNL     1       3.158  -0.246  -0.333  1.00  0.00     0.147 C 
BRANCH   9  10
HETATM   10  C3  UNL     1       4.004  -0.241  -1.555  1.00  0.00     0.210 C 
BRANCH  10  11
HETATM   11  O2  UNL     1       4.921   0.788  -1.657  1.00  0.00    -0.319 OA
BRANCH  11  12
HETATM   12  C2  UNL     1       4.668   2.141  -1.705  1.00  0.00     0.254 C 
HETATM   13  C1  UNL     1       5.750   3.156  -1.814  1.00  0.00     0.126 C 
HETATM   14  O1  UNL     1       3.474   2.515  -1.654  1.00  0.00    -0.266 OA
ENDBRANCH  11  12
ENDBRANCH  10  11
ENDBRANCH   9  10
BRANCH   9  15
HETATM   15  C5  UNL     1       3.991  -0.545   0.889  1.00  0.00     0.061 C 
BRANCH  15  16
HETATM   16  C6  UNL     1       5.096   0.394   1.187  1.00  0.00     0.232 C 
BRANCH  16  17
HETATM   17  N1  UNL     1       5.713  -0.113   2.438  1.00  0.00    -0.079 N 
ATOM     18  H13 UNL     1       5.052  -0.227   3.206  1.00  0.00     0.274 HD
ATOM     19  H12 UNL     1       6.005  -1.089   2.387  1.00  0.00     0.274 HD
ATOM     20  H11 UNL     1       6.474   0.534   2.643  1.00  0.00     0.274 HD
ENDBRANCH  16  17
ENDBRANCH  15  16
ENDBRANCH   9  15
ENDBRANCH   8   9
ENDBRANCH   1   8
BRANCH   7  21
HETATM   21  N2  UNL     1       0.878  -2.779   1.168  1.00  0.00    -0.070 N 
ATOM     22  H23 UNL     1       0.643  -3.335   0.346  1.00  0.00     0.274 HD
ATOM     23  H22 UNL     1       1.893  -2.844   1.088  1.00  0.00     0.274 HD
ATOM     24  H21 UNL     1       0.521  -3.182   2.035  1.00  0.00     0.274 HD
ENDBRANCH   7  21
BRANCH   6  25
HETATM   25  O6  UNL     1      -1.575  -2.544   1.636  1.00  0.00    -0.393 OA
ATOM     26  H6  UNL     1      -1.156  -2.857   2.429  1.00  0.00     0.210 HD
ENDBRANCH   6  25
BRANCH   5  27
HETATM   27  C12 UNL     1      -3.172  -0.559   0.116  1.00  0.00     0.029 C 
HETATM   28  C13 UNL     1      -3.914   0.188  -0.942  1.00  0.00     0.000 C 
HETATM   29  C14 UNL     1      -5.273   0.335  -0.198  1.00  0.00     0.046 C 
HETATM   30  C15 UNL     1      -4.704   1.142   0.949  1.00  0.00     0.088 C 
HETATM   31  C16 UNL     1      -3.569   0.221   1.369  1.00  0.00     0.157 C 
BRANCH  28  32
HETATM   32  C19 UNL     1      -3.497   1.644  -1.005  1.00  0.00    -0.002 A 
HETATM   33  C17 UNL     1      -4.107   2.305   0.250  1.00  0.00     0.027 A 
HETATM   34  C18 UNL     1      -4.487   2.743  -1.102  1.00  0.00     0.013 A 
ENDBRANCH  28  32
BRANCH  30  35
HETATM   35  O4  UNL     1      -5.589   1.414   1.938  1.00  0.00    -0.387 OA
ATOM     36  H4  UNL     1      -5.232   1.921   2.658  1.00  0.00     0.210 HD
ENDBRANCH  30  35
BRANCH  31  37
HETATM   37  O5  UNL     1      -4.029  -0.589   2.378  1.00  0.00    -0.392 OA
ATOM     38  H5  UNL     1      -4.276  -0.104   3.157  1.00  0.00     0.210 HD
ENDBRANCH  31  37
ENDBRANCH   5  27
TORSDOF 15
