REMARK  11 active torsions:
REMARK  status: ('A' for Active; 'I' for Inactive)
REMARK    1  A    between atoms: C2_2  and  C3_3 
REMARK    2  A    between atoms: C3_3  and  O1_4 
REMARK    3  A    between atoms: C4_6  and  N1_7 
REMARK    4  A    between atoms: C7_13  and  C8_14 
REMARK    5  A    between atoms: C8_14  and  N2_15 
REMARK    6  A    between atoms: C10_17  and  N3_18 
REMARK    7  A    between atoms: C12_23  and  N4_24 
REMARK    8  A    between atoms: C13_28  and  O2_29 
REMARK    9  A    between atoms: O2_29  and  C14_30 
REMARK   10  A    between atoms: C14_30  and  N6_34 
REMARK   11  A    between atoms: C16_39  and  O3_40 
ROOT
HETATM    1  N2  UNL     1       0.632  -0.868   0.050  1.00  0.00    -0.359 N 
HETATM    2  C9  UNL     1       0.249  -2.203   0.278  1.00  0.00     0.093 C 
HETATM    3  C10 UNL     1       1.279  -3.258   0.278  1.00  0.00     0.223 C 
HETATM    4  C11 UNL     1       2.686  -2.869   0.039  1.00  0.00     0.075 C 
HETATM    5  C12 UNL     1       3.000  -1.405   0.269  1.00  0.00     0.234 C 
HETATM    6  C13 UNL     1       1.929  -0.652  -0.517  1.00  0.00     0.263 C 
ENDROOT
BRANCH   1   7
HETATM    7  C8  UNL     1       0.186   0.119   0.965  1.00  0.00     0.161 C 
BRANCH   7   8
HETATM    8  C7  UNL     1      -1.296   0.346   0.903  1.00  0.00    -0.034 C 
HETATM    9  C6  UNL     1      -1.976   0.111   2.019  1.00  0.00    -0.018 C 
HETATM   10  C5  UNL     1      -3.451   0.283   2.142  1.00  0.00     0.063 C 
HETATM   11  C4  UNL     1      -3.961   1.110   0.982  1.00  0.00     0.223 C 
HETATM   12  C3  UNL     1      -3.425   0.606  -0.319  1.00  0.00     0.116 C 
HETATM   13  C16 UNL     1      -1.947   0.815  -0.360  1.00  0.00     0.187 C 
BRANCH  11  14
HETATM   14  N1  UNL     1      -5.387   1.217   0.978  1.00  0.00    -0.072 N 
ATOM     15  H13 UNL     1      -5.711   1.791   0.200  1.00  0.00     0.274 HD
ATOM     16  H12 UNL     1      -5.822   0.331   0.719  1.00  0.00     0.274 HD
ATOM     17  H11 UNL     1      -5.753   1.561   1.866  1.00  0.00     0.274 HD
ENDBRANCH  11  14
BRANCH  12  18
HETATM   18  C2  UNL     1      -3.731  -0.842  -0.583  1.00  0.00     0.038 C 
HETATM   19  C1  UNL     1      -5.212  -1.126  -0.591  1.00  0.00     0.008 C 
ENDBRANCH  12  18
BRANCH  12  20
HETATM   20  O1  UNL     1      -4.030   1.351  -1.336  1.00  0.00    -0.385 OA
ATOM     21  H1  UNL     1      -3.837   2.266  -1.169  1.00  0.00     0.210 HD
ENDBRANCH  12  20
BRANCH  13  22
HETATM   22  O3  UNL     1      -1.697   2.175  -0.517  1.00  0.00    -0.383 OA
HETATM   23  C17 UNL     1      -1.084   2.471  -1.733  1.00  0.00     0.202 C 
ENDBRANCH  13  22
ENDBRANCH   7   8
ENDBRANCH   1   7
BRANCH   6  24
HETATM   24  O2  UNL     1       2.165   0.720  -0.613  1.00  0.00    -0.294 OA
BRANCH  24  25
HETATM   25  C14 UNL     1       3.319   1.307  -1.133  1.00  0.00     0.221 C 
HETATM   26  N5  UNL     1       3.931   0.577  -2.011  1.00  0.00    -0.365 N 
ATOM     27  H52 UNL     1       3.611  -0.346  -2.305  1.00  0.00     0.159 HD
ATOM     28  H51 UNL     1       4.775   1.006  -2.391  1.00  0.00     0.159 HD
BRANCH  25  29
HETATM   29  N6  UNL     1       3.759   2.576  -0.729  1.00  0.00    -0.299 N 
HETATM   30  C15 UNL     1       4.934   2.975  -0.503  1.00  0.00     0.204 C 
HETATM   31  N7  UNL     1       6.029   2.097  -0.647  1.00  0.00    -0.066 NA
HETATM   32  N8  UNL     1       5.115   4.333  -0.101  1.00  0.00    -0.066 NA
ATOM     33  H6  UNL     1       3.026   3.274  -0.600  1.00  0.00     0.171 HD
ENDBRANCH  25  29
ENDBRANCH  24  25
ENDBRANCH   6  24
BRANCH   3  34
HETATM   34  N3  UNL     1       0.924  -4.209  -0.796  1.00  0.00    -0.070 N 
ATOM     35  H33 UNL     1      -0.024  -4.575  -0.710  1.00  0.00     0.275 HD
ATOM     36  H32 UNL     1       0.809  -3.762  -1.705  1.00  0.00     0.275 HD
ATOM     37  H31 UNL     1       1.637  -4.939  -0.796  1.00  0.00     0.275 HD
ENDBRANCH   3  34
BRANCH   5  38
HETATM   38  N4  UNL     1       3.007  -1.074   1.663  1.00  0.00    -0.071 N 
ATOM     39  H43 UNL     1       2.131  -1.341   2.112  1.00  0.00     0.274 HD
ATOM     40  H42 UNL     1       3.644  -1.677   2.184  1.00  0.00     0.274 HD
ATOM     41  H41 UNL     1       3.218  -0.088   1.818  1.00  0.00     0.274 HD
ENDBRANCH   5  38
TORSDOF 11
