REMARK  10 active torsions:
REMARK  status: ('A' for Active; 'I' for Inactive)
REMARK    1  A    between atoms: C2_2  and  N1_3 
REMARK    2  A    between atoms: N1_3  and  C3_5 
REMARK    3  A    between atoms: C5_7  and  O1_8 
REMARK    4  A    between atoms: C6_10  and  C7_11 
REMARK    5  A    between atoms: C7_11  and  O2_12 
REMARK    6  A    between atoms: C11_16  and  O3_18 
REMARK    7  A    between atoms: C16_23  and  C17_24 
REMARK    8  A    between atoms: C17_24  and  O4_25 
REMARK    9  A    between atoms: C19_29  and  N2_30 
REMARK   10  A    between atoms: C20_34  and  O6_35 
ROOT
HETATM    1  C3  UNL     1       1.764   0.745   0.559  1.00  0.00     0.122 C 
HETATM    2  C4  UNL     1       2.684   0.477  -0.605  1.00  0.00     0.061 C 
HETATM    3  C5  UNL     1       2.674  -1.053  -0.687  1.00  0.00     0.134 C 
HETATM    4  C6  UNL     1       1.200  -1.354  -0.512  1.00  0.00     0.045 C 
HETATM    5  C9  UNL     1       0.498  -1.232  -1.839  1.00  0.00     0.026 C 
HETATM    6  C10 UNL     1      -0.991  -1.218  -1.706  1.00  0.00     0.040 A 
HETATM    7  C11 UNL     1      -1.580   0.155  -2.068  1.00  0.00     0.073 A 
HETATM    8  C12 UNL     1      -0.704   1.123  -2.760  1.00  0.00     0.047 C 
HETATM    9  C13 UNL     1      -1.556  -0.303  -0.702  1.00  0.00     0.054 A 
HETATM   10  C14 UNL     1      -0.651   0.034   0.394  1.00  0.00    -0.029 C 
HETATM   11  C15 UNL     1      -1.179   0.739   1.406  1.00  0.00     0.022 C 
HETATM   12  C16 UNL     1      -2.607   1.154   1.421  1.00  0.00     0.129 A 
HETATM   13  O5  UNL     1      -3.356   0.057   2.145  1.00  0.00    -0.360 OA
HETATM   14  C18 UNL     1      -3.493   0.406   0.708  1.00  0.00     0.195 A 
HETATM   15  C19 UNL     1      -2.936  -0.721  -0.133  1.00  0.00     0.231 C 
HETATM   16  C20 UNL     1       0.770  -0.380   0.527  1.00  0.00     0.114 C 
ENDROOT
BRANCH   1  17
HETATM   17  N1  UNL     1       1.228   2.032   0.680  1.00  0.00    -0.395 N 
ATOM     18  H1  UNL     1       0.221   2.175   0.607  1.00  0.00     0.159 HD
BRANCH  17  19
HETATM   19  C2  UNL     1       2.081   3.127   0.903  1.00  0.00     0.051 C 
HETATM   20  C1  UNL     1       2.969   3.507  -0.252  1.00  0.00     0.054 C 
ENDBRANCH  17  19
ENDBRANCH   1  17
BRANCH  16  21
HETATM   21  O6  UNL     1       0.944  -1.052   1.778  1.00  0.00    -0.382 OA
ATOM     22  H6  UNL     1       0.315  -1.764   1.758  1.00  0.00     0.211 HD
ENDBRANCH  16  21
BRANCH   3  23
HETATM   23  O1  UNL     1       3.146  -1.525  -1.885  1.00  0.00    -0.395 OA
ATOM     24  H1  UNL     1       3.140  -2.474  -1.936  1.00  0.00     0.210 HD
ENDBRANCH   3  23
BRANCH   4  25
HETATM   25  C7  UNL     1       1.099  -2.793  -0.066  1.00  0.00     0.182 C 
BRANCH  25  26
HETATM   26  O2  UNL     1       1.739  -3.100   1.097  1.00  0.00    -0.395 OA
HETATM   27  C8  UNL     1       1.563  -4.444   1.385  1.00  0.00     0.201 C 
ENDBRANCH  25  26
ENDBRANCH   4  25
BRANCH   7  28
HETATM   28  O3  UNL     1      -2.814  -0.006  -2.768  1.00  0.00    -0.389 OA
ATOM     29  H3  UNL     1      -3.178   0.843  -2.992  1.00  0.00     0.210 HD
ENDBRANCH   7  28
BRANCH  15  30
HETATM   30  N2  UNL     1      -2.865  -1.950   0.587  1.00  0.00    -0.071 N 
ATOM     31  H23 UNL     1      -2.460  -2.691   0.016  1.00  0.00     0.274 HD
ATOM     32  H22 UNL     1      -2.158  -1.909   1.321  1.00  0.00     0.274 HD
ATOM     33  H21 UNL     1      -3.773  -2.225   0.961  1.00  0.00     0.274 HD
ENDBRANCH  15  30
BRANCH  12  34
HETATM   34  C17 UNL     1      -2.944   2.414   2.153  1.00  0.00     0.209 C 
BRANCH  34  35
HETATM   35  O4  UNL     1      -4.313   2.649   2.129  1.00  0.00    -0.397 OA
ATOM     36  H4  UNL     1      -4.527   3.449   2.594  1.00  0.00     0.209 HD
ENDBRANCH  34  35
ENDBRANCH  12  34
TORSDOF 10
