REMARK  6 active torsions:
REMARK  status: ('A' for Active; 'I' for Inactive)
REMARK    1  A    between atoms: N1_1  and  N2_4 
REMARK    2  A    between atoms: N2_4  and  N3_6 
REMARK    3  A    between atoms: N3_6  and  N4_7 
REMARK       I    between atoms: N4_7  and  C1_9 
REMARK    4  A    between atoms: C1_9  and  C2_11 
REMARK    5  A    between atoms: N5_15  and  C6_16 
REMARK    6  A    between atoms: C6_16  and  C7_17 
ROOT
HETATM    1  C2  UNL     1      -0.397   0.508   0.149  1.00  0.00     0.049 A 
HETATM    2  C3  UNL     1      -0.391   1.002   1.449  1.00  0.00     0.020 A 
HETATM    3  C4  UNL     1       0.828   1.249   2.012  1.00  0.00     0.019 A 
HETATM    4  C5  UNL     1       2.003   1.011   1.305  1.00  0.00     0.096 A 
HETATM    5  N5  UNL     1       1.952   0.526   0.037  1.00  0.00    -0.337 N 
HETATM    6  C8  UNL     1       0.770   0.280  -0.524  1.00  0.00     0.113 A 
ENDROOT
BRANCH   1   7
HETATM    7  C1  UNL     1      -1.707   0.321  -0.452  1.00  0.00     0.270 C 
HETATM    8  N4  UNL     1      -2.253  -0.864  -0.942  1.00  0.00    -0.248 N 
ATOM      9  H4  UNL     1      -1.721  -1.733  -0.902  1.00  0.00     0.187 HD
HETATM   10  O1  UNL     1      -2.440   1.384  -0.536  1.00  0.00    -0.266 OA
BRANCH   8  11
HETATM   11  N3  UNL     1      -3.556  -0.846  -1.496  1.00  0.00    -0.004 NA
BRANCH  11  12
HETATM   12  N2  UNL     1      -4.454  -0.127  -0.756  1.00  0.00    -0.233 N 
ATOM     13  H2  UNL     1      -4.584   0.877  -0.882  1.00  0.00     0.205 HD
BRANCH  12  14
HETATM   14  N1  UNL     1      -5.165  -0.843   0.163  1.00  0.00    -0.332 N 
ATOM     15  H12 UNL     1      -5.024  -1.847   0.278  1.00  0.00     0.178 HD
ATOM     16  H11 UNL     1      -5.835  -0.307   0.715  1.00  0.00     0.178 HD
ENDBRANCH  12  14
ENDBRANCH  11  12
ENDBRANCH   8  11
ENDBRANCH   1   7
BRANCH   5  17
HETATM   17  C6  UNL     1       3.170   0.357  -0.690  1.00  0.00     0.166 C 
BRANCH  17  18
HETATM   18  C7  UNL     1       3.890  -0.887  -0.518  1.00  0.00     0.270 C 
HETATM   19  N6  UNL     1       4.935  -0.943   0.461  1.00  0.00    -0.057 NA
HETATM   20  O2  UNL     1       3.648  -1.915  -1.182  1.00  0.00    -0.270 OA
ENDBRANCH  17  18
ENDBRANCH   5  17
TORSDOF 6
