REMARK  5 active torsions:
REMARK  status: ('A' for Active; 'I' for Inactive)
REMARK    1  A    between atoms: N1_1  and  N2_4 
REMARK       I    between atoms: N2_4  and  C1_6 
REMARK       I    between atoms: C1_6  and  N3_8 
REMARK    2  A    between atoms: N3_8  and  C2_10 
REMARK    3  A    between atoms: C2_10  and  C3_11 
REMARK    4  A    between atoms: C2_10  and  C7_19 
REMARK    5  A    between atoms: C3_11  and  C4_12 
ROOT
HETATM    1  C2  UNL     1       0.249  -0.233  -0.391  1.00  0.00     0.181 C 
ENDROOT
BRANCH   1   2
HETATM    2  N3  UNL     1       1.661  -0.415  -0.101  1.00  0.00    -0.329 N 
HETATM    3  C1  UNL     1       2.551   0.668  -0.252  1.00  0.00     0.335 C 
HETATM    4  N2  UNL     1       3.935   0.527   0.023  1.00  0.00    -0.258 N 
HETATM    5  O1  UNL     1       2.141   1.814  -0.641  1.00  0.00    -0.246 OA
ATOM      6  H2  UNL     1       4.279  -0.381   0.334  1.00  0.00     0.191 HD
ATOM      7  H3  UNL     1       2.007  -1.323   0.211  1.00  0.00     0.165 HD
BRANCH   4   8
HETATM    8  N1  UNL     1       4.848   1.575  -0.113  1.00  0.00    -0.341 N 
ATOM      9  H12 UNL     1       4.486   2.476  -0.425  1.00  0.00     0.177 HD
ATOM     10  H11 UNL     1       5.843   1.474   0.085  1.00  0.00     0.177 HD
ENDBRANCH   4   8
ENDBRANCH   1   2
BRANCH   1  11
HETATM   11  C3  UNL     1      -0.465  -0.421   0.922  1.00  0.00     0.093 C 
BRANCH  11  12
HETATM   12  C4  UNL     1      -1.912  -0.286   0.902  1.00  0.00     0.028 A 
HETATM   13  C5  UNL     1      -2.580   0.929   1.077  1.00  0.00     0.114 A 
HETATM   14  N4  UNL     1      -3.907   0.739   1.027  1.00  0.00    -0.360 N 
HETATM   15  C6  UNL     1      -4.098  -0.576   0.823  1.00  0.00     0.180 A 
ATOM     16  H4  UNL     1      -4.629   1.452   1.125  1.00  0.00     0.166 HD
HETATM   17  N5  UNL     1      -2.905  -1.188   0.749  1.00  0.00    -0.354 N 
ATOM     18  H5  UNL     1      -2.769  -2.188   0.599  1.00  0.00     0.166 HD
ENDBRANCH  11  12
ENDBRANCH   1  11
BRANCH   1  19
HETATM   19  C7  UNL     1      -0.135  -1.164  -1.454  1.00  0.00     0.254 C 
HETATM   20  N6  UNL     1      -1.447  -1.165  -1.965  1.00  0.00    -0.060 NA
HETATM   21  O2  UNL     1       0.692  -1.970  -1.925  1.00  0.00    -0.275 OA
ENDBRANCH   1  19
TORSDOF 5
