REMARK  2 active torsions:
REMARK  status: ('A' for Active; 'I' for Inactive)
REMARK    1  A    between atoms: N2_4  and  N3_6 
REMARK    2  A    between atoms: N3_6  and  C1_8 
ROOT
HETATM    1  N3  UNL     1       0.915  -0.511   0.117  1.00  0.00    -0.290 N 
ATOM      2  H3  UNL     1       1.221  -1.401   0.510  1.00  0.00     0.184 HD
ENDROOT
BRANCH   1   3
HETATM    3  N2  UNL     1       1.684   0.634   0.290  1.00  0.00    -0.252 N 
HETATM    4  N1  UNL     1       2.915   0.632  -0.014  1.00  0.00    -0.331 N 
ATOM      5  H12 UNL     1       3.328  -0.223  -0.386  1.00  0.00     0.178 HD
ATOM      6  H11 UNL     1       3.479   1.472   0.113  1.00  0.00     0.178 HD
ATOM      7  H2  UNL     1       1.255   1.481   0.664  1.00  0.00     0.207 HD
ENDBRANCH   1   3
BRANCH   1   8
HETATM    8  C1  UNL     1      -0.337  -0.427  -0.634  1.00  0.00     0.325 A 
HETATM    9  C2  UNL     1      -1.342   0.499  -0.072  1.00  0.00     0.290 A 
HETATM   10  N4  UNL     1      -1.543  -0.934  -0.061  1.00  0.00    -0.048 N 
ATOM     11  H42 UNL     1      -2.284  -1.547  -0.400  1.00  0.00     0.279 HD
ATOM     12  H41 UNL     1      -1.748  -1.614   0.671  1.00  0.00     0.279 HD
ENDBRANCH   1   8
TORSDOF 2
