REMARK  2 active torsions:
REMARK  status: ('A' for Active; 'I' for Inactive)
REMARK    1  A    between atoms: C1_4  and  N2_5 
REMARK    2  A    between atoms: N3_7  and  N4_9 
ROOT
HETATM    1  N2  UNL     1      -1.079   0.432  -0.370  1.00  0.00    -0.280 N 
ATOM      2  H2  UNL     1      -0.804  -0.298  -1.027  1.00  0.00     0.189 HD
HETATM    3  N3  UNL     1      -0.183   0.969   0.354  1.00  0.00    -0.203 N 
ATOM      4  H3  UNL     1      -0.463   1.698   1.010  1.00  0.00     0.212 HD
ENDROOT
BRANCH   3   5
HETATM    5  N4  UNL     1       1.158   0.613   0.296  1.00  0.00    -0.084 N 
HETATM    6  N5  UNL     1       2.212   1.008   0.980  1.00  0.00    -0.188 N 
HETATM    7  N6  UNL     1       2.954   0.179   0.266  1.00  0.00    -0.208 N 
ATOM      8  H5  UNL     1       2.383   1.670   1.737  1.00  0.00     0.213 HD
HETATM    9  N7  UNL     1       1.893  -0.206  -0.408  1.00  0.00    -0.188 N 
ATOM     10  H6  UNL     1       3.945  -0.063   0.246  1.00  0.00     0.211 HD
ATOM     11  H7  UNL     1       1.717  -0.867  -1.164  1.00  0.00     0.213 HD
ENDBRANCH   3   5
BRANCH   1  12
HETATM   12  C1  UNL     1      -2.442   0.804  -0.302  1.00  0.00     0.192 C 
HETATM   13  N1  UNL     1      -3.238   0.088   0.395  1.00  0.00    -0.394 N 
ATOM     14  H12 UNL     1      -2.882  -0.732   0.886  1.00  0.00     0.156 HD
ATOM     15  H11 UNL     1      -4.221   0.356   0.444  1.00  0.00     0.156 HD
ENDBRANCH   1  12
TORSDOF 2
