REMARK  2 active torsions:
REMARK  status: ('A' for Active; 'I' for Inactive)
REMARK    1  A    between atoms: N1_2  and  N2_4 
REMARK    2  A    between atoms: N1_2  and  C3_7 
ROOT
HETATM    1  C1  UNL     1      -0.730  -1.456   0.456  1.00  0.00     0.305 C 
HETATM    2  N1  UNL     1      -0.369  -0.087   0.123  1.00  0.00     0.033 N 
HETATM    3  C2  UNL     1      -0.680   0.210  -1.283  1.00  0.00     0.305 C 
ENDROOT
BRANCH   2   4
HETATM    4  N2  UNL     1      -1.120   0.788   0.894  1.00  0.00    -0.259 N 
ATOM      5  H22 UNL     1      -1.814   0.500   1.584  1.00  0.00     0.183 HD
ATOM      6  H21 UNL     1      -0.867   1.748   0.660  1.00  0.00     0.183 HD
ENDBRANCH   2   4
BRANCH   2   7
HETATM    7  C3  UNL     1       1.064   0.085   0.309  1.00  0.00     0.431 A 
HETATM    8  N3  UNL     1       1.634   1.292   0.706  1.00  0.00    -0.091 NA
HETATM    9  N4  UNL     1       1.682   1.007  -0.642  1.00  0.00    -0.091 NA
ENDBRANCH   2   7
TORSDOF 2
