REMARK  2 active torsions:
REMARK  status: ('A' for Active; 'I' for Inactive)
REMARK    1  A    between atoms: N2_4  and  O1_5 
REMARK    2  A    between atoms: N2_4  and  N3_7 
ROOT
HETATM    1  N3  UNL     1       0.421   0.172  -0.048  1.00  0.00    -0.095 N 
HETATM    2  N4  UNL     1      -0.335  -0.699  -0.717  1.00  0.00    -0.222 N 
ATOM      3  H4  UNL     1       0.019  -1.409  -1.358  1.00  0.00     0.194 HD
HETATM    4  C1  UNL     1      -1.624  -0.505  -0.425  1.00  0.00     0.344 A 
HETATM    5  O2  UNL     1      -2.605  -1.137  -0.869  1.00  0.00    -0.245 OA
HETATM    6  N5  UNL     1      -1.697   0.495   0.433  1.00  0.00    -0.256 N 
ATOM      7  H5  UNL     1      -2.549   0.878   0.842  1.00  0.00     0.175 HD
HETATM    8  C2  UNL     1      -0.452   0.913   0.668  1.00  0.00     0.368 A 
HETATM    9  O3  UNL     1      -0.080   1.859   1.434  1.00  0.00    -0.243 OA
ENDROOT
BRANCH   1  10
HETATM   10  N2  UNL     1       1.804   0.295  -0.066  1.00  0.00    -0.075 N 
HETATM   11  N1  UNL     1       2.524  -0.726   0.099  1.00  0.00    -0.302 N 
ATOM     12  H12 UNL     1       3.540  -0.636   0.086  1.00  0.00     0.181 HD
ATOM     13  H11 UNL     1       2.064  -1.624   0.250  1.00  0.00     0.181 HD
BRANCH  10  14
HETATM   14  O1  UNL     1       2.419   1.494  -0.268  1.00  0.00    -0.252 OA
ATOM     15  H1  UNL     1       1.876   2.264  -0.392  1.00  0.00     0.248 HD
ENDBRANCH  10  14
ENDBRANCH   1  10
TORSDOF 2
