REMARK  11 active torsions:
REMARK  status: ('A' for Active; 'I' for Inactive)
REMARK    1  A    between atoms: N1_1  and  C1_4 
REMARK    2  A    between atoms: C3_8  and  C4_9 
REMARK    3  A    between atoms: C4_9  and  N3_10 
REMARK    4  A    between atoms: N3_10  and  N4_12 
REMARK    5  A    between atoms: C6_19  and  N7_20 
REMARK    6  A    between atoms: N7_20  and  C7_22 
REMARK    7  A    between atoms: C7_22  and  C8_23 
REMARK    8  A    between atoms: C8_23  and  N8_24 
REMARK    9  A    between atoms: C8_23  and  C9_28 
REMARK   10  A    between atoms: C9_28  and  S1_29 
REMARK   11  A    between atoms: S1_29  and  C10_30 
ROOT
HETATM    1  N7  UNL     1      -0.630  -1.148  -0.476  1.00  0.00    -0.222 N 
ATOM      2  H7  UNL     1      -0.874  -0.809  -1.407  1.00  0.00     0.177 HD
ENDROOT
BRANCH   1   3
HETATM    3  C6  UNL     1      -1.561  -1.130   0.381  1.00  0.00     0.715 A 
HETATM    4  N6  UNL     1      -2.770  -0.662  -0.039  1.00  0.00    -0.068 N 
HETATM    5  C2  UNL     1      -3.844  -0.589   0.761  1.00  0.00     0.173 A 
HETATM    6  N5  UNL     1      -3.172  -0.200  -1.225  1.00  0.00    -0.288 N 
HETATM    7  N2  UNL     1      -3.737  -0.999   2.060  1.00  0.00    -0.173 N 
HETATM    8  C3  UNL     1      -4.931  -0.080   0.081  1.00  0.00     0.045 A 
HETATM    9  C1  UNL     1      -2.546  -1.461   2.477  1.00  0.00     0.692 A 
ATOM     10  H2  UNL     1      -4.536  -0.956   2.693  1.00  0.00     0.186 HD
HETATM   11  N13 UNL     1      -1.475  -1.527   1.654  1.00  0.00    -0.021 N 
ATOM     12  H13 UNL     1      -0.589  -1.885   2.010  1.00  0.00     0.203 HD
HETATM   13  C5  UNL     1      -4.466   0.160  -1.193  1.00  0.00     0.125 A 
ATOM     14  H5  UNL     1      -2.574  -0.129  -2.049  1.00  0.00     0.187 HD
BRANCH   9  15
HETATM   15  N1  UNL     1      -2.403  -1.858   3.693  1.00  0.00    -0.234 N 
ATOM     16  H12 UNL     1      -3.211  -1.808   4.314  1.00  0.00     0.174 HD
ATOM     17  H11 UNL     1      -1.499  -2.209   4.010  1.00  0.00     0.174 HD
ENDBRANCH   9  15
BRANCH   8  18
HETATM   18  C4  UNL     1      -6.146   0.131   0.550  1.00  0.00     0.123 C 
BRANCH  18  19
HETATM   19  N3  UNL     1      -7.185   0.664  -0.259  1.00  0.00    -0.317 N 
ATOM     20  H3  UNL     1      -8.047   0.129  -0.363  1.00  0.00     0.185 HD
BRANCH  19  21
HETATM   21  N4  UNL     1      -7.074   1.893  -0.920  1.00  0.00    -0.345 N 
ATOM     22  H42 UNL     1      -6.205   2.415  -0.806  1.00  0.00     0.176 HD
ATOM     23  H41 UNL     1      -7.820   2.276  -1.501  1.00  0.00     0.176 HD
ENDBRANCH  19  21
ENDBRANCH  18  19
ENDBRANCH   8  18
ENDBRANCH   1   3
BRANCH   1  24
HETATM   24  C7  UNL     1       0.712  -1.581  -0.305  1.00  0.00     0.171 C 
BRANCH  24  25
HETATM   25  C8  UNL     1       1.701  -0.442  -0.238  1.00  0.00     0.211 C 
BRANCH  25  26
HETATM   26  N8  UNL     1       1.304   0.378   0.914  1.00  0.00    -0.073 N 
ATOM     27  H83 UNL     1       0.332   0.686   0.877  1.00  0.00     0.274 HD
ATOM     28  H82 UNL     1       1.234  -0.151   1.784  1.00  0.00     0.274 HD
ATOM     29  H81 UNL     1       1.972   1.147   0.959  1.00  0.00     0.274 HD
ENDBRANCH  25  26
BRANCH  25  30
HETATM   30  C9  UNL     1       1.620   0.456  -1.444  1.00  0.00     0.115 C 
BRANCH  30  31
HETATM   31  S1  UNL     1       2.799   1.814  -1.371  1.00  0.00    -0.108 SA
BRANCH  31  32
HETATM   32  C10 UNL     1       4.479   1.305  -1.465  1.00  0.00     0.101 A 
HETATM   33  N9  UNL     1       5.087   1.193  -2.647  1.00  0.00    -0.345 N 
HETATM   34  C11 UNL     1       6.359   0.812  -2.784  1.00  0.00     0.183 A 
ATOM     35  H9  UNL     1       4.553   1.409  -3.489  1.00  0.00     0.167 HD
HETATM   36  N10 UNL     1       7.057   0.528  -1.676  1.00  0.00    -0.337 N 
HETATM   37  C12 UNL     1       6.536   0.609  -0.434  1.00  0.00     0.137 A 
ATOM     38  H10 UNL     1       8.029   0.236  -1.776  1.00  0.00     0.168 HD
HETATM   39  N11 UNL     1       6.978   0.395   0.814  1.00  0.00    -0.337 N 
HETATM   40  C14 UNL     1       5.206   1.010  -0.328  1.00  0.00     0.111 A 
HETATM   41  C13 UNL     1       6.009   0.636   1.703  1.00  0.00     0.182 A 
ATOM     42  H11 UNL     1       7.922   0.091   1.052  1.00  0.00     0.168 HD
HETATM   43  N12 UNL     1       4.938   1.009   0.987  1.00  0.00    -0.347 N 
ATOM     44  H12 UNL     1       4.035   1.260   1.390  1.00  0.00     0.167 HD
ENDBRANCH  31  32
ENDBRANCH  30  31
ENDBRANCH  25  30
ENDBRANCH  24  25
ENDBRANCH   1  24
TORSDOF 11
