REMARK  1 active torsions:
REMARK  status: ('A' for Active; 'I' for Inactive)
REMARK    1  A    between atoms: N1_4  and  O1_5 
ROOT
HETATM    1  C1  UNL     1      -2.390  -2.316   0.641  1.00  0.00     0.016 C 
HETATM    2  C2  UNL     1      -1.835  -0.913   0.577  1.00  0.00     0.027 C 
HETATM    3  C3  UNL     1      -2.240  -0.198  -0.663  1.00  0.00     0.095 C 
HETATM    4  N1  UNL     1      -1.613   1.027  -0.867  1.00  0.00    -0.271 N 
HETATM    5  C4  UNL     1      -0.330   1.282  -0.373  1.00  0.00     0.114 C 
HETATM    6  C5  UNL     1      -0.315   2.775   0.002  1.00  0.00     0.035 C 
HETATM    7  C6  UNL     1       0.174   0.438   0.725  1.00  0.00     0.019 C 
HETATM    8  C7  UNL     1       1.642   0.393   0.918  1.00  0.00    -0.007 C 
HETATM    9  C8  UNL     1       2.310   1.711   1.118  1.00  0.00     0.011 C 
HETATM   10  C9  UNL     1       2.390  -0.357  -0.155  1.00  0.00     0.056 C 
HETATM   11  C10 UNL     1       1.670  -1.525  -0.670  1.00  0.00    -0.020 C 
HETATM   12  N2  UNL     1       2.274  -2.564  -1.107  1.00  0.00    -0.406 N 
ATOM     13  H21 UNL     1       1.773  -3.377  -1.465  1.00  0.00     0.155 HD
ATOM     14  H22 UNL     1       3.293  -2.531  -1.075  1.00  0.00     0.155 HD
HETATM   15  C11 UNL     1       0.169  -1.574  -0.717  1.00  0.00     0.057 C 
HETATM   16  C12 UNL     1      -0.321  -0.995   0.585  1.00  0.00     0.006 C 
ENDROOT
BRANCH   4  17
HETATM   17  O1  UNL     1      -1.876   1.628  -2.009  1.00  0.00    -0.288 OA
ATOM     18  H1  UNL     1      -1.448   2.465  -2.148  1.00  0.00     0.244 HD
ENDBRANCH   4  17
TORSDOF 1
