REMARK  2 active torsions:
REMARK  status: ('A' for Active; 'I' for Inactive)
REMARK    1  A    between atoms: O1_1  and  C1_3 
REMARK    2  A    between atoms: C10_13  and  O3_14 
ROOT
HETATM    1  C1  UNL     1      -1.475  -1.444   0.067  1.00  0.00     0.122 C 
HETATM    2  C2  UNL     1      -0.422  -2.171  -0.658  1.00  0.00     0.032 C 
HETATM    3  C3  UNL     1       0.798  -2.575   0.034  1.00  0.00     0.002 C 
HETATM    4  C4  UNL     1       1.376  -1.727   1.079  1.00  0.00     0.000 C 
HETATM    5  C5  UNL     1       2.339  -0.640   0.562  1.00  0.00     0.000 C 
HETATM    6  C6  UNL     1       1.475   0.532   0.230  1.00  0.00     0.000 C 
HETATM    7  C7  UNL     1       2.097   1.863   0.146  1.00  0.00     0.002 C 
HETATM    8  C8  UNL     1       1.073   2.820  -0.431  1.00  0.00     0.026 C 
HETATM    9  C9  UNL     1      -0.342   2.532  -0.038  1.00  0.00     0.171 C 
HETATM   10  O2  UNL     1      -1.017   1.696  -0.889  1.00  0.00    -0.361 OA
HETATM   11  C10 UNL     1      -2.056   0.982  -0.366  1.00  0.00     0.259 C 
HETATM   12  C11 UNL     1      -2.131  -0.441  -0.893  1.00  0.00     0.092 C 
ENDROOT
BRANCH   1  13
HETATM   13  O1  UNL     1      -2.516  -2.330   0.450  1.00  0.00    -0.395 OA
ATOM     14  H1  UNL     1      -3.196  -1.860   0.918  1.00  0.00     0.210 HD
ENDBRANCH   1  13
BRANCH  11  15
HETATM   15  O3  UNL     1      -2.147   1.023   1.025  1.00  0.00    -0.371 OA
ATOM     16  H3  UNL     1      -2.870   0.526   1.389  1.00  0.00     0.212 HD
ENDBRANCH  11  15
TORSDOF 2
