REMARK  0 active torsions:
REMARK  status: ('A' for Active; 'I' for Inactive)
ROOT
HETATM    1  N1  UNL     1       3.506   0.087  -2.105  1.00  0.00    -0.380 N 
ATOM      2  H11 UNL     1       3.492  -0.244  -3.070  1.00  0.00     0.158 HD
ATOM      3  H12 UNL     1       4.408   0.548  -1.986  1.00  0.00     0.158 HD
HETATM    4  C1  UNL     1       2.623  -0.026  -1.211  1.00  0.00     0.139 C 
HETATM    5  N2  UNL     1       2.642   0.431   0.119  1.00  0.00    -0.330 N 
ATOM      6  H2  UNL     1       3.321   1.109   0.465  1.00  0.00     0.168 HD
HETATM    7  C2  UNL     1       1.635  -0.134   0.933  1.00  0.00     0.098 C 
HETATM    8  S1  UNL     1       1.802  -0.583   2.512  1.00  0.00    -0.064 SA
HETATM    9  C3  UNL     1       0.352  -0.287   0.200  1.00  0.00     0.069 C 
HETATM   10  C4  UNL     1      -0.240   1.069   0.012  1.00  0.00     0.028 C 
HETATM   11  C5  UNL     1      -1.599   1.025  -0.657  1.00  0.00     0.002 C 
HETATM   12  C6  UNL     1      -2.485   0.222   0.305  1.00  0.00     0.000 C 
HETATM   13  C7  UNL     1      -1.955  -1.173   0.324  1.00  0.00     0.002 C 
HETATM   14  C8  UNL     1      -0.546  -1.302   0.788  1.00  0.00     0.028 C 
HETATM   15  S2  UNL     1       1.048  -0.830  -1.418  1.00  0.00    -0.077 SA
ENDROOT
TORSDOF 0
