REMARK  2 active torsions:
REMARK  status: ('A' for Active; 'I' for Inactive)
REMARK    1  A    between atoms: C6_6  and  O1_7 
REMARK    2  A    between atoms: N1_11  and  O2_13 
ROOT
HETATM    1  C1  UNL     1      -2.193   1.119  -1.277  1.00  0.00     0.015 C 
HETATM    2  C2  UNL     1      -1.546   0.329  -0.153  1.00  0.00    -0.043 C 
HETATM    3  C3  UNL     1      -2.281   0.732   1.131  1.00  0.00     0.015 C 
HETATM    4  C4  UNL     1      -1.814  -1.117  -0.398  1.00  0.00     0.011 C 
HETATM    5  C5  UNL     1      -1.007  -2.035   0.477  1.00  0.00     0.033 C 
HETATM    6  C6  UNL     1       0.452  -1.750   0.281  1.00  0.00     0.128 C 
HETATM    7  C7  UNL     1       0.700  -0.328   0.729  1.00  0.00     0.067 C 
HETATM    8  C8  UNL     1       2.116   0.023   0.751  1.00  0.00     0.017 C 
HETATM    9  N1  UNL     1       2.865  -0.213   1.773  1.00  0.00    -0.277 N 
ATOM     10  H1  UNL     1       3.853   0.039   1.772  1.00  0.00     0.193 HD
HETATM   11  C9  UNL     1       2.811   0.683  -0.405  1.00  0.00     0.055 C 
HETATM   12  C10 UNL     1       1.888   1.596  -1.157  1.00  0.00     0.006 C 
HETATM   13  C11 UNL     1       0.529   1.000  -1.387  1.00  0.00     0.006 C 
HETATM   14  C12 UNL     1      -0.092   0.679  -0.055  1.00  0.00     0.005 C 
ENDROOT
BRANCH   9  15
HETATM   15  O2  UNL     1       2.288  -0.815   2.862  1.00  0.00    -0.290 OA
ATOM     16  H2  UNL     1       2.840  -0.989   3.615  1.00  0.00     0.244 HD
ENDBRANCH   9  15
BRANCH   6  17
HETATM   17  O1  UNL     1       0.880  -2.004  -1.001  1.00  0.00    -0.395 OA
ATOM     18  H1  UNL     1       1.804  -1.823  -1.125  1.00  0.00     0.210 HD
ENDBRANCH   6  17
TORSDOF 2
