REMARK  2 active torsions:
REMARK  status: ('A' for Active; 'I' for Inactive)
REMARK    1  A    between atoms: N1_6  and  O1_8 
REMARK    2  A    between atoms: C11_15  and  O2_17 
ROOT
HETATM    1  C1  UNL     1      -1.105  -1.787   1.098  1.00  0.00     0.016 C 
HETATM    2  C2  UNL     1      -0.212  -1.160   0.044  1.00  0.00    -0.032 C 
HETATM    3  C3  UNL     1       0.480  -2.347  -0.644  1.00  0.00     0.016 C 
HETATM    4  C4  UNL     1       0.781  -0.299   0.742  1.00  0.00     0.046 C 
HETATM    5  C5  UNL     1       1.975   0.055  -0.067  1.00  0.00     0.015 C 
HETATM    6  N1  UNL     1       2.501  -0.502  -1.071  1.00  0.00    -0.277 N 
ATOM      7  H1  UNL     1       2.085  -1.353  -1.450  1.00  0.00     0.193 HD
HETATM    8  C6  UNL     1       2.487   1.295   0.577  1.00  0.00     0.055 C 
HETATM    9  C7  UNL     1       1.216   2.084   0.789  1.00  0.00     0.011 C 
HETATM   10  C8  UNL     1       0.074   1.064   0.783  1.00  0.00     0.004 C 
HETATM   11  C9  UNL     1      -0.608   1.115  -0.537  1.00  0.00     0.032 A 
HETATM   12  C10 UNL     1      -0.936  -0.321  -0.940  1.00  0.00     0.036 A 
HETATM   13  C11 UNL     1      -2.022   0.592  -0.708  1.00  0.00     0.063 A 
HETATM   14  C12 UNL     1      -2.879   0.714   0.487  1.00  0.00     0.046 C 
ENDROOT
BRANCH   6  15
HETATM   15  O1  UNL     1       3.616   0.017  -1.655  1.00  0.00    -0.290 OA
ATOM     16  H1  UNL     1       4.012  -0.402  -2.410  1.00  0.00     0.244 HD
ENDBRANCH   6  15
BRANCH  13  17
HETATM   17  O2  UNL     1      -2.686   1.081  -1.863  1.00  0.00    -0.389 OA
ATOM     18  H2  UNL     1      -3.571   0.754  -1.970  1.00  0.00     0.210 HD
ENDBRANCH  13  17
TORSDOF 2
