REMARK  1 active torsions:
REMARK  status: ('A' for Active; 'I' for Inactive)
REMARK    1  A    between atoms: O1_1  and  N1_3 
ROOT
HETATM    1  N1  UNL     1       4.207   0.199  -0.512  1.00  0.00    -0.277 N 
ATOM      2  H1  UNL     1       4.943  -0.353  -0.071  1.00  0.00     0.193 HD
HETATM    3  C1  UNL     1       2.996  -0.191  -0.377  1.00  0.00     0.012 C 
HETATM    4  C2  UNL     1       2.648  -1.401   0.390  1.00  0.00     0.055 C 
HETATM    5  C3  UNL     1       1.171  -1.527   0.615  1.00  0.00     0.013 C 
HETATM    6  C4  UNL     1       0.531  -0.225   0.934  1.00  0.00     0.023 C 
HETATM    7  C5  UNL     1       0.908   0.916   0.060  1.00  0.00     0.196 C 
HETATM    8  C6  UNL     1       1.907   0.586  -1.004  1.00  0.00     0.087 C 
HETATM    9  N2  UNL     1      -0.303   1.512  -0.460  1.00  0.00    -0.066 N 
ATOM     10  H21 UNL     1      -0.549   1.220  -1.406  1.00  0.00     0.278 HD
ATOM     11  H22 UNL     1      -0.230   2.506  -0.675  1.00  0.00     0.278 HD
HETATM   12  C7  UNL     1      -1.274   1.186   0.538  1.00  0.00     0.191 C 
HETATM   13  C8  UNL     1      -2.694   1.393   0.114  1.00  0.00     0.033 C 
HETATM   14  C9  UNL     1      -3.053   0.580  -1.086  1.00  0.00     0.002 C 
HETATM   15  C10 UNL     1      -2.819  -0.891  -0.760  1.00  0.00     0.001 C 
HETATM   16  C11 UNL     1      -1.406  -1.151  -0.326  1.00  0.00     0.007 C 
HETATM   17  C12 UNL     1      -0.971  -0.273   0.819  1.00  0.00     0.022 C 
ENDROOT
BRANCH   1  18
HETATM   18  O1  UNL     1       4.571   1.320  -1.218  1.00  0.00    -0.290 OA
ATOM     19  H1  UNL     1       5.470   1.610  -1.318  1.00  0.00     0.244 HD
ENDBRANCH   1  18
TORSDOF 1
