REMARK  3 active torsions:
REMARK  status: ('A' for Active; 'I' for Inactive)
REMARK    1  A    between atoms: C2_3  and  N2_4 
REMARK    2  A    between atoms: C3_6  and  C4_7 
REMARK    3  A    between atoms: C4_7  and  N3_8 
ROOT
HETATM    1  N2  UNL     1       1.181  -1.194  -0.320  1.00  0.00    -0.359 N 
ATOM      2  H2  UNL     1       1.547  -1.997  -0.831  1.00  0.00     0.165 HD
HETATM    3  C3  UNL     1       1.962  -0.330   0.189  1.00  0.00     0.110 C 
ENDROOT
BRANCH   1   4
HETATM    4  C2  UNL     1      -0.242  -1.003  -0.152  1.00  0.00     0.099 A 
HETATM    5  C1  UNL     1      -1.043  -0.066  -0.741  1.00  0.00     0.087 A 
HETATM    6  N1  UNL     1      -0.454   0.894  -1.668  1.00  0.00    -0.099 NA
HETATM    7  C9  UNL     1      -2.349  -0.085  -0.426  1.00  0.00    -0.018 A 
HETATM    8  C8  UNL     1      -2.765  -1.044   0.460  1.00  0.00    -0.007 A 
HETATM    9  C10 UNL     1      -3.478   0.814  -0.909  1.00  0.00     0.042 C 
HETATM   10  S1  UNL     1      -1.327  -1.882   0.822  1.00  0.00    -0.074 SA
HETATM   11  C13 UNL     1      -4.217  -1.146   0.877  1.00  0.00     0.047 C 
HETATM   12  C12 UNL     1      -4.831   0.186   1.108  1.00  0.00     0.005 C 
HETATM   13  C11 UNL     1      -4.277   1.292   0.284  1.00  0.00     0.005 C 
ENDBRANCH   1   4
BRANCH   3  14
HETATM   14  C4  UNL     1       3.437  -0.506   0.028  1.00  0.00     0.217 C 
HETATM   15  C5  UNL     1       4.196   0.156   1.157  1.00  0.00     0.081 C 
HETATM   16  C6  UNL     1       5.248   1.030   0.509  1.00  0.00     0.182 C 
HETATM   17  O3  UNL     1       4.947   1.061  -0.877  1.00  0.00    -0.319 OA
HETATM   18  C7  UNL     1       3.943   0.182  -1.187  1.00  0.00     0.299 C 
HETATM   19  O4  UNL     1       3.485  -0.037  -2.339  1.00  0.00    -0.262 OA
BRANCH  14  20
HETATM   20  N3  UNL     1       3.744  -1.925  -0.020  1.00  0.00    -0.129 N 
HETATM   21  O1  UNL     1       4.297  -2.453  -0.998  1.00  0.00    -0.535 OA
HETATM   22  O2  UNL     1       3.387  -2.665   1.090  1.00  0.00    -0.535 OA
ENDBRANCH  14  20
ENDBRANCH   3  14
TORSDOF 3
