REMARK  2 active torsions:
REMARK  status: ('A' for Active; 'I' for Inactive)
REMARK    1  A    between atoms: N1_1  and  C1_4 
REMARK       I    between atoms: N4_13  and  C4_14 
REMARK       I    between atoms: C4_14  and  N5_16 
REMARK    2  A    between atoms: N5_16  and  N6_18 
ROOT
HETATM    1  C1  UNL     1      -1.063   0.929   0.447  1.00  0.00     0.694 A 
HETATM    2  N2  UNL     1      -2.344   0.574   0.370  1.00  0.00    -0.141 N 
ATOM      3  H2  UNL     1      -3.052   1.273   0.595  1.00  0.00     0.189 HD
HETATM    4  C2  UNL     1      -2.755  -0.654   0.012  1.00  0.00     0.342 A 
HETATM    5  O1  UNL     1      -3.988  -0.946  -0.047  1.00  0.00    -0.246 OA
HETATM    6  N3  UNL     1      -1.801  -1.545  -0.277  1.00  0.00    -0.259 N 
ATOM      7  H3  UNL     1      -2.064  -2.491  -0.555  1.00  0.00     0.175 HD
HETATM    8  C3  UNL     1      -0.475  -1.207  -0.206  1.00  0.00     0.353 A 
HETATM    9  O2  UNL     1       0.333  -2.132  -0.502  1.00  0.00    -0.245 OA
HETATM   10  N4  UNL     1      -0.085   0.021   0.153  1.00  0.00    -0.042 N 
HETATM   11  C4  UNL     1       1.258   0.423   0.242  1.00  0.00     0.363 C 
HETATM   12  O3  UNL     1       1.509   1.645   0.602  1.00  0.00    -0.244 OA
HETATM   13  N5  UNL     1       2.413  -0.331  -0.010  1.00  0.00    -0.257 N 
ATOM     14  H5  UNL     1       2.333  -1.306  -0.299  1.00  0.00     0.191 HD
ENDROOT
BRANCH   1  15
HETATM   15  N1  UNL     1      -0.690   2.103   0.790  1.00  0.00    -0.234 N 
ATOM     16  H12 UNL     1      -1.420   2.781   1.009  1.00  0.00     0.174 HD
ATOM     17  H11 UNL     1       0.291   2.375   0.849  1.00  0.00     0.174 HD
ENDBRANCH   1  15
BRANCH  13  18
HETATM   18  N6  UNL     1       3.704   0.268   0.139  1.00  0.00    -0.341 N 
ATOM     19  H62 UNL     1       3.767   1.244   0.429  1.00  0.00     0.177 HD
ATOM     20  H61 UNL     1       4.544  -0.280  -0.044  1.00  0.00     0.177 HD
ENDBRANCH  13  18
TORSDOF 2
