REMARK  11 active torsions:
REMARK  status: ('A' for Active; 'I' for Inactive)
REMARK    1  A    between atoms: N1_1  and  C1_5 
REMARK    2  A    between atoms: C1_5  and  C2_6 
REMARK    3  A    between atoms: C2_6  and  C3_7 
REMARK    4  A    between atoms: C3_7  and  C4_8 
REMARK    5  A    between atoms: C4_8  and  C5_9 
REMARK    6  A    between atoms: C5_9  and  C6_10 
REMARK    7  A    between atoms: C6_10  and  C7_11 
REMARK    8  A    between atoms: C7_11  and  C8_12 
REMARK    9  A    between atoms: C8_12  and  N2_13 
REMARK   10  A    between atoms: N2_13  and  C9_16 
REMARK   11  A    between atoms: C10_17  and  O1_18 
ROOT
HETATM    1  N2  UNL     1      -1.911   1.180  -0.353  1.00  0.00    -0.068 N 
ATOM      2  H21 UNL     1      -2.187   1.027  -1.323  1.00  0.00     0.277 HD
ATOM      3  H22 UNL     1      -2.115   2.177  -0.290  1.00  0.00     0.277 HD
ENDROOT
BRANCH   1   4
HETATM    4  C8  UNL     1      -0.484   0.904  -0.145  1.00  0.00     0.233 C 
BRANCH   4   5
HETATM    5  C7  UNL     1       0.238   1.744  -1.163  1.00  0.00     0.027 C 
BRANCH   5   6
HETATM    6  C6  UNL     1       1.720   1.546  -1.022  1.00  0.00     0.002 C 
BRANCH   6   7
HETATM    7  C5  UNL     1       2.155   0.136  -1.223  1.00  0.00     0.000 C 
BRANCH   7   8
HETATM    8  C4  UNL     1       3.653  -0.035  -1.086  1.00  0.00     0.000 C 
BRANCH   8   9
HETATM    9  C3  UNL     1       4.149   0.381   0.270  1.00  0.00     0.002 C 
BRANCH   9  10
HETATM   10  C2  UNL     1       5.645   0.204   0.404  1.00  0.00     0.027 C 
BRANCH  10  11
HETATM   11  C1  UNL     1       6.078  -1.233   0.210  1.00  0.00     0.229 C 
BRANCH  11  12
HETATM   12  N1  UNL     1       7.536  -1.238   0.370  1.00  0.00    -0.079 N 
ATOM     13  H13 UNL     1       8.016  -0.581  -0.245  1.00  0.00     0.274 HD
ATOM     14  H12 UNL     1       7.851  -0.833   1.252  1.00  0.00     0.274 HD
ATOM     15  H11 UNL     1       7.828  -2.207   0.239  1.00  0.00     0.274 HD
ENDBRANCH  11  12
ENDBRANCH  10  11
ENDBRANCH   9  10
ENDBRANCH   8   9
ENDBRANCH   7   8
ENDBRANCH   6   7
ENDBRANCH   5   6
ENDBRANCH   4   5
ENDBRANCH   1   4
BRANCH   1  16
HETATM   16  C9  UNL     1      -2.732   0.402   0.570  1.00  0.00     0.220 C 
HETATM   17  C10 UNL     1      -2.584  -1.054   0.284  1.00  0.00     0.155 C 
HETATM   18  C11 UNL     1      -3.906  -1.764   0.460  1.00  0.00     0.048 C 
HETATM   19  C12 UNL     1      -4.508  -1.211   1.757  1.00  0.00     0.016 C 
HETATM   20  C16 UNL     1      -5.005  -1.049  -0.282  1.00  0.00     0.197 C 
HETATM   21  C13 UNL     1      -5.127  -0.135   0.920  1.00  0.00     0.025 C 
HETATM   22  C14 UNL     1      -4.124   0.941   0.529  1.00  0.00     0.050 C 
HETATM   23  C15 UNL     1      -4.536   1.127  -0.924  1.00  0.00     0.239 C 
HETATM   24  N3  UNL     1      -4.484  -0.256  -1.375  1.00  0.00    -0.070 N 
ATOM     25  H32 UNL     1      -4.966  -0.415  -2.260  1.00  0.00     0.277 HD
ATOM     26  H31 UNL     1      -3.558  -0.549  -1.686  1.00  0.00     0.277 HD
BRANCH  17  27
HETATM   27  O1  UNL     1      -1.682  -1.687   1.172  1.00  0.00    -0.393 OA
ATOM     28  H1  UNL     1      -1.588  -2.615   0.990  1.00  0.00     0.210 HD
ENDBRANCH  17  27
ENDBRANCH   1  16
TORSDOF 11
