REMARK  13 active torsions:
REMARK  status: ('A' for Active; 'I' for Inactive)
REMARK    1  A    between atoms: C4_4  and  N1_5 
REMARK    2  A    between atoms: N1_5  and  C5_7 
REMARK    3  A    between atoms: C5_7  and  C6_8 
REMARK    4  A    between atoms: C6_8  and  C7_9 
REMARK    5  A    between atoms: C7_9  and  N2_10 
REMARK    6  A    between atoms: N2_10  and  C8_13 
REMARK    7  A    between atoms: C8_13  and  C9_14 
REMARK    8  A    between atoms: C9_14  and  C10_15 
REMARK    9  A    between atoms: C10_15  and  C11_16 
REMARK   10  A    between atoms: C11_16  and  C12_17 
REMARK   11  A    between atoms: C12_17  and  C13_18 
REMARK   12  A    between atoms: C13_18  and  N3_19 
REMARK   13  A    between atoms: C16_25  and  N4_26 
ROOT
HETATM    1  C5  UNL     1      -1.719  -0.269  -0.328  1.00  0.00     0.121 C 
ENDROOT
BRANCH   1   2
HETATM    2  N1  UNL     1      -2.762  -0.147  -1.322  1.00  0.00    -0.390 N 
ATOM      3  H1  UNL     1      -2.589  -0.417  -2.290  1.00  0.00     0.159 HD
BRANCH   2   4
HETATM    4  C4  UNL     1      -3.901   0.304  -0.969  1.00  0.00     0.029 C 
HETATM    5  C3  UNL     1      -4.071   0.651   0.350  1.00  0.00     0.053 C 
HETATM    6  C2  UNL     1      -5.257   0.880   1.062  1.00  0.00     0.009 C 
HETATM    7  C1  UNL     1      -5.260   0.584   2.514  1.00  0.00     0.068 C 
HETATM    8  N5  UNL     1      -6.427   1.352   0.553  1.00  0.00    -0.347 N 
HETATM    9  C16 UNL     1      -6.828   1.467  -0.745  1.00  0.00     0.098 C 
ATOM     10  H5  UNL     1      -7.106   1.667   1.246  1.00  0.00     0.167 HD
HETATM   11  C15 UNL     1      -6.125   1.046  -1.852  1.00  0.00     0.050 C 
HETATM   12  C14 UNL     1      -4.884   0.413  -1.950  1.00  0.00     0.033 C 
BRANCH   9  13
HETATM   13  N4  UNL     1      -7.986   2.029  -0.919  1.00  0.00    -0.385 N 
ATOM     14  H42 UNL     1      -8.286   2.115  -1.890  1.00  0.00     0.157 HD
ATOM     15  H41 UNL     1      -8.507   2.341  -0.099  1.00  0.00     0.157 HD
ENDBRANCH   9  13
ENDBRANCH   2   4
ENDBRANCH   1   2
BRANCH   1  16
HETATM   16  C6  UNL     1      -0.485  -0.937  -0.913  1.00  0.00     0.047 C 
BRANCH  16  17
HETATM   17  C7  UNL     1       0.549  -1.011   0.186  1.00  0.00     0.234 C 
BRANCH  17  18
HETATM   18  N2  UNL     1       1.778  -1.643  -0.244  1.00  0.00    -0.075 N 
ATOM     19  H22 UNL     1       2.384  -1.886   0.539  1.00  0.00     0.277 HD
ATOM     20  H21 UNL     1       1.625  -2.585  -0.604  1.00  0.00     0.277 HD
BRANCH  18  21
HETATM   21  C8  UNL     1       2.436  -0.788  -1.203  1.00  0.00     0.232 C 
BRANCH  21  22
HETATM   22  C9  UNL     1       3.698  -1.431  -1.668  1.00  0.00     0.027 C 
BRANCH  22  23
HETATM   23  C10 UNL     1       4.637  -1.666  -0.541  1.00  0.00     0.002 C 
BRANCH  23  24
HETATM   24  C11 UNL     1       4.992  -0.327   0.104  1.00  0.00     0.002 C 
BRANCH  24  25
HETATM   25  C12 UNL     1       5.958  -0.574   1.251  1.00  0.00     0.027 C 
BRANCH  25  26
HETATM   26  C13 UNL     1       6.290   0.777   1.865  1.00  0.00     0.229 C 
BRANCH  26  27
HETATM   27  N3  UNL     1       5.073   1.395   2.346  1.00  0.00    -0.079 N 
ATOM     28  H33 UNL     1       4.361   1.465   1.619  1.00  0.00     0.274 HD
ATOM     29  H32 UNL     1       4.562   0.792   2.991  1.00  0.00     0.274 HD
ATOM     30  H31 UNL     1       5.296   2.301   2.758  1.00  0.00     0.274 HD
ENDBRANCH  26  27
ENDBRANCH  25  26
ENDBRANCH  24  25
ENDBRANCH  23  24
ENDBRANCH  22  23
ENDBRANCH  21  22
ENDBRANCH  18  21
ENDBRANCH  17  18
ENDBRANCH  16  17
ENDBRANCH   1  16
TORSDOF 13
