REMARK  8 active torsions:
REMARK  status: ('A' for Active; 'I' for Inactive)
REMARK    1  A    between atoms: C2_2  and  N1_3 
REMARK    2  A    between atoms: C2_2  and  C3_11 
REMARK    3  A    between atoms: N1_3  and  S1_5 
REMARK    4  A    between atoms: S1_5  and  N2_6 
REMARK       I    between atoms: C3_11  and  N3_13 
REMARK    5  A    between atoms: N3_13  and  C4_15 
REMARK    6  A    between atoms: N4_24  and  C13_25 
REMARK    7  A    between atoms: C13_25  and  C14_26 
REMARK    8  A    between atoms: N5_31  and  C18_32 
ROOT
HETATM    1  C4  UNL     1       1.854  -1.335   0.669  1.00  0.00     0.090 C 
HETATM    2  C5  UNL     1       1.576  -2.704   1.304  1.00  0.00     0.026 C 
HETATM    3  C6  UNL     1       0.311  -3.227   0.655  1.00  0.00     0.007 C 
HETATM    4  C7  UNL     1      -0.442  -1.912   0.460  1.00  0.00    -0.004 C 
HETATM    5  C8  UNL     1      -1.558  -2.020  -0.505  1.00  0.00     0.030 C 
HETATM    6  C9  UNL     1      -2.073  -0.659  -0.856  1.00  0.00     0.091 C 
HETATM    7  C10 UNL     1      -0.927   0.130  -1.489  1.00  0.00     0.051 C 
HETATM    8  C11 UNL     1       0.217   0.260  -0.458  1.00  0.00     0.097 C 
HETATM    9  C12 UNL     1       0.663  -1.110  -0.187  1.00  0.00     0.035 C 
HETATM   10  N4  UNL     1      -0.358   0.996   0.643  1.00  0.00    -0.328 N 
HETATM   11  C17 UNL     1      -1.689   0.803   1.089  1.00  0.00     0.321 C 
HETATM   12  O4  UNL     1      -2.046   1.261   2.196  1.00  0.00    -0.247 OA
HETATM   13  N5  UNL     1      -2.599   0.089   0.268  1.00  0.00    -0.325 N 
ENDROOT
BRANCH   1  14
HETATM   14  N3  UNL     1       3.028  -1.445  -0.206  1.00  0.00    -0.354 N 
HETATM   15  C3  UNL     1       4.186  -0.653   0.011  1.00  0.00     0.241 C 
HETATM   16  O3  UNL     1       4.226   0.169   0.971  1.00  0.00    -0.271 OA
ATOM     17  H3  UNL     1       3.011  -2.103  -0.985  1.00  0.00     0.162 HD
BRANCH  15  18
HETATM   18  C2  UNL     1       5.365  -0.764  -0.868  1.00  0.00     0.182 C 
HETATM   19  C1  UNL     1       5.828  -2.220  -0.902  1.00  0.00     0.043 C 
BRANCH  18  20
HETATM   20  N1  UNL     1       6.411   0.126  -0.463  1.00  0.00    -0.290 N 
ATOM     21  H1  UNL     1       6.841   0.099   0.461  1.00  0.00     0.174 HD
BRANCH  20  22
HETATM   22  S1  UNL     1       6.871   1.241  -1.679  1.00  0.00     0.313 S 
HETATM   23  O1  UNL     1       6.635   0.691  -3.061  1.00  0.00    -0.183 OA
HETATM   24  O2  UNL     1       8.301   1.656  -1.496  1.00  0.00    -0.183 OA
BRANCH  22  25
HETATM   25  N2  UNL     1       5.896   2.656  -1.509  1.00  0.00    -0.312 N 
ATOM     26  H22 UNL     1       5.174   2.790  -0.801  1.00  0.00     0.170 HD
ATOM     27  H21 UNL     1       6.170   3.320  -2.233  1.00  0.00     0.170 HD
ENDBRANCH  22  25
ENDBRANCH  20  22
ENDBRANCH  18  20
ENDBRANCH  15  18
ENDBRANCH   1  14
BRANCH  10  28
HETATM   28  C13 UNL     1       0.439   1.987   1.327  1.00  0.00     0.132 C 
BRANCH  28  29
HETATM   29  C14 UNL     1       0.345   3.353   0.712  1.00  0.00     0.004 A 
HETATM   30  C15 UNL     1      -0.890   4.120   0.575  1.00  0.00     0.007 A 
HETATM   31  C16 UNL     1       0.085   4.518   1.633  1.00  0.00     0.007 A 
ENDBRANCH  28  29
ENDBRANCH  10  28
BRANCH  13  32
HETATM   32  C18 UNL     1      -4.006   0.141   0.589  1.00  0.00     0.089 C 
HETATM   33  C19 UNL     1      -4.575  -1.214   0.967  1.00  0.00     0.025 C 
HETATM   34  C20 UNL     1      -6.062  -0.945   1.239  1.00  0.00     0.002 C 
HETATM   35  C21 UNL     1      -6.713  -0.837  -0.122  1.00  0.00     0.000 C 
HETATM   36  C22 UNL     1      -5.806  -0.196  -1.118  1.00  0.00     0.002 C 
HETATM   37  C23 UNL     1      -4.815   0.779  -0.522  1.00  0.00     0.025 C 
ENDBRANCH  13  32
TORSDOF 8
