REMARK  6 active torsions:
REMARK  status: ('A' for Active; 'I' for Inactive)
REMARK    1  A    between atoms: C11_12  and  C13_14 
REMARK       I    between atoms: C13_14  and  N2_16 
REMARK    2  A    between atoms: N2_16  and  C14_18 
REMARK    3  A    between atoms: C14_18  and  C15_19 
REMARK    4  A    between atoms: C21_27  and  N3_28 
REMARK       I    between atoms: N3_28  and  C22_30 
REMARK    5  A    between atoms: C22_30  and  C23_32 
REMARK    6  A    between atoms: C23_32  and  C24_33 
ROOT
HETATM    1  C1  UNL     1       3.576  -2.914  -0.263  1.00  0.00     0.022 C 
HETATM    2  C2  UNL     1       2.767  -1.650   0.121  1.00  0.00     0.008 C 
HETATM    3  C3  UNL     1       3.171  -1.420   1.601  1.00  0.00     0.016 C 
HETATM    4  C4  UNL     1       1.976  -0.638   2.076  1.00  0.00     0.012 C 
HETATM    5  C5  UNL     1       0.916  -0.847   1.105  1.00  0.00     0.053 C 
HETATM    6  C6  UNL     1       0.710   0.082  -0.048  1.00  0.00    -0.019 C 
HETATM    7  C7  UNL     1      -0.708  -0.048  -0.299  1.00  0.00     0.076 C 
HETATM    8  C8  UNL     1      -0.823  -1.548  -0.673  1.00  0.00     0.245 C 
HETATM    9  N1  UNL     1       0.404  -2.299  -0.594  1.00  0.00     0.101 N 
HETATM   10  C9  UNL     1      -0.123  -3.663  -0.384  1.00  0.00     0.275 C 
HETATM   11  C10 UNL     1      -1.327  -3.453   0.550  1.00  0.00     0.051 C 
HETATM   12  C11 UNL     1      -1.961  -2.272  -0.139  1.00  0.00     0.070 C 
HETATM   13  C12 UNL     1      -2.802  -2.931  -1.262  1.00  0.00     0.028 C 
HETATM   14  C19 UNL     1       1.407  -2.079   0.319  1.00  0.00     0.243 C 
HETATM   15  C20 UNL     1       1.621   1.142   0.058  1.00  0.00     0.201 C 
HETATM   16  O3  UNL     1       1.408   2.261   0.429  1.00  0.00    -0.286 OA
HETATM   17  C21 UNL     1       3.086   0.885  -0.340  1.00  0.00     0.082 C 
HETATM   18  C25 UNL     1       3.338  -0.576  -0.628  1.00  0.00     0.018 C 
ENDROOT
BRANCH  12  19
HETATM   19  C13 UNL     1      -2.953  -1.562   0.660  1.00  0.00     0.228 C 
HETATM   20  O1  UNL     1      -3.176  -1.838   1.864  1.00  0.00    -0.273 OA
HETATM   21  N2  UNL     1      -3.701  -0.506   0.037  1.00  0.00    -0.358 N 
ATOM     22  H2  UNL     1      -3.521  -0.280  -0.941  1.00  0.00     0.162 HD
BRANCH  21  23
HETATM   23  C14 UNL     1      -4.702   0.244   0.761  1.00  0.00     0.154 C 
BRANCH  23  24
HETATM   24  C15 UNL     1      -5.318   1.271  -0.124  1.00  0.00     0.139 C 
HETATM   25  C16 UNL     1      -6.285   2.174   0.575  1.00  0.00     0.035 C 
HETATM   26  C17 UNL     1      -6.369   3.352  -0.389  1.00  0.00     0.029 C 
HETATM   27  C18 UNL     1      -5.132   3.168  -1.217  1.00  0.00     0.168 C 
HETATM   28  O2  UNL     1      -4.368   2.176  -0.607  1.00  0.00    -0.384 OA
ENDBRANCH  23  24
ENDBRANCH  21  23
ENDBRANCH  12  19
BRANCH  17  29
HETATM   29  N3  UNL     1       3.999   1.617   0.379  1.00  0.00    -0.324 N 
HETATM   30  C22 UNL     1       4.715   2.735  -0.197  1.00  0.00     0.232 C 
HETATM   31  O4  UNL     1       4.487   3.035  -1.385  1.00  0.00    -0.273 OA
ATOM     32  H3  UNL     1       4.178   1.364   1.351  1.00  0.00     0.169 HD
BRANCH  30  33
HETATM   33  C23 UNL     1       5.689   3.505   0.592  1.00  0.00     0.216 C 
BRANCH  33  34
HETATM   34  C24 UNL     1       6.290   4.593  -0.201  1.00  0.00     0.181 C 
HETATM   35  O5  UNL     1       7.168   5.372   0.333  1.00  0.00    -0.648 OA
HETATM   36  O6  UNL     1       5.927   4.795  -1.519  1.00  0.00    -0.648 OA
ENDBRANCH  33  34
ENDBRANCH  30  33
ENDBRANCH  17  29
TORSDOF 6
