REMARK  9 active torsions:
REMARK  status: ('A' for Active; 'I' for Inactive)
REMARK    1  A    between atoms: N1_2  and  C2_5 
REMARK    2  A    between atoms: C2_5  and  O1_6 
REMARK    3  A    between atoms: C2_5  and  C3_8 
REMARK    4  A    between atoms: C4_13  and  C5_14 
REMARK    5  A    between atoms: C5_14  and  N4_16 
REMARK    6  A    between atoms: N4_16  and  N5_18 
REMARK    7  A    between atoms: N5_18  and  C7_20 
REMARK    8  A    between atoms: C8_21  and  N6_22 
REMARK    9  A    between atoms: N8_31  and  C11_32 
ROOT
HETATM    1  N4  UNL     1       0.043   0.207  -0.399  1.00  0.00    -0.300 N 
ATOM      2  H4  UNL     1       0.435  -0.605  -0.876  1.00  0.00     0.186 HD
ENDROOT
BRANCH   1   3
HETATM    3  C5  UNL     1       0.799   0.900   0.383  1.00  0.00     0.067 C 
HETATM    4  C6  UNL     1       0.306   2.097   1.110  1.00  0.00     0.074 C 
BRANCH   3   5
HETATM    5  C4  UNL     1       2.177   0.510   0.564  1.00  0.00     0.145 A 
HETATM    6  N3  UNL     1       3.108   1.078   1.356  1.00  0.00    -0.282 N 
HETATM    7  N2  UNL     1       4.254   0.426   1.251  1.00  0.00    -0.284 N 
ATOM      8  H3  UNL     1       2.952   1.892   1.950  1.00  0.00     0.188 HD
HETATM    9  C3  UNL     1       4.091  -0.581   0.386  1.00  0.00     0.155 A 
ATOM     10  H2  UNL     1       5.116   0.653   1.746  1.00  0.00     0.188 HD
HETATM   11  N9  UNL     1       2.797  -0.509  -0.028  1.00  0.00    -0.325 N 
ATOM     12  H9  UNL     1       2.363  -1.145  -0.697  1.00  0.00     0.169 HD
BRANCH   9  13
HETATM   13  C2  UNL     1       5.039  -1.615  -0.056  1.00  0.00     0.388 C 
BRANCH  13  14
HETATM   14  N1  UNL     1       6.374  -1.083  -0.113  1.00  0.00    -0.046 N 
HETATM   15  C1  UNL     1       6.382   0.156  -0.851  1.00  0.00     0.270 C 
ATOM     16  H12 UNL     1       7.038  -1.758  -0.493  1.00  0.00     0.280 HD
ATOM     17  H11 UNL     1       6.783  -0.977   0.815  1.00  0.00     0.280 HD
ENDBRANCH  13  14
BRANCH  13  18
HETATM   18  O1  UNL     1       4.894  -2.743   0.709  1.00  0.00    -0.364 OA
ATOM     19  H1  UNL     1       4.012  -3.094   0.747  1.00  0.00     0.212 HD
ENDBRANCH  13  18
ENDBRANCH   9  13
ENDBRANCH   3   5
ENDBRANCH   1   3
BRANCH   1  20
HETATM   20  N5  UNL     1      -1.305   0.539  -0.612  1.00  0.00    -0.283 N 
ATOM     21  H5  UNL     1      -1.544   1.493  -0.883  1.00  0.00     0.188 HD
BRANCH  20  22
HETATM   22  C7  UNL     1      -2.313  -0.387  -0.465  1.00  0.00     0.166 A 
HETATM   23  C8  UNL     1      -1.941  -1.734  -0.470  1.00  0.00     0.216 A 
HETATM   24  C9  UNL     1      -2.941  -2.693  -0.273  1.00  0.00     0.286 A 
HETATM   25  O4  UNL     1      -2.632  -3.905  -0.273  1.00  0.00    -0.265 OA
HETATM   26  N7  UNL     1      -4.181  -2.267  -0.094  1.00  0.00    -0.273 N 
HETATM   27  C10 UNL     1      -4.496  -0.975  -0.097  1.00  0.00     0.331 A 
ATOM     28  H7  UNL     1      -4.921  -2.954   0.051  1.00  0.00     0.173 HD
HETATM   29  O5  UNL     1      -5.725  -0.721   0.087  1.00  0.00    -0.246 OA
HETATM   30  N8  UNL     1      -3.571   0.038  -0.284  1.00  0.00    -0.278 N 
BRANCH  23  31
HETATM   31  N6  UNL     1      -0.628  -2.216  -0.675  1.00  0.00    -0.106 N 
HETATM   32  O2  UNL     1      -0.152  -2.259  -1.812  1.00  0.00    -0.531 OA
HETATM   33  O3  UNL     1       0.089  -2.670   0.389  1.00  0.00    -0.531 OA
ENDBRANCH  23  31
BRANCH  30  34
HETATM   34  C11 UNL     1      -4.146   1.299  -0.228  1.00  0.00     0.088 C 
HETATM   35  C12 UNL     1      -3.552   2.582  -0.474  1.00  0.00     0.032 C 
HETATM   36  C13 UNL     1      -4.866   1.397   1.145  1.00  0.00     0.032 C 
ENDBRANCH  30  34
ENDBRANCH  20  22
ENDBRANCH   1  20
TORSDOF 9
