REMARK  8 active torsions:
REMARK  status: ('A' for Active; 'I' for Inactive)
REMARK    1  A    between atoms: N1_2  and  N2_4 
REMARK    2  A    between atoms: N3_6  and  C2_8 
REMARK    3  A    between atoms: C4_10  and  N4_11 
REMARK    4  A    between atoms: C5_14  and  N5_15 
REMARK    5  A    between atoms: N5_15  and  S1_17 
REMARK    6  A    between atoms: S1_17  and  C6_20 
REMARK    7  A    between atoms: C6_20  and  N6_21 
REMARK    8  A    between atoms: C8_28  and  N9_29 
ROOT
HETATM    1  S1  UNL     1      -1.220   2.881   0.610  1.00  0.00     0.270 S 
HETATM    2  O3  UNL     1      -1.272   2.670   2.135  1.00  0.00    -0.200 OA
HETATM    3  O4  UNL     1      -1.350   4.400   0.377  1.00  0.00    -0.200 OA
ENDROOT
BRANCH   1   4
HETATM    4  N5  UNL     1       0.286   2.400   0.037  1.00  0.00    -0.257 N 
ATOM      5  H5  UNL     1       0.836   3.123  -0.426  1.00  0.00     0.181 HD
BRANCH   4   6
HETATM    6  C5  UNL     1       0.892   1.116   0.114  1.00  0.00     0.193 A 
HETATM    7  C4  UNL     1       1.682   0.755   1.210  1.00  0.00     0.158 A 
HETATM    8  C3  UNL     1       2.112  -0.533   0.978  1.00  0.00     0.098 A 
HETATM    9  C2  UNL     1       1.581  -0.909  -0.233  1.00  0.00     0.168 A 
HETATM   10  O6  UNL     1       0.896   0.094  -0.658  1.00  0.00    -0.272 OA
BRANCH   7  11
HETATM   11  N4  UNL     1       2.013   1.526   2.354  1.00  0.00    -0.111 N 
HETATM   12  O1  UNL     1       2.257   0.946   3.418  1.00  0.00    -0.532 OA
HETATM   13  O2  UNL     1       2.061   2.883   2.276  1.00  0.00    -0.532 OA
ENDBRANCH   7  11
BRANCH   9  14
HETATM   14  N3  UNL     1       1.789  -2.191  -0.848  1.00  0.00    -0.265 N 
HETATM   15  N2  UNL     1       2.922  -2.519  -1.320  1.00  0.00    -0.246 N 
ATOM     16  H2  UNL     1       3.026  -3.438  -1.750  1.00  0.00     0.208 HD
ATOM     17  H3  UNL     1       1.013  -2.850  -0.907  1.00  0.00     0.190 HD
BRANCH  15  18
HETATM   18  N1  UNL     1       4.030  -1.671  -1.274  1.00  0.00    -0.326 N 
HETATM   19  C1  UNL     1       5.316  -2.088  -0.750  1.00  0.00     0.169 C 
ATOM     20  H1  UNL     1       3.931  -0.718  -1.624  1.00  0.00     0.181 HD
ENDBRANCH  15  18
ENDBRANCH   9  14
ENDBRANCH   4   6
ENDBRANCH   1   4
BRANCH   1  21
HETATM   21  C6  UNL     1      -2.668   2.178  -0.024  1.00  0.00     0.251 C 
BRANCH  21  22
HETATM   22  N6  UNL     1      -2.872   0.770   0.067  1.00  0.00    -0.093 N 
HETATM   23  C7  UNL     1      -2.622  -0.108  -0.921  1.00  0.00     0.701 A 
HETATM   24  N7  UNL     1      -2.220   0.298  -2.054  1.00  0.00    -0.233 N 
HETATM   25  N8  UNL     1      -2.816  -1.456  -0.760  1.00  0.00    -0.022 N 
ATOM     26  H72 UNL     1      -2.076   1.301  -2.174  1.00  0.00     0.174 HD
ATOM     27  H71 UNL     1      -2.030  -0.368  -2.803  1.00  0.00     0.174 HD
HETATM   28  C8  UNL     1      -3.267  -1.952   0.398  1.00  0.00     0.694 A 
ATOM     29  H8  UNL     1      -2.614  -2.089  -1.534  1.00  0.00     0.203 HD
HETATM   30  N10 UNL     1      -3.520  -1.086   1.387  1.00  0.00    -0.140 N 
HETATM   31  C9  UNL     1      -3.333   0.215   1.233  1.00  0.00     0.359 A 
ATOM     32  H10 UNL     1      -3.865  -1.437   2.280  1.00  0.00     0.189 HD
HETATM   33  O5  UNL     1      -3.584   0.994   2.190  1.00  0.00    -0.245 OA
BRANCH  28  34
HETATM   34  N9  UNL     1      -3.446  -3.232   0.540  1.00  0.00    -0.234 N 
ATOM     35  H92 UNL     1      -3.253  -3.892  -0.214  1.00  0.00     0.174 HD
ATOM     36  H91 UNL     1      -3.790  -3.610   1.423  1.00  0.00     0.174 HD
ENDBRANCH  28  34
ENDBRANCH  21  22
ENDBRANCH   1  21
TORSDOF 8
