REMARK  9 active torsions:
REMARK  status: ('A' for Active; 'I' for Inactive)
REMARK    1  A    between atoms: N1_1  and  C1_4 
REMARK    2  A    between atoms: C2_7  and  C3_8 
REMARK    3  A    between atoms: N3_9  and  O1_11 
REMARK    4  A    between atoms: O1_11  and  C4_12 
REMARK    5  A    between atoms: C4_12  and  C5_14 
REMARK    6  A    between atoms: C5_14  and  C6_15 
REMARK    7  A    between atoms: C6_15  and  O3_16 
REMARK    8  A    between atoms: O3_16  and  C7_17 
REMARK    9  A    between atoms: C12_30  and  N6_31 
ROOT
HETATM    1  C1  UNL     1      -2.441   2.219  -0.809  1.00  0.00     0.134 A 
HETATM    2  N2  UNL     1      -1.373   1.423  -0.712  1.00  0.00    -0.338 N 
ATOM      3  H2  UNL     1      -0.475   1.783  -1.035  1.00  0.00     0.167 HD
HETATM    4  C2  UNL     1      -1.412   0.176  -0.214  1.00  0.00     0.079 A 
HETATM    5  C8  UNL     1      -2.601  -0.356   0.238  1.00  0.00     0.083 A 
HETATM    6  N4  UNL     1      -2.689  -1.589   0.758  1.00  0.00    -0.305 N 
ATOM      7  H4  UNL     1      -1.855  -2.174   0.816  1.00  0.00     0.171 HD
HETATM    8  C9  UNL     1      -3.885  -2.068   1.210  1.00  0.00     0.327 A 
HETATM    9  O6  UNL     1      -3.970  -3.222   1.697  1.00  0.00    -0.247 OA
HETATM   10  N5  UNL     1      -4.977  -1.295   1.132  1.00  0.00    -0.275 N 
ATOM     11  H5  UNL     1      -5.865  -1.663   1.474  1.00  0.00     0.173 HD
HETATM   12  C10 UNL     1      -4.945  -0.041   0.615  1.00  0.00     0.264 A 
HETATM   13  O7  UNL     1      -5.966   0.667   0.551  1.00  0.00    -0.267 OA
HETATM   14  C11 UNL     1      -3.742   0.451   0.154  1.00  0.00     0.098 A 
HETATM   15  C12 UNL     1      -3.687   1.742  -0.370  1.00  0.00     0.164 A 
ENDROOT
BRANCH   4  16
HETATM   16  C3  UNL     1      -0.204  -0.652  -0.166  1.00  0.00     0.146 C 
HETATM   17  N3  UNL     1       0.919  -0.100  -0.600  1.00  0.00    -0.267 N 
ATOM     18  H3  UNL     1       0.940   0.858  -0.948  1.00  0.00     0.194 HD
BRANCH  17  19
HETATM   19  O1  UNL     1       2.073  -0.884  -0.561  1.00  0.00    -0.200 OA
BRANCH  19  20
HETATM   20  C4  UNL     1       2.854  -0.980   0.580  1.00  0.00     0.283 C 
HETATM   21  O2  UNL     1       2.487  -0.313   1.600  1.00  0.00    -0.263 OA
BRANCH  20  22
HETATM   22  C5  UNL     1       4.064  -1.821   0.608  1.00  0.00     0.140 C 
BRANCH  22  23
HETATM   23  C6  UNL     1       5.231  -1.310  -0.152  1.00  0.00     0.192 C 
BRANCH  23  24
HETATM   24  O3  UNL     1       5.705  -0.046   0.246  1.00  0.00    -0.295 OA
BRANCH  24  25
HETATM   25  C7  UNL     1       6.807   0.470  -0.414  1.00  0.00     0.332 C 
HETATM   26  O4  UNL     1       7.305  -0.252  -1.341  1.00  0.00    -0.624 OA
HETATM   27  O5  UNL     1       7.377   1.679  -0.137  1.00  0.00    -0.624 OA
ENDBRANCH  24  25
ENDBRANCH  23  24
ENDBRANCH  22  23
ENDBRANCH  20  22
ENDBRANCH  19  20
ENDBRANCH  17  19
ENDBRANCH   4  16
BRANCH   1  28
HETATM   28  N1  UNL     1      -2.368   3.416  -1.290  1.00  0.00    -0.383 N 
ATOM     29  H12 UNL     1      -1.463   3.762  -1.609  1.00  0.00     0.157 HD
ATOM     30  H11 UNL     1      -3.184   4.024  -1.364  1.00  0.00     0.157 HD
ENDBRANCH   1  28
BRANCH  15  31
HETATM   31  N6  UNL     1      -4.839   2.548  -0.522  1.00  0.00    -0.111 N 
HETATM   32  O8  UNL     1      -5.093   3.421   0.306  1.00  0.00    -0.532 OA
HETATM   33  O9  UNL     1      -5.677   2.372  -1.592  1.00  0.00    -0.532 OA
ENDBRANCH  15  31
TORSDOF 9
