REMARK  6 active torsions:
REMARK  status: ('A' for Active; 'I' for Inactive)
REMARK       I    between atoms: C1_2  and  N1_3 
REMARK    1  A    between atoms: C1_2  and  C8_19 
REMARK    2  A    between atoms: N1_3  and  N2_5 
REMARK    3  A    between atoms: C2_7  and  C3_8 
REMARK    4  A    between atoms: C4_9  and  O2_10 
REMARK    5  A    between atoms: C7_16  and  O5_17 
REMARK    6  A    between atoms: C11_28  and  N5_29 
ROOT
HETATM    1  O1  UNL     1       0.688  -1.109   0.127  1.00  0.00    -0.264 OA
HETATM    2  C1  UNL     1       1.249   0.021   0.252  1.00  0.00     0.289 C 
HETATM    3  N1  UNL     1       0.396   1.108   0.572  1.00  0.00    -0.265 N 
ATOM      4  H1  UNL     1       0.774   2.048   0.688  1.00  0.00     0.190 HD
ENDROOT
BRANCH   3   5
HETATM    5  N2  UNL     1      -0.969   0.868   0.725  1.00  0.00    -0.308 N 
HETATM    6  C2  UNL     1      -1.682   0.351  -0.198  1.00  0.00     0.126 C 
ATOM      7  H2  UNL     1      -1.414   1.115   1.609  1.00  0.00     0.186 HD
BRANCH   6   8
HETATM    8  C3  UNL     1      -3.100   0.110  -0.016  1.00  0.00     0.072 A 
HETATM    9  C4  UNL     1      -3.840   0.386   1.107  1.00  0.00     0.087 A 
HETATM   10  C5  UNL     1      -5.225   0.085   1.120  1.00  0.00     0.120 A 
HETATM   11  C6  UNL     1      -5.786  -0.469   0.024  1.00  0.00     0.292 A 
HETATM   12  O3  UNL     1      -7.038  -0.750   0.014  1.00  0.00    -0.260 OA
HETATM   13  O4  UNL     1      -5.074  -0.733  -1.053  1.00  0.00    -0.251 OA
HETATM   14  C7  UNL     1      -3.793  -0.466  -1.095  1.00  0.00     0.201 A 
BRANCH   9  15
HETATM   15  O2  UNL     1      -3.292   0.939   2.210  1.00  0.00    -0.359 OA
ATOM     16  H2  UNL     1      -3.804   1.130   2.987  1.00  0.00     0.217 HD
ENDBRANCH   9  15
BRANCH  14  17
HETATM   17  O5  UNL     1      -3.038  -0.748  -2.241  1.00  0.00    -0.340 OA
ATOM     18  H5  UNL     1      -3.506  -1.137  -2.970  1.00  0.00     0.220 HD
ENDBRANCH  14  17
ENDBRANCH   6   8
ENDBRANCH   3   5
BRANCH   2  19
HETATM   19  C8  UNL     1       2.676   0.193   0.080  1.00  0.00     0.145 A 
HETATM   20  N3  UNL     1       3.260   1.365   0.330  1.00  0.00    -0.302 N 
HETATM   21  C9  UNL     1       4.610   1.510   0.173  1.00  0.00     0.327 A 
ATOM     22  H3  UNL     1       2.697   2.157   0.640  1.00  0.00     0.171 HD
HETATM   23  O6  UNL     1       5.109   2.633   0.421  1.00  0.00    -0.247 OA
HETATM   24  N4  UNL     1       5.371   0.485  -0.232  1.00  0.00    -0.273 N 
HETATM   25  C10 UNL     1       4.839  -0.712  -0.498  1.00  0.00     0.285 A 
ATOM     26  H4  UNL     1       6.376   0.620  -0.340  1.00  0.00     0.173 HD
HETATM   27  O7  UNL     1       5.569  -1.664  -0.878  1.00  0.00    -0.265 OA
HETATM   28  C11 UNL     1       3.455  -0.851  -0.335  1.00  0.00     0.203 A 
BRANCH  28  29
HETATM   29  N5  UNL     1       2.919  -2.126  -0.627  1.00  0.00    -0.107 N 
HETATM   30  O8  UNL     1       2.369  -2.276  -1.753  1.00  0.00    -0.531 OA
HETATM   31  O9  UNL     1       3.039  -3.126   0.287  1.00  0.00    -0.531 OA
ENDBRANCH  28  29
ENDBRANCH   2  19
TORSDOF 6
