REMARK  5 active torsions:
REMARK  status: ('A' for Active; 'I' for Inactive)
REMARK    1  A    between atoms: N1_2  and  C2_4 
REMARK    2  A    between atoms: C3_9  and  N4_10 
REMARK    3  A    between atoms: N4_10  and  C4_12 
REMARK    4  A    between atoms: C12_23  and  N7_24 
REMARK    5  A    between atoms: N7_24  and  C13_26 
ROOT
HETATM    1  C4  UNL     1      -1.971   1.622  -0.578  1.00  0.00     0.035 A 
HETATM    2  C5  UNL     1      -2.853   2.036   0.397  1.00  0.00     0.029 A 
HETATM    3  C6  UNL     1      -3.901   2.885   0.076  1.00  0.00     0.004 A 
HETATM    4  C7  UNL     1      -4.058   3.319  -1.238  1.00  0.00     0.023 A 
HETATM    5  C8  UNL     1      -3.186   2.917  -2.229  1.00  0.00     0.046 A 
HETATM    6  C9  UNL     1      -3.354   3.372  -3.599  1.00  0.00     0.099 C 
HETATM    7  N5  UNL     1      -3.502   3.726  -4.692  1.00  0.00    -0.191 NA
HETATM    8  C10 UNL     1      -2.164   2.076  -1.866  1.00  0.00     0.052 A 
ENDROOT
BRANCH   1   9
HETATM    9  N4  UNL     1      -0.914   0.757  -0.221  1.00  0.00    -0.340 N 
ATOM     10  H4  UNL     1       0.023   1.153  -0.151  1.00  0.00     0.167 HD
BRANCH   9  11
HETATM   11  C3  UNL     1      -1.055  -0.493   0.021  1.00  0.00     0.149 A 
HETATM   12  N3  UNL     1      -2.235  -1.127  -0.038  1.00  0.00    -0.282 N 
HETATM   13  N2  UNL     1      -2.377  -2.402   0.210  1.00  0.00    -0.283 N 
ATOM     14  H3  UNL     1      -3.063  -0.587  -0.289  1.00  0.00     0.188 HD
HETATM   15  C2  UNL     1      -1.279  -3.184   0.556  1.00  0.00     0.133 A 
ATOM     16  H2  UNL     1      -3.302  -2.828   0.149  1.00  0.00     0.188 HD
HETATM   17  C20 UNL     1      -0.043  -2.550   0.624  1.00  0.00     0.056 A 
HETATM   18  C11 UNL     1       0.074  -1.210   0.359  1.00  0.00     0.110 A 
HETATM   19  C19 UNL     1       1.107  -3.231   0.958  1.00  0.00     0.123 A 
HETATM   20  N6  UNL     1       1.287  -0.572   0.422  1.00  0.00    -0.187 N 
HETATM   21  C12 UNL     1       2.401  -1.240   0.747  1.00  0.00     0.683 A 
ATOM     22  H6  UNL     1       1.341   0.426   0.218  1.00  0.00     0.184 HD
HETATM   23  N8  UNL     1       2.287  -2.545   1.006  1.00  0.00    -0.201 N 
ATOM     24  H8  UNL     1       3.132  -3.060   1.254  1.00  0.00     0.183 HD
BRANCH  15  25
HETATM   25  N1  UNL     1      -1.447  -4.367   0.779  1.00  0.00    -0.360 N 
HETATM   26  C1  UNL     1      -1.074  -5.622   1.107  1.00  0.00     0.120 C 
ATOM     27  H1  UNL     1      -2.451  -4.472   0.635  1.00  0.00     0.165 HD
ENDBRANCH  15  25
BRANCH  21  28
HETATM   28  N7  UNL     1       3.558  -0.659   0.814  1.00  0.00    -0.192 N 
ATOM     29  H7  UNL     1       4.372  -1.220   1.067  1.00  0.00     0.184 HD
BRANCH  28  30
HETATM   30  C13 UNL     1       3.741   0.720   0.551  1.00  0.00     0.049 A 
HETATM   31  C14 UNL     1       3.843   1.114  -0.771  1.00  0.00     0.030 A 
HETATM   32  C15 UNL     1       4.021   2.464  -1.039  1.00  0.00     0.002 A 
HETATM   33  C16 UNL     1       4.093   3.374  -0.011  1.00  0.00     0.000 A 
HETATM   34  C17 UNL     1       3.988   2.948   1.297  1.00  0.00     0.002 A 
HETATM   35  C18 UNL     1       3.810   1.613   1.592  1.00  0.00     0.030 A 
ENDBRANCH  28  30
ENDBRANCH  21  28
ENDBRANCH   9  11
ENDBRANCH   1   9
TORSDOF 5
