REMARK  4 active torsions:
REMARK  status: ('A' for Active; 'I' for Inactive)
REMARK    1  A    between atoms: N2_3  and  C2_5 
REMARK    2  A    between atoms: C2_5  and  S2_7 
REMARK    3  A    between atoms: S2_7  and  C3_8 
REMARK    4  A    between atoms: C3_8  and  C4_9 
ROOT
HETATM    1  N1  UNL     1       5.627  -2.169  -0.830  1.00  0.00    -0.172 NA
HETATM    2  C1  UNL     1       4.900  -1.573  -0.122  1.00  0.00     0.183 C 
HETATM    3  N2  UNL     1       4.056  -0.855   0.717  1.00  0.00    -0.279 N 
ATOM      4  H2  UNL     1       4.146  -0.937   1.730  1.00  0.00     0.179 HD
ENDROOT
BRANCH   3   5
HETATM    5  C2  UNL     1       3.058   0.001   0.147  1.00  0.00     0.147 C 
HETATM    6  S1  UNL     1       3.046   0.102  -1.489  1.00  0.00    -0.052 SA
BRANCH   5   7
HETATM    7  S2  UNL     1       2.019   0.884   1.235  1.00  0.00    -0.096 SA
BRANCH   7   8
HETATM    8  C3  UNL     1       0.584   1.688   0.582  1.00  0.00     0.115 C 
BRANCH   8   9
HETATM    9  C4  UNL     1      -0.547   0.755   0.261  1.00  0.00    -0.074 C 
HETATM   10  C5  UNL     1      -1.671   0.993   0.963  1.00  0.00    -0.023 C 
HETATM   11  C6  UNL     1      -2.846   0.151   0.743  1.00  0.00     0.027 C 
HETATM   12  C7  UNL     1      -2.930  -0.247  -0.694  1.00  0.00     0.004 C 
HETATM   13  C8  UNL     1      -1.695  -0.970  -1.163  1.00  0.00     0.005 C 
HETATM   14  C9  UNL     1      -0.422  -0.293  -0.736  1.00  0.00     0.034 C 
ENDBRANCH   8   9
ENDBRANCH   7   8
ENDBRANCH   5   7
ENDBRANCH   3   5
TORSDOF 4
