REMARK  2 active torsions:
REMARK  status: ('A' for Active; 'I' for Inactive)
REMARK    1  A    between atoms: C2_6  and  C3_7 
REMARK    2  A    between atoms: C3_7  and  C4_8 
ROOT
HETATM    1  N1  UNL     1      -3.749   2.042  -0.779  1.00  0.00    -0.374 N 
ATOM      2  H11 UNL     1      -4.626   2.416  -0.416  1.00  0.00     0.158 HD
ATOM      3  H12 UNL     1      -3.198   2.661  -1.373  1.00  0.00     0.158 HD
HETATM    4  C1  UNL     1      -3.338   0.849  -0.514  1.00  0.00     0.175 C 
HETATM    5  O1  UNL     1      -2.137   0.337  -1.011  1.00  0.00    -0.325 OA
HETATM    6  C2  UNL     1      -1.595  -0.879  -0.526  1.00  0.00     0.132 C 
HETATM    7  C10 UNL     1      -1.788  -1.112   0.928  1.00  0.00     0.043 C 
HETATM    8  C11 UNL     1      -3.237  -1.569   1.142  1.00  0.00     0.085 C 
HETATM    9  S1  UNL     1      -4.303  -0.235   0.525  1.00  0.00    -0.087 SA
ENDROOT
BRANCH   6  10
HETATM   10  C3  UNL     1      -0.169  -1.022  -0.929  1.00  0.00     0.037 C 
BRANCH  10  11
HETATM   11  C4  UNL     1       0.778   0.024  -0.491  1.00  0.00    -0.012 C 
HETATM   12  C5  UNL     1       0.977   0.254   0.951  1.00  0.00     0.005 C 
HETATM   13  C6  UNL     1       2.406   0.609   1.315  1.00  0.00     0.000 C 
HETATM   14  C7  UNL     1       3.100   1.432   0.298  1.00  0.00     0.000 C 
HETATM   15  C8  UNL     1       2.877   1.057  -1.123  1.00  0.00     0.000 C 
HETATM   16  C9  UNL     1       2.107  -0.241  -1.209  1.00  0.00     0.005 C 
ENDBRANCH  10  11
ENDBRANCH   6  10
TORSDOF 2
