REMARK  2 active torsions:
REMARK  status: ('A' for Active; 'I' for Inactive)
REMARK    1  A    between atoms: N2_3  and  C2_4 
REMARK    2  A    between atoms: N2_3  and  C8_11 
ROOT
HETATM    1  N1  UNL     1      -0.148  -1.553  -2.742  1.00  0.00    -0.172 NA
HETATM    2  C1  UNL     1       0.057  -0.900  -1.800  1.00  0.00     0.185 C 
HETATM    3  N2  UNL     1       0.328  -0.122  -0.668  1.00  0.00    -0.278 N 
ENDROOT
BRANCH   3   4
HETATM    4  C2  UNL     1       1.717   0.214  -0.468  1.00  0.00     0.069 A 
HETATM    5  C3  UNL     1       2.242   1.368  -0.977  1.00  0.00     0.032 A 
HETATM    6  C4  UNL     1       3.564   1.665  -0.779  1.00  0.00     0.002 A 
HETATM    7  C5  UNL     1       4.351   0.791  -0.063  1.00  0.00     0.002 A 
HETATM    8  C6  UNL     1       3.838  -0.371   0.455  1.00  0.00     0.029 A 
HETATM    9  C7  UNL     1       2.486  -0.656   0.241  1.00  0.00     0.073 A 
HETATM   10  N3  UNL     1       1.995  -1.870   0.790  1.00  0.00    -0.100 NA
ENDBRANCH   3   4
BRANCH   3  11
HETATM   11  C8  UNL     1      -0.711   0.333   0.244  1.00  0.00     0.101 C 
HETATM   12  C9  UNL     1      -1.719   1.212  -0.459  1.00  0.00     0.026 C 
HETATM   13  C10 UNL     1      -2.954   0.407  -0.822  1.00  0.00     0.002 C 
HETATM   14  C11 UNL     1      -3.654   0.057   0.444  1.00  0.00     0.000 C 
HETATM   15  C12 UNL     1      -2.741  -0.675   1.359  1.00  0.00     0.002 C 
HETATM   16  C13 UNL     1      -1.336  -0.849   0.904  1.00  0.00     0.026 C 
ENDBRANCH   3  11
TORSDOF 2
