REMARK  1 active torsions:
REMARK  status: ('A' for Active; 'I' for Inactive)
REMARK    1  A    between atoms: N2_5  and  C4_6 
ROOT
HETATM    1  N1  UNL     1       5.772   1.133   0.336  1.00  0.00    -0.190 NA
HETATM    2  C1  UNL     1       4.726   0.673   0.162  1.00  0.00     0.119 C 
HETATM    3  C2  UNL     1       3.407   0.112  -0.072  1.00  0.00     0.131 A 
HETATM    4  C3  UNL     1       2.217   0.689   0.295  1.00  0.00     0.135 A 
HETATM    5  N2  UNL     1       1.197  -0.105  -0.078  1.00  0.00    -0.326 N 
HETATM    6  C10 UNL     1       1.761  -1.170  -0.674  1.00  0.00     0.179 A 
HETATM    7  S1  UNL     1       1.014  -2.480  -1.335  1.00  0.00    -0.040 SA
HETATM    8  N3  UNL     1       3.099  -1.046  -0.674  1.00  0.00    -0.323 N 
ATOM      9  H3  UNL     1       3.763  -1.715  -1.063  1.00  0.00     0.169 HD
ENDROOT
BRANCH   5  10
HETATM   10  C4  UNL     1      -0.200   0.127   0.115  1.00  0.00     0.092 C 
HETATM   11  C5  UNL     1      -0.975   0.185  -1.183  1.00  0.00     0.026 C 
HETATM   12  C6  UNL     1      -2.241   0.992  -0.895  1.00  0.00     0.002 C 
HETATM   13  C7  UNL     1      -2.680   0.811   0.547  1.00  0.00     0.000 C 
HETATM   14  C8  UNL     1      -2.342  -0.564   1.068  1.00  0.00     0.002 C 
HETATM   15  C9  UNL     1      -0.874  -0.873   1.008  1.00  0.00     0.026 C 
ENDBRANCH   5  10
TORSDOF 1
