REMARK  3 active torsions:
REMARK  status: ('A' for Active; 'I' for Inactive)
REMARK    1  A    between atoms: C2_7  and  C3_8 
REMARK    2  A    between atoms: C3_8  and  S2_9 
REMARK    3  A    between atoms: S2_9  and  C4_10 
ROOT
HETATM    1  S1  UNL     1       5.826  -0.812  -0.447  1.00  0.00    -0.031 SA
HETATM    2  C1  UNL     1       4.370  -0.212   0.034  1.00  0.00     0.235 A 
HETATM    3  N1  UNL     1       3.568  -0.730   0.985  1.00  0.00    -0.268 N 
ATOM      4  H1  UNL     1       3.760  -1.567   1.535  1.00  0.00     0.190 HD
HETATM    5  N2  UNL     1       2.491   0.029   1.086  1.00  0.00    -0.280 N 
ATOM      6  H2  UNL     1       1.709  -0.117   1.724  1.00  0.00     0.189 HD
HETATM    7  C2  UNL     1       2.614   1.026   0.197  1.00  0.00     0.150 A 
HETATM    8  O1  UNL     1       3.751   0.850  -0.416  1.00  0.00    -0.268 OA
ENDROOT
BRANCH   7   9
HETATM    9  C3  UNL     1       1.648   2.142  -0.066  1.00  0.00     0.160 C 
BRANCH   9  10
HETATM   10  S2  UNL     1       0.457   1.622  -1.331  1.00  0.00    -0.156 SA
BRANCH  10  11
HETATM   11  C4  UNL     1      -0.534   0.299  -0.607  1.00  0.00     0.047 C 
HETATM   12  C5  UNL     1      -1.375   0.807   0.526  1.00  0.00     0.015 C 
HETATM   13  C6  UNL     1      -2.253  -0.204   1.150  1.00  0.00     0.001 C 
HETATM   14  C7  UNL     1      -2.850  -1.230   0.251  1.00  0.00     0.000 C 
HETATM   15  C8  UNL     1      -2.010  -1.582  -0.941  1.00  0.00     0.001 C 
HETATM   16  C9  UNL     1      -1.495  -0.303  -1.617  1.00  0.00     0.015 C 
ENDBRANCH  10  11
ENDBRANCH   9  10
ENDBRANCH   7   9
TORSDOF 3
