REMARK  3 active torsions:
REMARK  status: ('A' for Active; 'I' for Inactive)
REMARK    1  A    between atoms: C3_6  and  C4_7 
REMARK    2  A    between atoms: C4_7  and  C5_9 
REMARK    3  A    between atoms: C5_9  and  O1_11 
ROOT
HETATM    1  N1  UNL     1      -3.011  -0.044  -2.047  1.00  0.00    -0.113 NA
HETATM    2  C1  UNL     1      -3.020   0.003  -0.627  1.00  0.00     0.133 C 
HETATM    3  C2  UNL     1      -1.889   0.020   0.072  1.00  0.00     0.103 A 
HETATM    4  N2  UNL     1      -0.687  -0.008  -0.504  1.00  0.00    -0.337 N 
ATOM      5  H2  UNL     1      -0.635  -0.044  -1.522  1.00  0.00     0.167 HD
HETATM    6  C3  UNL     1       0.485   0.009   0.213  1.00  0.00     0.137 A 
HETATM    7  N5  UNL     1       0.460   0.054   1.551  1.00  0.00    -0.304 N 
ATOM      8  H5  UNL     1       1.326   0.066   2.090  1.00  0.00     0.171 HD
HETATM    9  C6  UNL     1      -0.756   0.083   2.176  1.00  0.00     0.299 A 
HETATM   10  O2  UNL     1      -0.779   0.126   3.429  1.00  0.00    -0.264 OA
HETATM   11  C7  UNL     1      -1.916   0.066   1.446  1.00  0.00     0.267 A 
HETATM   12  O3  UNL     1      -3.061   0.092   2.001  1.00  0.00    -0.280 OA
ENDROOT
BRANCH   6  13
HETATM   13  C4  UNL     1       1.620  -0.021  -0.459  1.00  0.00     0.138 C 
HETATM   14  N3  UNL     1       1.474  -0.069  -1.908  1.00  0.00    -0.094 NA
BRANCH  13  15
HETATM   15  C5  UNL     1       2.972  -0.014  -0.001  1.00  0.00     0.178 C 
HETATM   16  N4  UNL     1       3.463   0.027   1.324  1.00  0.00    -0.073 NA
BRANCH  15  17
HETATM   17  O1  UNL     1       3.889  -0.051  -0.923  1.00  0.00    -0.347 OA
ATOM     18  H1  UNL     1       4.789  -0.046  -0.618  1.00  0.00     0.219 HD
ENDBRANCH  15  17
ENDBRANCH  13  15
ENDBRANCH   6  13
TORSDOF 3
