REMARK  6 active torsions:
REMARK  status: ('A' for Active; 'I' for Inactive)
REMARK    1  A    between atoms: C2_2  and  C3_3 
REMARK    2  A    between atoms: C3_3  and  N1_4 
REMARK    3  A    between atoms: C3_3  and  C17_19 
REMARK    4  A    between atoms: N1_4  and  C4_6 
REMARK    5  A    between atoms: C4_6  and  C5_7 
REMARK    6  A    between atoms: C4_6  and  C11_13 
ROOT
HETATM    1  C4  UNL     1      -0.915  -0.284  -0.464  1.00  0.00     0.148 C 
ENDROOT
BRANCH   1   2
HETATM    2  N1  UNL     1       0.366  -0.333   0.130  1.00  0.00    -0.380 N 
ATOM      3  H1  UNL     1       0.512  -0.816   1.017  1.00  0.00     0.160 HD
BRANCH   2   4
HETATM    4  C3  UNL     1       1.437   0.300  -0.530  1.00  0.00     0.015 C 
BRANCH   4   5
HETATM    5  C2  UNL     1       1.484   1.773  -0.663  1.00  0.00     0.053 C 
HETATM    6  C1  UNL     1       1.524   2.554   0.620  1.00  0.00     0.011 C 
ENDBRANCH   4   5
BRANCH   4   7
HETATM    7  C17 UNL     1       2.770  -0.263  -0.139  1.00  0.00    -0.014 A 
HETATM    8  C18 UNL     1       3.068  -0.450   1.185  1.00  0.00     0.013 A 
HETATM    9  C19 UNL     1       4.307  -0.991   1.504  1.00  0.00     0.001 A 
HETATM   10  C20 UNL     1       5.240  -1.342   0.548  1.00  0.00     0.000 A 
HETATM   11  C21 UNL     1       4.923  -1.146  -0.769  1.00  0.00     0.001 A 
HETATM   12  C22 UNL     1       3.694  -0.609  -1.120  1.00  0.00     0.013 A 
ENDBRANCH   4   7
ENDBRANCH   2   4
ENDBRANCH   1   2
BRANCH   1  13
HETATM   13  C5  UNL     1      -1.753  -1.466  -0.017  1.00  0.00    -0.031 A 
HETATM   14  C6  UNL     1      -2.556  -2.058  -0.964  1.00  0.00     0.009 A 
HETATM   15  C7  UNL     1      -3.357  -3.155  -0.670  1.00  0.00     0.001 A 
HETATM   16  C8  UNL     1      -3.351  -3.673   0.619  1.00  0.00     0.000 A 
HETATM   17  C9  UNL     1      -2.543  -3.073   1.561  1.00  0.00     0.001 A 
HETATM   18  C10 UNL     1      -1.749  -1.972   1.236  1.00  0.00     0.009 A 
ENDBRANCH   1  13
BRANCH   1  19
HETATM   19  C11 UNL     1      -1.727   0.946  -0.251  1.00  0.00    -0.031 A 
HETATM   20  C12 UNL     1      -2.281   1.626  -1.346  1.00  0.00     0.009 A 
HETATM   21  C13 UNL     1      -3.064   2.735  -1.238  1.00  0.00     0.001 A 
HETATM   22  C14 UNL     1      -3.355   3.256   0.009  1.00  0.00     0.000 A 
HETATM   23  C15 UNL     1      -2.824   2.608   1.103  1.00  0.00     0.001 A 
HETATM   24  C16 UNL     1      -2.023   1.473   0.987  1.00  0.00     0.009 A 
ENDBRANCH   1  19
TORSDOF 6
