REMARK  9 active torsions:
REMARK  status: ('A' for Active; 'I' for Inactive)
REMARK    1  A    between atoms: C2_2  and  O1_3 
REMARK    2  A    between atoms: C2_2  and  C3_5 
REMARK    3  A    between atoms: C3_5  and  N1_6 
REMARK       I    between atoms: N1_6  and  C4_8 
REMARK    4  A    between atoms: C4_8  and  C5_10 
REMARK    5  A    between atoms: C5_10  and  C6_11 
REMARK    6  A    between atoms: C6_11  and  C7_12 
REMARK    7  A    between atoms: C7_12  and  O4_14 
REMARK    8  A    between atoms: O4_14  and  C8_15 
REMARK    9  A    between atoms: C17_24  and  O5_25 
ROOT
HETATM    1  C8  UNL     1      -0.529   1.763   0.206  1.00  0.00     0.140 C 
HETATM    2  C9  UNL     1      -0.842   3.228   0.422  1.00  0.00     0.034 C 
HETATM    3  C10 UNL     1      -1.464   3.178   1.825  1.00  0.00     0.008 C 
HETATM    4  C11 UNL     1      -2.375   1.944   1.774  1.00  0.00    -0.003 C 
HETATM    5  C12 UNL     1      -3.651   2.383   1.143  1.00  0.00     0.006 C 
HETATM    6  C13 UNL     1      -4.618   1.267   0.839  1.00  0.00     0.006 C 
HETATM    7  C14 UNL     1      -3.793  -0.030   0.830  1.00  0.00    -0.005 C 
HETATM    8  C15 UNL     1      -4.541  -1.220   0.430  1.00  0.00     0.003 C 
HETATM    9  C16 UNL     1      -5.994  -1.019   0.024  1.00  0.00     0.038 C 
HETATM   10  C17 UNL     1      -5.669  -1.455  -1.373  1.00  0.00     0.127 C 
HETATM   11  C18 UNL     1      -4.279  -1.819  -0.893  1.00  0.00    -0.014 C 
HETATM   12  C19 UNL     1      -4.160  -3.353  -0.898  1.00  0.00     0.018 C 
HETATM   13  C20 UNL     1      -3.158  -1.251  -1.684  1.00  0.00     0.012 C 
HETATM   14  C21 UNL     1      -2.034  -0.896  -0.698  1.00  0.00     0.007 C 
HETATM   15  C22 UNL     1      -2.565   0.299   0.026  1.00  0.00     0.001 C 
HETATM   16  C23 UNL     1      -1.577   0.974   0.929  1.00  0.00    -0.010 C 
HETATM   17  C24 UNL     1      -0.851  -0.034   1.813  1.00  0.00     0.018 C 
ENDROOT
BRANCH   1  18
HETATM   18  O4  UNL     1       0.765   1.545   0.765  1.00  0.00    -0.315 OA
BRANCH  18  19
HETATM   19  C7  UNL     1       1.837   1.066   0.060  1.00  0.00     0.259 C 
HETATM   20  O3  UNL     1       1.698   0.792  -1.158  1.00  0.00    -0.265 OA
BRANCH  19  21
HETATM   21  C6  UNL     1       3.124   0.893   0.785  1.00  0.00     0.120 C 
BRANCH  21  22
HETATM   22  C5  UNL     1       4.145   0.360  -0.180  1.00  0.00     0.112 C 
BRANCH  22  23
HETATM   23  C4  UNL     1       5.467   0.157   0.466  1.00  0.00     0.218 C 
HETATM   24  N1  UNL     1       6.549  -0.342  -0.302  1.00  0.00    -0.359 N 
ATOM     25  H1  UNL     1       6.438  -0.565  -1.291  1.00  0.00     0.162 HD
HETATM   26  O2  UNL     1       5.565   0.442   1.684  1.00  0.00    -0.274 OA
BRANCH  24  27
HETATM   27  C3  UNL     1       7.820  -0.523   0.373  1.00  0.00     0.153 C 
BRANCH  27  28
HETATM   28  C2  UNL     1       8.836  -1.060  -0.615  1.00  0.00     0.132 C 
HETATM   29  C1  UNL     1       8.392  -2.409  -1.119  1.00  0.00     0.041 C 
BRANCH  28  30
HETATM   30  O1  UNL     1       8.979  -0.147  -1.658  1.00  0.00    -0.394 OA
ATOM     31  H1  UNL     1       9.259   0.703  -1.340  1.00  0.00     0.210 HD
ENDBRANCH  28  30
ENDBRANCH  27  28
ENDBRANCH  24  27
ENDBRANCH  22  23
ENDBRANCH  21  22
ENDBRANCH  19  21
ENDBRANCH  18  19
ENDBRANCH   1  18
BRANCH  10  32
HETATM   32  O5  UNL     1      -5.722  -0.426  -2.302  1.00  0.00    -0.395 OA
ATOM     33  H5  UNL     1      -5.516  -0.702  -3.187  1.00  0.00     0.210 HD
ENDBRANCH  10  32
TORSDOF 9
