REMARK  8 active torsions:
REMARK  status: ('A' for Active; 'I' for Inactive)
REMARK    1  A    between atoms: C2_2  and  C3_3 
REMARK    2  A    between atoms: C4_4  and  C5_5 
REMARK    3  A    between atoms: C10_10  and  C11_11 
REMARK    4  A    between atoms: C11_11  and  O2_13 
REMARK    5  A    between atoms: O2_13  and  C12_14 
REMARK    6  A    between atoms: C12_14  and  C13_15 
REMARK    7  A    between atoms: C23_25  and  O3_26 
REMARK    8  A    between atoms: C24_28  and  C25_29 
ROOT
HETATM    1  C5  UNL     1       3.455  -0.779  -0.663  1.00  0.00     0.031 C 
HETATM    2  C6  UNL     1       4.230  -1.983  -0.265  1.00  0.00     0.010 C 
HETATM    3  C7  UNL     1       3.823  -2.588   1.023  1.00  0.00     0.006 C 
HETATM    4  C8  UNL     1       2.373  -2.740   1.259  1.00  0.00     0.004 C 
HETATM    5  C9  UNL     1       1.961  -4.209   1.079  1.00  0.00     0.011 C 
HETATM    6  C10 UNL     1       1.456  -1.803   0.545  1.00  0.00     0.099 A 
HETATM    7  C23 UNL     1       1.241  -1.893  -0.949  1.00  0.00     0.159 A 
HETATM    8  C24 UNL     1       2.010  -0.768  -0.262  1.00  0.00     0.102 A 
ENDROOT
BRANCH   6   9
HETATM    9  C11 UNL     1       0.169  -1.534   1.261  1.00  0.00     0.272 C 
HETATM   10  O1  UNL     1       0.037  -1.958   2.442  1.00  0.00    -0.264 OA
BRANCH   9  11
HETATM   11  O2  UNL     1      -0.889  -0.851   0.719  1.00  0.00    -0.320 OA
BRANCH  11  12
HETATM   12  C12 UNL     1      -2.056  -0.658   1.494  1.00  0.00     0.188 C 
BRANCH  12  13
HETATM   13  C13 UNL     1      -3.107   0.113   0.729  1.00  0.00    -0.017 C 
HETATM   14  C14 UNL     1      -4.313   0.269   1.637  1.00  0.00     0.016 C 
HETATM   15  C15 UNL     1      -5.381   1.082   0.964  1.00  0.00    -0.013 C 
HETATM   16  C16 UNL     1      -5.786   0.388  -0.305  1.00  0.00     0.009 C 
HETATM   17  C20 UNL     1      -4.825   2.464   0.703  1.00  0.00     0.009 C 
HETATM   18  C17 UNL     1      -4.585   0.282  -1.197  1.00  0.00    -0.013 C 
HETATM   19  C18 UNL     1      -4.079   1.673  -1.484  1.00  0.00     0.009 C 
HETATM   20  C22 UNL     1      -3.473  -0.536  -0.565  1.00  0.00     0.016 C 
HETATM   21  C19 UNL     1      -3.624   2.342  -0.207  1.00  0.00    -0.013 C 
HETATM   22  C21 UNL     1      -2.542   1.491   0.415  1.00  0.00     0.016 C 
ENDBRANCH  12  13
ENDBRANCH  11  12
ENDBRANCH   9  11
ENDBRANCH   6   9
BRANCH   7  23
HETATM   23  O3  UNL     1       1.916  -2.820  -1.692  1.00  0.00    -0.393 OA
ATOM     24  H3  UNL     1       1.781  -2.877  -2.631  1.00  0.00     0.210 HD
ENDBRANCH   7  23
BRANCH   8  25
HETATM   25  C25 UNL     1       1.441   0.603  -0.256  1.00  0.00     0.186 C 
HETATM   26  O4  UNL     1       1.133   1.103   0.850  1.00  0.00    -0.647 OA
HETATM   27  O5  UNL     1       1.238   1.347  -1.398  1.00  0.00    -0.647 OA
ENDBRANCH   8  25
BRANCH   1  28
HETATM   28  C4  UNL     1       4.134   0.468  -0.215  1.00  0.00    -0.025 C 
HETATM   29  C3  UNL     1       4.712   1.314  -1.064  1.00  0.00    -0.031 C 
BRANCH  29  30
HETATM   30  C2  UNL     1       5.372   2.532  -0.584  1.00  0.00     0.022 C 
HETATM   31  C1  UNL     1       4.800   3.803  -1.121  1.00  0.00     0.009 C 
ENDBRANCH  29  30
ENDBRANCH   1  28
TORSDOF 8
