REMARK  8 active torsions:
REMARK  status: ('A' for Active; 'I' for Inactive)
REMARK    1  A    between atoms: N1_1  and  C1_4 
REMARK    2  A    between atoms: C2_7  and  N3_8 
REMARK    3  A    between atoms: C3_11  and  C4_12 
REMARK    4  A    between atoms: C4_12  and  O4_14 
REMARK    5  A    between atoms: O4_14  and  N4_15 
REMARK    6  A    between atoms: N4_15  and  N5_17 
REMARK    7  A    between atoms: N5_17  and  O5_18 
REMARK    8  A    between atoms: N5_17  and  C5_20 
ROOT
HETATM    1  C4  UNL     1      -0.176   0.085   0.181  1.00  0.00     0.326 C 
HETATM    2  O3  UNL     1       0.589   0.286  -0.792  1.00  0.00    -0.257 OA
ENDROOT
BRANCH   1   3
HETATM    3  C3  UNL     1      -1.607  -0.216  -0.057  1.00  0.00     0.160 A 
HETATM    4  C2  UNL     1      -2.555   0.780  -0.129  1.00  0.00     0.210 A 
HETATM    5  N2  UNL     1      -3.838   0.433  -0.349  1.00  0.00    -0.170 N 
HETATM    6  C1  UNL     1      -4.261  -0.833  -0.506  1.00  0.00     0.680 A 
ATOM      7  H2  UNL     1      -4.532   1.178  -0.400  1.00  0.00     0.186 HD
HETATM    8  N8  UNL     1      -3.327  -1.794  -0.433  1.00  0.00    -0.155 N 
HETATM    9  C7  UNL     1      -2.032  -1.518  -0.216  1.00  0.00     0.280 A 
ATOM     10  H8  UNL     1      -3.611  -2.767  -0.546  1.00  0.00     0.187 HD
HETATM   11  O7  UNL     1      -1.177  -2.445  -0.153  1.00  0.00    -0.266 OA
BRANCH   4  12
HETATM   12  N3  UNL     1      -2.194   2.154   0.027  1.00  0.00    -0.096 N 
HETATM   13  O1  UNL     1      -1.024   2.449   0.229  1.00  0.00    -0.530 OA
HETATM   14  O2  UNL     1      -3.154   3.113  -0.049  1.00  0.00    -0.530 OA
ENDBRANCH   4  12
BRANCH   6  15
HETATM   15  N1  UNL     1      -5.517  -1.110  -0.717  1.00  0.00    -0.234 N 
ATOM     16  H12 UNL     1      -6.227  -0.380  -0.772  1.00  0.00     0.174 HD
ATOM     17  H11 UNL     1      -5.838  -2.071  -0.836  1.00  0.00     0.174 HD
ENDBRANCH   6  15
ENDBRANCH   1   3
BRANCH   1  18
HETATM   18  O4  UNL     1       0.342   0.149   1.447  1.00  0.00    -0.176 OA
BRANCH  18  19
HETATM   19  N4  UNL     1       1.605   0.408   1.748  1.00  0.00    -0.169 N 
ATOM     20  H4  UNL     1       1.950   0.215   2.688  1.00  0.00     0.219 HD
BRANCH  19  21
HETATM   21  N5  UNL     1       2.449   0.930   0.815  1.00  0.00    -0.117 N 
BRANCH  21  22
HETATM   22  O5  UNL     1       2.348   2.205   0.413  1.00  0.00    -0.264 OA
ATOM     23  H5  UNL     1       2.937   2.569  -0.238  1.00  0.00     0.247 HD
ENDBRANCH  21  22
BRANCH  21  24
HETATM   24  C5  UNL     1       3.475   0.124   0.244  1.00  0.00     0.215 A 
HETATM   25  N6  UNL     1       4.371   0.474  -0.667  1.00  0.00    -0.273 N 
HETATM   26  N7  UNL     1       5.230  -0.360  -1.082  1.00  0.00    -0.258 N 
ATOM     27  H6  UNL     1       4.369   1.424  -1.038  1.00  0.00     0.189 HD
HETATM   28  C6  UNL     1       5.220  -1.599  -0.587  1.00  0.00     0.306 A 
ATOM     29  H7  UNL     1       5.919  -0.088  -1.784  1.00  0.00     0.191 HD
HETATM   30  O6  UNL     1       6.000  -2.573  -0.879  1.00  0.00    -0.258 OA
HETATM   31  S1  UNL     1       3.905  -1.512   0.514  1.00  0.00     0.014 SA
ENDBRANCH  21  24
ENDBRANCH  19  21
ENDBRANCH  18  19
ENDBRANCH   1  18
TORSDOF 8
