REMARK  7 active torsions:
REMARK  status: ('A' for Active; 'I' for Inactive)
REMARK    1  A    between atoms: N1_1  and  C1_4 
REMARK    2  A    between atoms: C1_4  and  N2_5 
REMARK    3  A    between atoms: C1_4  and  C5_21 
REMARK    4  A    between atoms: N2_5  and  N3_7 
REMARK       I    between atoms: N3_7  and  C2_9 
REMARK    5  A    between atoms: C2_9  and  C3_11 
REMARK    6  A    between atoms: C4_17  and  N6_18 
REMARK    7  A    between atoms: N9_26  and  C6_27 
ROOT
HETATM    1  C1  UNL     1      -0.315  -1.920   1.250  1.00  0.00     0.161 C 
ENDROOT
BRANCH   1   2
HETATM    2  N1  UNL     1      -0.890  -2.633   2.155  1.00  0.00    -0.381 N 
ATOM      3  H12 UNL     1      -0.307  -3.228   2.743  1.00  0.00     0.157 HD
ATOM      4  H11 UNL     1      -1.901  -2.611   2.285  1.00  0.00     0.157 HD
ENDBRANCH   1   2
BRANCH   1   5
HETATM    5  N2  UNL     1       1.095  -1.951   1.069  1.00  0.00    -0.280 N 
ATOM      6  H2  UNL     1       1.567  -2.849   0.959  1.00  0.00     0.188 HD
BRANCH   5   7
HETATM    7  N3  UNL     1       1.854  -0.760   1.039  1.00  0.00    -0.263 N 
HETATM    8  C2  UNL     1       2.819  -0.557   0.011  1.00  0.00     0.292 C 
HETATM    9  O1  UNL     1       3.011  -1.424  -0.875  1.00  0.00    -0.264 OA
ATOM     10  H3  UNL     1       1.711  -0.046   1.753  1.00  0.00     0.190 HD
BRANCH   8  11
HETATM   11  C3  UNL     1       3.588   0.681   0.000  1.00  0.00     0.171 A 
HETATM   12  N4  UNL     1       3.469   1.706   0.896  1.00  0.00    -0.232 N 
HETATM   13  O2  UNL     1       4.304   2.639   0.587  1.00  0.00    -0.155 OA
ATOM     14  H4  UNL     1       2.822   1.729   1.684  1.00  0.00     0.197 HD
HETATM   15  N5  UNL     1       4.990   2.329  -0.461  1.00  0.00    -0.224 N 
HETATM   16  C4  UNL     1       4.570   1.093  -0.868  1.00  0.00     0.155 A 
ATOM     17  H5  UNL     1       5.711   2.899  -0.903  1.00  0.00     0.198 HD
BRANCH  16  18
HETATM   18  N6  UNL     1       5.034   0.475  -1.877  1.00  0.00    -0.382 N 
ATOM     19  H62 UNL     1       4.721  -0.447  -2.181  1.00  0.00     0.157 HD
ATOM     20  H61 UNL     1       5.763   0.781  -2.521  1.00  0.00     0.157 HD
ENDBRANCH  16  18
ENDBRANCH   8  11
ENDBRANCH   5   7
ENDBRANCH   1   5
BRANCH   1  21
HETATM   21  C5  UNL     1      -1.147  -1.071   0.412  1.00  0.00     0.183 A 
HETATM   22  N7  UNL     1      -0.684  -0.271  -0.574  1.00  0.00    -0.265 N 
HETATM   23  N8  UNL     1      -1.711   0.349  -1.119  1.00  0.00    -0.218 N 
ATOM     24  H7  UNL     1       0.293  -0.165  -0.849  1.00  0.00     0.190 HD
HETATM   25  N9  UNL     1      -2.827  -0.031  -0.510  1.00  0.00    -0.158 N 
ATOM     26  H8  UNL     1      -1.657   1.016  -1.888  1.00  0.00     0.210 HD
HETATM   27  N12 UNL     1      -2.468  -0.899   0.422  1.00  0.00    -0.257 N 
ATOM     28  H12 UNL     1      -3.112  -1.370   1.058  1.00  0.00     0.191 HD
BRANCH  25  29
HETATM   29  C6  UNL     1      -4.150   0.419  -0.817  1.00  0.00     0.208 A 
HETATM   30  N10 UNL     1      -4.650   0.630  -2.061  1.00  0.00    -0.220 N 
HETATM   31  O3  UNL     1      -5.863   1.026  -1.896  1.00  0.00    -0.154 OA
ATOM     32  H10 UNL     1      -4.163   0.501  -2.948  1.00  0.00     0.198 HD
HETATM   33  N11 UNL     1      -6.209   1.095  -0.648  1.00  0.00    -0.227 N 
HETATM   34  C7  UNL     1      -5.141   0.714   0.082  1.00  0.00     0.172 A 
ATOM     35  H11 UNL     1      -7.118   1.383  -0.286  1.00  0.00     0.198 HD
HETATM   36  S1  UNL     1      -5.079   0.636   1.722  1.00  0.00    -0.054 SA
ENDBRANCH  25  29
ENDBRANCH   1  21
TORSDOF 7
