REMARK  11 active torsions:
REMARK  status: ('A' for Active; 'I' for Inactive)
REMARK    1  A    between atoms: O1_2  and  C2_3 
REMARK       I    between atoms: C2_3  and  N1_5 
REMARK    2  A    between atoms: C5_10  and  C6_11 
REMARK       I    between atoms: C6_11  and  N2_13 
REMARK    3  A    between atoms: N2_13  and  C7_15 
REMARK    4  A    between atoms: C7_15  and  C8_16 
REMARK       I    between atoms: N3_19  and  C11_20 
REMARK    5  A    between atoms: C11_20  and  O5_22 
REMARK    6  A    between atoms: O5_22  and  C12_23 
REMARK    7  A    between atoms: C12_23  and  C13_24 
REMARK    8  A    between atoms: C16_27  and  C17_28 
REMARK    9  A    between atoms: C17_28  and  C18_29 
REMARK   10  A    between atoms: C18_29  and  N4_31 
REMARK   11  A    between atoms: C21_33  and  O6_34 
ROOT
HETATM    1  C2  UNL     1      -4.256  -3.143  -0.430  1.00  0.00     0.381 C 
HETATM    2  O2  UNL     1      -3.215  -3.360  -1.077  1.00  0.00    -0.236 OA
HETATM    3  N1  UNL     1      -4.332  -2.281   0.681  1.00  0.00    -0.223 N 
HETATM    4  C3  UNL     1      -5.572  -2.004   1.434  1.00  0.00     0.236 C 
HETATM    5  C4  UNL     1      -5.211  -0.817   2.293  1.00  0.00     0.292 C 
HETATM    6  F1  UNL     1      -4.961  -1.183   3.601  1.00  0.00    -0.202 F 
HETATM    7  F2  UNL     1      -6.231   0.112   2.246  1.00  0.00    -0.202 F 
HETATM    8  C5  UNL     1      -3.945  -0.293   1.656  1.00  0.00     0.279 C 
HETATM    9  N3  UNL     1      -3.302  -1.553   1.269  1.00  0.00    -0.210 N 
HETATM   10  C11 UNL     1      -1.960  -1.958   1.459  1.00  0.00     0.383 C 
HETATM   11  O4  UNL     1      -1.524  -3.081   1.125  1.00  0.00    -0.236 OA
ENDROOT
BRANCH   8  12
HETATM   12  C6  UNL     1      -4.255   0.507   0.456  1.00  0.00     0.248 C 
HETATM   13  O3  UNL     1      -3.987   0.047  -0.700  1.00  0.00    -0.271 OA
HETATM   14  N2  UNL     1      -4.852   1.795   0.517  1.00  0.00    -0.359 N 
ATOM     15  H2  UNL     1      -5.079   2.187   1.431  1.00  0.00     0.162 HD
BRANCH  14  16
HETATM   16  C7  UNL     1      -5.150   2.571  -0.665  1.00  0.00     0.127 C 
BRANCH  16  17
HETATM   17  C8  UNL     1      -5.772   3.890  -0.300  1.00  0.00     0.003 A 
HETATM   18  C9  UNL     1      -6.154   4.844  -1.386  1.00  0.00     0.007 A 
HETATM   19  C10 UNL     1      -7.183   4.200  -0.530  1.00  0.00     0.007 A 
ENDBRANCH  16  17
ENDBRANCH  14  16
ENDBRANCH   8  12
BRANCH  10  20
HETATM   20  O5  UNL     1      -1.014  -1.119   2.042  1.00  0.00    -0.302 OA
BRANCH  20  21
HETATM   21  C12 UNL     1       0.320  -1.394   2.280  1.00  0.00     0.185 C 
BRANCH  21  22
HETATM   22  C13 UNL     1       1.172  -1.710   1.101  1.00  0.00     0.010 C 
HETATM   23  C14 UNL     1       1.253  -0.623   0.066  1.00  0.00     0.007 C 
HETATM   24  C15 UNL     1       2.189   0.452   0.559  1.00  0.00     0.005 C 
HETATM   25  C16 UNL     1       3.664   0.012   0.481  1.00  0.00    -0.013 C 
HETATM   26  C23 UNL     1       3.627  -1.490   0.577  1.00  0.00     0.005 C 
HETATM   27  C24 UNL     1       2.582  -1.935   1.614  1.00  0.00     0.007 C 
BRANCH  25  28
HETATM   28  C17 UNL     1       4.198   0.578  -0.777  1.00  0.00     0.040 C 
BRANCH  28  29
HETATM   29  C18 UNL     1       5.623   0.336  -1.114  1.00  0.00     0.219 C 
HETATM   30  C19 UNL     1       6.018  -1.084  -1.273  1.00  0.00     0.043 C 
BRANCH  29  31
HETATM   31  N4  UNL     1       6.514   1.088  -0.243  1.00  0.00     0.097 N 
HETATM   32  C20 UNL     1       7.916   0.904  -0.427  1.00  0.00     0.306 C 
HETATM   33  C21 UNL     1       7.918   2.050  -1.408  1.00  0.00     0.174 C 
HETATM   34  C22 UNL     1       6.688   2.480  -0.637  1.00  0.00     0.306 C 
BRANCH  33  35
HETATM   35  O6  UNL     1       9.008   2.913  -1.311  1.00  0.00    -0.392 OA
ATOM     36  H6  UNL     1       9.009   3.635  -1.929  1.00  0.00     0.210 HD
ENDBRANCH  33  35
ENDBRANCH  29  31
ENDBRANCH  28  29
ENDBRANCH  25  28
ENDBRANCH  21  22
ENDBRANCH  20  21
ENDBRANCH  10  20
BRANCH   1  37
HETATM   37  O1  UNL     1      -5.411  -3.821  -0.866  1.00  0.00    -0.308 OA
HETATM   38  C1  UNL     1      -5.291  -4.671  -1.979  1.00  0.00     0.215 C 
ENDBRANCH   1  37
TORSDOF 11
