REMARK  8 active torsions:
REMARK  status: ('A' for Active; 'I' for Inactive)
REMARK       I    between atoms: C2_2  and  N1_4 
REMARK    1  A    between atoms: C4_6  and  C5_7 
REMARK       I    between atoms: C5_7  and  N2_9 
REMARK    2  A    between atoms: N2_9  and  C6_11 
REMARK       I    between atoms: N4_14  and  C8_15 
REMARK       I    between atoms: C8_15  and  N5_17 
REMARK    3  A    between atoms: N5_17  and  C9_19 
REMARK    4  A    between atoms: C9_19  and  C10_20 
REMARK    5  A    between atoms: C10_20  and  C11_21 
REMARK    6  A    between atoms: N6_24  and  C14_25 
REMARK    7  A    between atoms: C14_25  and  C15_26 
REMARK    8  A    between atoms: C15_26  and  C16_27 
ROOT
HETATM    1  C6  UNL     1      -4.471  -2.755   1.173  1.00  0.00     0.247 C 
HETATM    2  C7  UNL     1      -3.772  -3.639   0.249  1.00  0.00     0.078 C 
HETATM    3  N3  UNL     1      -3.194  -4.350  -0.483  1.00  0.00    -0.196 NA
ENDROOT
BRANCH   1   4
HETATM    4  N2  UNL     1      -4.375  -1.366   0.717  1.00  0.00    -0.347 N 
HETATM    5  C5  UNL     1      -4.952  -0.302   1.407  1.00  0.00     0.243 C 
HETATM    6  O2  UNL     1      -5.581  -0.545   2.466  1.00  0.00    -0.271 OA
ATOM      7  H2  UNL     1      -3.863  -1.169  -0.143  1.00  0.00     0.163 HD
BRANCH   5   8
HETATM    8  C4  UNL     1      -4.862   1.082   0.964  1.00  0.00     0.199 C 
HETATM    9  C3  UNL     1      -6.228   1.744   0.861  1.00  0.00     0.167 C 
HETATM   10  N1  UNL     1      -7.102   1.112  -0.098  1.00  0.00    -0.287 N 
HETATM   11  C2  UNL     1      -8.461   1.122   0.353  1.00  0.00     0.220 C 
HETATM   12  C25 UNL     1      -6.942   0.490  -1.377  1.00  0.00     0.327 C 
HETATM   13  C1  UNL     1      -8.899   1.710   1.623  1.00  0.00     0.117 C 
HETATM   14  O1  UNL     1      -9.328   0.597  -0.383  1.00  0.00    -0.274 OA
HETATM   15  C24 UNL     1      -5.614   0.589  -2.018  1.00  0.00     0.124 C 
HETATM   16  F1  UNL     1      -7.886   1.092  -2.222  1.00  0.00    -0.182 F 
HETATM   17  F2  UNL     1      -7.279  -0.863  -1.307  1.00  0.00    -0.182 F 
HETATM   18  C23 UNL     1      -4.718   1.678  -1.524  1.00  0.00     0.136 C 
HETATM   19  N4  UNL     1      -4.135   1.324  -0.246  1.00  0.00    -0.319 N 
HETATM   20  C8  UNL     1      -2.734   1.239  -0.240  1.00  0.00     0.319 C 
HETATM   21  O3  UNL     1      -2.097   1.436  -1.302  1.00  0.00    -0.247 OA
HETATM   22  N5  UNL     1      -2.019   0.937   0.937  1.00  0.00    -0.343 N 
ATOM     23  H5  UNL     1      -2.559   0.788   1.789  1.00  0.00     0.164 HD
BRANCH  22  24
HETATM   24  C9  UNL     1      -0.583   0.822   1.032  1.00  0.00     0.125 C 
BRANCH  24  25
HETATM   25  C10 UNL     1      -0.055  -0.267   0.162  1.00  0.00     0.024 C 
BRANCH  25  26
HETATM   26  C11 UNL     1       1.449  -0.409   0.256  1.00  0.00    -0.010 C 
HETATM   27  C12 UNL     1       2.203   0.819  -0.145  1.00  0.00     0.024 C 
HETATM   28  C13 UNL     1       3.240   0.567  -1.193  1.00  0.00     0.117 C 
HETATM   29  N6  UNL     1       3.997  -0.618  -1.008  1.00  0.00    -0.412 N 
HETATM   30  C21 UNL     1       3.307  -1.797  -0.645  1.00  0.00     0.117 C 
HETATM   31  C22 UNL     1       1.817  -1.561  -0.657  1.00  0.00     0.024 C 
BRANCH  29  32
HETATM   32  C14 UNL     1       5.162  -0.765  -1.811  1.00  0.00     0.119 C 
BRANCH  32  33
HETATM   33  C15 UNL     1       6.259   0.217  -1.457  1.00  0.00     0.051 C 
BRANCH  33  34
HETATM   34  C16 UNL     1       6.688   0.024   0.008  1.00  0.00     0.123 C 
HETATM   35  C17 UNL     1       7.753   0.963   0.379  1.00  0.00     0.032 C 
HETATM   36  C18 UNL     1       9.103   0.382   0.633  1.00  0.00     0.004 C 
HETATM   37  C19 UNL     1       9.196  -1.020   0.015  1.00  0.00     0.026 C 
HETATM   38  C20 UNL     1       8.044  -1.777   0.644  1.00  0.00     0.168 C 
HETATM   39  O4  UNL     1       6.874  -1.293   0.195  1.00  0.00    -0.386 OA
ENDBRANCH  33  34
ENDBRANCH  32  33
ENDBRANCH  29  32
ENDBRANCH  25  26
ENDBRANCH  24  25
ENDBRANCH  22  24
ENDBRANCH   5   8
ENDBRANCH   1   4
TORSDOF 8
