REMARK  10 active torsions:
REMARK  status: ('A' for Active; 'I' for Inactive)
REMARK    1  A    between atoms: C2_2  and  N1_3 
REMARK    2  A    between atoms: C2_2  and  C3_7 
REMARK    3  A    between atoms: C3_7  and  C4_8 
REMARK       I    between atoms: C4_8  and  N2_10 
REMARK    4  A    between atoms: N3_13  and  C7_14 
REMARK    5  A    between atoms: C7_14  and  C8_15 
REMARK    6  A    between atoms: C8_15  and  N4_16 
REMARK       I    between atoms: N4_16  and  C9_18 
REMARK    7  A    between atoms: C9_18  and  C10_20 
REMARK    8  A    between atoms: C10_20  and  C11_21 
REMARK    9  A    between atoms: C11_21  and  C12_22 
REMARK   10  A    between atoms: C16_26  and  C17_27 
ROOT
HETATM    1  C7  UNL     1      -1.741  -2.186  -0.421  1.00  0.00     0.069 C 
HETATM    2  C22 UNL     1      -1.472  -2.025  -1.871  1.00  0.00     0.042 C 
HETATM    3  C23 UNL     1      -0.929  -3.367  -2.334  1.00  0.00     0.082 C 
HETATM    4  C24 UNL     1      -1.592  -4.395  -1.469  1.00  0.00     0.246 C 
HETATM    5  F1  UNL     1      -2.441  -5.172  -2.272  1.00  0.00    -0.206 F 
HETATM    6  F2  UNL     1      -0.716  -5.288  -0.890  1.00  0.00    -0.206 F 
HETATM    7  C25 UNL     1      -2.416  -3.620  -0.500  1.00  0.00     0.115 C 
ENDROOT
BRANCH   1   8
HETATM    8  N3  UNL     1      -2.795  -1.350  -0.013  1.00  0.00    -0.376 N 
HETATM    9  C6  UNL     1      -3.577  -1.692   1.106  1.00  0.00     0.143 C 
HETATM   10  C5  UNL     1      -5.042  -1.450   0.710  1.00  0.00     0.146 C 
HETATM   11  N2  UNL     1      -5.131  -0.032   0.334  1.00  0.00    -0.346 N 
HETATM   12  C4  UNL     1      -6.165   0.760   0.867  1.00  0.00     0.222 C 
HETATM   13  C27 UNL     1      -4.148   0.521  -0.583  1.00  0.00     0.170 C 
HETATM   14  O1  UNL     1      -6.995   0.263   1.650  1.00  0.00    -0.273 OA
HETATM   15  C26 UNL     1      -2.743   0.029  -0.301  1.00  0.00     0.079 C 
BRANCH  12  16
HETATM   16  C3  UNL     1      -6.268   2.184   0.501  1.00  0.00     0.135 C 
BRANCH  16  17
HETATM   17  C2  UNL     1      -7.461   2.845   1.181  1.00  0.00     0.188 C 
HETATM   18  C1  UNL     1      -7.501   4.285   0.763  1.00  0.00     0.040 C 
BRANCH  17  19
HETATM   19  N1  UNL     1      -8.701   2.226   0.790  1.00  0.00    -0.075 N 
ATOM     20  H13 UNL     1      -9.517   2.718   1.154  1.00  0.00     0.274 HD
ATOM     21  H12 UNL     1      -8.901   2.341  -0.204  1.00  0.00     0.274 HD
ATOM     22  H11 UNL     1      -8.674   1.247   1.074  1.00  0.00     0.274 HD
ENDBRANCH  17  19
ENDBRANCH  16  17
ENDBRANCH  12  16
ENDBRANCH   1   8
BRANCH   1  23
HETATM   23  C8  UNL     1      -0.640  -2.390   0.527  1.00  0.00     0.095 C 
BRANCH  23  24
HETATM   24  N4  UNL     1       0.140  -1.356   1.040  1.00  0.00    -0.338 N 
HETATM   25  C9  UNL     1       1.042  -0.448   0.461  1.00  0.00     0.221 C 
HETATM   26  O2  UNL     1       1.274  -0.501  -0.768  1.00  0.00    -0.273 OA
ATOM     27  H4  UNL     1       0.034  -1.232   2.047  1.00  0.00     0.167 HD
BRANCH  25  28
HETATM   28  C10 UNL     1       1.745   0.595   1.270  1.00  0.00     0.107 C 
BRANCH  28  29
HETATM   29  C11 UNL     1       2.726   1.403   0.471  1.00  0.00     0.043 C 
BRANCH  29  30
HETATM   30  C12 UNL     1       3.783   0.507  -0.072  1.00  0.00    -0.082 C 
HETATM   31  C13 UNL     1       4.155   0.258  -1.328  1.00  0.00    -0.018 C 
HETATM   32  C14 UNL     1       5.227  -0.698  -1.281  1.00  0.00     0.023 A 
HETATM   33  C15 UNL     1       6.609  -0.739  -1.060  1.00  0.00     0.025 A 
HETATM   34  C16 UNL     1       5.938  -0.036  -0.059  1.00  0.00     0.021 A 
HETATM   35  C21 UNL     1       4.738  -0.304   0.808  1.00  0.00     0.049 C 
BRANCH  34  36
HETATM   36  C17 UNL     1       6.158   1.469  -0.088  1.00  0.00     0.269 C 
HETATM   37  O3  UNL     1       6.939   1.870  -1.163  1.00  0.00    -0.360 OA
HETATM   38  C18 UNL     1       8.136   2.442  -0.834  1.00  0.00     0.173 C 
HETATM   39  C19 UNL     1       8.905   1.684   0.225  1.00  0.00     0.053 C 
HETATM   40  C20 UNL     1       7.982   1.083   1.263  1.00  0.00     0.173 C 
HETATM   41  O4  UNL     1       6.765   1.758   1.144  1.00  0.00    -0.360 OA
ENDBRANCH  34  36
ENDBRANCH  29  30
ENDBRANCH  28  29
ENDBRANCH  25  28
ENDBRANCH  23  24
ENDBRANCH   1  23
TORSDOF 10
