REMARK  8 active torsions:
REMARK  status: ('A' for Active; 'I' for Inactive)
REMARK    1  A    between atoms: O1_2  and  C2_3 
REMARK    2  A    between atoms: C8_10  and  N1_11 
REMARK    3  A    between atoms: C10_13  and  C11_14 
REMARK    4  A    between atoms: C11_14  and  C12_15 
REMARK    5  A    between atoms: C12_15  and  N2_16 
REMARK    6  A    between atoms: C15_19  and  N3_20 
REMARK    7  A    between atoms: C24_32  and  O2_33 
REMARK    8  A    between atoms: C25_35  and  C26_36 
ROOT
HETATM    1  N1  UNL     1       2.399  -2.199  -1.414  1.00  0.00    -0.276 N 
HETATM    2  C9  UNL     1       1.374  -1.889  -0.602  1.00  0.00     0.135 A 
HETATM    3  C10 UNL     1       0.187  -2.080  -1.272  1.00  0.00     0.042 A 
HETATM    4  N4  UNL     1       0.540  -2.509  -2.499  1.00  0.00    -0.287 N 
ATOM      5  H4  UNL     1      -0.104  -2.746  -3.254  1.00  0.00     0.184 HD
HETATM    6  N5  UNL     1       1.869  -2.573  -2.564  1.00  0.00    -0.020 NA
ENDROOT
BRANCH   1   7
HETATM    7  C8  UNL     1       3.807  -2.116  -1.031  1.00  0.00     0.141 C 
HETATM    8  C5  UNL     1       4.199  -0.705  -0.930  1.00  0.00    -0.025 A 
HETATM    9  C4  UNL     1       5.250  -0.313  -0.136  1.00  0.00    -0.038 A 
HETATM   10  C6  UNL     1       3.521   0.259  -1.636  1.00  0.00     0.032 A 
HETATM   11  C3  UNL     1       5.616   1.008  -0.047  1.00  0.00     0.046 A 
HETATM   12  C25 UNL     1       5.980  -1.346   0.630  1.00  0.00     0.077 C 
HETATM   13  C2  UNL     1       4.953   1.978  -0.742  1.00  0.00     0.086 A 
HETATM   14  C7  UNL     1       3.889   1.597  -1.548  1.00  0.00     0.044 A 
HETATM   15 BR1  UNL     1       2.986   2.971  -2.503  1.00  0.00    -0.048 Br
HETATM   16  C24 UNL     1       4.974  -2.289   1.201  1.00  0.00     0.131 C 
HETATM   17  C23 UNL     1       4.072  -2.926   0.202  1.00  0.00     0.064 C 
BRANCH  13  18
HETATM   18  O1  UNL     1       5.348   3.298  -0.628  1.00  0.00    -0.355 OA
HETATM   19  C1  UNL     1       6.430   3.624   0.200  1.00  0.00     0.210 C 
ENDBRANCH  13  18
BRANCH  12  20
HETATM   20  C26 UNL     1       7.019  -2.049  -0.192  1.00  0.00     0.234 C 
HETATM   21  F1  UNL     1       7.642  -2.995   0.621  1.00  0.00    -0.255 F 
ENDBRANCH  12  20
BRANCH  16  22
HETATM   22  O2  UNL     1       4.217  -1.629   2.176  1.00  0.00    -0.395 OA
ATOM     23  H2  UNL     1       4.792  -1.223   2.813  1.00  0.00     0.210 HD
ENDBRANCH  16  22
ENDBRANCH   1   7
BRANCH   3  24
HETATM   24  C11 UNL     1      -1.175  -1.849  -0.723  1.00  0.00     0.090 C 
BRANCH  24  25
HETATM   25  C12 UNL     1      -1.552  -0.441  -1.018  1.00  0.00     0.280 C 
BRANCH  25  26
HETATM   26  N2  UNL     1      -2.828  -0.040  -0.567  1.00  0.00     0.102 N 
HETATM   27  C13 UNL     1      -3.004   0.051   0.856  1.00  0.00     0.248 C 
HETATM   28  C14 UNL     1      -4.471  -0.032   1.073  1.00  0.00     0.041 C 
HETATM   29  C22 UNL     1      -2.558   1.425   1.285  1.00  0.00     0.042 C 
HETATM   30  C15 UNL     1      -5.270   0.669   0.287  1.00  0.00     0.113 C 
HETATM   31  C19 UNL     1      -4.675   1.514  -0.776  1.00  0.00     0.100 C 
HETATM   32  C20 UNL     1      -3.210   1.281  -0.994  1.00  0.00     0.229 C 
HETATM   33  C21 UNL     1      -2.420   2.166  -0.037  1.00  0.00     0.038 C 
BRANCH  30  34
HETATM   34  N3  UNL     1      -6.709   0.617   0.463  1.00  0.00    -0.052 N 
HETATM   35  C16 UNL     1      -7.109   1.331   1.637  1.00  0.00     0.278 C 
HETATM   36  C17 UNL     1      -7.307   1.164  -0.754  1.00  0.00     0.278 C 
HETATM   37  C18 UNL     1      -7.163  -0.769   0.541  1.00  0.00     0.278 C 
ENDBRANCH  30  34
ENDBRANCH  25  26
ENDBRANCH  24  25
ENDBRANCH   3  24
TORSDOF 8
