REMARK  9 active torsions:
REMARK  status: ('A' for Active; 'I' for Inactive)
REMARK    1  A    between atoms: C1_2  and  C2_3 
REMARK       I    between atoms: C1_2  and  N1_10 
REMARK    2  A    between atoms: C2_3  and  C3_4 
REMARK    3  A    between atoms: N1_10  and  C9_12 
REMARK    4  A    between atoms: C9_12  and  C10_13 
REMARK    5  A    between atoms: N2_17  and  C13_18 
REMARK    6  A    between atoms: C13_18  and  O2_19 
REMARK    7  A    between atoms: C13_18  and  C14_21 
REMARK    8  A    between atoms: N3_30  and  C23_31 
REMARK    9  A    between atoms: C23_31  and  C24_32 
ROOT
HETATM    1  C13 UNL     1      -1.219  -0.181   2.099  1.00  0.00     0.149 C 
ENDROOT
BRANCH   1   2
HETATM    2  N2  UNL     1      -0.470   0.812   1.509  1.00  0.00    -0.360 N 
HETATM    3  C12 UNL     1      -0.628   1.312   0.186  1.00  0.00     0.128 C 
HETATM    4  C11 UNL     1       0.645   0.952  -0.558  1.00  0.00     0.068 C 
HETATM    5  C10 UNL     1       1.871   1.519   0.085  1.00  0.00     0.152 C 
HETATM    6  F1  UNL     1       1.974   2.849  -0.337  1.00  0.00    -0.238 F 
HETATM    7  C30 UNL     1       1.918   1.423   1.565  1.00  0.00     0.229 C 
HETATM    8  C29 UNL     1       0.610   1.458   2.263  1.00  0.00     0.165 C 
HETATM    9  F2  UNL     1       2.622   0.314   2.026  1.00  0.00    -0.244 F 
BRANCH   5  10
HETATM   10  C9  UNL     1       3.068   0.800  -0.502  1.00  0.00     0.169 C 
BRANCH  10  11
HETATM   11  N1  UNL     1       4.312   1.362  -0.054  1.00  0.00    -0.358 N 
HETATM   12  C1  UNL     1       5.534   0.808  -0.509  1.00  0.00     0.217 C 
HETATM   13  O1  UNL     1       5.491  -0.169  -1.299  1.00  0.00    -0.274 OA
ATOM     14  H1  UNL     1       4.315   2.155   0.588  1.00  0.00     0.162 HD
BRANCH  12  15
HETATM   15  C2  UNL     1       6.814   1.360  -0.069  1.00  0.00     0.107 C 
BRANCH  15  16
HETATM   16  C3  UNL     1       8.037   0.666  -0.566  1.00  0.00    -0.006 C 
HETATM   17  C4  UNL     1       8.181  -0.763  -0.180  1.00  0.00     0.005 C 
HETATM   18  C5  UNL     1       9.424  -1.305  -0.858  1.00  0.00     0.000 C 
HETATM   19  C6  UNL     1      10.662  -0.525  -0.559  1.00  0.00     0.000 C 
HETATM   20  C7  UNL     1      10.477   0.968  -0.647  1.00  0.00     0.000 C 
HETATM   21  C8  UNL     1       9.229   1.414   0.049  1.00  0.00     0.005 C 
ENDBRANCH  15  16
ENDBRANCH  12  15
ENDBRANCH  10  11
ENDBRANCH   5  10
ENDBRANCH   1   2
BRANCH   1  22
HETATM   22  O2  UNL     1      -0.891  -0.475   3.333  1.00  0.00    -0.347 OA
ATOM     23  H2  UNL     1      -1.408  -1.160   3.740  1.00  0.00     0.219 HD
ENDBRANCH   1  22
BRANCH   1  24
HETATM   24  C14 UNL     1      -2.330  -0.986   1.607  1.00  0.00     0.126 C 
HETATM   25  C15 UNL     1      -1.943  -2.475   1.717  1.00  0.00     0.047 C 
HETATM   26  C16 UNL     1      -3.034  -3.383   1.281  1.00  0.00     0.004 C 
HETATM   27  C17 UNL     1      -4.417  -2.913   1.508  1.00  0.00     0.008 C 
HETATM   28  C18 UNL     1      -4.597  -1.436   1.588  1.00  0.00     0.024 C 
HETATM   29  C19 UNL     1      -3.549  -0.894   2.548  1.00  0.00     0.054 C 
HETATM   30  C20 UNL     1      -4.157  -0.743   0.316  1.00  0.00     0.069 C 
HETATM   31  C21 UNL     1      -4.560   0.711   0.354  1.00  0.00     0.069 C 
HETATM   32  C28 UNL     1      -4.722  -1.372  -0.916  1.00  0.00     0.069 C 
HETATM   33  O4  UNL     1      -2.782  -0.800   0.352  1.00  0.00    -0.360 OA
HETATM   34  C22 UNL     1      -5.843   0.958  -0.448  1.00  0.00     0.276 C 
HETATM   35  N3  UNL     1      -6.689  -0.168  -0.222  1.00  0.00     0.094 N 
HETATM   36  C27 UNL     1      -6.210  -1.284  -0.965  1.00  0.00     0.276 C 
BRANCH  35  37
HETATM   37  C23 UNL     1      -8.079   0.091  -0.304  1.00  0.00     0.339 C 
BRANCH  37  38
HETATM   38  C24 UNL     1      -8.525   0.603  -1.615  1.00  0.00     0.106 A 
HETATM   39  C25 UNL     1      -9.861   0.942  -1.847  1.00  0.00     0.055 A 
HETATM   40  C26 UNL     1      -9.955   1.377  -3.133  1.00  0.00     0.117 A 
HETATM   41  N4  UNL     1      -8.709   1.298  -3.646  1.00  0.00    -0.272 N 
HETATM   42  O3  UNL     1      -7.902   0.838  -2.721  1.00  0.00    -0.241 OA
ATOM     43  H4  UNL     1      -8.440   1.554  -4.596  1.00  0.00     0.193 HD
ENDBRANCH  37  38
ENDBRANCH  35  37
ENDBRANCH   1  24
TORSDOF 9
