REMARK  12 active torsions:
REMARK  status: ('A' for Active; 'I' for Inactive)
REMARK    1  A    between atoms: C2_2  and  N1_3 
REMARK    2  A    between atoms: N1_3  and  C3_4 
REMARK    3  A    between atoms: N1_3  and  C10_15 
REMARK    4  A    between atoms: C3_4  and  C4_5 
REMARK    5  A    between atoms: C4_5  and  C5_7 
REMARK    6  A    between atoms: C5_7  and  O2_8 
REMARK    7  A    between atoms: O2_8  and  C6_9 
REMARK    8  A    between atoms: C6_9  and  O4_11 
REMARK    9  A    between atoms: C10_15  and  O5_16 
REMARK   10  A    between atoms: C10_15  and  C11_18 
REMARK   11  A    between atoms: C18_29  and  C19_30 
REMARK       I    between atoms: C19_30  and  N3_32 
REMARK   12  A    between atoms: N4_35  and  C22_36 
ROOT
HETATM    1  C11 UNL     1       0.325   1.497  -2.102  1.00  0.00     0.100 A 
HETATM    2  N2  UNL     1       0.159   2.771  -2.486  1.00  0.00    -0.351 N 
ATOM      3  H2  UNL     1       0.917   3.445  -2.591  1.00  0.00     0.166 HD
HETATM    4  C12 UNL     1      -1.161   3.048  -2.718  1.00  0.00     0.045 A 
HETATM    5  C13 UNL     1      -1.785   4.217  -3.125  1.00  0.00     0.056 A 
HETATM    6  C14 UNL     1      -3.165   4.200  -3.279  1.00  0.00     0.058 A 
HETATM    7 CL1  UNL     1      -3.956   5.675  -3.792  1.00  0.00    -0.082 Cl
HETATM    8  C15 UNL     1      -3.897   3.071  -3.041  1.00  0.00     0.056 A 
HETATM    9 CL2  UNL     1      -5.645   3.097  -3.250  1.00  0.00    -0.083 Cl
HETATM   10  C16 UNL     1      -3.229   1.933  -2.639  1.00  0.00     0.040 A 
HETATM   11  C17 UNL     1      -1.848   1.899  -2.469  1.00  0.00     0.010 A 
HETATM   12  C18 UNL     1      -0.955   0.925  -2.087  1.00  0.00     0.075 A 
ENDROOT
BRANCH   1  13
HETATM   13  C10 UNL     1       1.520   0.771  -1.759  1.00  0.00     0.167 C 
BRANCH  13  14
HETATM   14  N1  UNL     1       2.852   1.164  -1.733  1.00  0.00    -0.353 N 
BRANCH  14  15
HETATM   15  C2  UNL     1       3.370   2.452  -2.073  1.00  0.00     0.121 C 
HETATM   16  C1  UNL     1       3.406   3.406  -0.885  1.00  0.00     0.026 C 
ENDBRANCH  14  15
BRANCH  14  17
HETATM   17  C3  UNL     1       3.857   0.145  -1.337  1.00  0.00     0.206 C 
BRANCH  17  18
HETATM   18  C4  UNL     1       4.073   0.102   0.114  1.00  0.00     0.179 C 
HETATM   19  O1  UNL     1       3.402   0.785   0.865  1.00  0.00    -0.293 OA
BRANCH  18  20
HETATM   20  C5  UNL     1       5.108  -0.767   0.709  1.00  0.00     0.135 A 
HETATM   21  C8  UNL     1       6.527  -0.663   0.290  1.00  0.00     0.050 A 
HETATM   22  C9  UNL     1       5.704  -1.847  -0.186  1.00  0.00     0.050 A 
BRANCH  20  23
HETATM   23  O2  UNL     1       4.940  -1.072   2.100  1.00  0.00    -0.279 OA
BRANCH  23  24
HETATM   24  C6  UNL     1       3.781  -1.729   2.491  1.00  0.00     0.407 C 
HETATM   25  O3  UNL     1       2.945  -2.021   1.604  1.00  0.00    -0.229 OA
BRANCH  24  26
HETATM   26  O4  UNL     1       3.519  -2.069   3.806  1.00  0.00    -0.303 OA
HETATM   27  C7  UNL     1       2.302  -2.748   4.134  1.00  0.00     0.215 C 
ENDBRANCH  24  26
ENDBRANCH  23  24
ENDBRANCH  20  23
ENDBRANCH  18  20
ENDBRANCH  17  18
ENDBRANCH  14  17
ENDBRANCH  13  14
BRANCH  13  28
HETATM   28  O5  UNL     1       1.327  -0.469  -1.411  1.00  0.00    -0.344 OA
ATOM     29  H5  UNL     1       0.416  -0.738  -1.429  1.00  0.00     0.219 HD
ENDBRANCH  13  28
ENDBRANCH   1  13
BRANCH  12  30
HETATM   30  C19 UNL     1      -1.305  -0.434  -1.740  1.00  0.00     0.257 C 
HETATM   31  O6  UNL     1      -1.314  -1.270  -2.700  1.00  0.00    -0.267 OA
HETATM   32  N3  UNL     1      -1.625  -0.876  -0.453  1.00  0.00    -0.344 N 
HETATM   33  C20 UNL     1      -1.638   0.007   0.694  1.00  0.00     0.156 C 
HETATM   34  C26 UNL     1      -1.963  -2.263  -0.209  1.00  0.00     0.156 C 
HETATM   35  C21 UNL     1      -2.895  -0.200   1.530  1.00  0.00     0.292 C 
HETATM   36  N4  UNL     1      -3.138  -1.611   1.755  1.00  0.00     0.095 N 
HETATM   37  C25 UNL     1      -3.330  -2.242   0.482  1.00  0.00     0.292 C 
BRANCH  36  38
HETATM   38  C22 UNL     1      -4.269  -1.738   2.639  1.00  0.00     0.215 C 
HETATM   39  C23 UNL     1      -5.535  -1.185   2.065  1.00  0.00     0.042 C 
HETATM   40  C24 UNL     1      -4.501  -3.148   3.095  1.00  0.00     0.042 C 
ENDBRANCH  36  38
ENDBRANCH  12  30
TORSDOF 12
