REMARK  9 active torsions:
REMARK  status: ('A' for Active; 'I' for Inactive)
REMARK    1  A    between atoms: C2_2  and  C3_3 
REMARK    2  A    between atoms: C4_5  and  N1_6 
REMARK       I    between atoms: N1_6  and  C5_8 
REMARK    3  A    between atoms: C5_8  and  C6_10 
REMARK    4  A    between atoms: C6_10  and  N2_11 
REMARK    5  A    between atoms: N2_11  and  C7_12 
REMARK    6  A    between atoms: N2_11  and  C9_14 
REMARK    7  A    between atoms: C11_17  and  C12_18 
REMARK    8  A    between atoms: C15_22  and  O3_23 
REMARK    9  A    between atoms: O3_23  and  C16_24 
REMARK       I    between atoms: C16_24  and  N3_26 
ROOT
HETATM    1  C3  UNL     1      -0.591  -1.028  -1.098  1.00  0.00     0.073 A 
HETATM    2  O1  UNL     1      -1.820  -0.700  -1.084  1.00  0.00    -0.290 OA
HETATM    3  C4  UNL     1      -2.261   0.297  -0.427  1.00  0.00     0.195 A 
HETATM    4  S1  UNL     1      -0.842   0.899   0.285  1.00  0.00    -0.043 SA
HETATM    5  C11 UNL     1       0.283  -0.276  -0.374  1.00  0.00     0.049 A 
ENDROOT
BRANCH   5   6
HETATM    6  C12 UNL     1       1.711  -0.265  -0.128  1.00  0.00    -0.014 A 
HETATM    7  C13 UNL     1       2.216   0.867   0.513  1.00  0.00     0.035 A 
HETATM    8  C14 UNL     1       3.538   0.987   0.829  1.00  0.00     0.047 A 
HETATM    9 BR1  UNL     1       4.157   2.556   1.699  1.00  0.00    -0.048 Br
HETATM   10  C15 UNL     1       4.401  -0.037   0.507  1.00  0.00     0.115 A 
HETATM   11  C19 UNL     1       3.944  -1.170  -0.124  1.00  0.00     0.047 A 
HETATM   12 BR2  UNL     1       5.114  -2.610  -0.587  1.00  0.00    -0.048 Br
HETATM   13  C20 UNL     1       2.573  -1.255  -0.432  1.00  0.00     0.035 A 
BRANCH  10  14
HETATM   14  O3  UNL     1       5.770   0.057   0.819  1.00  0.00    -0.259 OA
BRANCH  14  15
HETATM   15  C16 UNL     1       6.667   0.568  -0.113  1.00  0.00     0.367 C 
HETATM   16  O4  UNL     1       6.191   0.929  -1.223  1.00  0.00    -0.238 OA
HETATM   17  N3  UNL     1       8.053   0.681   0.160  1.00  0.00    -0.336 N 
HETATM   18  C17 UNL     1       8.944   1.210  -0.829  1.00  0.00     0.154 C 
HETATM   19  C18 UNL     1       8.555   0.257   1.449  1.00  0.00     0.154 C 
ENDBRANCH  14  15
ENDBRANCH  10  14
ENDBRANCH   5   6
BRANCH   1  20
HETATM   20  C2  UNL     1      -0.166  -2.236  -1.923  1.00  0.00     0.062 C 
HETATM   21  C1  UNL     1       0.476  -1.819  -3.222  1.00  0.00     0.012 C 
ENDBRANCH   1  20
BRANCH   3  22
HETATM   22  N1  UNL     1      -3.500   0.735  -0.333  1.00  0.00    -0.297 N 
HETATM   23  C5  UNL     1      -4.484   0.028  -1.043  1.00  0.00     0.262 C 
HETATM   24  O2  UNL     1      -4.204  -0.487  -2.150  1.00  0.00    -0.267 OA
ATOM     25  H1  UNL     1      -3.734   1.552   0.231  1.00  0.00     0.171 HD
BRANCH  23  26
HETATM   26  C6  UNL     1      -5.845  -0.119  -0.509  1.00  0.00     0.160 C 
BRANCH  26  27
HETATM   27  N2  UNL     1      -6.119   0.452   0.749  1.00  0.00    -0.386 N 
BRANCH  27  28
HETATM   28  C7  UNL     1      -5.528  -0.152   1.879  1.00  0.00     0.118 C 
HETATM   29  C8  UNL     1      -6.096  -1.536   2.179  1.00  0.00     0.026 C 
ENDBRANCH  27  28
BRANCH  27  30
HETATM   30  C9  UNL     1      -6.185   1.868   0.834  1.00  0.00     0.118 C 
HETATM   31  C10 UNL     1      -7.376   2.455   0.111  1.00  0.00     0.026 C 
ENDBRANCH  27  30
ENDBRANCH  26  27
ENDBRANCH  23  26
ENDBRANCH   3  22
TORSDOF 9
