REMARK  7 active torsions:
REMARK  status: ('A' for Active; 'I' for Inactive)
REMARK    1  A    between atoms: C4_9  and  C5_10 
REMARK    2  A    between atoms: C4_9  and  C16_25 
REMARK    3  A    between atoms: C5_10  and  O1_11 
REMARK    4  A    between atoms: O1_11  and  C6_12 
REMARK    5  A    between atoms: C6_12  and  C7_13 
REMARK    6  A    between atoms: C7_13  and  N3_14 
REMARK       I    between atoms: N4_34  and  C23_35 
REMARK    7  A    between atoms: C23_35  and  C24_37 
ROOT
HETATM    1  C1  UNL     1       4.434  -0.457   1.595  1.00  0.00     0.040 C 
HETATM    2  C2  UNL     1       4.198  -0.726   0.116  1.00  0.00     0.150 C 
HETATM    3  C3  UNL     1       3.619  -2.088   0.039  1.00  0.00     0.094 C 
HETATM    4  N1  UNL     1       4.363  -3.087  -0.357  1.00  0.00    -0.387 N 
ATOM      5  H11 UNL     1       3.964  -4.024  -0.410  1.00  0.00     0.157 HD
ATOM      6  H12 UNL     1       5.340  -2.956  -0.619  1.00  0.00     0.157 HD
HETATM    7  N2  UNL     1       2.264  -2.270   0.402  1.00  0.00    -0.361 N 
ATOM      8  H2  UNL     1       2.000  -3.090   0.948  1.00  0.00     0.162 HD
HETATM    9  C4  UNL     1       1.247  -1.321   0.017  1.00  0.00     0.096 C 
HETATM   10  C22 UNL     1       1.802   0.068   0.054  1.00  0.00     0.165 C 
HETATM   11  N4  UNL     1       3.183   0.187  -0.355  1.00  0.00    -0.338 N 
HETATM   12  C23 UNL     1       3.608   1.227  -1.256  1.00  0.00     0.224 C 
HETATM   13  O4  UNL     1       2.787   2.052  -1.695  1.00  0.00    -0.273 OA
ENDROOT
BRANCH   9  14
HETATM   14  C5  UNL     1       0.119  -1.440   1.059  1.00  0.00     0.205 C 
BRANCH  14  15
HETATM   15  O1  UNL     1      -0.912  -0.589   0.759  1.00  0.00    -0.386 OA
BRANCH  15  16
HETATM   16  C6  UNL     1      -1.975  -0.617   1.655  1.00  0.00     0.198 C 
BRANCH  16  17
HETATM   17  C7  UNL     1      -3.014   0.376   1.085  1.00  0.00     0.053 C 
HETATM   18  C12 UNL     1      -3.308  -0.119  -0.306  1.00  0.00     0.059 C 
HETATM   19  C13 UNL     1      -3.573   0.968  -1.309  1.00  0.00     0.170 C 
HETATM   20  O3  UNL     1      -2.432   1.806  -1.259  1.00  0.00    -0.391 OA
HETATM   21  C14 UNL     1      -2.662   2.582  -0.099  1.00  0.00     0.170 C 
HETATM   22  C15 UNL     1      -2.312   1.713   1.080  1.00  0.00     0.059 C 
BRANCH  17  23
HETATM   23  N3  UNL     1      -4.104   0.407   1.940  1.00  0.00    -0.397 N 
HETATM   24  C8  UNL     1      -4.891  -0.720   2.177  1.00  0.00     0.144 C 
HETATM   25  C9  UNL     1      -6.323  -0.399   1.734  1.00  0.00     0.187 C 
HETATM   26  O2  UNL     1      -6.744   0.786   2.283  1.00  0.00    -0.388 OA
HETATM   27  C10 UNL     1      -5.885   1.346   3.197  1.00  0.00     0.187 C 
HETATM   28  C11 UNL     1      -4.471   1.552   2.634  1.00  0.00     0.144 C 
ENDBRANCH  17  23
ENDBRANCH  16  17
ENDBRANCH  15  16
ENDBRANCH  14  15
ENDBRANCH   9  14
BRANCH   9  29
HETATM   29  C16 UNL     1       0.690  -1.762  -1.262  1.00  0.00    -0.025 A 
HETATM   30  C17 UNL     1       0.557  -0.967  -2.373  1.00  0.00     0.011 A 
HETATM   31  C18 UNL     1       0.016  -1.550  -3.481  1.00  0.00     0.026 A 
HETATM   32  C19 UNL     1      -0.405  -2.851  -3.584  1.00  0.00     0.055 A 
HETATM   33 CL1  UNL     1      -1.082  -3.487  -5.060  1.00  0.00    -0.083 Cl
HETATM   34  C20 UNL     1      -0.262  -3.652  -2.441  1.00  0.00     0.056 A 
HETATM   35 CL2  UNL     1      -0.800  -5.304  -2.557  1.00  0.00    -0.083 Cl
HETATM   36  C21 UNL     1       0.278  -3.099  -1.311  1.00  0.00     0.035 A 
ENDBRANCH   9  29
BRANCH  12  37
HETATM   37  C24 UNL     1       5.012   1.360  -1.689  1.00  0.00     0.078 C 
HETATM   38  C25 UNL     1       5.995   1.870  -0.673  1.00  0.00     0.014 C 
HETATM   39  C26 UNL     1       6.388   3.034  -1.560  1.00  0.00     0.002 C 
HETATM   40  C27 UNL     1       5.286   2.596  -2.513  1.00  0.00     0.014 C 
ENDBRANCH  12  37
TORSDOF 7
