REMARK  13 active torsions:
REMARK  status: ('A' for Active; 'I' for Inactive)
REMARK    1  A    between atoms: N1_1  and  C1_4 
REMARK    2  A    between atoms: N5_11  and  C2_12 
REMARK    3  A    between atoms: C2_12  and  C3_13 
REMARK    4  A    between atoms: C5_23  and  N10_24 
REMARK    5  A    between atoms: N10_24  and  C6_26 
REMARK    6  A    between atoms: C6_26  and  N11_27 
REMARK    7  A    between atoms: C6_26  and  C7_31 
REMARK    8  A    between atoms: C7_31  and  C8_32 
REMARK    9  A    between atoms: C8_32  and  N12_33 
REMARK   10  A    between atoms: N13_35  and  C9_37 
REMARK   11  A    between atoms: C9_37  and  N14_39 
REMARK   12  A    between atoms: N14_39  and  N15_41 
REMARK   13  A    between atoms: C10_44  and  O2_45 
ROOT
HETATM    1  C3  UNL     1      -4.200  -1.029   0.613  1.00  0.00     0.144 A 
HETATM    2  N6  UNL     1      -4.947  -1.377   1.695  1.00  0.00    -0.270 N 
ATOM      3  H6  UNL     1      -5.937  -1.132   1.717  1.00  0.00     0.190 HD
HETATM    4  N7  UNL     1      -4.421  -2.023   2.714  1.00  0.00    -0.225 N 
ATOM      5  H7  UNL     1      -5.001  -2.273   3.515  1.00  0.00     0.210 HD
HETATM    6  N8  UNL     1      -3.144  -2.345   2.696  1.00  0.00    -0.203 N 
ATOM      7  H8  UNL     1      -2.741  -2.846   3.488  1.00  0.00     0.212 HD
HETATM    8  N9  UNL     1      -2.379  -2.029   1.668  1.00  0.00    -0.129 N 
HETATM    9  C4  UNL     1      -1.082  -2.260   1.425  1.00  0.00     0.314 A 
HETATM   10  O1  UNL     1      -0.233  -2.844   2.146  1.00  0.00    -0.262 OA
HETATM   11  C5  UNL     1      -0.785  -1.730   0.190  1.00  0.00     0.155 A 
HETATM   12  C10 UNL     1      -1.943  -1.183  -0.287  1.00  0.00     0.198 A 
HETATM   13  N16 UNL     1      -2.907  -1.367   0.617  1.00  0.00    -0.190 N 
ENDROOT
BRANCH  11  14
HETATM   14  N10 UNL     1       0.490  -1.766  -0.480  1.00  0.00    -0.355 N 
ATOM     15  H10 UNL     1       0.704  -2.505  -1.149  1.00  0.00     0.162 HD
BRANCH  14  16
HETATM   16  C6  UNL     1       1.456  -0.739  -0.187  1.00  0.00     0.283 C 
BRANCH  16  17
HETATM   17  N11 UNL     1       1.041   0.596  -0.471  1.00  0.00    -0.058 N 
ATOM     18 3H11 UNL     1       0.739   0.668  -1.443  1.00  0.00     0.276 HD
ATOM     19 2H11 UNL     1       0.163   0.797   0.007  1.00  0.00     0.276 HD
ATOM     20 1H11 UNL     1       1.725   1.323  -0.263  1.00  0.00     0.276 HD
ENDBRANCH  16  17
BRANCH  16  21
HETATM   21  C7  UNL     1       2.744  -1.090  -0.937  1.00  0.00     0.075 C 
BRANCH  21  22
HETATM   22  C8  UNL     1       3.801  -0.039  -0.665  1.00  0.00     0.143 C 
BRANCH  22  23
HETATM   23  N12 UNL     1       4.088   0.027   0.750  1.00  0.00    -0.334 N 
HETATM   24  N13 UNL     1       5.248   0.255   1.218  1.00  0.00    -0.279 N 
ATOM     25  H13 UNL     1       5.398   0.292   2.226  1.00  0.00     0.189 HD
ATOM     26  H12 UNL     1       3.321  -0.117   1.407  1.00  0.00     0.180 HD
BRANCH  24  27
HETATM   27  C9  UNL     1       6.334   0.458   0.322  1.00  0.00     0.204 C 
HETATM   28  S1  UNL     1       7.154  -0.848  -0.168  1.00  0.00    -0.038 SA
BRANCH  27  29
HETATM   29  N14 UNL     1       6.699   1.737  -0.133  1.00  0.00    -0.282 N 
ATOM     30  H14 UNL     1       6.176   2.554   0.181  1.00  0.00     0.189 HD
BRANCH  29  31
HETATM   31  N15 UNL     1       7.768   1.896  -1.009  1.00  0.00    -0.343 N 
ATOM     32 2H15 UNL     1       8.280   1.068  -1.314  1.00  0.00     0.176 HD
ATOM     33 1H15 UNL     1       8.033   2.824  -1.339  1.00  0.00     0.176 HD
ENDBRANCH  29  31
ENDBRANCH  27  29
ENDBRANCH  24  27
ENDBRANCH  22  23
ENDBRANCH  21  22
ENDBRANCH  16  21
ENDBRANCH  14  16
ENDBRANCH  11  14
BRANCH  12  34
HETATM   34  O2  UNL     1      -2.044  -0.559  -1.507  1.00  0.00    -0.343 OA
ATOM     35  H2  UNL     1      -2.849  -0.179  -1.839  1.00  0.00     0.219 HD
ENDBRANCH  12  34
BRANCH   1  36
HETATM   36  C2  UNL     1      -4.870  -0.332  -0.459  1.00  0.00     0.249 C 
BRANCH  36  37
HETATM   37  N5  UNL     1      -5.352   0.945   0.104  1.00  0.00    -0.100 N 
HETATM   38  C1  UNL     1      -4.750   2.133   0.166  1.00  0.00     0.710 A 
HETATM   39  N2  UNL     1      -5.557   3.043   0.774  1.00  0.00    -0.115 N 
HETATM   40  N3  UNL     1      -6.652   2.370   1.073  1.00  0.00    -0.213 N 
ATOM     41  H2  UNL     1      -5.360   4.027   0.958  1.00  0.00     0.207 HD
HETATM   42  N4  UNL     1      -6.548   1.119   0.681  1.00  0.00    -0.211 N 
ATOM     43  H3  UNL     1      -7.466   2.765   1.543  1.00  0.00     0.210 HD
ATOM     44  H4  UNL     1      -7.261   0.399   0.797  1.00  0.00     0.210 HD
BRANCH  38  45
HETATM   45  N1  UNL     1      -3.558   2.371  -0.297  1.00  0.00    -0.232 N 
ATOM     46  H12 UNL     1      -3.097   3.280  -0.250  1.00  0.00     0.174 HD
ATOM     47  H11 UNL     1      -2.953   1.688  -0.753  1.00  0.00     0.174 HD
ENDBRANCH  38  45
ENDBRANCH  36  37
ENDBRANCH   1  36
TORSDOF 13
