REMARK  14 active torsions:
REMARK  status: ('A' for Active; 'I' for Inactive)
REMARK    1  A    between atoms: O1_2  and  C2_3 
REMARK    2  A    between atoms: C2_3  and  C3_5 
REMARK    3  A    between atoms: C3_5  and  O3_6 
REMARK    4  A    between atoms: C3_5  and  C24_56 
REMARK    5  A    between atoms: O3_6  and  C4_7 
REMARK    6  A    between atoms: C4_7  and  C5_8 
REMARK    7  A    between atoms: C5_8  and  S1_9 
REMARK    8  A    between atoms: S1_9  and  C6_10 
REMARK    9  A    between atoms: C6_10  and  C7_11 
REMARK   10  A    between atoms: C10_16  and  C11_17 
REMARK   11  A    between atoms: C12_20  and  N3_21 
REMARK   12  A    between atoms: C17_39  and  C18_40 
REMARK       I    between atoms: C18_40  and  N10_42 
REMARK       I    between atoms: N10_42  and  C19_44 
REMARK   13  A    between atoms: C20_49  and  O6_50 
REMARK   14  A    between atoms: C24_56  and  O9_58 
ROOT
HETATM    1  C4  UNL     1      -2.372   1.703  -1.112  1.00  0.00     0.088 C 
HETATM    2  C16 UNL     1      -2.052   0.449  -1.717  1.00  0.00     0.114 C 
HETATM    3  N9  UNL     1      -1.626  -0.511  -0.796  1.00  0.00    -0.344 N 
ATOM      4  H9  UNL     1      -1.178  -0.153   0.048  1.00  0.00     0.166 HD
HETATM    5  C17 UNL     1      -1.735  -1.864  -0.885  1.00  0.00     0.135 C 
HETATM    6  C20 UNL     1      -1.503  -2.554  -2.065  1.00  0.00     0.098 C 
HETATM    7  C21 UNL     1      -1.888  -2.193  -3.331  1.00  0.00     0.043 C 
HETATM    8  C22 UNL     1      -2.438  -0.949  -3.722  1.00  0.00     0.060 C 
HETATM    9  C23 UNL     1      -2.234   0.245  -3.055  1.00  0.00     0.201 C 
HETATM   10  O7  UNL     1      -2.208   1.295  -3.791  1.00  0.00    -0.286 OA
ENDROOT
BRANCH   1  11
HETATM   11  O3  UNL     1      -2.683   2.860  -1.691  1.00  0.00    -0.327 OA
BRANCH  11  12
HETATM   12  C3  UNL     1      -3.961   3.329  -1.403  1.00  0.00     0.327 C 
BRANCH  12  13
HETATM   13  C2  UNL     1      -4.660   3.784  -2.603  1.00  0.00     0.298 C 
HETATM   14  O2  UNL     1      -5.885   4.134  -2.556  1.00  0.00    -0.262 OA
BRANCH  13  15
HETATM   15  O1  UNL     1      -4.087   3.880  -3.863  1.00  0.00    -0.324 OA
HETATM   16  C1  UNL     1      -4.834   4.337  -4.974  1.00  0.00     0.213 C 
ENDBRANCH  13  15
ENDBRANCH  12  13
BRANCH  12  17
HETATM   17  C24 UNL     1      -3.929   4.540  -0.501  1.00  0.00     0.298 C 
HETATM   18  O8  UNL     1      -2.894   5.087  -0.104  1.00  0.00    -0.262 OA
BRANCH  17  19
HETATM   19  O9  UNL     1      -5.154   5.044  -0.111  1.00  0.00    -0.324 OA
HETATM   20  C25 UNL     1      -5.324   6.167   0.732  1.00  0.00     0.213 C 
ENDBRANCH  17  19
ENDBRANCH  12  17
ENDBRANCH  11  12
ENDBRANCH   1  11
BRANCH   1  21
HETATM   21  C5  UNL     1      -1.506   1.961   0.163  1.00  0.00     0.141 C 
BRANCH  21  22
HETATM   22  S1  UNL     1      -0.027   2.866  -0.212  1.00  0.00    -0.158 SA
BRANCH  22  23
HETATM   23  C6  UNL     1       1.249   2.171  -1.173  1.00  0.00     0.114 C 
BRANCH  23  24
HETATM   24  C7  UNL     1       2.054   1.106  -0.538  1.00  0.00    -0.028 A 
HETATM   25  C8  UNL     1       3.094   1.290   0.368  1.00  0.00     0.059 A 
HETATM   26  C9  UNL     1       3.635   0.071   0.690  1.00  0.00     0.130 A 
HETATM   27  N1  UNL     1       4.642  -0.376   1.496  1.00  0.00    -0.324 N 
HETATM   28  N8  UNL     1       2.941  -0.873  -0.010  1.00  0.00    -0.236 N 
HETATM   29  C10 UNL     1       4.944  -1.674   1.602  1.00  0.00     0.152 A 
ATOM     30  H1  UNL     1       5.181   0.302   2.035  1.00  0.00     0.169 HD
HETATM   31  N6  UNL     1       4.227  -2.550   0.892  1.00  0.00    -0.268 N 
HETATM   32  N7  UNL     1       3.251  -2.142   0.108  1.00  0.00    -0.233 N 
ATOM     33  H6  UNL     1       4.438  -3.546   0.958  1.00  0.00     0.190 HD
ATOM     34  H7  UNL     1       2.721  -2.833  -0.423  1.00  0.00     0.209 HD
HETATM   35  C15 UNL     1       1.993  -0.246  -0.746  1.00  0.00     0.128 A 
BRANCH  29  36
HETATM   36  C11 UNL     1       6.018  -2.162   2.449  1.00  0.00     0.124 A 
HETATM   37  N2  UNL     1       6.249  -3.481   2.494  1.00  0.00    -0.186 N 
HETATM   38  C12 UNL     1       7.245  -3.932   3.271  1.00  0.00     0.679 A 
ATOM     39  H2  UNL     1       5.680  -4.128   1.949  1.00  0.00     0.184 HD
HETATM   40  N4  UNL     1       8.005  -3.076   3.997  1.00  0.00    -0.155 N 
HETATM   41  C13 UNL     1       7.793  -1.753   3.969  1.00  0.00     0.286 A 
ATOM     42  H4  UNL     1       8.756  -3.448   4.578  1.00  0.00     0.187 HD
HETATM   43  O4  UNL     1       8.475  -0.920   4.628  1.00  0.00    -0.266 OA
HETATM   44  C14 UNL     1       6.780  -1.266   3.182  1.00  0.00     0.145 A 
HETATM   45  N5  UNL     1       6.505   0.129   3.115  1.00  0.00    -0.094 NA
BRANCH  38  46
HETATM   46  N3  UNL     1       7.458  -5.200   3.307  1.00  0.00    -0.234 N 
ATOM     47  H32 UNL     1       6.886  -5.844   2.761  1.00  0.00     0.174 HD
ATOM     48  H31 UNL     1       8.215  -5.543   3.898  1.00  0.00     0.174 HD
ENDBRANCH  38  46
ENDBRANCH  29  36
ENDBRANCH  23  24
ENDBRANCH  22  23
ENDBRANCH  21  22
ENDBRANCH   1  21
BRANCH   5  49
HETATM   49  C18 UNL     1      -2.139  -2.608   0.301  1.00  0.00     0.277 C 
HETATM   50  O5  UNL     1      -2.317  -1.955   1.390  1.00  0.00    -0.266 OA
HETATM   51  N10 UNL     1      -2.352  -3.977   0.342  1.00  0.00    -0.296 N 
HETATM   52  C19 UNL     1      -2.750  -4.608   1.576  1.00  0.00     0.188 C 
ATOM     53  H10 UNL     1      -2.227  -4.538  -0.501  1.00  0.00     0.171 HD
HETATM   54  N11 UNL     1      -2.939  -5.873   1.584  1.00  0.00    -0.373 N 
HETATM   55  N12 UNL     1      -2.948  -3.889   2.784  1.00  0.00    -0.064 NA
ATOM     56 2H11 UNL     1      -2.797  -6.390   0.716  1.00  0.00     0.158 HD
ATOM     57 1H11 UNL     1      -3.221  -6.319   2.457  1.00  0.00     0.158 HD
ENDBRANCH   5  49
BRANCH   6  58
HETATM   58  O6  UNL     1      -0.804  -3.729  -1.931  1.00  0.00    -0.358 OA
ATOM     59  H6  UNL     1      -0.645  -4.202  -2.740  1.00  0.00     0.217 HD
ENDBRANCH   6  58
TORSDOF 14
