REMARK  18 active torsions:
REMARK  status: ('A' for Active; 'I' for Inactive)
REMARK    1  A    between atoms: C2_2  and  C3_3 
REMARK    2  A    between atoms: C4_5  and  C5_6 
REMARK    3  A    between atoms: C6_9  and  O4_10 
REMARK    4  A    between atoms: C7_12  and  C8_13 
REMARK    5  A    between atoms: C8_13  and  O6_15 
REMARK    6  A    between atoms: O6_15  and  C9_16 
REMARK    7  A    between atoms: C11_20  and  N2_21 
REMARK    8  A    between atoms: N2_21  and  C12_23 
REMARK    9  A    between atoms: C12_23  and  C13_25 
REMARK   10  A    between atoms: C13_25  and  N3_26 
REMARK   11  A    between atoms: C14_29  and  N5_30 
REMARK   12  A    between atoms: N5_30  and  N6_32 
REMARK   13  A    between atoms: N7_35  and  C15_36 
REMARK   14  A    between atoms: C15_36  and  C16_37 
REMARK   15  A    between atoms: C23_47  and  O10_48 
REMARK   16  A    between atoms: C23_47  and  C24_50 
REMARK   17  A    between atoms: C24_50  and  C25_51 
REMARK       I    between atoms: C25_51  and  N9_53 
REMARK   18  A    between atoms: N9_53  and  N10_55 
ROOT
HETATM    1  C9  UNL     1      -3.673  -0.469  -1.234  1.00  0.00     0.294 C 
HETATM    2  N1  UNL     1      -2.305  -0.062  -1.071  1.00  0.00    -0.220 N 
HETATM    3  C10 UNL     1      -1.517   1.003  -1.293  1.00  0.00     0.292 A 
HETATM    4  O7  UNL     1      -1.877   2.101  -1.790  1.00  0.00    -0.264 OA
HETATM    5  C11 UNL     1      -0.204   0.706  -0.880  1.00  0.00     0.120 A 
HETATM    6  C21 UNL     1      -0.290  -0.577  -0.416  1.00  0.00     0.146 A 
HETATM    7  N8  UNL     1      -1.572  -1.002  -0.549  1.00  0.00    -0.290 N 
HETATM    8  C22 UNL     1      -2.346  -2.210  -0.269  1.00  0.00     0.191 C 
HETATM    9  C23 UNL     1      -3.687  -1.935  -0.866  1.00  0.00     0.130 C 
ENDROOT
BRANCH   5  10
HETATM   10  N2  UNL     1       0.863   1.628  -0.979  1.00  0.00    -0.344 N 
ATOM     11  H2  UNL     1       0.626   2.548  -1.350  1.00  0.00     0.167 HD
BRANCH  10  12
HETATM   12  C12 UNL     1       2.204   1.434  -0.631  1.00  0.00     0.098 C 
HETATM   13  S1  UNL     1       3.288   2.682  -0.836  1.00  0.00    -0.063 SA
BRANCH  12  14
HETATM   14  C13 UNL     1       2.764   0.196  -0.083  1.00  0.00     0.224 C 
BRANCH  14  15
HETATM   15  N3  UNL     1       4.201   0.376   0.135  1.00  0.00    -0.221 N 
HETATM   16  N4  UNL     1       5.143   0.123  -0.758  1.00  0.00    -0.124 N 
HETATM   17  C14 UNL     1       6.353   0.399  -0.235  1.00  0.00     0.717 A 
ATOM     18  H4  UNL     1       4.978  -0.228  -1.701  1.00  0.00     0.206 HD
HETATM   19  N7  UNL     1       6.189   0.836   1.017  1.00  0.00    -0.126 N 
HETATM   20  C20 UNL     1       4.836   0.810   1.215  1.00  0.00     0.358 A 
HETATM   21  O9  UNL     1       4.304   1.160   2.295  1.00  0.00    -0.244 OA
BRANCH  17  22
HETATM   22  N5  UNL     1       7.556   0.253  -0.958  1.00  0.00    -0.137 N 
ATOM     23  H5  UNL     1       8.438   0.498  -0.508  1.00  0.00     0.205 HD
BRANCH  22  24
HETATM   24  N6  UNL     1       7.573  -0.222  -2.284  1.00  0.00    -0.331 N 
ATOM     25  H62 UNL     1       6.682  -0.463  -2.719  1.00  0.00     0.177 HD
ATOM     26  H61 UNL     1       8.443  -0.328  -2.807  1.00  0.00     0.177 HD
ENDBRANCH  22  24
ENDBRANCH  17  22
BRANCH  19  27
HETATM   27  C15 UNL     1       7.163   1.221   1.978  1.00  0.00     0.184 C 
BRANCH  27  28
HETATM   28  C16 UNL     1       7.602   0.203   2.960  1.00  0.00     0.140 C 
HETATM   29  C17 UNL     1       8.221  -1.016   2.392  1.00  0.00     0.036 C 
HETATM   30  C18 UNL     1       9.662  -0.625   2.159  1.00  0.00     0.029 C 
HETATM   31  C19 UNL     1       9.818   0.586   3.026  1.00  0.00     0.168 C 
HETATM   32  O8  UNL     1       8.648   0.774   3.713  1.00  0.00    -0.384 OA
ENDBRANCH  27  28
ENDBRANCH  19  27
ENDBRANCH  14  15
ENDBRANCH  12  14
ENDBRANCH  10  12
ENDBRANCH   5  10
BRANCH   1  33
HETATM   33  O6  UNL     1      -4.591   0.289  -0.503  1.00  0.00    -0.286 OA
BRANCH  33  34
HETATM   34  C8  UNL     1      -5.629   0.993  -1.082  1.00  0.00     0.300 C 
HETATM   35  O5  UNL     1      -5.717   0.919  -2.325  1.00  0.00    -0.259 OA
BRANCH  34  36
HETATM   36  C7  UNL     1      -6.589   1.784  -0.342  1.00  0.00     0.105 A 
HETATM   37  C3  UNL     1      -6.643   1.979   1.018  1.00  0.00     0.073 A 
HETATM   38  O1  UNL     1      -7.669   2.772   1.319  1.00  0.00    -0.304 OA
HETATM   39  C4  UNL     1      -8.301   3.116   0.230  1.00  0.00     0.186 A 
HETATM   40  C6  UNL     1      -7.652   2.512  -0.861  1.00  0.00     0.125 A 
BRANCH  37  41
HETATM   41  C2  UNL     1      -5.686   1.381   1.996  1.00  0.00     0.062 C 
HETATM   42  C1  UNL     1      -4.355   2.070   2.016  1.00  0.00     0.012 C 
ENDBRANCH  37  41
BRANCH  39  43
HETATM   43  C5  UNL     1      -9.474   3.972   0.128  1.00  0.00     0.237 C 
HETATM   44  O2  UNL     1      -9.967   4.455   1.176  1.00  0.00    -0.642 OA
HETATM   45  O3  UNL     1     -10.074   4.278  -1.083  1.00  0.00    -0.642 OA
ENDBRANCH  39  43
BRANCH  40  46
HETATM   46  O4  UNL     1      -8.064   2.670  -2.157  1.00  0.00    -0.357 OA
ATOM     47  H4  UNL     1      -7.625   2.262  -2.894  1.00  0.00     0.218 HD
ENDBRANCH  40  46
ENDBRANCH  34  36
ENDBRANCH  33  34
ENDBRANCH   1  33
BRANCH   9  48
HETATM   48  O10 UNL     1      -4.741  -2.259  -0.030  1.00  0.00    -0.383 OA
ATOM     49  H10 UNL     1      -4.750  -3.180   0.201  1.00  0.00     0.210 HD
ENDBRANCH   9  48
BRANCH   9  50
HETATM   50  C24 UNL     1      -3.776  -2.784  -2.138  1.00  0.00     0.148 C 
BRANCH  50  51
HETATM   51  C25 UNL     1      -3.798  -4.215  -1.789  1.00  0.00     0.238 C 
HETATM   52  O11 UNL     1      -3.777  -4.577  -0.577  1.00  0.00    -0.272 OA
HETATM   53  N9  UNL     1      -3.842  -5.248  -2.747  1.00  0.00    -0.277 N 
ATOM     54  H9  UNL     1      -3.859  -4.987  -3.733  1.00  0.00     0.189 HD
BRANCH  53  55
HETATM   55  N10 UNL     1      -3.864  -6.606  -2.428  1.00  0.00    -0.343 N 
ATOM     56 2H10 UNL     1      -3.847  -6.849  -1.437  1.00  0.00     0.176 HD
ATOM     57 1H10 UNL     1      -3.896  -7.354  -3.121  1.00  0.00     0.176 HD
ENDBRANCH  53  55
ENDBRANCH  50  51
ENDBRANCH   9  50
TORSDOF 18
