REMARK  15 active torsions:
REMARK  status: ('A' for Active; 'I' for Inactive)
REMARK    1  A    between atoms: C2_2  and  O1_3 
REMARK    2  A    between atoms: O1_3  and  C3_4 
REMARK       I    between atoms: C3_4  and  N1_6 
REMARK    3  A    between atoms: N1_6  and  C4_8 
REMARK    4  A    between atoms: C5_12  and  C6_13 
REMARK    5  A    between atoms: C6_13  and  O3_14 
REMARK    6  A    between atoms: C6_13  and  O4_16 
REMARK    7  A    between atoms: C10_22  and  N3_23 
REMARK    8  A    between atoms: N3_23  and  C11_25 
REMARK    9  A    between atoms: C12_26  and  N4_27 
REMARK   10  A    between atoms: N4_27  and  C13_29 
REMARK   11  A    between atoms: C16_32  and  O6_33 
REMARK   12  A    between atoms: C23_42  and  O9_43 
REMARK   13  A    between atoms: C23_42  and  C24_45 
REMARK   14  A    between atoms: C24_45  and  O11_47 
REMARK   15  A    between atoms: C27_51  and  C28_52 
ROOT
HETATM    1  C4  UNL     1      -1.429   1.476  -0.775  1.00  0.00     0.298 C 
HETATM    2  N2  UNL     1      -2.868   1.760  -0.575  1.00  0.00    -0.041 N 
ATOM      3  H21 UNL     1      -3.385   1.884  -1.446  1.00  0.00     0.280 HD
ATOM      4  H22 UNL     1      -3.052   2.687  -0.191  1.00  0.00     0.280 HD
HETATM    5  C5  UNL     1      -3.373   0.678   0.252  1.00  0.00     0.285 C 
HETATM    6  C7  UNL     1      -2.592  -0.467  -0.297  1.00  0.00     0.165 C 
HETATM    7  O5  UNL     1      -2.328  -1.533   0.500  1.00  0.00    -0.352 OA
HETATM    8  C8  UNL     1      -1.052  -2.023   0.082  1.00  0.00     0.127 C 
HETATM    9  C9  UNL     1      -0.342  -2.267   1.416  1.00  0.00     0.052 C 
HETATM   10  C10 UNL     1      -0.398  -0.895  -0.687  1.00  0.00     0.131 C 
HETATM   11  C22 UNL     1      -1.203   0.210  -0.188  1.00  0.00     0.106 C 
HETATM   12  C23 UNL     1      -1.312  -3.270  -0.658  1.00  0.00     0.240 C 
HETATM   13  C26 UNL     1      -1.993  -3.030  -1.949  1.00  0.00     0.193 C 
HETATM   14  O12 UNL     1      -1.898  -3.994  -2.707  1.00  0.00    -0.293 OA
HETATM   15  C27 UNL     1      -2.749  -1.924  -2.530  1.00  0.00     0.201 C 
HETATM   16  C30 UNL     1      -3.014  -0.778  -1.648  1.00  0.00     0.182 C 
HETATM   17  O14 UNL     1      -3.730   0.056  -2.184  1.00  0.00    -0.293 OA
ENDROOT
BRANCH  10  18
HETATM   18  N3  UNL     1       0.985  -0.774  -0.289  1.00  0.00    -0.376 N 
ATOM     19  H3  UNL     1       1.363  -1.499   0.321  1.00  0.00     0.160 HD
BRANCH  18  20
HETATM   20  C11 UNL     1       1.850   0.263  -0.675  1.00  0.00     0.114 A 
HETATM   21  C12 UNL     1       2.259   1.435  -0.082  1.00  0.00     0.118 A 
HETATM   22  C20 UNL     1       3.009   1.724  -1.190  1.00  0.00     0.253 A 
HETATM   23  O7  UNL     1       3.753   2.673  -1.509  1.00  0.00    -0.281 OA
HETATM   24  C21 UNL     1       2.605   0.560  -1.779  1.00  0.00     0.252 A 
HETATM   25  O8  UNL     1       2.848  -0.004  -2.911  1.00  0.00    -0.281 OA
BRANCH  21  26
HETATM   26  N4  UNL     1       2.037   2.092   1.178  1.00  0.00    -0.351 N 
ATOM     27  H4  UNL     1       1.232   2.710   1.283  1.00  0.00     0.166 HD
BRANCH  26  28
HETATM   28  C13 UNL     1       2.913   1.900   2.279  1.00  0.00     0.032 A 
HETATM   29  C14 UNL     1       4.048   1.124   2.164  1.00  0.00     0.032 A 
HETATM   30  C15 UNL     1       4.945   0.901   3.186  1.00  0.00     0.039 A 
HETATM   31  C16 UNL     1       4.720   1.476   4.414  1.00  0.00     0.068 A 
HETATM   32  C18 UNL     1       3.585   2.262   4.561  1.00  0.00     0.039 A 
HETATM   33  C19 UNL     1       2.699   2.473   3.528  1.00  0.00     0.032 A 
BRANCH  31  34
HETATM   34  O6  UNL     1       5.597   1.284   5.488  1.00  0.00    -0.356 OA
HETATM   35  C17 UNL     1       6.742   0.495   5.335  1.00  0.00     0.210 C 
ENDBRANCH  31  34
ENDBRANCH  26  28
ENDBRANCH  21  26
ENDBRANCH  18  20
ENDBRANCH  10  18
BRANCH  12  36
HETATM   36  O9  UNL     1      -2.234  -4.005   0.134  1.00  0.00    -0.370 OA
ATOM     37  H9  UNL     1      -2.402  -4.809  -0.343  1.00  0.00     0.212 HD
ENDBRANCH  12  36
BRANCH  12  38
HETATM   38  C24 UNL     1      -0.125  -4.101  -0.908  1.00  0.00     0.304 C 
HETATM   39  O10 UNL     1       0.820  -3.633  -1.645  1.00  0.00    -0.261 OA
BRANCH  38  40
HETATM   40  O11 UNL     1       0.055  -5.353  -0.405  1.00  0.00    -0.324 OA
HETATM   41  C25 UNL     1       1.144  -6.210  -0.582  1.00  0.00     0.213 C 
ENDBRANCH  38  40
ENDBRANCH  12  38
BRANCH   1  42
HETATM   42  N1  UNL     1      -1.039   1.736  -2.121  1.00  0.00    -0.308 N 
HETATM   43  C3  UNL     1      -0.434   2.995  -2.427  1.00  0.00     0.362 C 
HETATM   44  O2  UNL     1      -0.258   3.859  -1.501  1.00  0.00    -0.238 OA
ATOM     45  H1  UNL     1      -1.188   1.039  -2.850  1.00  0.00     0.166 HD
BRANCH  43  46
HETATM   46  O1  UNL     1      -0.003   3.384  -3.674  1.00  0.00    -0.304 OA
BRANCH  46  47
HETATM   47  C2  UNL     1       0.592   4.645  -3.943  1.00  0.00     0.176 C 
HETATM   48  C1  UNL     1      -0.367   5.764  -3.610  1.00  0.00     0.034 C 
ENDBRANCH  46  47
ENDBRANCH  43  46
ENDBRANCH   1  42
BRANCH   5  49
HETATM   49  C6  UNL     1      -3.325   0.904   1.705  1.00  0.00     0.288 C 
BRANCH  49  50
HETATM   50  O3  UNL     1      -4.117   2.043   1.991  1.00  0.00    -0.369 OA
ATOM     51  H3  UNL     1      -4.086   2.189   2.929  1.00  0.00     0.212 HD
ENDBRANCH  49  50
BRANCH  49  52
HETATM   52  O4  UNL     1      -3.858  -0.219   2.368  1.00  0.00    -0.369 OA
ATOM     53  H4  UNL     1      -3.827  -0.073   3.306  1.00  0.00     0.212 HD
ENDBRANCH  49  52
ENDBRANCH   5  49
BRANCH  15  54
HETATM   54  C28 UNL     1      -4.104  -2.492  -2.904  1.00  0.00     0.141 C 
HETATM   55  C29 UNL     1      -4.986  -3.091  -1.868  1.00  0.00     0.092 C 
HETATM   56  O13 UNL     1      -4.468  -2.455  -4.061  1.00  0.00    -0.297 OA
ENDBRANCH  15  54
TORSDOF 15
