REMARK  12 active torsions:
REMARK  status: ('A' for Active; 'I' for Inactive)
REMARK       I    between atoms: C2_2  and  N1_4 
REMARK    1  A    between atoms: N1_4  and  C3_6 
REMARK    2  A    between atoms: C3_6  and  C4_7 
REMARK    3  A    between atoms: C3_6  and  C8_11 
REMARK    4  A    between atoms: C4_7  and  C5_8 
REMARK       I    between atoms: C8_11  and  N2_13 
REMARK    5  A    between atoms: N2_13  and  C9_15 
REMARK    6  A    between atoms: C9_15  and  C10_16 
REMARK    7  A    between atoms: C9_15  and  C14_20 
REMARK    8  A    between atoms: C10_16  and  C11_17 
REMARK       I    between atoms: C14_20  and  N3_22 
REMARK    9  A    between atoms: N3_22  and  C15_24 
REMARK   10  A    between atoms: C15_24  and  C16_25 
REMARK   11  A    between atoms: C15_24  and  C17_27 
REMARK   12  A    between atoms: C17_27  and  C18_28 
ROOT
HETATM    1  C9  UNL     1       0.318   1.429   0.738  1.00  0.00     0.177 C 
ENDROOT
BRANCH   1   2
HETATM    2  N2  UNL     1      -0.998   0.731   0.868  1.00  0.00    -0.346 N 
HETATM    3  C8  UNL     1      -2.000   0.843  -0.100  1.00  0.00     0.241 C 
HETATM    4  O2  UNL     1      -1.803   1.560  -1.136  1.00  0.00    -0.271 OA
ATOM      5  H2  UNL     1      -1.170   0.154   1.691  1.00  0.00     0.163 HD
BRANCH   3   6
HETATM    6  C3  UNL     1      -3.290   0.112   0.105  1.00  0.00     0.177 C 
BRANCH   6   7
HETATM    7  N1  UNL     1      -4.150   0.398  -1.042  1.00  0.00    -0.348 N 
HETATM    8  C2  UNL     1      -5.371   1.094  -0.892  1.00  0.00     0.214 C 
HETATM    9  C1  UNL     1      -6.205   1.357  -2.087  1.00  0.00     0.117 C 
HETATM   10  O1  UNL     1      -5.707   1.468   0.257  1.00  0.00    -0.274 OA
ATOM     11  H1  UNL     1      -3.863   0.089  -1.971  1.00  0.00     0.163 HD
ENDBRANCH   6   7
BRANCH   6  12
HETATM   12  C4  UNL     1      -2.941  -1.354   0.109  1.00  0.00     0.038 C 
BRANCH  12  13
HETATM   13  C5  UNL     1      -4.182  -2.184   0.208  1.00  0.00    -0.020 C 
HETATM   14  C6  UNL     1      -4.919  -1.870   1.471  1.00  0.00     0.009 C 
HETATM   15  C7  UNL     1      -3.765  -3.646   0.196  1.00  0.00     0.009 C 
ENDBRANCH  12  13
ENDBRANCH   6  12
ENDBRANCH   3   6
ENDBRANCH   1   2
BRANCH   1  16
HETATM   16  C10 UNL     1       0.333   2.384   1.866  1.00  0.00     0.038 C 
BRANCH  16  17
HETATM   17  C11 UNL     1       1.487   3.268   2.084  1.00  0.00    -0.020 C 
HETATM   18  C12 UNL     1       2.809   2.624   2.354  1.00  0.00     0.009 C 
HETATM   19  C13 UNL     1       1.153   4.115   3.330  1.00  0.00     0.009 C 
ENDBRANCH  16  17
ENDBRANCH   1  16
BRANCH   1  20
HETATM   20  C14 UNL     1       1.389   0.454   0.633  1.00  0.00     0.241 C 
HETATM   21  O3  UNL     1       1.327  -0.591   1.329  1.00  0.00    -0.271 OA
HETATM   22  N3  UNL     1       2.504   0.613  -0.219  1.00  0.00    -0.351 N 
ATOM     23  H3  UNL     1       2.588   1.450  -0.796  1.00  0.00     0.163 HD
BRANCH  22  24
HETATM   24  C15 UNL     1       3.557  -0.436  -0.277  1.00  0.00     0.118 C 
BRANCH  24  25
HETATM   25  C16 UNL     1       4.858   0.215  -0.043  1.00  0.00     0.079 C 
HETATM   26  S1  UNL     1       5.235   1.448  -0.690  1.00  0.00    -0.095 SA
ENDBRANCH  24  25
BRANCH  24  27
HETATM   27  C17 UNL     1       3.398  -1.140  -1.581  1.00  0.00     0.034 C 
BRANCH  27  28
HETATM   28  C18 UNL     1       4.362  -2.246  -1.777  1.00  0.00    -0.021 C 
HETATM   29  C19 UNL     1       4.096  -2.942  -3.145  1.00  0.00     0.009 C 
HETATM   30  C20 UNL     1       5.818  -1.849  -1.874  1.00  0.00     0.009 C 
ENDBRANCH  27  28
ENDBRANCH  24  27
ENDBRANCH  22  24
ENDBRANCH   1  20
TORSDOF 12
