REMARK  12 active torsions:
REMARK  status: ('A' for Active; 'I' for Inactive)
REMARK    1  A    between atoms: S1_2  and  C2_3 
REMARK    2  A    between atoms: C2_3  and  C3_4 
REMARK    3  A    between atoms: C3_4  and  N1_5 
REMARK    4  A    between atoms: C4_6  and  C5_7 
REMARK    5  A    between atoms: C10_13  and  C11_14 
REMARK    6  A    between atoms: C11_14  and  C12_15 
REMARK    7  A    between atoms: C12_15  and  C13_16 
REMARK    8  A    between atoms: C13_16  and  C14_17 
REMARK    9  A    between atoms: C14_17  and  N3_18 
REMARK       I    between atoms: N3_18  and  C15_20 
REMARK       I    between atoms: C15_20  and  N4_22 
REMARK   10  A    between atoms: N4_22  and  C16_24 
REMARK   11  A    between atoms: C16_24  and  C17_25 
REMARK   12  A    between atoms: C17_25  and  N5_26 
ROOT
HETATM    1  C5  UNL     1      -4.282   1.330  -2.605  1.00  0.00     0.149 C 
HETATM    2  C6  UNL     1      -5.201   2.281  -2.042  1.00  0.00     0.061 C 
HETATM    3  N2  UNL     1      -5.935   3.062  -1.606  1.00  0.00    -0.197 NA
ENDROOT
BRANCH   1   4
HETATM    4  C4  UNL     1      -4.325  -0.034  -1.885  1.00  0.00     0.097 C 
HETATM    5  N1  UNL     1      -3.987   0.157  -0.547  1.00  0.00    -0.381 N 
HETATM    6  C10 UNL     1      -2.759  -0.277   0.009  1.00  0.00    -0.015 C 
HETATM    7  C9  UNL     1      -1.914  -1.206  -0.737  1.00  0.00     0.052 C 
HETATM    8  C8  UNL     1      -2.630  -1.910  -1.871  1.00  0.00     0.008 C 
HETATM    9  C7  UNL     1      -3.452  -0.932  -2.672  1.00  0.00     0.026 C 
BRANCH   5  10
HETATM   10  C3  UNL     1      -5.093  -0.016   0.373  1.00  0.00     0.133 C 
BRANCH  10  11
HETATM   11  C2  UNL     1      -5.562  -1.451   0.443  1.00  0.00     0.093 C 
BRANCH  11  12
HETATM   12  S1  UNL     1      -6.944  -1.544   1.618  1.00  0.00    -0.172 SA
HETATM   13  C1  UNL     1      -6.291  -1.161   3.276  1.00  0.00     0.089 C 
ENDBRANCH  11  12
ENDBRANCH  10  11
ENDBRANCH   5  10
BRANCH   6  14
HETATM   14  C11 UNL     1      -2.136   0.827   0.820  1.00  0.00     0.052 C 
BRANCH  14  15
HETATM   15  C12 UNL     1      -1.818   2.094   0.191  1.00  0.00     0.011 C 
BRANCH  15  16
HETATM   16  C13 UNL     1      -0.764   2.160  -0.833  1.00  0.00     0.045 C 
BRANCH  16  17
HETATM   17  C14 UNL     1       0.636   1.963  -0.469  1.00  0.00     0.065 C 
BRANCH  17  18
HETATM   18  N3  UNL     1       1.158   0.807   0.104  1.00  0.00    -0.323 N 
HETATM   19  C15 UNL     1       2.589   0.824   0.398  1.00  0.00     0.319 C 
HETATM   20  O1  UNL     1       3.300   1.824   0.147  1.00  0.00    -0.247 OA
HETATM   21  N4  UNL     1       3.208  -0.308   0.983  1.00  0.00    -0.341 N 
ATOM     22  H4  UNL     1       2.621  -1.117   1.189  1.00  0.00     0.164 HD
ATOM     23  H3  UNL     1       0.575  -0.005   0.307  1.00  0.00     0.169 HD
BRANCH  21  24
HETATM   24  C16 UNL     1       4.592  -0.395   1.303  1.00  0.00     0.152 C 
BRANCH  24  25
HETATM   25  C17 UNL     1       5.529  -0.252   0.133  1.00  0.00     0.255 C 
BRANCH  25  26
HETATM   26  N5  UNL     1       6.911  -0.350   0.516  1.00  0.00    -0.077 N 
HETATM   27  C18 UNL     1       7.702   0.317  -0.515  1.00  0.00     0.271 C 
HETATM   28  C19 UNL     1       7.376  -1.718   0.579  1.00  0.00     0.271 C 
HETATM   29  C20 UNL     1       7.205   0.280   1.776  1.00  0.00     0.271 C 
ENDBRANCH  25  26
ENDBRANCH  24  25
ENDBRANCH  21  24
ENDBRANCH  17  18
ENDBRANCH  16  17
ENDBRANCH  15  16
ENDBRANCH  14  15
ENDBRANCH   6  14
ENDBRANCH   1   4
TORSDOF 12
