REMARK  13 active torsions:
REMARK  status: ('A' for Active; 'I' for Inactive)
REMARK    1  A    between atoms: C3_3  and  N1_4 
REMARK    2  A    between atoms: C3_3  and  C19_28 
REMARK    3  A    between atoms: N1_4  and  C4_6 
REMARK    4  A    between atoms: C4_6  and  C5_7 
REMARK    5  A    between atoms: C4_6  and  C9_11 
REMARK    6  A    between atoms: C5_7  and  C6_8 
REMARK    7  A    between atoms: C6_8  and  C7_9 
REMARK       I    between atoms: C9_11  and  N2_13 
REMARK    8  A    between atoms: N2_13  and  C10_15 
REMARK    9  A    between atoms: C10_15  and  C12_17 
REMARK       I    between atoms: C12_17  and  N3_19 
REMARK   10  A    between atoms: N3_19  and  C13_21 
REMARK   11  A    between atoms: C13_21  and  C14_22 
REMARK   12  A    between atoms: C13_21  and  C15_24 
REMARK   13  A    between atoms: C15_24  and  C16_25 
ROOT
HETATM    1  C1  UNL     1      -3.820  -3.150  -0.785  1.00  0.00     0.014 C 
HETATM    2  C2  UNL     1      -3.811  -1.954  -0.671  1.00  0.00    -0.092 C 
HETATM    3  C3  UNL     1      -3.785  -0.529  -0.572  1.00  0.00     0.164 C 
ENDROOT
BRANCH   3   4
HETATM    4  N1  UNL     1      -3.221   0.144   0.482  1.00  0.00    -0.373 N 
ATOM      5  H1  UNL     1      -3.839   0.786   0.978  1.00  0.00     0.161 HD
BRANCH   4   6
HETATM    6  C4  UNL     1      -1.937   0.069   0.957  1.00  0.00     0.074 C 
BRANCH   6   7
HETATM    7  C5  UNL     1      -1.532  -1.058   1.858  1.00  0.00     0.062 C 
BRANCH   7   8
HETATM    8  C6  UNL     1      -2.154  -1.109   3.204  1.00  0.00     0.006 C 
BRANCH   8   9
HETATM    9  C7  UNL     1      -3.586  -1.273   3.423  1.00  0.00    -0.004 C 
HETATM   10  C8  UNL     1      -4.088  -2.603   2.958  1.00  0.00     0.005 C 
ENDBRANCH   8   9
ENDBRANCH   7   8
ENDBRANCH   6   7
BRANCH   6  11
HETATM   11  C9  UNL     1      -0.853   0.304  -0.069  1.00  0.00     0.264 C 
HETATM   12  O1  UNL     1      -0.948  -0.143  -1.225  1.00  0.00    -0.266 OA
HETATM   13  N2  UNL     1       0.306   1.043   0.250  1.00  0.00    -0.343 N 
ATOM     14  H2  UNL     1       0.387   1.420   1.194  1.00  0.00     0.163 HD
BRANCH  13  15
HETATM   15  C10 UNL     1       1.379   1.298  -0.669  1.00  0.00     0.172 C 
HETATM   16  C11 UNL     1       1.244   2.726  -1.211  1.00  0.00     0.042 C 
BRANCH  15  17
HETATM   17  C12 UNL     1       2.730   1.103  -0.081  1.00  0.00     0.240 C 
HETATM   18  O2  UNL     1       2.779   0.795   1.130  1.00  0.00    -0.271 OA
HETATM   19  N3  UNL     1       3.907   1.260  -0.859  1.00  0.00    -0.349 N 
ATOM     20  H3  UNL     1       3.808   1.499  -1.846  1.00  0.00     0.163 HD
BRANCH  19  21
HETATM   21  C13 UNL     1       5.239   1.098  -0.321  1.00  0.00     0.146 C 
BRANCH  21  22
HETATM   22  C14 UNL     1       6.121   2.169  -0.830  1.00  0.00     0.256 C 
HETATM   23  O3  UNL     1       5.699   3.022  -1.611  1.00  0.00    -0.305 OA
ENDBRANCH  21  22
BRANCH  21  24
HETATM   24  C15 UNL     1       5.822  -0.238  -0.746  1.00  0.00     0.036 C 
BRANCH  24  25
HETATM   25  C16 UNL     1       7.236  -0.401  -0.191  1.00  0.00    -0.020 C 
HETATM   26  C17 UNL     1       7.815  -1.745  -0.593  1.00  0.00     0.009 C 
HETATM   27  C18 UNL     1       7.201  -0.206   1.283  1.00  0.00     0.009 C 
ENDBRANCH  24  25
ENDBRANCH  21  24
ENDBRANCH  19  21
ENDBRANCH  15  17
ENDBRANCH  13  15
ENDBRANCH   6  11
ENDBRANCH   4   6
ENDBRANCH   3   4
BRANCH   3  28
HETATM   28  C19 UNL     1      -5.256  -0.107  -0.820  1.00  0.00     0.020 C 
HETATM   29  C20 UNL     1      -5.680  -0.578  -2.197  1.00  0.00     0.007 C 
HETATM   30  C21 UNL     1      -5.026   0.476  -3.089  1.00  0.00     0.000 C 
HETATM   31  C22 UNL     1      -4.720   1.665  -2.246  1.00  0.00     0.000 C 
HETATM   32  C23 UNL     1      -5.426   1.359  -0.957  1.00  0.00     0.007 C 
ENDBRANCH   3  28
TORSDOF 13
