REMARK  13 active torsions:
REMARK  status: ('A' for Active; 'I' for Inactive)
REMARK    1  A    between atoms: C2_2  and  C3_3 
REMARK    2  A    between atoms: C3_3  and  C4_4 
REMARK    3  A    between atoms: C4_4  and  C5_5 
REMARK    4  A    between atoms: C4_4  and  C17_25 
REMARK    5  A    between atoms: C5_5  and  O1_6 
REMARK    6  A    between atoms: O1_6  and  C6_7 
REMARK    7  A    between atoms: C6_7  and  C7_8 
REMARK    8  A    between atoms: C7_8  and  O2_9 
REMARK    9  A    between atoms: C7_8  and  C8_11 
REMARK   10  A    between atoms: C8_11  and  N1_12 
REMARK   11  A    between atoms: C11_15  and  C12_16 
REMARK   12  A    between atoms: C12_16  and  C13_17 
REMARK   13  A    between atoms: C13_17  and  N2_18 
ROOT
HETATM    1  C7  UNL     1      -0.020   0.953   1.394  1.00  0.00     0.160 C 
ENDROOT
BRANCH   1   2
HETATM    2  C6  UNL     1      -0.519   1.222   0.022  1.00  0.00     0.200 C 
BRANCH   2   3
HETATM    3  O1  UNL     1      -1.442   0.367  -0.459  1.00  0.00    -0.388 OA
BRANCH   3   4
HETATM    4  C5  UNL     1      -2.652   0.200   0.110  1.00  0.00     0.172 C 
BRANCH   4   5
HETATM    5  C4  UNL     1      -3.544  -0.754  -0.652  1.00  0.00     0.013 C 
BRANCH   5   6
HETATM    6  C3  UNL     1      -3.876  -0.380  -2.035  1.00  0.00     0.007 C 
BRANCH   6   7
HETATM    7  C2  UNL     1      -2.700  -0.245  -2.956  1.00  0.00    -0.004 C 
HETATM    8  C1  UNL     1      -3.261   0.093  -4.366  1.00  0.00     0.005 C 
ENDBRANCH   6   7
ENDBRANCH   5   6
BRANCH   5   9
HETATM    9  C17 UNL     1      -4.753  -1.014   0.219  1.00  0.00    -0.008 C 
HETATM   10  C18 UNL     1      -5.607  -2.135  -0.317  1.00  0.00     0.005 C 
HETATM   11  C19 UNL     1      -6.538  -2.564   0.799  1.00  0.00     0.000 C 
HETATM   12  C20 UNL     1      -7.465  -1.408   1.087  1.00  0.00     0.000 C 
HETATM   13  C21 UNL     1      -7.089  -0.128   0.428  1.00  0.00     0.000 C 
HETATM   14  C22 UNL     1      -5.614   0.180   0.448  1.00  0.00     0.005 C 
ENDBRANCH   5   9
ENDBRANCH   4   5
ENDBRANCH   3   4
ENDBRANCH   2   3
ENDBRANCH   1   2
BRANCH   1  15
HETATM   15  O2  UNL     1      -1.048   1.091   2.331  1.00  0.00    -0.392 OA
ATOM     16  H2  UNL     1      -0.729   0.919   3.209  1.00  0.00     0.210 HD
ENDBRANCH   1  15
BRANCH   1  17
HETATM   17  C8  UNL     1       1.079   1.874   1.802  1.00  0.00     0.160 C 
BRANCH  17  18
HETATM   18  N1  UNL     1       2.245   1.882   0.988  1.00  0.00    -0.371 N 
HETATM   19  C9  UNL     1       3.216   2.840   1.337  1.00  0.00     0.063 C 
HETATM   20  C10 UNL     1       4.632   2.453   1.446  1.00  0.00     0.049 C 
HETATM   21  C11 UNL     1       4.975   1.114   0.856  1.00  0.00    -0.004 C 
HETATM   22  C15 UNL     1       3.848   0.110   1.147  1.00  0.00     0.049 C 
HETATM   23  C16 UNL     1       2.659   0.675   0.397  1.00  0.00     0.063 C 
BRANCH  21  24
HETATM   24  C12 UNL     1       6.292   0.611   1.345  1.00  0.00     0.025 C 
BRANCH  24  25
HETATM   25  C13 UNL     1       6.649  -0.741   0.746  1.00  0.00     0.122 C 
BRANCH  25  26
HETATM   26  N2  UNL     1       6.718  -0.640  -0.702  1.00  0.00    -0.367 N 
HETATM   27  C14 UNL     1       7.404  -1.442  -1.437  1.00  0.00     0.196 C 
HETATM   28  N3  UNL     1       7.418  -1.273  -2.851  1.00  0.00    -0.067 NA
HETATM   29  N4  UNL     1       8.146  -2.491  -0.856  1.00  0.00    -0.067 NA
ATOM     30  H2  UNL     1       6.195   0.106  -1.160  1.00  0.00     0.161 HD
ENDBRANCH  25  26
ENDBRANCH  24  25
ENDBRANCH  21  24
ENDBRANCH  17  18
ENDBRANCH   1  17
TORSDOF 13
