REMARK  4 active torsions:
REMARK  status: ('A' for Active; 'I' for Inactive)
REMARK    1  A    between atoms: O1_2  and  C2_3 
REMARK    2  A    between atoms: C2_3  and  C3_5 
REMARK    3  A    between atoms: C3_5  and  N1_6 
REMARK    4  A    between atoms: C3_5  and  C4_10 
REMARK       I    between atoms: N3_12  and  C5_14 
ROOT
HETATM    1  C3  UNL     1      -0.456  -0.997   0.602  1.00  0.00     0.346 C 
ENDROOT
BRANCH   1   2
HETATM    2  C2  UNL     1      -1.653  -0.187   0.325  1.00  0.00     0.296 C 
HETATM    3  O2  UNL     1      -1.758   0.932   0.882  1.00  0.00    -0.262 OA
BRANCH   2   4
HETATM    4  O1  UNL     1      -2.678  -0.584  -0.518  1.00  0.00    -0.325 OA
HETATM    5  C1  UNL     1      -3.795   0.280  -0.717  1.00  0.00     0.213 C 
ENDBRANCH   2   4
ENDBRANCH   1   2
BRANCH   1   6
HETATM    6  N1  UNL     1      -0.576  -2.229  -0.156  1.00  0.00    -0.059 N 
ATOM      7  H13 UNL     1      -1.446  -2.728   0.032  1.00  0.00     0.275 HD
ATOM      8  H12 UNL     1      -0.726  -2.070  -1.152  1.00  0.00     0.275 HD
ATOM      9  H11 UNL     1       0.254  -2.790   0.036  1.00  0.00     0.275 HD
ENDBRANCH   1   6
BRANCH   1  10
HETATM   10  C4  UNL     1       0.798  -0.348   0.203  1.00  0.00     0.136 C 
HETATM   11  N2  UNL     1       2.019  -1.019   0.415  1.00  0.00    -0.085 NA
HETATM   12  N3  UNL     1       0.773   0.811  -0.328  1.00  0.00    -0.321 N 
HETATM   13  C5  UNL     1       1.915   1.531  -0.750  1.00  0.00     0.186 C 
ATOM     14  H3  UNL     1      -0.138   1.251  -0.458  1.00  0.00     0.169 HD
HETATM   15  N4  UNL     1       1.856   2.173  -1.862  1.00  0.00    -0.373 N 
HETATM   16  N5  UNL     1       3.105   1.567   0.002  1.00  0.00    -0.064 NA
ATOM     17  H42 UNL     1       0.994   2.147  -2.407  1.00  0.00     0.158 HD
ATOM     18  H41 UNL     1       2.680   2.692  -2.166  1.00  0.00     0.158 HD
ENDBRANCH   1  10
TORSDOF 4
