REMARK  3 active torsions:
REMARK  status: ('A' for Active; 'I' for Inactive)
REMARK       I    between atoms: N2_3  and  C2_5 
REMARK    1  A    between atoms: C2_5  and  O2_7 
REMARK    2  A    between atoms: O2_7  and  N3_8 
REMARK       I    between atoms: N3_8  and  C3_10 
REMARK    3  A    between atoms: N5_12  and  N6_14 
ROOT
HETATM    1  N3  UNL     1      -0.633  -0.866   0.215  1.00  0.00    -0.227 N 
ATOM      2  H3  UNL     1      -0.408  -1.743   0.685  1.00  0.00     0.198 HD
HETATM    3  C3  UNL     1      -1.976  -0.492  -0.039  1.00  0.00     0.227 C 
HETATM    4  N4  UNL     1      -2.474  -0.596  -1.359  1.00  0.00    -0.060 NA
HETATM    5  N5  UNL     1      -2.701  -0.073   0.917  1.00  0.00    -0.279 N 
ATOM      6  H5  UNL     1      -2.279  -0.022   1.844  1.00  0.00     0.189 HD
ENDROOT
BRANCH   1   7
HETATM    7  O2  UNL     1       0.351  -0.007  -0.194  1.00  0.00    -0.178 OA
BRANCH   7   8
HETATM    8  C2  UNL     1       1.425   0.371   0.598  1.00  0.00     0.387 C 
HETATM    9  N2  UNL     1       2.364   1.267   0.040  1.00  0.00    -0.299 N 
HETATM   10  C1  UNL     1       3.628   1.135   0.096  1.00  0.00     0.194 C 
ATOM     11  H2  UNL     1       1.999   2.086  -0.447  1.00  0.00     0.171 HD
HETATM   12  N1  UNL     1       4.231   0.043   0.746  1.00  0.00    -0.097 NA
HETATM   13  O1  UNL     1       1.499  -0.101   1.750  1.00  0.00    -0.236 OA
ENDBRANCH   7   8
ENDBRANCH   1   7
BRANCH   5  14
HETATM   14  N6  UNL     1      -4.027   0.320   0.789  1.00  0.00    -0.343 N 
ATOM     15  H62 UNL     1      -4.432   0.262  -0.145  1.00  0.00     0.176 HD
ATOM     16  H61 UNL     1      -4.609   0.656   1.556  1.00  0.00     0.176 HD
ENDBRANCH   5  14
TORSDOF 3
