REMARK  2 active torsions:
REMARK  status: ('A' for Active; 'I' for Inactive)
REMARK    1  A    between atoms: C2_3  and  N6_11 
REMARK    2  A    between atoms: N2_4  and  N3_6 
REMARK       I    between atoms: N6_11  and  C4_13 
ROOT
HETATM    1  N1  UNL     1      -0.245   2.886   0.257  1.00  0.00    -0.188 NA
HETATM    2  C1  UNL     1      -0.436   1.731   0.099  1.00  0.00     0.138 C 
HETATM    3  C2  UNL     1      -0.632   0.337  -0.100  1.00  0.00     0.206 C 
HETATM    4  N2  UNL     1       0.369  -0.395  -0.450  1.00  0.00    -0.274 N 
ATOM      5  H2  UNL     1       0.245  -1.397  -0.596  1.00  0.00     0.189 HD
ENDROOT
BRANCH   3   6
HETATM    6  N6  UNL     1      -1.883  -0.261   0.076  1.00  0.00    -0.287 N 
HETATM    7  C4  UNL     1      -3.013   0.485   0.458  1.00  0.00     0.334 C 
HETATM    8  N7  UNL     1      -4.301  -0.100   0.644  1.00  0.00    -0.040 NA
HETATM    9  O1  UNL     1      -2.922   1.716   0.652  1.00  0.00    -0.251 OA
ATOM     10  H6  UNL     1      -1.979  -1.265  -0.077  1.00  0.00     0.172 HD
ENDBRANCH   3   6
BRANCH   4  11
HETATM   11  N3  UNL     1       1.618   0.187  -0.628  1.00  0.00    -0.274 N 
HETATM   12  C3  UNL     1       2.660  -0.362  -0.111  1.00  0.00     0.215 C 
HETATM   13  N4  UNL     1       2.508  -1.556   0.636  1.00  0.00    -0.065 NA
HETATM   14  N5  UNL     1       3.946   0.250  -0.302  1.00  0.00    -0.065 NA
ATOM     15  H3  UNL     1       1.708   1.048  -1.168  1.00  0.00     0.189 HD
ENDBRANCH   4  11
TORSDOF 2
