REMARK  2 active torsions:
REMARK  status: ('A' for Active; 'I' for Inactive)
REMARK    1  A    between atoms: C3_4  and  N2_5 
REMARK    2  A    between atoms: N2_5  and  O1_7 
ROOT
HETATM    1  N1  UNL     1      -2.590   1.347  -0.180  1.00  0.00    -0.100 NA
HETATM    2  C1  UNL     1      -1.252   0.850  -0.150  1.00  0.00     0.074 A 
HETATM    3  C2  UNL     1      -0.217   1.758  -0.358  1.00  0.00     0.062 A 
HETATM    4  C3  UNL     1       1.077   1.299  -0.334  1.00  0.00     0.082 A 
HETATM    5  C4  UNL     1       1.336  -0.031  -0.107  1.00  0.00     0.101 A 
HETATM    6  N3  UNL     1       2.674  -0.473  -0.087  1.00  0.00    -0.098 NA
HETATM    7  C5  UNL     1       0.329  -0.970   0.105  1.00  0.00     0.099 A 
HETATM    8  N4  UNL     1       0.628  -2.336   0.336  1.00  0.00    -0.098 NA
HETATM    9  C6  UNL     1      -0.964  -0.481   0.075  1.00  0.00     0.096 A 
HETATM   10  N5  UNL     1      -2.048  -1.392   0.286  1.00  0.00    -0.098 NA
ENDROOT
BRANCH   4  11
HETATM   11  N2  UNL     1       2.129   2.254  -0.551  1.00  0.00    -0.267 N 
ATOM     12  H2  UNL     1       2.469   2.485  -1.484  1.00  0.00     0.194 HD
BRANCH  11  13
HETATM   13  O1  UNL     1       2.603   2.786   0.487  1.00  0.00    -0.289 OA
ATOM     14  H1  UNL     1       3.298   3.417   0.344  1.00  0.00     0.244 HD
ENDBRANCH  11  13
ENDBRANCH   4  11
TORSDOF 2
