REMARK  2 active torsions:
REMARK  status: ('A' for Active; 'I' for Inactive)
REMARK    1  A    between atoms: N1_1  and  N2_4 
REMARK    2  A    between atoms: N2_4  and  C1_6 
ROOT
HETATM    1  C1  UNL     1      -1.594  -0.119  -0.330  1.00  0.00     0.699 A 
HETATM    2  N3  UNL     1      -0.712   0.599   0.370  1.00  0.00    -0.172 N 
ATOM      3  H3  UNL     1      -0.957   1.359   1.005  1.00  0.00     0.186 HD
HETATM    4  C2  UNL     1       0.573   0.175   0.119  1.00  0.00     0.157 A 
HETATM    5  N4  UNL     1       1.774   0.486   0.496  1.00  0.00    -0.322 N 
ATOM      6  H4  UNL     1       1.915   1.244   1.164  1.00  0.00     0.169 HD
HETATM    7  C3  UNL     1       2.818  -0.172   0.021  1.00  0.00     0.162 A 
HETATM    8  N5  UNL     1       4.215   0.023   0.315  1.00  0.00    -0.074 NA
HETATM    9  S1  UNL     1       2.061  -1.300  -1.024  1.00  0.00    -0.035 SA
HETATM   10  C4  UNL     1       0.432  -0.849  -0.780  1.00  0.00     0.138 A 
HETATM   11  N6  UNL     1      -0.901  -1.013  -1.042  1.00  0.00    -0.180 N 
ATOM     12  H6  UNL     1      -1.300  -1.704  -1.677  1.00  0.00     0.185 HD
ENDROOT
BRANCH   1  13
HETATM   13  N2  UNL     1      -3.016   0.066  -0.298  1.00  0.00    -0.138 N 
ATOM     14  H2  UNL     1      -3.609  -0.534  -0.871  1.00  0.00     0.205 HD
BRANCH  13  15
HETATM   15  N1  UNL     1      -3.609   1.049   0.500  1.00  0.00    -0.331 N 
ATOM     16  H12 UNL     1      -3.001   1.640   1.067  1.00  0.00     0.177 HD
ATOM     17  H11 UNL     1      -4.620   1.181   0.523  1.00  0.00     0.177 HD
ENDBRANCH  13  15
ENDBRANCH   1  13
TORSDOF 2
