REMARK  9 active torsions:
REMARK  status: ('A' for Active; 'I' for Inactive)
REMARK    1  A    between atoms: O1_2  and  C2_3 
REMARK    2  A    between atoms: C2_3  and  N1_4 
REMARK    3  A    between atoms: N1_4  and  C3_6 
REMARK    4  A    between atoms: C4_9  and  N3_10 
REMARK    5  A    between atoms: N3_10  and  C5_12 
REMARK    6  A    between atoms: C5_12  and  C6_13 
REMARK    7  A    between atoms: C6_13  and  C7_14 
REMARK    8  A    between atoms: C7_14  and  O2_15 
REMARK    9  A    between atoms: C9_22  and  N6_23 
ROOT
HETATM    1  C3  UNL     1       1.588   0.435   0.438  1.00  0.00     0.138 A 
HETATM    2  N2  UNL     1       0.450   1.152   0.626  1.00  0.00    -0.176 N 
ATOM      3  H2  UNL     1       0.515   2.163   0.745  1.00  0.00     0.186 HD
HETATM    4  C4  UNL     1      -0.758   0.568   0.660  1.00  0.00     0.681 A 
HETATM    5  N4  UNL     1      -0.847  -0.760   0.503  1.00  0.00    -0.175 N 
ATOM      6  H4  UNL     1      -1.769  -1.195   0.529  1.00  0.00     0.186 HD
HETATM    7  C8  UNL     1       0.232  -1.543   0.312  1.00  0.00     0.156 A 
HETATM    8  N5  UNL     1       0.162  -2.876   0.153  1.00  0.00    -0.175 N 
ATOM      9  H5  UNL     1      -0.753  -3.326   0.177  1.00  0.00     0.186 HD
HETATM   10  C9  UNL     1       1.249  -3.634  -0.036  1.00  0.00     0.680 A 
HETATM   11  N7  UNL     1       2.464  -3.058  -0.071  1.00  0.00    -0.155 N 
ATOM     12  H7  UNL     1       3.293  -3.634  -0.215  1.00  0.00     0.187 HD
HETATM   13  C10 UNL     1       2.594  -1.728   0.083  1.00  0.00     0.277 A 
HETATM   14  O3  UNL     1       3.717  -1.203   0.050  1.00  0.00    -0.266 OA
HETATM   15  C11 UNL     1       1.477  -0.936   0.278  1.00  0.00     0.122 A 
ENDROOT
BRANCH   4  16
HETATM   16  N3  UNL     1      -1.800   1.305   0.842  1.00  0.00    -0.226 N 
ATOM     17  H3  UNL     1      -1.656   2.309   0.953  1.00  0.00     0.177 HD
BRANCH  16  18
HETATM   18  C5  UNL     1      -3.141   0.817   0.899  1.00  0.00     0.140 C 
BRANCH  18  19
HETATM   19  C6  UNL     1      -3.731   0.871  -0.487  1.00  0.00     0.046 C 
BRANCH  19  20
HETATM   20  C7  UNL     1      -5.167   0.360  -0.488  1.00  0.00     0.165 C 
BRANCH  20  21
HETATM   21  O2  UNL     1      -5.986   1.104   0.334  1.00  0.00    -0.401 OA
ATOM     22  H2  UNL     1      -6.881   0.786   0.333  1.00  0.00     0.209 HD
ENDBRANCH  20  21
ENDBRANCH  19  20
ENDBRANCH  18  19
ENDBRANCH  16  18
ENDBRANCH   4  16
BRANCH   1  23
HETATM   23  N1  UNL     1       2.753   0.954   0.401  1.00  0.00    -0.354 N 
ATOM     24  H1  UNL     1       3.572   0.364   0.257  1.00  0.00     0.163 HD
BRANCH  23  25
HETATM   25  C2  UNL     1       2.905   2.373   0.563  1.00  0.00     0.291 C 
BRANCH  25  26
HETATM   26  O1  UNL     1       4.213   2.782   0.678  1.00  0.00    -0.377 OA
HETATM   27  C1  UNL     1       5.001   2.477  -0.399  1.00  0.00     0.203 C 
ENDBRANCH  25  26
ENDBRANCH  23  25
ENDBRANCH   1  23
BRANCH  10  28
HETATM   28  N6  UNL     1       1.158  -4.917  -0.187  1.00  0.00    -0.234 N 
ATOM     29  H62 UNL     1       0.237  -5.354  -0.160  1.00  0.00     0.174 HD
ATOM     30  H61 UNL     1       1.986  -5.495  -0.331  1.00  0.00     0.174 HD
ENDBRANCH  10  28
TORSDOF 9
