REMARK  6 active torsions:
REMARK  status: ('A' for Active; 'I' for Inactive)
REMARK    1  A    between atoms: C3_3  and  O1_4 
REMARK    2  A    between atoms: O1_4  and  C4_5 
REMARK    3  A    between atoms: C4_5  and  C5_6 
REMARK    4  A    between atoms: C5_6  and  N1_7 
REMARK    5  A    between atoms: N2_9  and  N3_11 
REMARK    6  A    between atoms: C9_21  and  N6_22 
ROOT
HETATM    1  C1  UNL     1      -4.029  -2.654   0.301  1.00  0.00     0.014 C 
HETATM    2  C2  UNL     1      -4.202  -1.483   0.080  1.00  0.00    -0.091 C 
HETATM    3  C3  UNL     1      -4.394  -0.045  -0.182  1.00  0.00     0.260 C 
ENDROOT
BRANCH   3   4
HETATM    4  O1  UNL     1      -3.263   0.429  -0.804  1.00  0.00    -0.378 OA
BRANCH   4   5
HETATM    5  C4  UNL     1      -2.111   0.273  -0.042  1.00  0.00     0.189 C 
BRANCH   5   6
HETATM    6  C5  UNL     1      -0.962   0.834  -0.849  1.00  0.00     0.174 C 
BRANCH   6   7
HETATM    7  N1  UNL     1       0.319   0.769  -0.257  1.00  0.00    -0.172 N 
HETATM    8  C6  UNL     1       0.802   1.763   0.567  1.00  0.00     0.702 A 
HETATM    9  N2  UNL     1      -0.008   2.753   0.758  1.00  0.00    -0.138 N 
HETATM   10  N4  UNL     1       1.992   1.743   1.137  1.00  0.00    -0.152 N 
ATOM     11  H2  UNL     1      -0.918   2.727   0.298  1.00  0.00     0.205 HD
HETATM   12  C7  UNL     1       2.844   0.746   0.963  1.00  0.00     0.289 A 
ATOM     13  H4  UNL     1       2.265   2.524   1.733  1.00  0.00     0.187 HD
HETATM   14  O2  UNL     1       3.986   0.680   1.483  1.00  0.00    -0.265 OA
HETATM   15  C8  UNL     1       2.430  -0.304   0.140  1.00  0.00     0.150 A 
HETATM   16  N5  UNL     1       3.253  -1.340  -0.075  1.00  0.00    -0.184 N 
HETATM   17  C11 UNL     1       1.163  -0.262  -0.455  1.00  0.00     0.153 A 
HETATM   18  C9  UNL     1       2.886  -2.361  -0.864  1.00  0.00     0.679 A 
ATOM     19  H5  UNL     1       4.172  -1.352   0.368  1.00  0.00     0.184 HD
HETATM   20  N7  UNL     1       1.695  -2.377  -1.457  1.00  0.00    -0.154 N 
HETATM   21  C10 UNL     1       0.839  -1.330  -1.251  1.00  0.00     0.289 A 
ATOM     22  H7  UNL     1       1.425  -3.157  -2.056  1.00  0.00     0.187 HD
HETATM   23  O3  UNL     1      -0.278  -1.360  -1.817  1.00  0.00    -0.265 OA
BRANCH   9  24
HETATM   24  N3  UNL     1       0.293   3.844   1.551  1.00  0.00    -0.331 N 
ATOM     25  H32 UNL     1       1.207   3.853   2.003  1.00  0.00     0.177 HD
ATOM     26  H31 UNL     1      -0.346   4.625   1.702  1.00  0.00     0.177 HD
ENDBRANCH   9  24
BRANCH  18  27
HETATM   27  N6  UNL     1       3.706  -3.334  -1.042  1.00  0.00    -0.234 N 
ATOM     28  H62 UNL     1       4.619  -3.322  -0.587  1.00  0.00     0.174 HD
ATOM     29  H61 UNL     1       3.427  -4.110  -1.642  1.00  0.00     0.174 HD
ENDBRANCH  18  27
ENDBRANCH   6   7
ENDBRANCH   5   6
ENDBRANCH   4   5
ENDBRANCH   3   4
TORSDOF 6
