REMARK  5 active torsions:
REMARK  status: ('A' for Active; 'I' for Inactive)
REMARK    1  A    between atoms: C2_2  and  O1_3 
REMARK    2  A    between atoms: O1_3  and  C3_4 
REMARK    3  A    between atoms: C3_4  and  C4_5 
REMARK    4  A    between atoms: C4_5  and  N1_6 
REMARK    5  A    between atoms: C6_11  and  N3_12 
ROOT
HETATM    1  N1  UNL     1       0.210  -0.558   0.086  1.00  0.00    -0.353 N 
ATOM      2  H1  UNL     1       0.025  -1.463   0.518  1.00  0.00     0.166 HD
HETATM    3  C5  UNL     1      -0.851   0.071   0.026  1.00  0.00     0.139 C 
HETATM    4  N2  UNL     1      -0.932   1.330  -0.504  1.00  0.00    -0.176 N 
ATOM      5  H2  UNL     1      -0.168   1.959  -0.256  1.00  0.00     0.186 HD
HETATM    6  C6  UNL     1      -1.872   1.855  -1.302  1.00  0.00     0.680 C 
HETATM    7  N4  UNL     1      -3.186   1.493  -1.338  1.00  0.00    -0.154 N 
ATOM      8  H4  UNL     1      -3.765   2.011  -1.999  1.00  0.00     0.187 HD
HETATM    9  C7  UNL     1      -3.828   0.545  -0.622  1.00  0.00     0.287 C 
HETATM   10  O2  UNL     1      -5.066   0.498  -0.728  1.00  0.00    -0.265 OA
HETATM   11  C8  UNL     1      -3.293  -0.416   0.242  1.00  0.00     0.125 A 
HETATM   12  N5  UNL     1      -4.235  -1.194   0.828  1.00  0.00    -0.303 N 
ATOM     13  H5  UNL     1      -5.218  -1.034   0.608  1.00  0.00     0.171 HD
HETATM   14  C9  UNL     1      -3.904  -2.185   1.703  1.00  0.00     0.327 A 
HETATM   15  O3  UNL     1      -4.816  -2.898   2.236  1.00  0.00    -0.247 OA
HETATM   16  N6  UNL     1      -2.612  -2.391   1.986  1.00  0.00    -0.275 N 
ATOM     17  H6  UNL     1      -2.354  -3.131   2.639  1.00  0.00     0.173 HD
HETATM   18  C10 UNL     1      -1.633  -1.629   1.416  1.00  0.00     0.265 A 
HETATM   19  O4  UNL     1      -0.423  -1.826   1.685  1.00  0.00    -0.267 OA
HETATM   20  C11 UNL     1      -1.967  -0.628   0.533  1.00  0.00     0.109 A 
ENDROOT
BRANCH   1  21
HETATM   21  C4  UNL     1       1.563  -0.484  -0.219  1.00  0.00     0.088 C 
BRANCH  21  22
HETATM   22  C3  UNL     1       2.193   0.839  -0.489  1.00  0.00     0.212 C 
BRANCH  22  23
HETATM   23  O1  UNL     1       3.534   0.711  -0.781  1.00  0.00    -0.387 OA
BRANCH  23  24
HETATM   24  C2  UNL     1       4.331   0.154   0.175  1.00  0.00     0.163 C 
HETATM   25  C1  UNL     1       5.790   0.115  -0.260  1.00  0.00     0.033 C 
ENDBRANCH  23  24
ENDBRANCH  22  23
ENDBRANCH  21  22
ENDBRANCH   1  21
BRANCH   6  26
HETATM   26  N3  UNL     1      -1.512   2.795  -2.122  1.00  0.00    -0.234 N 
ATOM     27  H32 UNL     1      -0.529   3.066  -2.095  1.00  0.00     0.174 HD
ATOM     28  H31 UNL     1      -2.227   3.195  -2.729  1.00  0.00     0.174 HD
ENDBRANCH   6  26
TORSDOF 5
