REMARK  3 active torsions:
REMARK  status: ('A' for Active; 'I' for Inactive)
REMARK    1  A    between atoms: N1_1  and  N2_4 
REMARK       I    between atoms: C1_6  and  N4_8 
REMARK    2  A    between atoms: N4_8  and  N5_10 
REMARK    3  A    between atoms: N5_10  and  C2_12 
ROOT
HETATM    1  N2  UNL     1      -1.313   0.852   0.188  1.00  0.00    -0.279 N 
ATOM      2  H2  UNL     1      -0.441   1.327   0.419  1.00  0.00     0.189 HD
HETATM    3  C1  UNL     1      -1.356  -0.420   0.117  1.00  0.00     0.221 C 
HETATM    4  N3  UNL     1      -2.556  -1.083  -0.201  1.00  0.00    -0.061 NA
HETATM    5  N4  UNL     1      -0.183  -1.167   0.361  1.00  0.00    -0.270 N 
ATOM      6  H4  UNL     1      -0.104  -1.742   1.200  1.00  0.00     0.189 HD
ENDROOT
BRANCH   5   7
HETATM    7  N5  UNL     1       0.873  -1.111  -0.560  1.00  0.00    -0.268 N 
ATOM      8  H5  UNL     1       0.931  -1.819  -1.292  1.00  0.00     0.190 HD
BRANCH   7   9
HETATM    9  C2  UNL     1       1.869  -0.090  -0.500  1.00  0.00     0.206 A 
HETATM   10  N6  UNL     1       1.755   1.210  -0.401  1.00  0.00    -0.279 N 
HETATM   11  C3  UNL     1       3.176   1.337  -0.415  1.00  0.00     0.329 A 
ATOM     12  H6  UNL     1       0.973   1.863  -0.339  1.00  0.00     0.173 HD
HETATM   13  O1  UNL     1       3.973   2.323  -0.354  1.00  0.00    -0.246 OA
HETATM   14  N7  UNL     1       3.282  -0.065  -0.522  1.00  0.00    -0.279 N 
ATOM     15  H7  UNL     1       4.035  -0.750  -0.586  1.00  0.00     0.173 HD
ENDBRANCH   7   9
ENDBRANCH   5   7
BRANCH   1  16
HETATM   16  N1  UNL     1      -2.470   1.583  -0.054  1.00  0.00    -0.343 N 
ATOM     17  H12 UNL     1      -3.334   1.093  -0.284  1.00  0.00     0.176 HD
ATOM     18  H11 UNL     1      -2.436   2.601   0.003  1.00  0.00     0.176 HD
ENDBRANCH   1  16
TORSDOF 3
