REMARK  5 active torsions:
REMARK  status: ('A' for Active; 'I' for Inactive)
REMARK    1  A    between atoms: N1_3  and  N2_5 
REMARK    2  A    between atoms: N2_5  and  C3_7 
REMARK    3  A    between atoms: C7_17  and  C8_18 
REMARK    4  A    between atoms: C8_18  and  N5_19 
REMARK    5  A    between atoms: C8_18  and  N6_23 
ROOT
HETATM    1  C3  UNL     1       0.041   0.227  -0.119  1.00  0.00     0.134 C 
HETATM    2  N3  UNL     1       0.333   1.556  -0.033  1.00  0.00    -0.303 N 
ATOM      3  H3  UNL     1       1.312   1.791   0.129  1.00  0.00     0.171 HD
HETATM    4  C4  UNL     1      -0.517   2.594  -0.136  1.00  0.00     0.315 C 
HETATM    5  O1  UNL     1       0.024   3.723  -0.170  1.00  0.00    -0.262 OA
HETATM    6  C5  UNL     1      -1.912   2.589  -0.211  1.00  0.00     0.313 C 
HETATM    7  O2  UNL     1      -2.415   3.754  -0.344  1.00  0.00    -0.262 OA
HETATM    8  N4  UNL     1      -2.778   1.568  -0.164  1.00  0.00    -0.328 N 
ATOM      9  H4  UNL     1      -3.770   1.798  -0.220  1.00  0.00     0.168 HD
HETATM   10  C6  UNL     1      -2.452   0.246  -0.048  1.00  0.00     0.106 C 
HETATM   11  C7  UNL     1      -1.208  -0.354  -0.071  1.00  0.00     0.060 C 
ENDROOT
BRANCH  11  12
HETATM   12  C8  UNL     1      -1.220  -1.841  -0.038  1.00  0.00     0.416 C 
BRANCH  12  13
HETATM   13  N5  UNL     1      -2.137  -2.353   0.939  1.00  0.00    -0.046 N 
ATOM     14  H53 UNL     1      -1.947  -1.965   1.863  1.00  0.00     0.277 HD
ATOM     15  H52 UNL     1      -3.075  -1.979   0.796  1.00  0.00     0.277 HD
ATOM     16  H51 UNL     1      -2.145  -3.373   0.962  1.00  0.00     0.277 HD
ENDBRANCH  12  13
BRANCH  12  17
HETATM   17  N6  UNL     1      -1.551  -2.276  -1.393  1.00  0.00    -0.046 N 
ATOM     18  H63 UNL     1      -2.417  -1.871  -1.749  1.00  0.00     0.277 HD
ATOM     19  H62 UNL     1      -0.931  -1.891  -2.106  1.00  0.00     0.277 HD
ATOM     20  H61 UNL     1      -1.559  -3.296  -1.370  1.00  0.00     0.277 HD
ENDBRANCH  12  17
ENDBRANCH  11  12
BRANCH   1  21
HETATM   21  N2  UNL     1       1.024  -0.569  -0.259  1.00  0.00    -0.285 N 
ATOM     22  H2  UNL     1       0.813  -1.565  -0.324  1.00  0.00     0.188 HD
BRANCH  21  23
HETATM   23  N1  UNL     1       2.347  -0.199  -0.330  1.00  0.00    -0.315 N 
HETATM   24  C2  UNL     1       3.162  -0.210   0.669  1.00  0.00     0.075 C 
HETATM   25  C1  UNL     1       4.564   0.230   0.386  1.00  0.00     0.056 C 
ATOM     26  H1  UNL     1       2.708   0.105  -1.234  1.00  0.00     0.185 HD
ENDBRANCH  21  23
ENDBRANCH   1  21
TORSDOF 5
