REMARK  2 active torsions:
REMARK  status: ('A' for Active; 'I' for Inactive)
REMARK    1  A    between atoms: O1_2  and  N1_3 
REMARK    2  A    between atoms: N1_3  and  C2_5 
ROOT
HETATM    1  C2  UNL     1       0.854  -1.216  -0.210  1.00  0.00     0.196 C 
HETATM    2  N2  UNL     1       0.450  -0.027  -0.737  1.00  0.00    -0.321 N 
ATOM      3  H2  UNL     1       1.041   0.400  -1.450  1.00  0.00     0.169 HD
HETATM    4  C3  UNL     1      -0.684   0.630  -0.380  1.00  0.00     0.144 A 
HETATM    5  N3  UNL     1      -0.900   1.946  -0.604  1.00  0.00    -0.292 N 
ATOM      6  H3  UNL     1      -0.267   2.607  -1.055  1.00  0.00     0.172 HD
HETATM    7  C4  UNL     1      -2.110   2.199  -0.113  1.00  0.00     0.326 A 
HETATM    8  O2  UNL     1      -2.643   3.349  -0.151  1.00  0.00    -0.247 OA
HETATM    9  N4  UNL     1      -2.681   1.117   0.412  1.00  0.00    -0.301 N 
ATOM     10  H4  UNL     1      -3.602   1.060   0.847  1.00  0.00     0.171 HD
HETATM   11  C5  UNL     1      -1.794   0.110   0.253  1.00  0.00     0.149 A 
HETATM   12  C6  UNL     1      -2.095  -1.159   0.702  1.00  0.00     0.279 C 
HETATM   13  O3  UNL     1      -3.270  -1.408   1.076  1.00  0.00    -0.265 OA
HETATM   14  N5  UNL     1      -1.192  -2.179   0.767  1.00  0.00    -0.285 N 
ATOM     15  H5  UNL     1      -1.557  -3.063   1.122  1.00  0.00     0.172 HD
HETATM   16  C7  UNL     1       0.112  -2.187   0.430  1.00  0.00     0.294 C 
HETATM   17  O4  UNL     1       0.786  -3.208   0.724  1.00  0.00    -0.264 OA
ENDROOT
BRANCH   1  18
HETATM   18  N1  UNL     1       2.118  -1.409  -0.358  1.00  0.00    -0.246 N 
ATOM     19  H1  UNL     1       2.521  -2.273   0.005  1.00  0.00     0.196 HD
BRANCH  18  20
HETATM   20  O1  UNL     1       2.943  -0.522  -0.972  1.00  0.00    -0.284 OA
HETATM   21  C1  UNL     1       3.517   0.544  -0.253  1.00  0.00     0.237 C 
ENDBRANCH  18  20
ENDBRANCH   1  18
TORSDOF 2
