REMARK  5 active torsions:
REMARK  status: ('A' for Active; 'I' for Inactive)
REMARK    1  A    between atoms: N1_2  and  C2_4 
REMARK    2  A    between atoms: C3_7  and  N3_8 
REMARK    3  A    between atoms: N3_8  and  N4_10 
REMARK    4  A    between atoms: C6_18  and  C7_19 
REMARK    5  A    between atoms: N7_20  and  N8_22 
ROOT
HETATM    1  C2  UNL     1       0.198   0.452   0.393  1.00  0.00     0.131 A 
HETATM    2  N2  UNL     1       1.383  -0.182   0.407  1.00  0.00    -0.175 N 
ATOM      3  H2  UNL     1       2.138   0.206   0.972  1.00  0.00     0.186 HD
HETATM    4  C3  UNL     1       1.614  -1.305  -0.292  1.00  0.00     0.699 A 
HETATM    5  N5  UNL     1       0.598  -1.788  -1.026  1.00  0.00    -0.179 N 
ATOM      6  H5  UNL     1       0.746  -2.640  -1.568  1.00  0.00     0.185 HD
HETATM    7  C4  UNL     1      -0.621  -1.185  -1.075  1.00  0.00     0.145 A 
HETATM    8  C5  UNL     1      -1.651  -1.759  -1.879  1.00  0.00     0.119 C 
HETATM    9  N6  UNL     1      -2.473  -2.246  -2.540  1.00  0.00    -0.190 NA
HETATM   10  C6  UNL     1      -0.872  -0.036  -0.366  1.00  0.00     0.063 A 
ENDROOT
BRANCH  10  11
HETATM   11  C7  UNL     1      -2.118   0.680  -0.347  1.00  0.00     0.124 C 
HETATM   12  N7  UNL     1      -3.132   0.292  -1.013  1.00  0.00    -0.317 N 
ATOM     13  H7  UNL     1      -3.059  -0.554  -1.579  1.00  0.00     0.185 HD
BRANCH  12  14
HETATM   14  N8  UNL     1      -4.336   0.987  -0.992  1.00  0.00    -0.345 N 
ATOM     15  H82 UNL     1      -4.392   1.831  -0.421  1.00  0.00     0.176 HD
ATOM     16  H81 UNL     1      -5.148   0.676  -1.525  1.00  0.00     0.176 HD
ENDBRANCH  12  14
ENDBRANCH  10  11
BRANCH   4  17
HETATM   17  N3  UNL     1       2.769  -1.903  -0.263  1.00  0.00    -0.138 N 
ATOM     18  H3  UNL     1       2.923  -2.756  -0.801  1.00  0.00     0.205 HD
BRANCH  17  19
HETATM   19  N4  UNL     1       3.797  -1.362   0.515  1.00  0.00    -0.331 N 
ATOM     20  H42 UNL     1       3.627  -0.509   1.047  1.00  0.00     0.177 HD
ATOM     21  H41 UNL     1       4.703  -1.831   0.538  1.00  0.00     0.177 HD
ENDBRANCH  17  19
ENDBRANCH   4  17
BRANCH   1  22
HETATM   22  N1  UNL     1      -0.015   1.530   1.067  1.00  0.00    -0.379 N 
HETATM   23  C1  UNL     1       1.084   2.047   1.857  1.00  0.00     0.147 C 
ATOM     24  H1  UNL     1      -0.920   2.000   1.045  1.00  0.00     0.160 HD
ENDBRANCH   1  22
TORSDOF 5
