REMARK  3 active torsions:
REMARK  status: ('A' for Active; 'I' for Inactive)
REMARK    1  A    between atoms: N1_1  and  N2_4 
REMARK       I    between atoms: N2_4  and  C1_6 
REMARK    2  A    between atoms: C1_6  and  C2_8 
REMARK    3  A    between atoms: C4_15  and  C5_16 
ROOT
HETATM    1  C2  UNL     1      -0.583  -0.058   0.063  1.00  0.00     0.191 A 
HETATM    2  N3  UNL     1      -0.790  -1.382  -0.161  1.00  0.00    -0.278 N 
ATOM      3  H3  UNL     1      -1.745  -1.738  -0.191  1.00  0.00     0.189 HD
HETATM    4  N4  UNL     1       0.217  -2.221  -0.341  1.00  0.00    -0.263 N 
ATOM      5  H4  UNL     1       0.011  -3.206  -0.504  1.00  0.00     0.190 HD
HETATM    6  C3  UNL     1       1.503  -1.825  -0.317  1.00  0.00     0.291 A 
HETATM    7  O2  UNL     1       2.454  -2.647  -0.493  1.00  0.00    -0.264 OA
HETATM    8  C4  UNL     1       1.748  -0.486  -0.092  1.00  0.00     0.169 A 
HETATM    9  N6  UNL     1       0.701   0.343   0.088  1.00  0.00    -0.328 N 
ATOM     10  H6  UNL     1       0.893   1.331   0.253  1.00  0.00     0.168 HD
ENDROOT
BRANCH   1  11
HETATM   11  C1  UNL     1      -1.689   0.867   0.261  1.00  0.00     0.304 C 
HETATM   12  N2  UNL     1      -3.037   0.486   0.242  1.00  0.00    -0.270 N 
ATOM     13  H2  UNL     1      -3.251  -0.498   0.079  1.00  0.00     0.189 HD
HETATM   14  O1  UNL     1      -1.406   2.073   0.462  1.00  0.00    -0.263 OA
BRANCH  12  15
HETATM   15  N1  UNL     1      -4.093   1.352   0.429  1.00  0.00    -0.342 N 
ATOM     16  H12 UNL     1      -3.860   2.332   0.591  1.00  0.00     0.176 HD
ATOM     17  H11 UNL     1      -5.074   1.075   0.415  1.00  0.00     0.176 HD
ENDBRANCH  12  15
ENDBRANCH   1  11
BRANCH   8  18
HETATM   18  C5  UNL     1       3.125   0.005  -0.054  1.00  0.00     0.287 C 
HETATM   19  N5  UNL     1       3.361   1.379   0.177  1.00  0.00    -0.056 NA
HETATM   20  O3  UNL     1       4.072  -0.790  -0.225  1.00  0.00    -0.269 OA
ENDBRANCH   8  18
TORSDOF 3
