REMARK  7 active torsions:
REMARK  status: ('A' for Active; 'I' for Inactive)
REMARK    1  A    between atoms: N1_1  and  C1_5 
REMARK    2  A    between atoms: C1_5  and  C2_6 
REMARK    3  A    between atoms: C2_6  and  O1_7 
REMARK    4  A    between atoms: C2_6  and  C3_9 
REMARK    5  A    between atoms: C3_9  and  C4_10 
REMARK    6  A    between atoms: C3_9  and  N2_12 
REMARK    7  A    between atoms: C5_14  and  C6_15 
ROOT
HETATM    1  N2  UNL     1      -0.520  -0.049   0.045  1.00  0.00    -0.385 N 
ATOM      2  H2  UNL     1      -0.533  -0.710   0.822  1.00  0.00     0.159 HD
HETATM    3  C5  UNL     1       0.607   0.353  -0.407  1.00  0.00     0.104 C 
ENDROOT
BRANCH   1   4
HETATM    4  C3  UNL     1      -1.773   0.403  -0.510  1.00  0.00     0.173 C 
BRANCH   4   5
HETATM    5  C2  UNL     1      -2.912  -0.545  -0.190  1.00  0.00     0.172 C 
BRANCH   5   6
HETATM    6  C1  UNL     1      -3.137  -0.673   1.298  1.00  0.00     0.263 C 
BRANCH   6   7
HETATM    7  N1  UNL     1      -3.418   0.604   1.889  1.00  0.00    -0.077 N 
ATOM      8  H13 UNL     1      -2.689   1.285   1.676  1.00  0.00     0.274 HD
ATOM      9  H12 UNL     1      -4.202   1.067   1.429  1.00  0.00     0.274 HD
ATOM     10  H11 UNL     1      -3.570   0.518   2.894  1.00  0.00     0.274 HD
ENDBRANCH   6   7
ENDBRANCH   5   6
BRANCH   5  11
HETATM   11  O1  UNL     1      -4.063  -0.018  -0.767  1.00  0.00    -0.391 OA
ATOM     12  H1  UNL     1      -3.921   0.063  -1.703  1.00  0.00     0.210 HD
ENDBRANCH   5  11
ENDBRANCH   4   5
BRANCH   4  13
HETATM   13  C4  UNL     1      -1.718   0.487  -2.010  1.00  0.00     0.258 C 
HETATM   14  O2  UNL     1      -2.685   0.850  -2.634  1.00  0.00    -0.305 OA
ENDBRANCH   4  13
ENDBRANCH   1   4
BRANCH   3  15
HETATM   15  C6  UNL     1       1.891  -0.079   0.124  1.00  0.00     0.088 A 
HETATM   16  C7  UNL     1       3.068   0.394  -0.411  1.00  0.00     0.137 A 
HETATM   17  N3  UNL     1       2.993   1.302  -1.480  1.00  0.00    -0.081 NA
HETATM   18  N4  UNL     1       4.288   0.010   0.062  1.00  0.00    -0.296 N 
HETATM   19  C8  UNL     1       4.359  -0.855   1.080  1.00  0.00     0.328 A 
ATOM     20  H4  UNL     1       5.141   0.380  -0.358  1.00  0.00     0.171 HD
HETATM   21  O3  UNL     1       5.493  -1.198   1.504  1.00  0.00    -0.247 OA
HETATM   22  N5  UNL     1       3.221  -1.330   1.617  1.00  0.00    -0.275 N 
HETATM   23  C9  UNL     1       2.002  -0.971   1.173  1.00  0.00     0.264 A 
ATOM     24  H5  UNL     1       3.284  -1.989   2.393  1.00  0.00     0.173 HD
HETATM   25  O4  UNL     1       0.970  -1.445   1.713  1.00  0.00    -0.267 OA
ENDBRANCH   3  15
TORSDOF 7
