REMARK  10 active torsions:
REMARK  status: ('A' for Active; 'I' for Inactive)
REMARK    1  A    between atoms: N1_1  and  C1_4 
REMARK    2  A    between atoms: N3_9  and  C3_10 
REMARK    3  A    between atoms: C3_10  and  C4_11 
REMARK    4  A    between atoms: C4_11  and  C5_12 
REMARK    5  A    between atoms: C5_12  and  N4_13 
REMARK    6  A    between atoms: C5_12  and  C6_17 
REMARK    7  A    between atoms: C6_17  and  C7_18 
REMARK    8  A    between atoms: C7_18  and  C8_19 
REMARK    9  A    between atoms: C8_19  and  N5_20 
REMARK   10  A    between atoms: N5_20  and  N6_21 
ROOT
HETATM    1  C3  UNL     1      -1.315  -0.638   0.302  1.00  0.00     0.141 C 
ENDROOT
BRANCH   1   2
HETATM    2  N3  UNL     1      -2.734  -0.390   0.272  1.00  0.00    -0.250 N 
HETATM    3  C2  UNL     1      -3.635  -1.275  -0.186  1.00  0.00     0.344 A 
HETATM    4  N2  UNL     1      -4.957  -0.985  -0.189  1.00  0.00    -0.141 N 
HETATM    5  O1  UNL     1      -3.215  -2.382  -0.612  1.00  0.00    -0.246 OA
HETATM    6  C1  UNL     1      -5.400   0.198   0.266  1.00  0.00     0.683 A 
ATOM      7  H2  UNL     1      -5.624  -1.672  -0.541  1.00  0.00     0.189 HD
HETATM    8  N7  UNL     1      -4.510   1.093   0.727  1.00  0.00    -0.141 N 
HETATM    9  C9  UNL     1      -3.203   0.781   0.720  1.00  0.00     0.344 A 
ATOM     10  H7  UNL     1      -4.823   1.998   1.078  1.00  0.00     0.189 HD
HETATM   11  O2  UNL     1      -2.394   1.634   1.155  1.00  0.00    -0.246 OA
BRANCH   6  12
HETATM   12  N1  UNL     1      -6.671   0.476   0.263  1.00  0.00    -0.234 N 
ATOM     13  H12 UNL     1      -7.347  -0.203  -0.087  1.00  0.00     0.174 HD
ATOM     14  H11 UNL     1      -7.008   1.375   0.609  1.00  0.00     0.174 HD
ENDBRANCH   6  12
ENDBRANCH   1   2
BRANCH   1  15
HETATM   15  C4  UNL     1      -0.721  -0.177  -0.981  1.00  0.00     0.053 C 
BRANCH  15  16
HETATM   16  C5  UNL     1       0.763  -0.377  -1.086  1.00  0.00     0.185 C 
BRANCH  16  17
HETATM   17  N4  UNL     1       1.122  -1.758  -0.970  1.00  0.00    -0.075 N 
ATOM     18  H43 UNL     1       0.752  -2.167  -0.112  1.00  0.00     0.274 HD
ATOM     19  H42 UNL     1       0.621  -2.331  -1.649  1.00  0.00     0.274 HD
ATOM     20  H41 UNL     1       2.130  -1.894  -1.041  1.00  0.00     0.274 HD
ENDBRANCH  16  17
BRANCH  16  21
HETATM   21  C6  UNL     1       1.542   0.416  -0.080  1.00  0.00     0.034 C 
BRANCH  21  22
HETATM   22  C7  UNL     1       3.013   0.108  -0.314  1.00  0.00     0.020 C 
BRANCH  22  23
HETATM   23  C8  UNL     1       3.895   0.860   0.653  1.00  0.00     0.134 C 
BRANCH  23  24
HETATM   24  N5  UNL     1       5.270   0.493   0.341  1.00  0.00    -0.148 NA
BRANCH  24  25
HETATM   25  N6  UNL     1       6.183   1.138   1.185  1.00  0.00    -0.348 N 
ATOM     26  H62 UNL     1       5.903   1.783   1.924  1.00  0.00     0.172 HD
ATOM     27  H61 UNL     1       7.146   0.881   0.967  1.00  0.00     0.172 HD
ENDBRANCH  24  25
ENDBRANCH  23  24
ENDBRANCH  22  23
ENDBRANCH  21  22
ENDBRANCH  16  21
ENDBRANCH  15  16
ENDBRANCH   1  15
TORSDOF 10
