REMARK  7 active torsions:
REMARK  status: ('A' for Active; 'I' for Inactive)
REMARK       I    between atoms: C1_4  and  N2_5 
REMARK       I    between atoms: C1_4  and  N7_22 
REMARK    1  A    between atoms: N2_5  and  C2_7 
REMARK    2  A    between atoms: C2_7  and  C3_8 
REMARK    3  A    between atoms: C3_8  and  C4_9 
REMARK    4  A    between atoms: C4_9  and  N3_10 
REMARK    5  A    between atoms: N3_10  and  N4_12 
REMARK    6  A    between atoms: N4_12  and  C5_14 
REMARK    7  A    between atoms: N7_22  and  N8_24 
ROOT
HETATM    1  C3  UNL     1       1.687  -1.211   0.866  1.00  0.00     0.041 C 
ENDROOT
BRANCH   1   2
HETATM    2  C2  UNL     1       2.137   0.212   0.646  1.00  0.00     0.139 C 
BRANCH   2   3
HETATM    3  N2  UNL     1       2.789   0.417  -0.618  1.00  0.00    -0.225 N 
HETATM    4  C1  UNL     1       4.080  -0.202  -0.796  1.00  0.00     0.691 C 
HETATM    5  N1  UNL     1       4.342  -0.654  -1.969  1.00  0.00    -0.233 N 
HETATM    6  N7  UNL     1       4.994  -0.283   0.306  1.00  0.00    -0.072 N 
ATOM      7  H12 UNL     1       3.692  -0.596  -2.753  1.00  0.00     0.174 HD
ATOM      8  H11 UNL     1       5.255  -1.092  -2.095  1.00  0.00     0.174 HD
ATOM      9  H7  UNL     1       5.181  -1.188   0.738  1.00  0.00     0.212 HD
ATOM     10  H2  UNL     1       2.359   0.975  -1.356  1.00  0.00     0.177 HD
BRANCH   6  11
HETATM   11  N8  UNL     1       5.635   0.864   0.800  1.00  0.00    -0.024 N 
HETATM   12  O1  UNL     1       6.465   0.729   1.717  1.00  0.00    -0.516 OA
HETATM   13  O2  UNL     1       5.376   2.115   0.305  1.00  0.00    -0.516 OA
ENDBRANCH   6  11
ENDBRANCH   2   3
ENDBRANCH   1   2
BRANCH   1  14
HETATM   14  C4  UNL     1       0.671  -1.526  -0.250  1.00  0.00     0.141 C 
BRANCH  14  15
HETATM   15  N3  UNL     1      -0.375  -0.575  -0.062  1.00  0.00    -0.322 N 
ATOM     16  H3  UNL     1      -0.326   0.125   0.679  1.00  0.00     0.180 HD
BRANCH  15  17
HETATM   17  N4  UNL     1      -1.447  -0.634  -0.910  1.00  0.00    -0.137 N 
ATOM     18  H4  UNL     1      -1.347  -0.964  -1.870  1.00  0.00     0.205 HD
BRANCH  17  19
HETATM   19  C5  UNL     1      -2.712  -0.215  -0.396  1.00  0.00     0.688 C 
HETATM   20  N5  UNL     1      -2.889  -0.088   0.899  1.00  0.00    -0.225 N 
HETATM   21  C6  UNL     1      -4.134   0.330   1.454  1.00  0.00     0.139 C 
ATOM     22  H5  UNL     1      -2.112  -0.295   1.527  1.00  0.00     0.177 HD
HETATM   23  C7  UNL     1      -4.760   1.404   0.602  1.00  0.00     0.040 C 
HETATM   24  C8  UNL     1      -4.851   1.052  -0.844  1.00  0.00     0.139 C 
HETATM   25  N6  UNL     1      -3.829   0.082  -1.224  1.00  0.00    -0.225 N 
ATOM     26  H6  UNL     1      -3.919  -0.401  -2.118  1.00  0.00     0.177 HD
ENDBRANCH  17  19
ENDBRANCH  15  17
ENDBRANCH  14  15
ENDBRANCH   1  14
TORSDOF 7
