REMARK  7 active torsions:
REMARK  status: ('A' for Active; 'I' for Inactive)
REMARK    1  A    between atoms: C2_2  and  N1_3 
REMARK       I    between atoms: N1_3  and  C3_5 
REMARK    2  A    between atoms: C3_5  and  C4_7 
REMARK    3  A    between atoms: N3_13  and  C6_14 
REMARK    4  A    between atoms: C6_14  and  N4_16 
REMARK    5  A    between atoms: N4_16  and  C7_18 
REMARK    6  A    between atoms: C7_18  and  C10_21 
REMARK    7  A    between atoms: C10_21  and  O3_22 
ROOT
HETATM    1  C4  UNL     1       2.208  -0.993   0.338  1.00  0.00     0.228 C 
HETATM    2 BR1  UNL     1       2.428  -2.296  -1.002  1.00  0.00    -0.043 Br
HETATM    3  N2  UNL     1       1.909  -1.458   1.649  1.00  0.00    -0.309 N 
ATOM      4  H2  UNL     1       2.585  -1.569   2.405  1.00  0.00     0.166 HD
HETATM    5  C5  UNL     1       0.536  -1.740   1.737  1.00  0.00     0.331 C 
HETATM    6  O2  UNL     1      -0.031  -2.516   2.499  1.00  0.00    -0.246 OA
HETATM    7  N3  UNL     1      -0.128  -0.902   0.715  1.00  0.00    -0.230 N 
HETATM    8  C11 UNL     1       0.908  -0.202   0.091  1.00  0.00     0.140 C 
HETATM    9  S2  UNL     1       0.819   1.167  -0.778  1.00  0.00    -0.060 SA
ENDROOT
BRANCH   7  10
HETATM   10  C6  UNL     1      -1.541  -0.939   0.523  1.00  0.00     0.184 C 
HETATM   11  S1  UNL     1      -2.330  -2.274   1.100  1.00  0.00    -0.040 SA
BRANCH  10  12
HETATM   12  N4  UNL     1      -2.278   0.161   0.058  1.00  0.00    -0.356 N 
ATOM     13  H4  UNL     1      -1.738   1.001  -0.153  1.00  0.00     0.162 HD
BRANCH  12  14
HETATM   14  C7  UNL     1      -3.686   0.256  -0.158  1.00  0.00     0.046 C 
HETATM   15  C8  UNL     1      -4.139   0.010  -1.556  1.00  0.00     0.040 C 
HETATM   16  C9  UNL     1      -4.532  -0.585   0.797  1.00  0.00     0.040 C 
BRANCH  14  17
HETATM   17  C10 UNL     1      -4.117   1.707   0.192  1.00  0.00     0.194 C 
BRANCH  17  18
HETATM   18  O3  UNL     1      -5.474   1.828   0.049  1.00  0.00    -0.398 OA
ATOM     19  H3  UNL     1      -5.738   2.715   0.263  1.00  0.00     0.209 HD
ENDBRANCH  17  18
ENDBRANCH  14  17
ENDBRANCH  12  14
ENDBRANCH  10  12
ENDBRANCH   7  10
BRANCH   1  20
HETATM   20  C3  UNL     1       3.321   0.020   0.366  1.00  0.00     0.264 C 
HETATM   21  N1  UNL     1       4.672  -0.583   0.394  1.00  0.00    -0.358 N 
ATOM     22  H1  UNL     1       4.764  -1.599   0.402  1.00  0.00     0.162 HD
HETATM   23  O1  UNL     1       3.146   1.203   0.374  1.00  0.00    -0.269 OA
BRANCH  21  24
HETATM   24  C2  UNL     1       5.841   0.219   0.410  1.00  0.00     0.118 C 
HETATM   25  C1  UNL     1       6.071   1.046  -0.812  1.00  0.00     0.026 C 
ENDBRANCH  21  24
ENDBRANCH   1  20
TORSDOF 7
