REMARK  7 active torsions:
REMARK  status: ('A' for Active; 'I' for Inactive)
REMARK    1  A    between atoms: C3_3  and  C4_4 
REMARK    2  A    between atoms: C5_5  and  C6_6 
REMARK       I    between atoms: C6_6  and  N1_8 
REMARK    3  A    between atoms: N1_8  and  N2_10 
REMARK       I    between atoms: N2_10  and  C7_12 
REMARK    4  A    between atoms: C7_12  and  C8_14 
REMARK    5  A    between atoms: N3_16  and  N4_18 
REMARK       I    between atoms: N4_18  and  C10_19 
REMARK    6  A    between atoms: C10_19  and  C11_21 
REMARK    7  A    between atoms: C11_21  and  C12_22 
ROOT
HETATM    1  C1  UNL     1      10.482   1.481   1.034  1.00  0.00     0.113 C 
HETATM    2  C2  UNL     1       9.125   1.254   0.457  1.00  0.00    -0.097 C 
HETATM    3  C3  UNL     1       8.023   1.059   0.020  1.00  0.00    -0.015 C 
ENDROOT
BRANCH   3   4
HETATM    4  C4  UNL     1       6.702   0.807  -0.467  1.00  0.00    -0.005 C 
HETATM    5  C5  UNL     1       5.585   0.569  -0.854  1.00  0.00     0.010 C 
BRANCH   5   6
HETATM    6  C6  UNL     1       4.220   0.249  -1.282  1.00  0.00     0.315 C 
HETATM    7  O1  UNL     1       3.838   0.720  -2.358  1.00  0.00    -0.256 OA
HETATM    8  N1  UNL     1       3.426  -0.566  -0.469  1.00  0.00    -0.256 N 
ATOM      9  H1  UNL     1       3.811  -0.909   0.411  1.00  0.00     0.191 HD
BRANCH   8  10
HETATM   10  N2  UNL     1       2.132  -0.923  -0.820  1.00  0.00    -0.262 N 
HETATM   11  C7  UNL     1       1.065  -0.507  -0.003  1.00  0.00     0.284 C 
HETATM   12  O2  UNL     1       1.356   0.204   1.016  1.00  0.00    -0.265 OA
ATOM     13  H2  UNL     1       1.957  -1.478  -1.657  1.00  0.00     0.190 HD
BRANCH  11  14
HETATM   14  C8  UNL     1      -0.320  -0.832  -0.242  1.00  0.00     0.103 C 
HETATM   15  C9  UNL     1      -0.715  -1.674  -1.408  1.00  0.00     0.077 C 
HETATM   16  N3  UNL     1      -1.281  -0.416   0.539  1.00  0.00    -0.232 N 
ATOM     17  H3  UNL     1      -1.014   0.163   1.335  1.00  0.00     0.202 HD
BRANCH  16  18
HETATM   18  N4  UNL     1      -2.581  -0.681   0.389  1.00  0.00    -0.286 NA
HETATM   19  C10 UNL     1      -3.865  -0.942   0.240  1.00  0.00     0.316 C 
HETATM   20  O3  UNL     1      -4.535  -1.816   0.919  1.00  0.00    -0.255 OA
BRANCH  19  21
HETATM   21  C11 UNL     1      -4.812  -0.254  -0.761  1.00  0.00     0.162 C 
BRANCH  21  22
HETATM   22  C12 UNL     1      -5.923   0.335   0.062  1.00  0.00    -0.014 A 
HETATM   23  C13 UNL     1      -7.153  -0.184   0.383  1.00  0.00     0.096 A 
HETATM   24  N5  UNL     1      -7.794   0.664   1.196  1.00  0.00    -0.373 N 
HETATM   25  C14 UNL     1      -7.026   1.754   1.435  1.00  0.00     0.107 A 
ATOM     26  H5  UNL     1      -8.726   0.512   1.580  1.00  0.00     0.164 HD
HETATM   27  C15 UNL     1      -5.868   1.545   0.726  1.00  0.00     0.034 A 
HETATM   28 BR1  UNL     1      -4.379   2.743   0.623  1.00  0.00    -0.049 Br
ENDBRANCH  21  22
ENDBRANCH  19  21
ENDBRANCH  16  18
ENDBRANCH  11  14
ENDBRANCH   8  10
ENDBRANCH   5   6
ENDBRANCH   3   4
TORSDOF 7
