REMARK  7 active torsions:
REMARK  status: ('A' for Active; 'I' for Inactive)
REMARK    1  A    between atoms: N1_2  and  C3_4 
REMARK    2  A    between atoms: C3_4  and  C4_5 
REMARK       I    between atoms: C4_5  and  N2_7 
REMARK    3  A    between atoms: N2_7  and  C5_9 
REMARK    4  A    between atoms: C7_16  and  N5_17 
REMARK    5  A    between atoms: N5_17  and  C8_19 
REMARK    6  A    between atoms: C10_21  and  C11_22 
REMARK    7  A    between atoms: C11_22  and  O3_23 
ROOT
HETATM    1  C5  UNL     1       1.867   0.051  -0.690  1.00  0.00     0.703 A 
HETATM    2  N3  UNL     1       2.140   0.511   0.548  1.00  0.00    -0.140 N 
ATOM      3  H3  UNL     1       3.080   0.825   0.791  1.00  0.00     0.189 HD
HETATM    4  C6  UNL     1       1.159   0.547   1.446  1.00  0.00     0.352 A 
HETATM    5  O2  UNL     1       1.314   0.962   2.638  1.00  0.00    -0.246 OA
HETATM    6  N4  UNL     1      -0.085   0.122   1.091  1.00  0.00    -0.140 N 
ATOM      7  H4  UNL     1      -0.837   0.151   1.780  1.00  0.00     0.189 HD
HETATM    8  C7  UNL     1      -0.346  -0.335  -0.148  1.00  0.00     0.697 A 
HETATM    9  N6  UNL     1       0.646  -0.366  -1.039  1.00  0.00    -0.022 N 
ATOM     10  H6  UNL     1       0.473  -0.707  -1.985  1.00  0.00     0.203 HD
ENDROOT
BRANCH   8  11
HETATM   11  N5  UNL     1      -1.551  -0.737  -0.460  1.00  0.00    -0.221 N 
ATOM     12  H5  UNL     1      -1.715  -1.077  -1.408  1.00  0.00     0.178 HD
BRANCH  11  13
HETATM   13  C8  UNL     1      -2.662  -0.727   0.461  1.00  0.00     0.101 C 
HETATM   14  C9  UNL     1      -3.163   0.705   0.565  1.00  0.00     0.034 C 
HETATM   15  C10 UNL     1      -4.363   0.699  -0.346  1.00  0.00     0.030 C 
HETATM   16  C12 UNL     1      -5.025  -0.601   0.061  1.00  0.00     0.022 C 
HETATM   17  C13 UNL     1      -6.152  -0.983  -0.855  1.00  0.00     0.028 C 
HETATM   18 BR1  UNL     1      -5.568  -0.493   1.892  1.00  0.00    -0.085 Br
HETATM   19  C14 UNL     1      -3.830  -1.545  -0.091  1.00  0.00     0.046 C 
BRANCH  15  20
HETATM   20  C11 UNL     1      -5.233   1.904  -0.187  1.00  0.00     0.170 C 
BRANCH  20  21
HETATM   21  O3  UNL     1      -5.730   2.025   1.094  1.00  0.00    -0.400 OA
ATOM     22  H3  UNL     1      -6.283   2.791   1.195  1.00  0.00     0.209 HD
ENDBRANCH  20  21
ENDBRANCH  15  20
ENDBRANCH  11  13
ENDBRANCH   8  11
BRANCH   1  23
HETATM   23  N2  UNL     1       2.805   0.011  -1.566  1.00  0.00    -0.157 N 
HETATM   24  C4  UNL     1       4.118   0.445  -1.238  1.00  0.00     0.264 C 
HETATM   25  O1  UNL     1       4.325   1.678  -1.160  1.00  0.00    -0.271 OA
ATOM     26  H2  UNL     1       2.606  -0.335  -2.505  1.00  0.00     0.187 HD
BRANCH  24  27
HETATM   27  C3  UNL     1       5.141  -0.595  -1.014  1.00  0.00     0.374 C 
BRANCH  27  28
HETATM   28  N1  UNL     1       6.438  -0.039  -0.687  1.00  0.00     0.088 N 
HETATM   29  C1  UNL     1       7.332  -1.192  -0.497  1.00  0.00     0.310 C 
HETATM   30  C2  UNL     1       6.432   0.686   0.569  1.00  0.00     0.310 C 
ENDBRANCH  27  28
ENDBRANCH  24  27
ENDBRANCH   1  23
TORSDOF 7
