REMARK  3 active torsions:
REMARK  status: ('A' for Active; 'I' for Inactive)
REMARK    1  A    between atoms: C2_2  and  O1_5 
REMARK    2  A    between atoms: O1_5  and  N1_6 
REMARK    3  A    between atoms: C8_11  and  N2_12 
ROOT
HETATM    1  N1  UNL     1      -0.065   0.831   0.503  1.00  0.00    -0.274 N 
ATOM      2  H1  UNL     1      -0.125   1.840   0.641  1.00  0.00     0.193 HD
HETATM    3  C5  UNL     1       1.007   0.386  -0.005  1.00  0.00     0.012 C 
HETATM    4  C6  UNL     1       1.415  -1.010  -0.335  1.00  0.00     0.056 C 
HETATM    5  C7  UNL     1       2.904  -1.004  -0.469  1.00  0.00     0.039 C 
HETATM    6  C8  UNL     1       3.312   0.347   0.082  1.00  0.00     0.189 C 
HETATM    7  C9  UNL     1       2.170   1.223  -0.409  1.00  0.00     0.087 C 
ENDROOT
BRANCH   1   8
HETATM    8  O1  UNL     1      -1.136   0.100   0.880  1.00  0.00    -0.271 OA
BRANCH   8   9
HETATM    9  C2  UNL     1      -2.385   0.104   0.214  1.00  0.00     0.078 C 
HETATM   10  C1  UNL     1      -2.968   1.491   0.216  1.00  0.00     0.048 C 
HETATM   11  C3  UNL     1      -2.113  -0.384  -1.205  1.00  0.00     0.048 C 
HETATM   12  C4  UNL     1      -3.344  -0.879   0.834  1.00  0.00     0.048 C 
ENDBRANCH   8   9
ENDBRANCH   1   8
BRANCH   6  13
HETATM   13  N2  UNL     1       3.243   0.276   1.540  1.00  0.00    -0.075 N 
ATOM     14  H23 UNL     1       2.331  -0.030   1.878  1.00  0.00     0.274 HD
ATOM     15  H22 UNL     1       3.794  -0.491   1.925  1.00  0.00     0.274 HD
ATOM     16  H21 UNL     1       3.518   1.186   1.911  1.00  0.00     0.274 HD
ENDBRANCH   6  13
TORSDOF 3
