REMARK  2 active torsions:
REMARK  status: ('A' for Active; 'I' for Inactive)
REMARK    1  A    between atoms: C2_5  and  N3_6 
REMARK    2  A    between atoms: N3_6  and  C3_8 
ROOT
HETATM    1  N1  UNL     1       5.694   1.288  -0.275  1.00  0.00    -0.172 NA
HETATM    2  C1  UNL     1       4.675   0.875   0.111  1.00  0.00     0.182 C 
HETATM    3  N2  UNL     1       3.478   0.368   0.579  1.00  0.00    -0.290 N 
ATOM      4  H2  UNL     1       3.075   0.738   1.440  1.00  0.00     0.178 HD
HETATM    5  C2  UNL     1       2.866  -0.567  -0.060  1.00  0.00     0.186 C 
ENDROOT
BRANCH   5   6
HETATM    6  N3  UNL     1       1.631  -1.102   0.408  1.00  0.00    -0.381 N 
ATOM      7  H3  UNL     1       1.649  -1.905   1.036  1.00  0.00     0.160 HD
BRANCH   6   8
HETATM    8  C3  UNL     1       0.348  -0.542   0.021  1.00  0.00     0.082 C 
HETATM    9  C4  UNL     1       0.334   0.894   0.486  1.00  0.00     0.025 C 
HETATM   10  C5  UNL     1      -1.068   1.290   0.879  1.00  0.00     0.002 C 
HETATM   11  C6  UNL     1      -1.906   1.284  -0.356  1.00  0.00     0.000 C 
HETATM   12  C7  UNL     1      -2.233  -0.067  -0.882  1.00  0.00     0.000 C 
HETATM   13  C8  UNL     1      -2.084  -1.176   0.116  1.00  0.00     0.002 C 
HETATM   14  C9  UNL     1      -0.719  -1.375   0.651  1.00  0.00     0.025 C 
ENDBRANCH   6   8
ENDBRANCH   5   6
TORSDOF 2
