REMARK  4 active torsions:
REMARK  status: ('A' for Active; 'I' for Inactive)
REMARK    1  A    between atoms: O1_2  and  N1_3 
REMARK    2  A    between atoms: N1_3  and  C2_5 
REMARK    3  A    between atoms: C2_5  and  N2_6 
REMARK    4  A    between atoms: N2_6  and  C3_8 
ROOT
HETATM    1  C3  UNL     1       0.251  -0.151  -0.246  1.00  0.00     0.091 C 
HETATM    2  C4  UNL     1      -0.590  -1.337   0.087  1.00  0.00     0.026 C 
HETATM    3  C5  UNL     1      -2.005  -1.251  -0.370  1.00  0.00     0.002 C 
HETATM    4  C6  UNL     1      -2.878  -0.583   0.673  1.00  0.00     0.000 C 
HETATM    5  C7  UNL     1      -2.869   0.894   0.398  1.00  0.00     0.000 C 
HETATM    6  C8  UNL     1      -1.457   1.409   0.527  1.00  0.00     0.002 C 
HETATM    7  C9  UNL     1      -0.590   1.071  -0.636  1.00  0.00     0.026 C 
ENDROOT
BRANCH   1   8
HETATM    8  N2  UNL     1       0.924   0.274   0.969  1.00  0.00    -0.337 N 
ATOM      9  H2  UNL     1       0.441   0.307   1.867  1.00  0.00     0.171 HD
BRANCH   8  10
HETATM   10  C2  UNL     1       2.149   0.604   0.855  1.00  0.00     0.069 C 
BRANCH  10  11
HETATM   11  N1  UNL     1       3.392   0.862   0.717  1.00  0.00    -0.216 N 
ATOM     12  H1  UNL     1       3.744   1.812   0.836  1.00  0.00     0.205 HD
BRANCH  11  13
HETATM   13  O1  UNL     1       4.229  -0.149   0.411  1.00  0.00    -0.277 OA
HETATM   14  C1  UNL     1       4.933  -0.342  -0.768  1.00  0.00     0.238 C 
ENDBRANCH  11  13
ENDBRANCH  10  11
ENDBRANCH   8  10
ENDBRANCH   1   8
TORSDOF 4
