REMARK  4 active torsions:
REMARK  status: ('A' for Active; 'I' for Inactive)
REMARK    1  A    between atoms: C5_10  and  N3_11 
REMARK    2  A    between atoms: N3_11  and  C6_13 
REMARK    3  A    between atoms: N6_19  and  C8_21 
REMARK    4  A    between atoms: C8_21  and  C9_22 
ROOT
HETATM    1  C1  UNL     1       4.500   1.376   2.407  1.00  0.00     0.019 C 
HETATM    2  C2  UNL     1       4.263   0.737   1.412  1.00  0.00    -0.056 C 
HETATM    3  C3  UNL     1       3.989  -0.036   0.236  1.00  0.00     0.133 A 
HETATM    4  N1  UNL     1       4.633  -1.163  -0.135  1.00  0.00    -0.287 N 
ATOM      5  H1  UNL     1       5.396  -1.597   0.384  1.00  0.00     0.188 HD
HETATM    6  N2  UNL     1       4.127  -1.625  -1.277  1.00  0.00    -0.263 N 
ATOM      7  H2  UNL     1       4.446  -2.465  -1.760  1.00  0.00     0.190 HD
HETATM    8  C4  UNL     1       3.139  -0.826  -1.699  1.00  0.00     0.289 A 
HETATM    9  O1  UNL     1       2.460  -0.989  -2.745  1.00  0.00    -0.264 OA
HETATM   10  C5  UNL     1       3.046   0.175  -0.753  1.00  0.00     0.141 A 
ENDROOT
BRANCH  10  11
HETATM   11  N3  UNL     1       2.145   1.256  -0.761  1.00  0.00    -0.328 N 
ATOM     12  H3  UNL     1       2.500   2.202  -0.902  1.00  0.00     0.168 HD
BRANCH  11  13
HETATM   13  C6  UNL     1       0.851   1.070  -0.590  1.00  0.00     0.167 A 
HETATM   14  N4  UNL     1       0.217  -0.093  -0.394  1.00  0.00    -0.278 N 
HETATM   15  N5  UNL     1      -1.052  -0.078  -0.247  1.00  0.00    -0.278 N 
ATOM     16  H4  UNL     1       0.735  -0.971  -0.363  1.00  0.00     0.189 HD
HETATM   17  C7  UNL     1      -1.698   1.086  -0.294  1.00  0.00     0.163 A 
ATOM     18  H5  UNL     1      -1.564  -0.947  -0.095  1.00  0.00     0.189 HD
HETATM   19  N6  UNL     1      -2.986   1.314  -0.168  1.00  0.00    -0.361 N 
HETATM   20  S1  UNL     1      -0.427   2.195  -0.560  1.00  0.00    -0.015 SA
ATOM     21  H6  UNL     1      -3.359   2.262  -0.225  1.00  0.00     0.162 HD
BRANCH  19  22
HETATM   22  C8  UNL     1      -3.850   0.195   0.051  1.00  0.00     0.221 C 
BRANCH  22  23
HETATM   23  C9  UNL     1      -5.184   0.599   0.560  1.00  0.00     0.248 C 
HETATM   24  N7  UNL     1      -6.136  -0.418   0.818  1.00  0.00    -0.061 NA
HETATM   25  O2  UNL     1      -5.522   1.791   0.777  1.00  0.00    -0.275 OA
ENDBRANCH  22  23
ENDBRANCH  19  22
ENDBRANCH  11  13
ENDBRANCH  10  11
TORSDOF 4
