REMARK  9 active torsions:
REMARK  status: ('A' for Active; 'I' for Inactive)
REMARK       I    between atoms: C2_2  and  N1_4 
REMARK    1  A    between atoms: N1_4  and  N2_6 
REMARK    2  A    between atoms: N2_6  and  C3_8 
REMARK    3  A    between atoms: C3_8  and  N3_10 
REMARK    4  A    between atoms: N3_10  and  N4_12 
REMARK    5  A    between atoms: N4_12  and  C4_14 
REMARK    6  A    between atoms: C4_14  and  N5_16 
REMARK    7  A    between atoms: N5_16  and  C5_18 
REMARK    8  A    between atoms: C5_18  and  C6_19 
REMARK    9  A    between atoms: C6_19  and  N6_20 
ROOT
HETATM    1  N3  UNL     1       1.960   0.293  -2.149  1.00  0.00    -0.273 N 
ATOM      2  H3  UNL     1       1.810   0.917  -2.942  1.00  0.00     0.189 HD
ENDROOT
BRANCH   1   3
HETATM    3  C3  UNL     1       3.130   0.416  -1.359  1.00  0.00     0.205 C 
HETATM    4  S1  UNL     1       4.225   1.551  -1.747  1.00  0.00    -0.038 SA
BRANCH   3   5
HETATM    5  N2  UNL     1       3.305  -0.460  -0.261  1.00  0.00    -0.273 N 
ATOM      6  H2  UNL     1       2.590  -1.159  -0.060  1.00  0.00     0.189 HD
BRANCH   5   7
HETATM    7  N1  UNL     1       4.426  -0.386   0.544  1.00  0.00    -0.268 N 
HETATM    8  C2  UNL     1       4.750   0.732   1.339  1.00  0.00     0.232 C 
HETATM    9  C1  UNL     1       5.953   0.787   2.204  1.00  0.00     0.119 C 
HETATM   10  O1  UNL     1       4.007   1.770   1.355  1.00  0.00    -0.272 OA
ATOM     11  H1  UNL     1       5.056  -1.188   0.564  1.00  0.00     0.190 HD
ENDBRANCH   5   7
ENDBRANCH   3   5
ENDBRANCH   1   3
BRANCH   1  12
HETATM   12  N4  UNL     1       1.016  -0.683  -1.839  1.00  0.00    -0.274 N 
ATOM     13  H4  UNL     1       1.116  -1.631  -2.202  1.00  0.00     0.189 HD
BRANCH  12  14
HETATM   14  C4  UNL     1      -0.078  -0.346  -1.018  1.00  0.00     0.186 C 
HETATM   15  S2  UNL     1      -0.189   1.155  -0.438  1.00  0.00    -0.040 SA
BRANCH  14  16
HETATM   16  N5  UNL     1      -1.019  -1.334  -0.709  1.00  0.00    -0.361 N 
ATOM     17  H5  UNL     1      -0.883  -2.276  -1.075  1.00  0.00     0.162 HD
BRANCH  16  18
HETATM   18  C5  UNL     1      -2.169  -1.064   0.106  1.00  0.00     0.166 C 
BRANCH  18  19
HETATM   19  C6  UNL     1      -3.140  -0.209  -0.650  1.00  0.00     0.076 C 
BRANCH  19  20
HETATM   20  N6  UNL     1      -4.316   0.109   0.053  1.00  0.00    -0.400 N 
HETATM   21  C7  UNL     1      -5.273   0.949  -0.545  1.00  0.00     0.148 C 
HETATM   22  C8  UNL     1      -4.400  -0.109   1.431  1.00  0.00     0.148 C 
ENDBRANCH  19  20
ENDBRANCH  18  19
ENDBRANCH  16  18
ENDBRANCH  14  16
ENDBRANCH  12  14
ENDBRANCH   1  12
TORSDOF 9
