REMARK  6 active torsions:
REMARK  status: ('A' for Active; 'I' for Inactive)
REMARK       I    between atoms: N1_2  and  C2_4 
REMARK       I    between atoms: C2_4  and  N2_5 
REMARK       I    between atoms: C2_4  and  N8_25 
REMARK    1  A    between atoms: N2_5  and  C3_7 
REMARK    2  A    between atoms: C3_7  and  N3_8 
REMARK    3  A    between atoms: C3_7  and  C4_12 
REMARK       I    between atoms: C4_12  and  N4_14 
REMARK    4  A    between atoms: N4_14  and  C5_16 
REMARK    5  A    between atoms: N8_25  and  C7_27 
REMARK    6  A    between atoms: C7_27  and  C8_28 
ROOT
HETATM    1  C3  UNL     1       1.538  -1.454  -0.201  1.00  0.00     0.389 C 
ENDROOT
BRANCH   1   2
HETATM    2  N2  UNL     1       0.453  -0.559  -0.380  1.00  0.00    -0.189 N 
HETATM    3  C2  UNL     1      -0.696  -0.783   0.132  1.00  0.00     0.671 C 
HETATM    4  N1  UNL     1      -0.842  -1.993   0.909  1.00  0.00    -0.231 N 
HETATM    5  N8  UNL     1      -1.814   0.083  -0.051  1.00  0.00    -0.226 N 
HETATM    6  C1  UNL     1      -1.448  -3.173   0.376  1.00  0.00     0.165 C 
ATOM      7  H1  UNL     1      -0.501  -2.005   1.870  1.00  0.00     0.177 HD
ATOM      8  H8  UNL     1      -1.879   0.676  -0.879  1.00  0.00     0.177 HD
ATOM      9  H2  UNL     1       0.594   0.287  -0.933  1.00  0.00     0.180 HD
BRANCH   5  10
HETATM   10  C7  UNL     1      -2.836   0.109   0.934  1.00  0.00     0.142 C 
BRANCH  10  11
HETATM   11  C8  UNL     1      -4.030   0.947   0.571  1.00  0.00    -0.004 C 
HETATM   12  C9  UNL     1      -4.645   0.377  -0.718  1.00  0.00     0.011 C 
HETATM   13  C10 UNL     1      -3.772   2.390   0.366  1.00  0.00     0.011 C 
ENDBRANCH  10  11
ENDBRANCH   5  10
ENDBRANCH   1   2
BRANCH   1  14
HETATM   14  N3  UNL     1       1.927  -1.928  -1.533  1.00  0.00    -0.049 N 
ATOM     15  H33 UNL     1       1.152  -2.337  -2.055  1.00  0.00     0.277 HD
ATOM     16  H32 UNL     1       2.136  -1.170  -2.183  1.00  0.00     0.277 HD
ATOM     17  H31 UNL     1       2.708  -2.572  -1.404  1.00  0.00     0.277 HD
ENDBRANCH   1  14
BRANCH   1  18
HETATM   18  C4  UNL     1       2.712  -0.928   0.505  1.00  0.00     0.286 C 
HETATM   19  O1  UNL     1       3.687  -1.753   0.617  1.00  0.00    -0.268 OA
HETATM   20  N4  UNL     1       2.882   0.344   1.059  1.00  0.00    -0.155 N 
ATOM     21  H4  UNL     1       2.247   0.670   1.788  1.00  0.00     0.187 HD
BRANCH  20  22
HETATM   22  C5  UNL     1       3.839   1.108   0.652  1.00  0.00     0.703 A 
HETATM   23  N5  UNL     1       4.147   2.355   1.073  1.00  0.00    -0.128 N 
HETATM   24  N6  UNL     1       5.194   2.807   0.408  1.00  0.00    -0.237 N 
ATOM     25  H5  UNL     1       3.645   2.870   1.797  1.00  0.00     0.205 HD
HETATM   26  C6  UNL     1       5.593   1.850  -0.472  1.00  0.00     0.353 A 
ATOM     27  H6  UNL     1       5.630   3.720   0.533  1.00  0.00     0.192 HD
HETATM   28  O2  UNL     1       6.554   1.900  -1.286  1.00  0.00    -0.245 OA
HETATM   29  N7  UNL     1       4.736   0.807  -0.298  1.00  0.00    -0.139 N 
ATOM     30  H7  UNL     1       4.771  -0.072  -0.813  1.00  0.00     0.189 HD
ENDBRANCH  20  22
ENDBRANCH   1  18
TORSDOF 6
