REMARK  7 active torsions:
REMARK  status: ('A' for Active; 'I' for Inactive)
REMARK    1  A    between atoms: C2_2  and  N1_3 
REMARK    2  A    between atoms: N1_3  and  N2_5 
REMARK    3  A    between atoms: N3_7  and  C4_9 
REMARK    4  A    between atoms: C4_9  and  N4_10 
REMARK    5  A    between atoms: C5_11  and  N5_12 
REMARK    6  A    between atoms: C6_17  and  N7_18 
REMARK    7  A    between atoms: N9_25  and  C9_27 
ROOT
HETATM    1  C9  UNL     1      -5.071   2.377  -0.589  1.00  0.00     0.262 C 
HETATM    2  C10 UNL     1      -5.354   3.746  -0.159  1.00  0.00     0.079 C 
HETATM    3  N10 UNL     1      -5.567   4.840   0.187  1.00  0.00    -0.196 NA
ENDROOT
BRANCH   1   4
HETATM    4  N9  UNL     1      -3.647   2.149  -0.709  1.00  0.00    -0.214 N 
HETATM    5  C8  UNL     1      -3.093   1.001  -0.477  1.00  0.00     0.681 A 
HETATM    6  N8  UNL     1      -3.732  -0.123  -0.101  1.00  0.00    -0.184 N 
HETATM    7  N11 UNL     1      -1.778   0.751  -0.575  1.00  0.00    -0.173 N 
HETATM    8  C7  UNL     1      -2.786  -1.098   0.038  1.00  0.00     0.138 A 
ATOM      9  H8  UNL     1      -4.735  -0.227   0.052  1.00  0.00     0.184 HD
HETATM   10  C6  UNL     1      -2.839  -2.434   0.398  1.00  0.00     0.146 A 
HETATM   11  C11 UNL     1      -1.563  -0.543  -0.260  1.00  0.00     0.172 A 
HETATM   12  N6  UNL     1      -1.686  -3.106   0.433  1.00  0.00    -0.175 N 
HETATM   13  C5  UNL     1      -0.496  -2.539   0.135  1.00  0.00     0.682 A 
ATOM     14  H6  UNL     1      -1.704  -4.091   0.696  1.00  0.00     0.186 HD
HETATM   15  N4  UNL     1      -0.421  -1.249  -0.215  1.00  0.00    -0.148 N 
ATOM     16  H11 UNL     1      -1.062   1.426  -0.843  1.00  0.00     0.186 HD
ATOM     17  H9  UNL     1      -3.052   2.928  -0.989  1.00  0.00     0.178 HD
BRANCH  10  18
HETATM   18  N7  UNL     1      -3.964  -2.982   0.682  1.00  0.00    -0.383 N 
ATOM     19  H72 UNL     1      -4.003  -3.966   0.947  1.00  0.00     0.157 HD
ATOM     20  H71 UNL     1      -4.845  -2.469   0.655  1.00  0.00     0.157 HD
ENDBRANCH  10  18
BRANCH  13  21
HETATM   21  N5  UNL     1       0.608  -3.222   0.179  1.00  0.00    -0.234 N 
ATOM     22  H52 UNL     1       1.506  -2.794  -0.046  1.00  0.00     0.174 HD
ATOM     23  H51 UNL     1       0.551  -4.205   0.446  1.00  0.00     0.174 HD
ENDBRANCH  13  21
BRANCH  15  24
HETATM   24  C4  UNL     1       0.838  -0.568  -0.541  1.00  0.00     0.291 C 
BRANCH  24  25
HETATM   25  N3  UNL     1       1.338  -0.019   0.672  1.00  0.00    -0.303 N 
HETATM   26  N2  UNL     1       2.441   0.420   0.979  1.00  0.00    -0.248 N 
ATOM     27  H2  UNL     1       2.503   0.753   1.941  1.00  0.00     0.207 HD
ATOM     28  H3  UNL     1       0.652   0.016   1.426  1.00  0.00     0.183 HD
BRANCH  26  29
HETATM   29  N1  UNL     1       3.609   0.546   0.267  1.00  0.00    -0.319 N 
HETATM   30  C3  UNL     1       3.611   1.094  -1.073  1.00  0.00     0.172 C 
BRANCH  29  31
HETATM   31  C2  UNL     1       4.907   0.142   0.823  1.00  0.00     0.139 C 
HETATM   32  C1  UNL     1       5.712   1.388   1.070  1.00  0.00     0.028 C 
ENDBRANCH  29  31
ENDBRANCH  26  29
ENDBRANCH  24  25
ENDBRANCH  15  24
ENDBRANCH   1   4
TORSDOF 7
