REMARK  5 active torsions:
REMARK  status: ('A' for Active; 'I' for Inactive)
REMARK    1  A    between atoms: C2_2  and  N1_4 
REMARK       I    between atoms: N1_4  and  C4_6 
REMARK       I    between atoms: C4_6  and  N2_8 
REMARK       I    between atoms: N2_8  and  C5_10 
REMARK    2  A    between atoms: C5_10  and  C6_12 
REMARK    3  A    between atoms: C6_12  and  C8_14 
REMARK    4  A    between atoms: C9_15  and  C10_16 
REMARK    5  A    between atoms: C12_27  and  N7_28 
ROOT
HETATM    1  C8  UNL     1      -2.008   1.204   0.324  1.00  0.00     0.040 A 
HETATM    2  C9  UNL     1      -3.220   1.400  -0.382  1.00  0.00     0.155 A 
HETATM    3  O3  UNL     1      -3.334   2.693  -0.460  1.00  0.00    -0.232 OA
HETATM    4  N6  UNL     1      -2.421   3.359   0.052  1.00  0.00    -0.244 N 
ATOM      5  H6  UNL     1      -2.360   4.377   0.072  1.00  0.00     0.196 HD
HETATM    6  C12 UNL     1      -1.491   2.468   0.596  1.00  0.00     0.129 A 
ENDROOT
BRANCH   1   7
HETATM    7  C6  UNL     1      -1.448  -0.078   0.662  1.00  0.00     0.114 C 
HETATM    8  C7  UNL     1      -1.437  -0.314   2.211  1.00  0.00     0.025 C 
BRANCH   7   9
HETATM    9  C5  UNL     1       0.001  -0.236   0.345  1.00  0.00     0.234 C 
HETATM   10  N2  UNL     1       0.560  -0.986  -0.695  1.00  0.00    -0.279 N 
HETATM   11  C4  UNL     1       1.968  -1.250  -0.746  1.00  0.00     0.323 C 
ATOM     12  H2  UNL     1      -0.045  -1.352  -1.430  1.00  0.00     0.173 HD
HETATM   13  N1  UNL     1       2.948  -0.605   0.059  1.00  0.00    -0.339 N 
HETATM   14  O1  UNL     1       2.344  -2.125  -1.551  1.00  0.00    -0.247 OA
ATOM     15  H1  UNL     1       2.741   0.180   0.677  1.00  0.00     0.164 HD
HETATM   16  O2  UNL     1       0.779   0.391   1.144  1.00  0.00    -0.272 OA
BRANCH  13  17
HETATM   17  C2  UNL     1       4.342  -1.208  -0.097  1.00  0.00     0.078 C 
HETATM   18  C1  UNL     1       5.011  -0.406  -1.202  1.00  0.00     0.032 C 
HETATM   19  C3  UNL     1       5.063  -1.026   1.182  1.00  0.00     0.032 C 
ENDBRANCH  13  17
ENDBRANCH   7   9
ENDBRANCH   1   7
BRANCH   2  20
HETATM   20  C10 UNL     1      -4.117   0.378  -0.891  1.00  0.00     0.158 A 
HETATM   21  N3  UNL     1      -5.424   0.747  -1.273  1.00  0.00    -0.334 N 
HETATM   22  C11 UNL     1      -6.070  -0.331  -1.711  1.00  0.00     0.199 A 
ATOM     23  H3  UNL     1      -5.812   1.689  -1.222  1.00  0.00     0.168 HD
HETATM   24  N4  UNL     1      -5.204  -1.383  -1.636  1.00  0.00    -0.294 N 
HETATM   25  N5  UNL     1      -4.045  -0.900  -1.138  1.00  0.00    -0.282 N 
ATOM     26  H4  UNL     1      -5.395  -2.348  -1.904  1.00  0.00     0.187 HD
ATOM     27  H5  UNL     1      -3.213  -1.467  -0.975  1.00  0.00     0.188 HD
ENDBRANCH   2  20
BRANCH   6  28
HETATM   28  N7  UNL     1      -0.451   2.863   1.105  1.00  0.00    -0.384 N 
ATOM     29  H72 UNL     1       0.227   2.213   1.502  1.00  0.00     0.157 HD
ATOM     30  H71 UNL     1      -0.072   3.789   1.304  1.00  0.00     0.157 HD
ENDBRANCH   6  28
TORSDOF 5
