REMARK  9 active torsions:
REMARK  status: ('A' for Active; 'I' for Inactive)
REMARK    1  A    between atoms: C2_2  and  O1_3 
REMARK    2  A    between atoms: O1_3  and  C3_4 
REMARK       I    between atoms: C3_4  and  N1_6 
REMARK    3  A    between atoms: N1_6  and  C4_8 
REMARK    4  A    between atoms: C4_8  and  O3_9 
REMARK    5  A    between atoms: C4_8  and  C5_13 
REMARK    6  A    between atoms: O3_9  and  N2_10 
REMARK    7  A    between atoms: C7_15  and  N3_16 
REMARK    8  A    between atoms: N3_16  and  C8_18 
REMARK    9  A    between atoms: C8_18  and  O4_20 
ROOT
HETATM    1  C5  UNL     1       0.716  -0.263   0.541  1.00  0.00     0.080 A 
HETATM    2  C6  UNL     1       2.078  -0.173   0.687  1.00  0.00     0.081 A 
HETATM    3  C7  UNL     1       2.607  -0.398  -0.586  1.00  0.00     0.124 A 
HETATM    4  N4  UNL     1       1.589  -0.611  -1.438  1.00  0.00    -0.285 N 
ATOM      5  H4  UNL     1       1.667  -0.803  -2.437  1.00  0.00     0.188 HD
HETATM    6  N5  UNL     1       0.468  -0.525  -0.741  1.00  0.00    -0.299 N 
ATOM      7  H5  UNL     1      -0.465  -0.644  -1.134  1.00  0.00     0.186 HD
ENDROOT
BRANCH   1   8
HETATM    8  C4  UNL     1      -0.329  -0.106   1.579  1.00  0.00     0.306 C 
BRANCH   8   9
HETATM    9  N1  UNL     1      -1.382   0.728   1.059  1.00  0.00    -0.303 N 
HETATM   10  C3  UNL     1      -2.708   0.255   0.912  1.00  0.00     0.362 C 
HETATM   11  O2  UNL     1      -2.989  -0.940   1.247  1.00  0.00    -0.238 OA
ATOM     12  H1  UNL     1      -1.166   1.688   0.789  1.00  0.00     0.167 HD
BRANCH  10  13
HETATM   13  O1  UNL     1      -3.740   1.019   0.420  1.00  0.00    -0.304 OA
BRANCH  13  14
HETATM   14  C2  UNL     1      -5.056   0.563   0.270  1.00  0.00     0.176 C 
HETATM   15  C1  UNL     1      -5.124  -0.622  -0.665  1.00  0.00     0.034 C 
ENDBRANCH  13  14
ENDBRANCH  10  13
ENDBRANCH   8   9
BRANCH   8  16
HETATM   16  O3  UNL     1       0.173   0.408   2.766  1.00  0.00    -0.255 OA
BRANCH  16  17
HETATM   17  N2  UNL     1       0.009  -0.411   3.812  1.00  0.00    -0.308 N 
ATOM     18  H22 UNL     1      -0.443  -1.321   3.728  1.00  0.00     0.184 HD
ATOM     19  H21 UNL     1       0.378  -0.033   4.685  1.00  0.00     0.184 HD
ENDBRANCH  16  17
ENDBRANCH   8  16
ENDBRANCH   1   8
BRANCH   3  20
HETATM   20  N3  UNL     1       3.863  -0.392  -0.839  1.00  0.00    -0.312 N 
ATOM     21  H3  UNL     1       4.545  -0.217  -0.101  1.00  0.00     0.170 HD
BRANCH  20  22
HETATM   22  C8  UNL     1       4.282  -0.635  -2.176  1.00  0.00     0.215 C 
HETATM   23  S1  UNL     1       4.070  -2.127  -2.791  1.00  0.00    -0.033 SA
BRANCH  22  24
HETATM   24  O4  UNL     1       4.850   0.366  -2.926  1.00  0.00    -0.332 OA
HETATM   25  C9  UNL     1       5.447   1.456  -2.251  1.00  0.00     0.212 C 
ENDBRANCH  22  24
ENDBRANCH  20  22
ENDBRANCH   3  20
TORSDOF 9
