REMARK  7 active torsions:
REMARK  status: ('A' for Active; 'I' for Inactive)
REMARK    1  A    between atoms: S1_2  and  S2_3 
REMARK    2  A    between atoms: S2_3  and  C2_4 
REMARK    3  A    between atoms: C2_4  and  C3_5 
REMARK    4  A    between atoms: C3_5  and  O1_6 
REMARK    5  A    between atoms: C3_5  and  N1_8 
REMARK    6  A    between atoms: N1_8  and  N2_9 
REMARK       I    between atoms: N2_9  and  C4_11 
REMARK    7  A    between atoms: C4_11  and  C5_13 
ROOT
HETATM    1  C5  UNL     1      -1.943  -0.399   0.651  1.00  0.00     0.106 A 
HETATM    2  C6  UNL     1      -2.535  -0.943  -0.463  1.00  0.00     0.066 A 
HETATM    3  C7  UNL     1      -3.752  -0.465  -0.861  1.00  0.00     0.052 A 
HETATM    4  N3  UNL     1      -4.341  -0.931  -1.945  1.00  0.00    -0.398 N 
ATOM      5  H31 UNL     1      -5.249  -0.574  -2.242  1.00  0.00     0.156 HD
ATOM      6  H32 UNL     1      -3.909  -1.674  -2.494  1.00  0.00     0.156 HD
HETATM    7  C8  UNL     1      -4.335   0.538  -0.121  1.00  0.00     0.112 A 
HETATM    8  C9  UNL     1      -5.604   1.080  -0.589  1.00  0.00     0.105 C 
HETATM    9  N4  UNL     1      -6.642   1.523  -0.971  1.00  0.00    -0.191 NA
HETATM   10  C10 UNL     1      -3.754   1.074   0.983  1.00  0.00     0.140 A 
HETATM   11  N5  UNL     1      -4.361   2.112   1.754  1.00  0.00    -0.081 NA
HETATM   12  N6  UNL     1      -2.515   0.582   1.376  1.00  0.00    -0.339 N 
ATOM     13  H6  UNL     1      -2.046   0.958   2.200  1.00  0.00     0.167 HD
ENDROOT
BRANCH   1  14
HETATM   14  C4  UNL     1      -0.523  -0.826   0.884  1.00  0.00     0.297 C 
HETATM   15  N2  UNL     1       0.304  -0.875  -0.223  1.00  0.00    -0.195 N 
ATOM     16  H2  UNL     1      -0.272  -0.564  -1.005  1.00  0.00     0.205 HD
HETATM   17  O2  UNL     1      -0.250  -1.086   2.061  1.00  0.00    -0.263 OA
BRANCH  15  18
HETATM   18  N1  UNL     1       1.484  -1.134  -0.741  1.00  0.00    -0.301 NA
BRANCH  18  19
HETATM   19  C3  UNL     1       2.683  -1.401  -1.274  1.00  0.00     0.224 C 
BRANCH  19  20
HETATM   20  C2  UNL     1       4.059  -1.329  -0.775  1.00  0.00     0.188 C 
BRANCH  20  21
HETATM   21  S2  UNL     1       4.314  -0.623   0.828  1.00  0.00    -0.089 SA
BRANCH  21  22
HETATM   22  S1  UNL     1       6.324   0.040   1.101  1.00  0.00    -0.102 SA
HETATM   23  C1  UNL     1       6.450   1.759   0.542  1.00  0.00     0.102 C 
ENDBRANCH  21  22
ENDBRANCH  20  21
ENDBRANCH  19  20
BRANCH  19  24
HETATM   24  O1  UNL     1       2.687  -1.834  -2.555  1.00  0.00    -0.337 OA
ATOM     25  H1  UNL     1       1.795  -1.881  -2.878  1.00  0.00     0.220 HD
ENDBRANCH  19  24
ENDBRANCH  18  19
ENDBRANCH  15  18
ENDBRANCH   1  14
TORSDOF 7
