REMARK  4 active torsions:
REMARK  status: ('A' for Active; 'I' for Inactive)
REMARK    1  A    between atoms: O1_1  and  N1_3 
REMARK    2  A    between atoms: C5_8  and  C6_9 
REMARK    3  A    between atoms: C6_9  and  O2_10 
REMARK    4  A    between atoms: C6_9  and  O3_12 
ROOT
HETATM    1  N1  UNL     1       0.359   1.179   0.412  1.00  0.00    -0.235 N 
HETATM    2  C1  UNL     1       1.709   1.186   0.325  1.00  0.00     0.123 A 
HETATM    3  C2  UNL     1       2.439   0.080  -0.061  1.00  0.00     0.020 A 
HETATM    4  C3  UNL     1       1.765  -1.084  -0.373  1.00  0.00     0.004 A 
HETATM    5  C4  UNL     1       0.396  -1.076  -0.281  1.00  0.00     0.033 A 
HETATM    6  C5  UNL     1      -0.297   0.052   0.110  1.00  0.00     0.094 A 
ENDROOT
BRANCH   6   7
HETATM    7  C6  UNL     1      -1.798  -0.030   0.184  1.00  0.00     0.307 C 
BRANCH   7   8
HETATM    8  O2  UNL     1      -2.193  -1.210   0.817  1.00  0.00    -0.366 OA
ATOM      9  H2  UNL     1      -3.140  -1.262   0.864  1.00  0.00     0.213 HD
ENDBRANCH   7   8
BRANCH   7  10
HETATM   10  O3  UNL     1      -2.351  -0.011  -1.092  1.00  0.00    -0.366 OA
ATOM     11  H3  UNL     1      -3.298  -0.063  -1.045  1.00  0.00     0.213 HD
ENDBRANCH   7  10
ENDBRANCH   6   7
BRANCH   1  12
HETATM   12  O1  UNL     1      -0.339   2.290   0.798  1.00  0.00    -0.283 OA
ATOM     13  H1  UNL     1      -1.287   2.285   0.859  1.00  0.00     0.245 HD
ENDBRANCH   1  12
TORSDOF 4
