REMARK  4 active torsions:
REMARK  status: ('A' for Active; 'I' for Inactive)
REMARK    1  A    between atoms: N1_1  and  N2_4 
REMARK    2  A    between atoms: N3_6  and  C1_8 
REMARK    3  A    between atoms: C2_9  and  N4_10 
REMARK    4  A    between atoms: C5_16  and  O1_17 
ROOT
HETATM    1  C1  UNL     1       0.183  -0.121   0.814  1.00  0.00     0.167 C 
HETATM    2  C2  UNL     1       0.128   1.075  -0.098  1.00  0.00     0.233 C 
HETATM    3  C3  UNL     1      -0.190   0.501  -1.427  1.00  0.00     0.006 C 
HETATM    4  C4  UNL     1      -0.510  -0.769  -1.370  1.00  0.00     0.005 C 
HETATM    5  C5  UNL     1      -0.449  -1.224   0.030  1.00  0.00     0.167 C 
ENDROOT
BRANCH   1   6
HETATM    6  N3  UNL     1       1.482  -0.412   1.321  1.00  0.00    -0.313 N 
HETATM    7  N2  UNL     1       2.530  -0.180   0.721  1.00  0.00    -0.253 N 
ATOM      8  H2  UNL     1       2.577   0.839   0.719  1.00  0.00     0.207 HD
ATOM      9  H3  UNL     1       1.547  -0.842   2.244  1.00  0.00     0.182 HD
BRANCH   7  10
HETATM   10  N1  UNL     1       3.568  -0.514   0.113  1.00  0.00    -0.331 N 
ATOM     11  H12 UNL     1       3.484  -1.530   0.137  1.00  0.00     0.178 HD
ATOM     12  H11 UNL     1       4.437  -0.322  -0.385  1.00  0.00     0.178 HD
ENDBRANCH   7  10
ENDBRANCH   1   6
BRANCH   2  13
HETATM   13  N4  UNL     1      -0.925   1.977   0.297  1.00  0.00    -0.070 N 
ATOM     14  H43 UNL     1      -1.826   1.503   0.351  1.00  0.00     0.275 HD
ATOM     15  H42 UNL     1      -0.837   2.253   1.275  1.00  0.00     0.275 HD
ATOM     16  H41 UNL     1      -0.962   2.788  -0.321  1.00  0.00     0.275 HD
ENDBRANCH   2  13
BRANCH   5  17
HETATM   17  O1  UNL     1      -1.741  -1.514   0.496  1.00  0.00    -0.390 OA
ATOM     18  H1  UNL     1      -2.143  -2.216  -0.003  1.00  0.00     0.210 HD
ENDBRANCH   5  17
TORSDOF 4
