REMARK  2 active torsions:
REMARK  status: ('A' for Active; 'I' for Inactive)
REMARK    1  A    between atoms: C5_7  and  C6_8 
REMARK    2  A    between atoms: C6_8  and  N2_9 
ROOT
HETATM    1  C1  UNL     1      -4.022   1.105   1.274  1.00  0.00     0.019 C 
HETATM    2  C2  UNL     1      -2.878   0.927   0.933  1.00  0.00    -0.058 C 
HETATM    3  C3  UNL     1      -1.519   0.693   0.529  1.00  0.00     0.110 A 
HETATM    4  N1  UNL     1      -0.589   1.664   0.478  1.00  0.00    -0.357 N 
ATOM      5  H1  UNL     1      -0.865   2.610   0.740  1.00  0.00     0.166 HD
HETATM    6  C4  UNL     1       0.683   1.455   0.101  1.00  0.00     0.097 A 
HETATM    7  C5  UNL     1       1.075   0.205  -0.253  1.00  0.00    -0.016 A 
HETATM    8  C7  UNL     1       0.180  -0.839  -0.226  1.00  0.00     0.039 A 
HETATM    9  C8  UNL     1      -1.117  -0.586   0.167  1.00  0.00     0.082 A 
HETATM   10  N3  UNL     1      -2.083  -1.631   0.212  1.00  0.00    -0.099 NA
ENDROOT
BRANCH   7  11
HETATM   11  C6  UNL     1       2.466  -0.050  -0.670  1.00  0.00     0.269 C 
BRANCH  11  12
HETATM   12  N2  UNL     1       3.306  -0.400   0.471  1.00  0.00    -0.075 N 
ATOM     13  H23 UNL     1       3.259   0.309   1.202  1.00  0.00     0.274 HD
ATOM     14  H22 UNL     1       2.921  -1.188   0.992  1.00  0.00     0.274 HD
ATOM     15  H21 UNL     1       4.268  -0.576   0.183  1.00  0.00     0.274 HD
ENDBRANCH  11  12
ENDBRANCH   7  11
TORSDOF 2
