REMARK  3 active torsions:
REMARK  status: ('A' for Active; 'I' for Inactive)
REMARK    1  A    between atoms: O1_2  and  C2_3 
REMARK    2  A    between atoms: C4_7  and  N2_8 
REMARK    3  A    between atoms: C5_13  and  N4_14 
ROOT
HETATM    1  N4  UNL     1      -0.982   2.054   0.187  1.00  0.00    -0.277 N 
ATOM      2  H4  UNL     1      -1.991   1.912   0.230  1.00  0.00     0.179 HD
HETATM    3  C6  UNL     1      -0.468   3.355   0.138  1.00  0.00     0.183 C 
HETATM    4  N5  UNL     1      -0.026   4.424   0.089  1.00  0.00    -0.172 NA
ENDROOT
BRANCH   1   5
HETATM    5  C5  UNL     1      -0.198   1.039   0.178  1.00  0.00     0.165 A 
HETATM    6  C2  UNL     1      -0.696  -0.244   0.226  1.00  0.00     0.129 A 
HETATM    7  C3  UNL     1       0.139  -1.353   0.216  1.00  0.00     0.146 A 
HETATM    8  N1  UNL     1       1.474  -1.123   0.157  1.00  0.00    -0.199 N 
HETATM    9  C4  UNL     1       1.976   0.123   0.110  1.00  0.00     0.677 A 
ATOM     10  H1  UNL     1       2.114  -1.917   0.148  1.00  0.00     0.183 HD
HETATM   11  N3  UNL     1       1.136   1.177   0.121  1.00  0.00    -0.173 N 
ATOM     12  H3  UNL     1       1.530   2.117   0.085  1.00  0.00     0.186 HD
BRANCH   6  13
HETATM   13  O1  UNL     1      -2.050  -0.467   0.285  1.00  0.00    -0.351 OA
HETATM   14  C1  UNL     1      -2.587  -1.774   0.335  1.00  0.00     0.210 C 
ENDBRANCH   6  13
BRANCH   9  15
HETATM   15  N2  UNL     1       3.260   0.221   0.056  1.00  0.00    -0.234 N 
ATOM     16  H22 UNL     1       3.896  -0.577   0.048  1.00  0.00     0.174 HD
ATOM     17  H21 UNL     1       3.641   1.167   0.020  1.00  0.00     0.174 HD
ENDBRANCH   9  15
ENDBRANCH   1   5
TORSDOF 3
