REMARK  2 active torsions:
REMARK  status: ('A' for Active; 'I' for Inactive)
REMARK    1  A    between atoms: C1_4  and  C2_6 
REMARK    2  A    between atoms: N5_13  and  O1_14 
ROOT
HETATM    1  C2  UNL     1      -0.613  -0.405   0.142  1.00  0.00     0.120 A 
HETATM    2  C3  UNL     1      -0.296  -1.738   0.254  1.00  0.00     0.123 A 
HETATM    3  N3  UNL     1       0.984  -2.194   0.121  1.00  0.00    -0.370 N 
ATOM      4  H3  UNL     1       1.214  -3.184   0.206  1.00  0.00     0.164 HD
HETATM    5  C4  UNL     1       1.923  -1.267  -0.128  1.00  0.00     0.135 A 
HETATM    6  C5  UNL     1       1.617   0.068  -0.242  1.00  0.00     0.160 A 
HETATM    7  N4  UNL     1       2.628   1.014  -0.504  1.00  0.00    -0.079 NA
HETATM    8  N5  UNL     1       0.358   0.498  -0.109  1.00  0.00    -0.205 N 
ENDROOT
BRANCH   1   9
HETATM    9  C1  UNL     1      -1.973   0.111   0.279  1.00  0.00     0.140 C 
HETATM   10  N1  UNL     1      -2.981  -0.648   0.518  1.00  0.00    -0.386 N 
ATOM     11  H12 UNL     1      -3.930  -0.288   0.614  1.00  0.00     0.157 HD
ATOM     12  H11 UNL     1      -2.835  -1.653   0.616  1.00  0.00     0.157 HD
HETATM   13  N2  UNL     1      -2.180   1.532   0.140  1.00  0.00    -0.081 NA
ENDBRANCH   1   9
BRANCH   8  14
HETATM   14  O1  UNL     1       0.063   1.864  -0.229  1.00  0.00    -0.281 OA
ATOM     15  H1  UNL     1       0.747   2.500  -0.406  1.00  0.00     0.245 HD
ENDBRANCH   8  14
TORSDOF 2
