REMARK  3 active torsions:
REMARK  status: ('A' for Active; 'I' for Inactive)
REMARK    1  A    between atoms: N2_4  and  O2_5 
REMARK    2  A    between atoms: C3_8  and  S1_9 
REMARK    3  A    between atoms: S1_9  and  O3_10 
ROOT
HETATM    1  N1  UNL     1      -0.422   2.041  -0.336  1.00  0.00    -0.071 NA
HETATM    2  C1  UNL     1       0.420   0.908  -0.162  1.00  0.00     0.203 A 
HETATM    3  O1  UNL     1       1.708   0.931  -0.410  1.00  0.00    -0.194 OA
HETATM    4  N2  UNL     1       2.217  -0.250  -0.159  1.00  0.00    -0.130 N 
HETATM    5  C2  UNL     1       1.241  -1.077   0.267  1.00  0.00     0.176 A 
HETATM    6  C3  UNL     1       0.063  -0.355   0.275  1.00  0.00     0.098 A 
ENDROOT
BRANCH   6   7
HETATM    7  S1  UNL     1      -1.534  -0.823   0.712  1.00  0.00     0.031 SA
BRANCH   7   8
HETATM    8  O3  UNL     1      -2.438  -1.423  -0.522  1.00  0.00    -0.325 OA
ATOM      9  H3  UNL     1      -3.320  -1.681  -0.281  1.00  0.00     0.228 HD
ENDBRANCH   7   8
ENDBRANCH   6   7
BRANCH   4  10
HETATM   10  O2  UNL     1       3.537  -0.606  -0.302  1.00  0.00    -0.263 OA
ATOM     11  H2  UNL     1       3.906  -1.462  -0.120  1.00  0.00     0.247 HD
ENDBRANCH   4  10
TORSDOF 3
