REMARK  5 active torsions:
REMARK  status: ('A' for Active; 'I' for Inactive)
REMARK    1  A    between atoms: C1_4  and  N2_5 
REMARK    2  A    between atoms: C1_4  and  C5_17 
REMARK    3  A    between atoms: N2_5  and  N3_7 
REMARK       I    between atoms: N3_7  and  C2_8 
REMARK    4  A    between atoms: C2_8  and  C3_10 
REMARK    5  A    between atoms: N4_11  and  N5_13 
REMARK       I    between atoms: N5_13  and  C4_14 
ROOT
HETATM    1  N3  UNL     1      -1.347   0.876   0.011  1.00  0.00    -0.279 NA
HETATM    2  C2  UNL     1       0.077   0.578  -0.134  1.00  0.00     0.353 C 
HETATM    3  O1  UNL     1       0.704   0.617  -1.163  1.00  0.00    -0.248 OA
ENDROOT
BRANCH   1   4
HETATM    4  N2  UNL     1      -2.557   1.158  -0.003  1.00  0.00    -0.211 N 
ATOM      5  H2  UNL     1      -2.730   2.154  -0.137  1.00  0.00     0.204 HD
BRANCH   4   6
HETATM    6  C1  UNL     1      -3.779   0.387   0.129  1.00  0.00     0.190 C 
HETATM    7  N1  UNL     1      -4.900   0.808  -0.394  1.00  0.00    -0.380 N 
ATOM      8  H12 UNL     1      -4.880   1.676  -0.929  1.00  0.00     0.158 HD
ATOM      9  H11 UNL     1      -5.759   0.266  -0.301  1.00  0.00     0.158 HD
BRANCH   6  10
HETATM   10  C5  UNL     1      -3.807  -0.850   0.891  1.00  0.00     0.300 C 
HETATM   11  N8  UNL     1      -2.596  -1.382   1.482  1.00  0.00    -0.054 NA
HETATM   12  O2  UNL     1      -4.855  -1.495   1.068  1.00  0.00    -0.268 OA
ENDBRANCH   6  10
ENDBRANCH   4   6
ENDBRANCH   1   4
BRANCH   2  13
HETATM   13  C3  UNL     1       0.788   0.205   1.104  1.00  0.00     0.212 C 
HETATM   14  N4  UNL     1       2.033  -0.048   1.077  1.00  0.00    -0.238 N 
ATOM     15  H4  UNL     1       2.420  -0.299   1.987  1.00  0.00     0.201 HD
BRANCH  14  16
HETATM   16  N5  UNL     1       2.895  -0.050   0.134  1.00  0.00    -0.295 NA
HETATM   17  C4  UNL     1       3.758  -0.313  -0.665  1.00  0.00     0.298 C 
HETATM   18  N6  UNL     1       4.141   0.696  -1.637  1.00  0.00    -0.051 NA
HETATM   19  N7  UNL     1       4.526  -1.536  -0.701  1.00  0.00    -0.051 NA
ENDBRANCH  14  16
ENDBRANCH   2  13
TORSDOF 5
