REMARK  3 active torsions:
REMARK  status: ('A' for Active; 'I' for Inactive)
REMARK    1  A    between atoms: N1_1  and  N2_4 
REMARK       I    between atoms: N2_4  and  C1_6 
REMARK       I    between atoms: C1_6  and  N3_8 
REMARK       I    between atoms: C2_10  and  N4_11 
REMARK       I    between atoms: C2_10  and  N8_18 
REMARK    2  A    between atoms: N4_11  and  N5_13 
REMARK    3  A    between atoms: N8_18  and  N9_20 
ROOT
HETATM    1  N2  UNL     1       2.402   1.621   0.314  1.00  0.00    -0.258 N 
ATOM      2  H2  UNL     1       2.247   1.856   1.294  1.00  0.00     0.191 HD
HETATM    3  C1  UNL     1       2.217   0.296  -0.130  1.00  0.00     0.352 C 
HETATM    4  O1  UNL     1       2.426   0.059  -1.369  1.00  0.00    -0.245 OA
HETATM    5  N3  UNL     1       1.814  -0.761   0.744  1.00  0.00    -0.137 N 
ATOM      6  H3  UNL     1       2.425  -1.080   1.496  1.00  0.00     0.189 HD
HETATM    7  C2  UNL     1       0.672  -1.295   0.560  1.00  0.00     0.720 C 
HETATM    8  N4  UNL     1      -0.151  -0.833  -0.491  1.00  0.00    -0.128 N 
ATOM      9  H4  UNL     1      -0.428  -1.453  -1.252  1.00  0.00     0.205 HD
HETATM   10  N8  UNL     1       0.253  -2.344   1.416  1.00  0.00    -0.070 N 
ATOM     11  H8  UNL     1       0.671  -2.454   2.340  1.00  0.00     0.212 HD
ENDROOT
BRANCH   8  12
HETATM   12  N5  UNL     1      -0.575   0.499  -0.457  1.00  0.00    -0.262 N 
HETATM   13  C3  UNL     1      -1.816   0.837  -0.458  1.00  0.00     0.216 C 
HETATM   14  N6  UNL     1      -2.811  -0.167  -0.495  1.00  0.00    -0.065 NA
HETATM   15  N7  UNL     1      -2.205   2.193  -0.422  1.00  0.00    -0.065 NA
ATOM     16  H5  UNL     1       0.131   1.235  -0.430  1.00  0.00     0.190 HD
ENDBRANCH   8  12
BRANCH  10  17
HETATM   17  N9  UNL     1      -0.740  -3.226   0.980  1.00  0.00    -0.024 N 
HETATM   18  O2  UNL     1      -1.772  -3.388   1.663  1.00  0.00    -0.516 OA
HETATM   19  O3  UNL     1      -0.594  -3.926  -0.207  1.00  0.00    -0.516 OA
ENDBRANCH  10  17
BRANCH   1  20
HETATM   20  N1  UNL     1       2.794   2.606  -0.581  1.00  0.00    -0.341 N 
ATOM     21  H12 UNL     1       2.944   2.354  -1.558  1.00  0.00     0.177 HD
ATOM     22  H11 UNL     1       2.928   3.565  -0.260  1.00  0.00     0.177 HD
ENDBRANCH   1  20
TORSDOF 3
