REMARK  5 active torsions:
REMARK  status: ('A' for Active; 'I' for Inactive)
REMARK       I    between atoms: C2_2  and  N1_4 
REMARK    1  A    between atoms: N1_4  and  N2_6 
REMARK       I    between atoms: N2_6  and  C3_8 
REMARK    2  A    between atoms: C3_8  and  C4_10 
REMARK    3  A    between atoms: C4_10  and  N3_11 
REMARK    4  A    between atoms: C4_10  and  C5_15 
REMARK    5  A    between atoms: N3_11  and  N4_12 
REMARK       I    between atoms: C5_15  and  N5_17 
ROOT
HETATM    1  C4  UNL     1       0.622  -0.986   1.574  1.00  0.00     0.284 C 
ENDROOT
BRANCH   1   2
HETATM    2  C3  UNL     1      -0.587  -0.165   1.292  1.00  0.00     0.266 C 
HETATM    3  N2  UNL     1      -1.321  -0.437   0.112  1.00  0.00    -0.266 N 
ATOM      4  H2  UNL     1      -1.006  -1.184  -0.507  1.00  0.00     0.190 HD
HETATM    5  O2  UNL     1      -0.889   0.733   2.135  1.00  0.00    -0.269 OA
BRANCH   3   6
HETATM    6  N1  UNL     1      -2.462   0.287  -0.228  1.00  0.00    -0.268 N 
HETATM    7  C2  UNL     1      -3.174  -0.045  -1.414  1.00  0.00     0.232 C 
HETATM    8  C1  UNL     1      -4.385   0.729  -1.764  1.00  0.00     0.119 C 
HETATM    9  O1  UNL     1      -2.815  -0.976  -2.187  1.00  0.00    -0.272 OA
ATOM     10  H1  UNL     1      -2.784   1.049   0.369  1.00  0.00     0.190 HD
ENDBRANCH   3   6
ENDBRANCH   1   2
BRANCH   1  11
HETATM   11  N3  UNL     1       0.928  -0.869   2.989  1.00  0.00    -0.124 NA
BRANCH  11  12
HETATM   12  N4  UNL     1       1.852  -1.775   3.441  1.00  0.00    -0.347 N 
ATOM     13  H42 UNL     1       2.279  -2.466   2.824  1.00  0.00     0.172 HD
ATOM     14  H41 UNL     1       2.067  -1.693   4.435  1.00  0.00     0.172 HD
ENDBRANCH  11  12
ENDBRANCH   1  11
BRANCH   1  15
HETATM   15  C5  UNL     1       1.745  -0.266   0.837  1.00  0.00     0.254 C 
HETATM   16  O3  UNL     1       2.865  -0.295   1.358  1.00  0.00    -0.271 OA
HETATM   17  N5  UNL     1       1.390   0.363  -0.361  1.00  0.00    -0.302 N 
HETATM   18  C6  UNL     1       2.131   0.761  -1.308  1.00  0.00     0.203 C 
ATOM     19  H5  UNL     1       0.391   0.524  -0.490  1.00  0.00     0.171 HD
HETATM   20  N6  UNL     1       3.541   0.586  -1.239  1.00  0.00    -0.066 NA
HETATM   21  N7  UNL     1       1.480   1.388  -2.401  1.00  0.00    -0.066 NA
ENDBRANCH   1  15
TORSDOF 5
