REMARK  15 active torsions:
REMARK  status: ('A' for Active; 'I' for Inactive)
REMARK    1  A    between atoms: C2_2  and  C3_3 
REMARK    2  A    between atoms: C2_2  and  N7_29 
REMARK    3  A    between atoms: C3_3  and  C4_4 
REMARK    4  A    between atoms: C6_6  and  N1_7 
REMARK    5  A    between atoms: N3_12  and  O2_13 
REMARK    6  A    between atoms: C10_23  and  C11_24 
REMARK    7  A    between atoms: N6_25  and  O5_27 
REMARK    8  A    between atoms: N7_29  and  C12_31 
REMARK    9  A    between atoms: C12_31  and  O6_32 
REMARK   10  A    between atoms: C12_31  and  N8_34 
REMARK   11  A    between atoms: N8_34  and  O7_35 
REMARK   12  A    between atoms: N8_34  and  C13_37 
REMARK   13  A    between atoms: C13_37  and  C14_38 
REMARK   14  A    between atoms: C14_38  and  C15_39 
REMARK   15  A    between atoms: C18_42  and  N9_43 
ROOT
HETATM    1  C1  UNL     1       1.046  -1.976   1.603  1.00  0.00     0.032 C 
HETATM    2  C2  UNL     1       1.043  -0.734   0.800  1.00  0.00     0.085 C 
ENDROOT
BRANCH   2   3
HETATM    3  C3  UNL     1       1.874   0.407   1.192  1.00  0.00     0.066 C 
BRANCH   3   4
HETATM    4  C4  UNL     1       3.300   0.279   1.353  1.00  0.00    -0.023 A 
HETATM    5  C5  UNL     1       4.164   0.344   0.258  1.00  0.00     0.061 A 
HETATM    6  C6  UNL     1       5.517   0.170   0.368  1.00  0.00     0.146 A 
HETATM    7  N4  UNL     1       6.009  -0.077   1.615  1.00  0.00    -0.283 N 
HETATM    8  N5  UNL     1       5.233  -0.145   2.675  1.00  0.00    -0.297 N 
ATOM      9  H4  UNL     1       7.013  -0.214   1.730  1.00  0.00     0.188 HD
HETATM   10  C10 UNL     1       3.901   0.027   2.567  1.00  0.00     0.071 A 
ATOM     11  H5  UNL     1       5.645  -0.330   3.590  1.00  0.00     0.187 HD
BRANCH   6  12
HETATM   12  N1  UNL     1       6.427   0.253  -0.744  1.00  0.00    -0.194 N 
HETATM   13  N2  UNL     1       7.030  -0.829  -1.238  1.00  0.00    -0.238 N 
HETATM   14  C7  UNL     1       7.896  -0.796  -2.258  1.00  0.00     0.369 A 
ATOM     15  H2  UNL     1       6.819  -1.733  -0.815  1.00  0.00     0.192 HD
HETATM   16  O1  UNL     1       8.446  -1.845  -2.692  1.00  0.00    -0.243 OA
HETATM   17  N3  UNL     1       8.225   0.376  -2.870  1.00  0.00    -0.128 N 
HETATM   18  C8  UNL     1       7.629   1.488  -2.393  1.00  0.00     0.345 A 
HETATM   19  O3  UNL     1       7.906   2.591  -2.932  1.00  0.00    -0.259 OA
HETATM   20  C9  UNL     1       6.731   1.429  -1.333  1.00  0.00     0.339 A 
HETATM   21  O4  UNL     1       6.184   2.477  -0.897  1.00  0.00    -0.260 OA
BRANCH  17  22
HETATM   22  O2  UNL     1       9.110   0.394  -3.905  1.00  0.00    -0.276 OA
ATOM     23  H2  UNL     1       9.339   1.211  -4.332  1.00  0.00     0.245 HD
ENDBRANCH  17  22
ENDBRANCH   6  12
BRANCH  10  24
HETATM   24  C11 UNL     1       3.124   0.005   3.780  1.00  0.00     0.145 C 
HETATM   25  N6  UNL     1       3.693  -0.227   4.912  1.00  0.00    -0.278 N 
ATOM     26  H6  UNL     1       3.097  -0.232   5.739  1.00  0.00     0.193 HD
BRANCH  25  27
HETATM   27  O5  UNL     1       5.018  -0.466   5.102  1.00  0.00    -0.290 OA
ATOM     28  H5  UNL     1       5.438  -0.637   5.937  1.00  0.00     0.244 HD
ENDBRANCH  25  27
ENDBRANCH  10  24
ENDBRANCH   3   4
ENDBRANCH   2   3
BRANCH   2  29
HETATM   29  N7  UNL     1      -0.346  -0.209   0.646  1.00  0.00    -0.350 N 
ATOM     30  H7  UNL     1      -0.606   0.257  -0.223  1.00  0.00     0.163 HD
BRANCH  29  31
HETATM   31  C12 UNL     1      -1.298  -0.338   1.656  1.00  0.00     0.243 C 
BRANCH  31  32
HETATM   32  O6  UNL     1      -0.837  -0.930   2.736  1.00  0.00    -0.331 OA
ATOM     33  H6  UNL     1      -1.486  -1.018   3.424  1.00  0.00     0.221 HD
ENDBRANCH  31  32
BRANCH  31  34
HETATM   34  N8  UNL     1      -2.641   0.061   1.692  1.00  0.00    -0.201 N 
BRANCH  34  35
HETATM   35  O7  UNL     1      -3.274  -0.257   2.924  1.00  0.00    -0.280 OA
ATOM     36  H7  UNL     1      -4.184   0.013   2.948  1.00  0.00     0.245 HD
ENDBRANCH  34  35
BRANCH  34  37
HETATM   37  C13 UNL     1      -3.516   0.705   0.805  1.00  0.00     0.116 C 
BRANCH  37  38
HETATM   38  C14 UNL     1      -4.315  -0.137  -0.136  1.00  0.00     0.048 C 
HETATM   39  C20 UNL     1      -3.513  -1.045  -1.030  1.00  0.00     0.049 C 
HETATM   40  C21 UNL     1      -4.606  -1.996  -1.506  1.00  0.00     0.233 C 
HETATM   41  N11 UNL     1      -5.764  -1.783  -0.652  1.00  0.00    -0.074 N 
HETATM   42  C22 UNL     1      -5.154  -1.211   0.561  1.00  0.00     0.252 C 
ATOM     43 2H11 UNL     1      -6.508  -1.221  -1.066  1.00  0.00     0.277 HD
ATOM     44 1H11 UNL     1      -6.342  -2.609  -0.495  1.00  0.00     0.277 HD
BRANCH  38  45
HETATM   45  C15 UNL     1      -5.240   0.712  -0.884  1.00  0.00    -0.027 A 
HETATM   46  C16 UNL     1      -6.274   1.386  -0.194  1.00  0.00     0.013 A 
HETATM   47  C17 UNL     1      -7.170   2.174  -0.875  1.00  0.00     0.048 A 
HETATM   48  C18 UNL     1      -7.087   2.330  -2.243  1.00  0.00     0.098 A 
HETATM   49  N10 UNL     1      -6.102   1.687  -2.888  1.00  0.00    -0.352 N 
HETATM   50  C19 UNL     1      -5.204   0.901  -2.229  1.00  0.00     0.098 A 
ATOM     51  H10 UNL     1      -6.023   1.789  -3.900  1.00  0.00     0.166 HD
BRANCH  48  52
HETATM   52  N9  UNL     1      -7.950   3.078  -2.888  1.00  0.00    -0.385 N 
ATOM     53  H92 UNL     1      -8.699   3.567  -2.398  1.00  0.00     0.157 HD
ATOM     54  H91 UNL     1      -7.889   3.193  -3.900  1.00  0.00     0.157 HD
ENDBRANCH  48  52
ENDBRANCH  38  45
ENDBRANCH  37  38
ENDBRANCH  34  37
ENDBRANCH  31  34
ENDBRANCH  29  31
ENDBRANCH   2  29
TORSDOF 15
