REMARK  12 active torsions:
REMARK  status: ('A' for Active; 'I' for Inactive)
REMARK    1  A    between atoms: O1_2  and  C2_3 
REMARK    2  A    between atoms: C4_5  and  C5_6 
REMARK       I    between atoms: C5_6  and  N1_8 
REMARK    3  A    between atoms: N1_8  and  N2_10 
REMARK    4  A    between atoms: C6_12  and  N3_14 
REMARK    5  A    between atoms: C9_19  and  N5_20 
REMARK    6  A    between atoms: N5_20  and  N6_22 
REMARK       I    between atoms: N6_22  and  C10_24 
REMARK       I    between atoms: C10_24  and  N8_28 
REMARK    7  A    between atoms: N8_28  and  N9_30 
REMARK    8  A    between atoms: N10_33  and  N11_34 
REMARK    9  A    between atoms: N11_34  and  C11_36 
REMARK   10  A    between atoms: C11_36  and  C12_37 
REMARK   11  A    between atoms: C17_44  and  N13_45 
REMARK   12  A    between atoms: C20_50  and  O6_51 
ROOT
HETATM    1  N3  UNL     1      -0.718  -0.268  -0.261  1.00  0.00    -0.081 N 
HETATM    2  C8  UNL     1      -0.920  -1.356  -1.019  1.00  0.00     0.361 A 
HETATM    3  O3  UNL     1       0.054  -1.806  -1.689  1.00  0.00    -0.245 OA
HETATM    4  N4  UNL     1      -2.119  -1.960  -1.072  1.00  0.00    -0.137 N 
ATOM      5  H4  UNL     1      -2.246  -2.787  -1.656  1.00  0.00     0.189 HD
HETATM    6  C9  UNL     1      -3.152  -1.479  -0.359  1.00  0.00     0.737 A 
HETATM    7  N10 UNL     1      -3.001  -0.367   0.434  1.00  0.00     0.087 N 
HETATM    8  C17 UNL     1      -1.785   0.195   0.452  1.00  0.00     0.724 A 
ENDROOT
BRANCH   1   9
HETATM    9  C6  UNL     1       0.548   0.385  -0.192  1.00  0.00     0.120 C 
HETATM   10  N2  UNL     1       1.444  -0.011   0.617  1.00  0.00    -0.285 N 
ATOM     11  H2  UNL     1       1.260  -0.807   1.228  1.00  0.00     0.188 HD
HETATM   12  C7  UNL     1       0.811   1.554  -1.094  1.00  0.00     0.092 C 
BRANCH  10  13
HETATM   13  N1  UNL     1       2.683   0.639   0.675  1.00  0.00    -0.264 N 
HETATM   14  C5  UNL     1       3.867  -0.031   0.272  1.00  0.00     0.270 C 
HETATM   15  O2  UNL     1       3.814  -1.217  -0.141  1.00  0.00    -0.266 OA
ATOM     16  H1  UNL     1       2.735   1.601   1.009  1.00  0.00     0.190 HD
BRANCH  14  17
HETATM   17  C4  UNL     1       5.160   0.626   0.325  1.00  0.00     0.036 A 
HETATM   18  C3  UNL     1       6.297  -0.057  -0.075  1.00  0.00     0.056 A 
HETATM   19  C2  UNL     1       7.545   0.518  -0.045  1.00  0.00     0.102 A 
HETATM   20  C20 UNL     1       7.673   1.829   0.402  1.00  0.00     0.099 A 
HETATM   21  C19 UNL     1       6.571   2.546   0.810  1.00  0.00     0.040 A 
HETATM   22  C18 UNL     1       5.332   1.933   0.765  1.00  0.00     0.020 A 
BRANCH  19  23
HETATM   23  O1  UNL     1       8.701  -0.121  -0.433  1.00  0.00    -0.353 OA
HETATM   24  C1  UNL     1       8.742  -1.443  -0.908  1.00  0.00     0.210 C 
ENDBRANCH  19  23
BRANCH  20  25
HETATM   25  O6  UNL     1       8.926   2.449   0.447  1.00  0.00    -0.358 OA
ATOM     26  H6  UNL     1       9.013   3.344   0.752  1.00  0.00     0.217 HD
ENDBRANCH  20  25
ENDBRANCH  14  17
ENDBRANCH  10  13
ENDBRANCH   1   9
BRANCH   8  27
HETATM   27  N13 UNL     1      -1.552   1.206   1.179  1.00  0.00    -0.232 N 
ATOM     28 2H13 UNL     1      -0.626   1.634   1.193  1.00  0.00     0.174 HD
ATOM     29 1H13 UNL     1      -2.350   1.552   1.712  1.00  0.00     0.174 HD
ENDBRANCH   8  27
BRANCH   7  30
HETATM   30  N11 UNL     1      -4.088   0.069   1.172  1.00  0.00    -0.296 N 
ATOM     31  H11 UNL     1      -4.899  -0.548   1.134  1.00  0.00     0.182 HD
BRANCH  30  32
HETATM   32  C11 UNL     1      -4.268   1.232   1.975  1.00  0.00     0.181 C 
BRANCH  32  33
HETATM   33  C12 UNL     1      -4.460   2.421   1.116  1.00  0.00    -0.024 A 
HETATM   34  C13 UNL     1      -4.313   3.696   1.608  1.00  0.00     0.011 A 
HETATM   35  C14 UNL     1      -4.527   4.797   0.767  1.00  0.00     0.018 A 
HETATM   36  C15 UNL     1      -4.883   4.591  -0.543  1.00  0.00     0.087 A 
HETATM   37  N12 UNL     1      -5.019   3.340  -0.994  1.00  0.00    -0.375 N 
HETATM   38  C16 UNL     1      -4.818   2.272  -0.204  1.00  0.00     0.096 A 
ATOM     39  H12 UNL     1      -5.284   3.192  -1.968  1.00  0.00     0.164 HD
ENDBRANCH  32  33
ENDBRANCH  30  32
ENDBRANCH   7  30
BRANCH   6  40
HETATM   40  N5  UNL     1      -4.314  -2.042  -0.398  1.00  0.00    -0.115 N 
ATOM     41  H5  UNL     1      -5.095  -1.674   0.145  1.00  0.00     0.206 HD
BRANCH  40  42
HETATM   42  N6  UNL     1      -4.469  -3.168  -1.205  1.00  0.00    -0.117 N 
HETATM   43  C10 UNL     1      -4.938  -4.414  -0.711  1.00  0.00     0.710 C 
HETATM   44  N7  UNL     1      -5.839  -4.480   0.206  1.00  0.00    -0.232 N 
HETATM   45  N8  UNL     1      -4.422  -5.637  -1.218  1.00  0.00    -0.071 N 
ATOM     46  H72 UNL     1      -6.209  -3.602   0.570  1.00  0.00     0.174 HD
ATOM     47  H71 UNL     1      -6.176  -5.375   0.561  1.00  0.00     0.174 HD
ATOM     48  H8  UNL     1      -4.100  -5.699  -2.184  1.00  0.00     0.212 HD
ATOM     49  H6  UNL     1      -4.235  -3.094  -2.195  1.00  0.00     0.206 HD
BRANCH  45  50
HETATM   50  N9  UNL     1      -4.360  -6.743  -0.390  1.00  0.00    -0.024 N 
HETATM   51  O4  UNL     1      -4.572  -7.872  -0.878  1.00  0.00    -0.516 OA
HETATM   52  O5  UNL     1      -4.071  -6.617   0.955  1.00  0.00    -0.516 OA
ENDBRANCH  45  50
ENDBRANCH  40  42
ENDBRANCH   6  40
TORSDOF 12
