REMARK  10 active torsions:
REMARK  status: ('A' for Active; 'I' for Inactive)
REMARK    1  A    between atoms: N2_5  and  C4_6 
REMARK    2  A    between atoms: C4_6  and  C5_7 
REMARK    3  A    between atoms: N3_8  and  C6_10 
REMARK    4  A    between atoms: C7_13  and  N5_14 
REMARK    5  A    between atoms: C9_16  and  C10_17 
REMARK    6  A    between atoms: C10_17  and  C11_18 
REMARK    7  A    between atoms: C11_18  and  N6_19 
REMARK    8  A    between atoms: N6_19  and  C12_21 
REMARK    9  A    between atoms: C20_39  and  O1_40 
REMARK   10  A    between atoms: C21_42  and  O2_43 
ROOT
HETATM    1  C6  UNL     1      -1.370  -0.167   0.097  1.00  0.00     0.136 A 
HETATM    2  N4  UNL     1      -0.058  -0.582   0.027  1.00  0.00    -0.325 N 
ATOM      3  H4  UNL     1       0.135  -1.583  -0.011  1.00  0.00     0.169 HD
HETATM    4  C7  UNL     1       0.982   0.274   0.007  1.00  0.00     0.130 A 
HETATM    5  C15 UNL     1       0.751   1.630   0.066  1.00  0.00     0.067 A 
HETATM    6  C16 UNL     1      -0.525   2.057   0.130  1.00  0.00     0.030 A 
HETATM    7  C17 UNL     1      -0.992   3.389   0.111  1.00  0.00     0.085 A 
HETATM    8  C18 UNL     1      -0.260   4.589   0.290  1.00  0.00     0.066 C 
HETATM    9  N11 UNL     1       0.395   4.925   1.514  1.00  0.00    -0.387 N 
ATOM     10  H11 UNL     1       0.730   4.332   2.273  1.00  0.00     0.159 HD
HETATM   11  C19 UNL     1       0.440   6.401   1.345  1.00  0.00     0.154 C 
HETATM   12  C20 UNL     1       0.766   6.613  -0.141  1.00  0.00     0.170 C 
HETATM   13  C21 UNL     1       0.554   5.243  -0.754  1.00  0.00     0.200 C 
HETATM   14  N12 UNL     1      -2.329   3.238   0.106  1.00  0.00    -0.297 N 
ATOM     15  H12 UNL     1      -2.984   4.020   0.089  1.00  0.00     0.187 HD
HETATM   16  N13 UNL     1      -2.705   1.971   0.126  1.00  0.00    -0.296 N 
ATOM     17  H13 UNL     1      -3.667   1.631   0.127  1.00  0.00     0.187 HD
HETATM   18  C22 UNL     1      -1.607   1.214   0.145  1.00  0.00     0.104 A 
ENDROOT
BRANCH   4  19
HETATM   19  N5  UNL     1       2.312  -0.205  -0.148  1.00  0.00    -0.235 N 
HETATM   20  C8  UNL     1       3.434   0.443  -0.462  1.00  0.00     0.146 A 
HETATM   21  C9  UNL     1       4.497  -0.478  -0.553  1.00  0.00     0.046 A 
HETATM   22  N9  UNL     1       3.909  -1.645  -0.276  1.00  0.00    -0.289 N 
HETATM   23  N10 UNL     1       2.634  -1.500  -0.036  1.00  0.00    -0.235 N 
ATOM     24  H9  UNL     1       4.397  -2.540  -0.255  1.00  0.00     0.188 HD
ATOM     25  H10 UNL     1       1.987  -2.252   0.199  1.00  0.00     0.209 HD
BRANCH  21  26
HETATM   26  C10 UNL     1       5.891  -0.150  -0.869  1.00  0.00     0.080 C 
BRANCH  26  27
HETATM   27  C11 UNL     1       6.740   0.071   0.357  1.00  0.00     0.128 C 
BRANCH  27  28
HETATM   28  N6  UNL     1       6.788  -1.152   1.122  1.00  0.00    -0.362 N 
ATOM     29  H6  UNL     1       6.288  -1.175   2.011  1.00  0.00     0.162 HD
BRANCH  28  30
HETATM   30  C12 UNL     1       7.478  -2.320   0.728  1.00  0.00     0.171 C 
HETATM   31  N7  UNL     1       8.772  -2.446   0.920  1.00  0.00    -0.361 N 
HETATM   32  C13 UNL     1       9.246  -3.714   0.438  1.00  0.00     0.142 C 
ATOM     33  H7  UNL     1       9.362  -1.737   1.354  1.00  0.00     0.162 HD
HETATM   34  C14 UNL     1       7.953  -4.561   0.417  1.00  0.00     0.142 C 
HETATM   35  N8  UNL     1       7.001  -3.495   0.103  1.00  0.00    -0.361 N 
ATOM     36  H8  UNL     1       6.155  -3.583  -0.460  1.00  0.00     0.162 HD
ENDBRANCH  28  30
ENDBRANCH  27  28
ENDBRANCH  26  27
ENDBRANCH  21  26
ENDBRANCH   4  19
BRANCH   1  37
HETATM   37  N3  UNL     1      -2.267  -0.998   0.168  1.00  0.00    -0.352 N 
HETATM   38  C5  UNL     1      -3.497  -1.499   0.252  1.00  0.00     0.082 C 
ATOM     39  H3  UNL     1      -1.720  -1.859   0.153  1.00  0.00     0.166 HD
BRANCH  38  40
HETATM   40  C4  UNL     1      -4.372  -1.303  -0.997  1.00  0.00     0.161 C 
BRANCH  40  41
HETATM   41  N2  UNL     1      -5.653  -1.908  -0.823  1.00  0.00    -0.405 N 
HETATM   42  C3  UNL     1      -6.500  -1.320   0.145  1.00  0.00     0.147 C 
HETATM   43  C2  UNL     1      -7.838  -2.044   0.129  1.00  0.00     0.291 C 
HETATM   44  N1  UNL     1      -7.631  -3.358   0.685  1.00  0.00     0.087 N 
HETATM   45  C1  UNL     1      -8.756  -4.225   0.571  1.00  0.00     0.310 C 
HETATM   46  C24 UNL     1      -6.371  -3.933   0.367  1.00  0.00     0.291 C 
HETATM   47  C23 UNL     1      -5.699  -3.325  -0.833  1.00  0.00     0.147 C 
ENDBRANCH  40  41
ENDBRANCH  38  40
ENDBRANCH   1  37
BRANCH  13  48
HETATM   48  O2  UNL     1       0.049   5.349  -2.004  1.00  0.00    -0.387 OA
ATOM     49  H2  UNL     1       0.573   5.770  -2.676  1.00  0.00     0.210 HD
ENDBRANCH  13  48
BRANCH  12  50
HETATM   50  O1  UNL     1       2.083   7.042  -0.263  1.00  0.00    -0.391 OA
ATOM     51  H1  UNL     1       2.285   7.173  -1.182  1.00  0.00     0.210 HD
ENDBRANCH  12  50
TORSDOF 10
