REMARK  10 active torsions:
REMARK  status: ('A' for Active; 'I' for Inactive)
REMARK    1  A    between atoms: N1_1  and  C1_4 
REMARK    2  A    between atoms: C5_14  and  N5_15 
REMARK    3  A    between atoms: N5_15  and  S1_17 
REMARK    4  A    between atoms: S1_17  and  C6_20 
REMARK    5  A    between atoms: C9_23  and  O3_24 
REMARK    6  A    between atoms: O3_24  and  S2_25 
REMARK    7  A    between atoms: S2_25  and  C10_28 
REMARK    8  A    between atoms: C10_28  and  C11_29 
REMARK    9  A    between atoms: C14_35  and  O7_36 
REMARK   10  A    between atoms: C16_41  and  C17_42 
ROOT
HETATM    1  C6  UNL     1       0.406  -1.478  -0.160  1.00  0.00     0.096 A 
HETATM    2  C7  UNL     1      -0.094  -1.393  -1.464  1.00  0.00     0.029 A 
HETATM    3  C8  UNL     1      -1.328  -0.860  -1.747  1.00  0.00     0.040 A 
HETATM    4  C9  UNL     1      -2.107  -0.388  -0.693  1.00  0.00     0.090 A 
HETATM    5  C15 UNL     1      -1.636  -0.462   0.584  1.00  0.00     0.058 A 
HETATM    6  C16 UNL     1      -0.364  -1.013   0.865  1.00  0.00     0.066 A 
ENDROOT
BRANCH   1   7
HETATM    7  S1  UNL     1       1.979  -2.124   0.116  1.00  0.00     0.262 S 
HETATM    8  O1  UNL     1       1.970  -3.433   0.897  1.00  0.00    -0.200 OA
HETATM    9  O2  UNL     1       2.588  -2.563  -1.235  1.00  0.00    -0.200 OA
BRANCH   7  10
HETATM   10  N5  UNL     1       3.099  -1.029   0.809  1.00  0.00    -0.276 N 
ATOM     11  H5  UNL     1       3.024  -0.636   1.747  1.00  0.00     0.176 HD
BRANCH  10  12
HETATM   12  C5  UNL     1       4.148  -0.745  -0.109  1.00  0.00     0.300 C 
HETATM   13  N4  UNL     1       5.469  -1.032   0.443  1.00  0.00    -0.346 N 
HETATM   14  C4  UNL     1       6.376  -0.212  -0.301  1.00  0.00     0.119 A 
ATOM     15  H4  UNL     1       5.697  -1.679   1.198  1.00  0.00     0.163 HD
HETATM   16  C1  UNL     1       7.727  -0.291  -0.557  1.00  0.00     0.130 A 
HETATM   17  C3  UNL     1       5.640   0.850  -0.830  1.00  0.00     0.135 A 
HETATM   18  N2  UNL     1       8.380   0.634  -1.312  1.00  0.00    -0.337 N 
HETATM   19  C2  UNL     1       7.637   1.641  -1.802  1.00  0.00     0.183 A 
ATOM     20  H2  UNL     1       9.381   0.567  -1.496  1.00  0.00     0.168 HD
HETATM   21  N3  UNL     1       6.311   1.749  -1.571  1.00  0.00    -0.337 N 
ATOM     22  H3  UNL     1       5.802   2.537  -1.971  1.00  0.00     0.168 HD
HETATM   23  N8  UNL     1       4.294   0.668  -0.404  1.00  0.00    -0.336 N 
ATOM     24  H8  UNL     1       3.576   1.387  -0.322  1.00  0.00     0.165 HD
BRANCH  16  25
HETATM   25  N1  UNL     1       8.406  -1.267  -0.072  1.00  0.00    -0.383 N 
ATOM     26  H12 UNL     1       9.407  -1.326  -0.262  1.00  0.00     0.157 HD
ATOM     27  H11 UNL     1       7.917  -1.960   0.494  1.00  0.00     0.157 HD
ENDBRANCH  16  25
ENDBRANCH  10  12
ENDBRANCH   7  10
ENDBRANCH   1   7
BRANCH   6  28
HETATM   28  C17 UNL     1      -0.021  -1.055   2.273  1.00  0.00     0.211 C 
HETATM   29  O8  UNL     1      -0.715  -0.401   3.133  1.00  0.00    -0.644 OA
HETATM   30  O9  UNL     1       1.028  -1.774   2.777  1.00  0.00    -0.644 OA
ENDBRANCH   6  28
BRANCH   4  31
HETATM   31  O3  UNL     1      -3.368   0.160  -0.964  1.00  0.00    -0.233 OA
BRANCH  31  32
HETATM   32  S2  UNL     1      -3.541   1.809  -1.275  1.00  0.00     0.277 S 
HETATM   33  O4  UNL     1      -2.218   2.528  -1.182  1.00  0.00    -0.198 OA
HETATM   34  O5  UNL     1      -4.130   1.949  -2.657  1.00  0.00    -0.198 OA
BRANCH  32  35
HETATM   35  C10 UNL     1      -4.708   2.471  -0.119  1.00  0.00     0.247 C 
BRANCH  35  36
HETATM   36  C11 UNL     1      -5.992   1.770  -0.304  1.00  0.00     0.102 A 
HETATM   37  N6  UNL     1      -6.907   2.236  -1.167  1.00  0.00    -0.312 N 
HETATM   38  C12 UNL     1      -8.096   1.609  -1.355  1.00  0.00     0.250 A 
ATOM     39  H6  UNL     1      -6.704   3.084  -1.696  1.00  0.00     0.170 HD
HETATM   40  O6  UNL     1      -8.931   2.057  -2.160  1.00  0.00    -0.268 OA
HETATM   41  C13 UNL     1      -8.370   0.463  -0.642  1.00  0.00     0.130 A 
HETATM   42  C14 UNL     1      -7.412   0.001   0.242  1.00  0.00     0.146 A 
HETATM   43  N7  UNL     1      -6.237   0.654   0.403  1.00  0.00    -0.326 N 
ATOM     44  H7  UNL     1      -5.540   0.300   1.059  1.00  0.00     0.169 HD
BRANCH  42  45
HETATM   45  O7  UNL     1      -7.706  -1.148   0.947  1.00  0.00    -0.346 OA
ATOM     46  H7  UNL     1      -7.048  -1.465   1.554  1.00  0.00     0.219 HD
ENDBRANCH  42  45
ENDBRANCH  35  36
ENDBRANCH  32  35
ENDBRANCH  31  32
ENDBRANCH   4  31
TORSDOF 10
