REMARK  8 active torsions:
REMARK  status: ('A' for Active; 'I' for Inactive)
REMARK    1  A    between atoms: N1_1  and  C1_5 
REMARK    2  A    between atoms: C1_5  and  C2_6 
REMARK       I    between atoms: C2_6  and  N2_8 
REMARK    3  A    between atoms: N2_8  and  C3_10 
REMARK    4  A    between atoms: C6_13  and  S1_14 
REMARK    5  A    between atoms: S1_14  and  N3_17 
REMARK    6  A    between atoms: N3_17  and  N4_19 
REMARK    7  A    between atoms: N4_19  and  C7_20 
REMARK    8  A    between atoms: C7_20  and  C8_21 
ROOT
HETATM    1  C3  UNL     1       2.716   0.751  -0.088  1.00  0.00     0.034 A 
HETATM    2  C4  UNL     1       2.650   1.040   1.244  1.00  0.00     0.031 A 
HETATM    3  C5  UNL     1       1.458   1.502   1.780  1.00  0.00     0.027 A 
HETATM    4  C6  UNL     1       0.333   1.679   1.017  1.00  0.00     0.081 A 
HETATM    5  C14 UNL     1       0.431   1.377  -0.326  1.00  0.00     0.027 A 
HETATM    6  C15 UNL     1       1.582   0.922  -0.891  1.00  0.00     0.031 A 
ENDROOT
BRANCH   4   7
HETATM    7  S1  UNL     1      -1.120   2.263   1.772  1.00  0.00     0.273 S 
HETATM    8  O2  UNL     1      -1.874   3.102   0.781  1.00  0.00    -0.199 OA
HETATM    9  O3  UNL     1      -0.721   3.162   2.916  1.00  0.00    -0.199 OA
BRANCH   7  10
HETATM   10  N3  UNL     1      -2.102   0.979   2.357  1.00  0.00    -0.227 N 
ATOM     11  H3  UNL     1      -2.035   0.581   3.294  1.00  0.00     0.195 HD
BRANCH  10  12
HETATM   12  N4  UNL     1      -3.004   0.554   1.379  1.00  0.00    -0.127 NA
BRANCH  12  13
HETATM   13  C7  UNL     1      -2.646  -0.802   0.963  1.00  0.00     0.174 C 
BRANCH  13  14
HETATM   14  C8  UNL     1      -3.600  -1.265  -0.078  1.00  0.00    -0.042 A 
HETATM   15  C9  UNL     1      -3.290  -0.998  -1.396  1.00  0.00     0.008 A 
HETATM   16  C10 UNL     1      -4.129  -1.400  -2.397  1.00  0.00     0.001 A 
HETATM   17  C11 UNL     1      -5.288  -2.072  -2.098  1.00  0.00     0.000 A 
HETATM   18  C12 UNL     1      -5.581  -2.328  -0.791  1.00  0.00     0.001 A 
HETATM   19  C13 UNL     1      -4.762  -1.941   0.256  1.00  0.00     0.008 A 
ENDBRANCH  13  14
ENDBRANCH  12  13
ENDBRANCH  10  12
ENDBRANCH   7  10
ENDBRANCH   4   7
BRANCH   1  20
HETATM   20  N2  UNL     1       3.876   0.301  -0.739  1.00  0.00    -0.326 N 
HETATM   21  C2  UNL     1       5.174   0.491  -0.236  1.00  0.00     0.247 C 
HETATM   22  O1  UNL     1       5.452   1.074   0.820  1.00  0.00    -0.271 OA
ATOM     23  H2  UNL     1       3.770  -0.191  -1.626  1.00  0.00     0.169 HD
BRANCH  21  24
HETATM   24  C1  UNL     1       6.368  -0.047  -1.019  1.00  0.00     0.332 C 
BRANCH  24  25
HETATM   25  N1  UNL     1       5.847  -0.675  -2.187  1.00  0.00    -0.071 N 
ATOM     26  H13 UNL     1       5.147  -1.388  -1.981  1.00  0.00     0.274 HD
ATOM     27  H12 UNL     1       5.248  -0.062  -2.739  1.00  0.00     0.274 HD
ATOM     28  H11 UNL     1       6.645  -1.035  -2.710  1.00  0.00     0.274 HD
ENDBRANCH  24  25
ENDBRANCH  21  24
ENDBRANCH   1  20
TORSDOF 8
