REMARK  3 active torsions:
REMARK  status: ('A' for Active; 'I' for Inactive)
REMARK    1  A    between atoms: C2_2  and  C3_3 
REMARK    2  A    between atoms: C3_3  and  N1_4 
REMARK       I    between atoms: N1_4  and  C4_6 
REMARK    3  A    between atoms: C4_6  and  C5_8 
ROOT
HETATM    1  C5  UNL     1       0.036  -0.340  -0.302  1.00  0.00     0.042 C 
HETATM    2  C6  UNL     1      -0.185   1.159  -0.224  1.00  0.00     0.024 C 
HETATM    3  C7  UNL     1      -1.637   1.508  -0.159  1.00  0.00    -0.013 C 
HETATM    4  C8  UNL     1      -2.108   1.400   1.244  1.00  0.00     0.005 C 
HETATM    5  C9  UNL     1      -2.611   0.085   1.672  1.00  0.00     0.005 C 
HETATM    6  C10 UNL     1      -1.902  -1.111   1.121  1.00  0.00    -0.013 C 
HETATM    7  C11 UNL     1      -2.561  -1.586  -0.163  1.00  0.00     0.009 C 
HETATM    8  C12 UNL     1      -2.163  -0.682  -1.279  1.00  0.00    -0.013 C 
HETATM    9  C13 UNL     1      -2.507   0.745  -1.096  1.00  0.00     0.009 C 
HETATM   10  C14 UNL     1      -0.690  -0.832  -1.515  1.00  0.00     0.024 C 
HETATM   11  C15 UNL     1      -0.438  -0.972   0.978  1.00  0.00     0.024 C 
ENDROOT
BRANCH   1  12
HETATM   12  C4  UNL     1       1.488  -0.595  -0.453  1.00  0.00     0.226 C 
HETATM   13  N1  UNL     1       2.446  -0.170   0.515  1.00  0.00    -0.357 N 
ATOM     14  H1  UNL     1       2.118   0.328   1.342  1.00  0.00     0.162 HD
HETATM   15  O1  UNL     1       1.872  -1.209  -1.478  1.00  0.00    -0.273 OA
BRANCH  13  16
HETATM   16  C3  UNL     1       3.845  -0.414   0.373  1.00  0.00     0.149 C 
BRANCH  16  17
HETATM   17  C2  UNL     1       4.435   0.188  -0.836  1.00  0.00    -0.018 C 
HETATM   18  C1  UNL     1       5.405   1.074  -0.721  1.00  0.00     0.008 C 
ENDBRANCH  16  17
ENDBRANCH  13  16
ENDBRANCH   1  12
TORSDOF 3
