REMARK  3 active torsions:
REMARK  status: ('A' for Active; 'I' for Inactive)
REMARK       I    between atoms: C1_2  and  N1_3 
REMARK    1  A    between atoms: C1_2  and  C6_9 
REMARK    2  A    between atoms: N1_3  and  C2_5 
REMARK    3  A    between atoms: C2_5  and  C3_6 
ROOT
HETATM    1  C6  UNL     1      -0.541   0.315   0.174  1.00  0.00     0.042 C 
HETATM    2  C7  UNL     1      -1.042   1.618  -0.347  1.00  0.00     0.024 C 
HETATM    3  C8  UNL     1      -2.548   1.679  -0.367  1.00  0.00    -0.013 C 
HETATM    4  C9  UNL     1      -3.051   1.413   1.020  1.00  0.00     0.009 C 
HETATM    5  C10 UNL     1      -2.624   0.043   1.458  1.00  0.00    -0.013 C 
HETATM    6  C11 UNL     1      -3.088  -1.041   0.516  1.00  0.00     0.009 C 
HETATM    7  C12 UNL     1      -2.484  -0.738  -0.849  1.00  0.00    -0.013 C 
HETATM    8  C13 UNL     1      -3.031   0.585  -1.294  1.00  0.00     0.009 C 
HETATM    9  C14 UNL     1      -0.983  -0.773  -0.771  1.00  0.00     0.024 C 
HETATM   10  C15 UNL     1      -1.137  -0.008   1.545  1.00  0.00     0.024 C 
ENDROOT
BRANCH   1  11
HETATM   11  C1  UNL     1       0.915   0.371   0.351  1.00  0.00     0.226 C 
HETATM   12  O1  UNL     1       1.496   1.444   0.056  1.00  0.00    -0.273 OA
HETATM   13  N1  UNL     1       1.698  -0.708   0.833  1.00  0.00    -0.360 N 
ATOM     14  H1  UNL     1       1.240  -1.586   1.077  1.00  0.00     0.162 HD
BRANCH  13  15
HETATM   15  C2  UNL     1       3.132  -0.592   0.986  1.00  0.00     0.127 C 
BRANCH  15  16
HETATM   16  C3  UNL     1       3.827  -0.288  -0.317  1.00  0.00     0.003 A 
HETATM   17  C4  UNL     1       5.318  -0.152  -0.243  1.00  0.00     0.007 A 
HETATM   18  C5  UNL     1       4.674  -1.413  -0.856  1.00  0.00     0.007 A 
ENDBRANCH  15  16
ENDBRANCH  13  15
ENDBRANCH   1  11
TORSDOF 3
