REMARK  6 active torsions:
REMARK  status: ('A' for Active; 'I' for Inactive)
REMARK    1  A    between atoms: C3_3  and  N1_4 
REMARK    2  A    between atoms: N1_4  and  C5_6 
REMARK    3  A    between atoms: C5_6  and  C6_7 
REMARK    4  A    between atoms: C6_7  and  N2_8 
REMARK    5  A    between atoms: C15_28  and  S1_29 
REMARK    6  A    between atoms: S1_29  and  N7_32 
ROOT
HETATM    1  C1  UNL     1       5.294   2.108  -1.274  1.00  0.00     0.013 C 
HETATM    2  C2  UNL     1       5.315   1.464  -0.251  1.00  0.00    -0.087 C 
HETATM    3  C3  UNL     1       5.316   0.701   0.977  1.00  0.00     0.364 C 
ENDROOT
BRANCH   3   4
HETATM    4  N1  UNL     1       4.184  -0.209   0.970  1.00  0.00     0.096 N 
HETATM    5  C4  UNL     1       4.240  -0.946   2.230  1.00  0.00     0.311 C 
BRANCH   4   6
HETATM    6  C5  UNL     1       4.306  -1.176  -0.109  1.00  0.00     0.292 C 
BRANCH   6   7
HETATM    7  C6  UNL     1       3.138  -2.126  -0.127  1.00  0.00     0.151 C 
BRANCH   7   8
HETATM    8  N2  UNL     1       1.890  -1.422  -0.313  1.00  0.00    -0.373 N 
HETATM    9  C7  UNL     1       0.967  -1.825  -1.114  1.00  0.00     0.130 A 
HETATM   10  N3  UNL     1       0.919  -2.895  -1.911  1.00  0.00    -0.283 N 
HETATM   11  C18 UNL     1      -0.223  -1.133  -1.276  1.00  0.00     0.058 A 
HETATM   12  N4  UNL     1      -0.217  -2.953  -2.583  1.00  0.00    -0.282 N 
ATOM     13  H3  UNL     1       1.668  -3.583  -1.991  1.00  0.00     0.188 HD
HETATM   14  C8  UNL     1      -0.937  -1.880  -2.210  1.00  0.00     0.149 A 
ATOM     15  H4  UNL     1      -0.494  -3.671  -3.253  1.00  0.00     0.188 HD
HETATM   16  N5  UNL     1      -2.155  -1.431  -2.562  1.00  0.00    -0.283 N 
HETATM   17  N6  UNL     1      -2.615  -0.322  -2.019  1.00  0.00    -0.298 N 
ATOM     18  H5  UNL     1      -2.717  -1.943  -3.242  1.00  0.00     0.188 HD
HETATM   19  C9  UNL     1      -1.980   0.436  -1.120  1.00  0.00     0.062 A 
ATOM     20  H6  UNL     1      -3.542  -0.013  -2.312  1.00  0.00     0.187 HD
HETATM   21  C10 UNL     1      -2.524   1.646  -0.551  1.00  0.00     0.033 A 
HETATM   22  C17 UNL     1      -0.736   0.020  -0.730  1.00  0.00     0.051 A 
HETATM   23  C11 UNL     1      -2.320   2.869  -1.182  1.00  0.00     0.026 A 
HETATM   24  C15 UNL     1      -3.241   1.530   0.639  1.00  0.00     0.095 A 
HETATM   25 BR1  UNL     1      -1.315   2.864  -2.810  1.00  0.00    -0.050 Br
HETATM   26  C12 UNL     1      -2.835   4.013  -0.631  1.00  0.00     0.044 A 
HETATM   27  C13 UNL     1      -3.552   3.951   0.546  1.00  0.00     0.036 A 
HETATM   28 CL1  UNL     1      -4.217   5.410   1.265  1.00  0.00    -0.084 Cl
HETATM   29  C14 UNL     1      -3.735   2.723   1.146  1.00  0.00     0.050 A 
ATOM     30  H2  UNL     1       1.733  -0.564   0.216  1.00  0.00     0.161 HD
BRANCH  24  31
HETATM   31  S1  UNL     1      -3.497   0.017   1.422  1.00  0.00     0.259 S 
HETATM   32  O1  UNL     1      -2.264  -0.580   2.024  1.00  0.00    -0.201 OA
HETATM   33  O2  UNL     1      -4.395   0.285   2.609  1.00  0.00    -0.201 OA
BRANCH  31  34
HETATM   34  N7  UNL     1      -4.368  -1.113   0.459  1.00  0.00    -0.320 N 
HETATM   35  C16 UNL     1      -5.701  -0.552   0.172  1.00  0.00     0.159 C 
ATOM     36  H7  UNL     1      -4.021  -2.018   0.141  1.00  0.00     0.171 HD
ENDBRANCH  31  34
ENDBRANCH  24  31
ENDBRANCH   7   8
ENDBRANCH   6   7
ENDBRANCH   4   6
ENDBRANCH   3   4
TORSDOF 6
