REMARK  3 active torsions:
REMARK  status: ('A' for Active; 'I' for Inactive)
REMARK    1  A    between atoms: N1_1  and  C1_4 
REMARK    2  A    between atoms: C4_16  and  C5_17 
REMARK    3  A    between atoms: C8_20  and  C9_21 
ROOT
HETATM    1  C1  UNL     1       1.339  -1.093  -0.326  1.00  0.00     0.145 A 
HETATM    2  N2  UNL     1       2.678  -1.340  -0.475  1.00  0.00    -0.247 N 
ATOM      3  H2  UNL     1       3.004  -2.290  -0.654  1.00  0.00     0.191 HD
HETATM    4  N3  UNL     1       3.545  -0.351  -0.387  1.00  0.00    -0.018 N 
HETATM    5  N4  UNL     1       4.878  -0.314  -0.490  1.00  0.00    -0.260 N 
ATOM      6  H4  UNL     1       5.478  -1.119  -0.669  1.00  0.00     0.190 HD
HETATM    7  C2  UNL     1       5.305   0.950  -0.321  1.00  0.00     0.217 A 
HETATM    8  N5  UNL     1       4.203   1.689  -0.112  1.00  0.00    -0.183 N 
ATOM      9  H5  UNL     1       4.194   2.696   0.051  1.00  0.00     0.185 HD
HETATM   10  C3  UNL     1       3.099   0.893  -0.150  1.00  0.00     0.720 A 
HETATM   11  N6  UNL     1       1.791   1.144  -0.002  1.00  0.00    -0.182 N 
ATOM     12  H6  UNL     1       1.491   2.102   0.177  1.00  0.00     0.184 HD
HETATM   13  C4  UNL     1       0.846   0.162  -0.083  1.00  0.00     0.120 A 
ENDROOT
BRANCH  13  14
HETATM   14  C5  UNL     1      -0.542   0.498   0.084  1.00  0.00     0.064 A 
HETATM   15  C6  UNL     1      -0.967   1.810   0.330  1.00  0.00     0.034 A 
HETATM   16  C7  UNL     1      -2.340   1.801   0.441  1.00  0.00     0.037 A 
HETATM   17  C8  UNL     1      -2.757   0.513   0.268  1.00  0.00     0.098 A 
HETATM   18  N8  UNL     1      -1.650  -0.234   0.057  1.00  0.00    -0.350 N 
ATOM     19  H8  UNL     1      -1.664  -1.241  -0.104  1.00  0.00     0.166 HD
BRANCH  17  20
HETATM   20  C9  UNL     1      -4.137   0.044   0.305  1.00  0.00     0.281 C 
HETATM   21  N7  UNL     1      -5.233   0.909   0.534  1.00  0.00    -0.056 NA
HETATM   22  O1  UNL     1      -4.409  -1.181   0.130  1.00  0.00    -0.269 OA
ENDBRANCH  17  20
ENDBRANCH  13  14
BRANCH   1  23
HETATM   23  N1  UNL     1       0.528  -2.093  -0.421  1.00  0.00    -0.382 N 
ATOM     24  H12 UNL     1       0.895  -3.027  -0.602  1.00  0.00     0.157 HD
ATOM     25  H11 UNL     1      -0.469  -1.909  -0.310  1.00  0.00     0.157 HD
ENDBRANCH   1  23
TORSDOF 3
