REMARK  2 active torsions:
REMARK  status: ('A' for Active; 'I' for Inactive)
REMARK    1  A    between atoms: C2_3  and  S1_4 
REMARK    2  A    between atoms: S1_4  and  C3_5 
ROOT
HETATM    1  C3  UNL     1       1.406   0.273   0.701  1.00  0.00     0.158 A 
HETATM    2  N2  UNL     1       1.799   1.369   0.025  1.00  0.00    -0.288 N 
ATOM      3  H2  UNL     1       1.188   2.185   0.008  1.00  0.00     0.172 HD
HETATM    4  C4  UNL     1       2.977   1.420  -0.631  1.00  0.00     0.330 A 
HETATM    5  O1  UNL     1       3.346   2.444  -1.263  1.00  0.00    -0.246 OA
HETATM    6  N3  UNL     1       3.810   0.352  -0.629  1.00  0.00    -0.260 N 
ATOM      7  H3  UNL     1       4.702   0.385  -1.123  1.00  0.00     0.175 HD
HETATM    8  C5  UNL     1       3.431  -0.763   0.046  1.00  0.00     0.330 A 
HETATM    9  O2  UNL     1       4.232  -1.729   0.023  1.00  0.00    -0.246 OA
HETATM   10  N4  UNL     1       2.260  -0.776   0.684  1.00  0.00    -0.288 N 
ATOM     11  H4  UNL     1       1.994  -1.623   1.186  1.00  0.00     0.172 HD
ENDROOT
BRANCH   1  12
HETATM   12  S1  UNL     1      -0.151   0.213   1.565  1.00  0.00    -0.033 SA
BRANCH  12  13
HETATM   13  C2  UNL     1      -1.469  -0.376   0.554  1.00  0.00     0.120 A 
HETATM   14  C1  UNL     1      -2.214   0.541  -0.187  1.00  0.00     0.133 A 
HETATM   15  N1  UNL     1      -1.938   1.931  -0.147  1.00  0.00    -0.095 NA
HETATM   16  C7  UNL     1      -3.232   0.007  -0.958  1.00  0.00     0.215 A 
HETATM   17  C6  UNL     1      -3.487  -1.341  -0.986  1.00  0.00     0.164 A 
HETATM   18  O3  UNL     1      -3.930   0.799  -1.643  1.00  0.00    -0.285 OA
HETATM   19  N6  UNL     1      -2.713  -2.139  -0.237  1.00  0.00    -0.307 N 
HETATM   20  N5  UNL     1      -1.725  -1.698   0.522  1.00  0.00    -0.292 N 
ATOM     21  H6  UNL     1      -2.897  -3.142  -0.254  1.00  0.00     0.186 HD
ATOM     22  H5  UNL     1      -1.166  -2.348   1.074  1.00  0.00     0.187 HD
ENDBRANCH  12  13
ENDBRANCH   1  12
TORSDOF 2
