REMARK  7 active torsions:
REMARK  status: ('A' for Active; 'I' for Inactive)
REMARK    1  A    between atoms: C2_2  and  C3_3 
REMARK    2  A    between atoms: N2_10  and  C8_11 
REMARK    3  A    between atoms: C9_14  and  N4_15 
REMARK    4  A    between atoms: C11_17  and  N5_18 
REMARK    5  A    between atoms: C13_23  and  N6_24 
REMARK    6  A    between atoms: C13_23  and  C14_28 
REMARK    7  A    between atoms: C17_33  and  N8_34 
ROOT
HETATM    1  C8  UNL     1      -1.860  -1.251   0.018  1.00  0.00     0.710 A 
HETATM    2  N3  UNL     1      -0.796  -0.485  -0.083  1.00  0.00    -0.021 N 
ATOM      3  H3  UNL     1      -0.923   0.527  -0.050  1.00  0.00     0.203 HD
HETATM    4  C9  UNL     1       0.472  -0.975  -0.230  1.00  0.00     0.709 A 
HETATM    5  N7  UNL     1       0.571  -2.312  -0.265  1.00  0.00    -0.022 N 
ATOM      6  H7  UNL     1       1.497  -2.726  -0.373  1.00  0.00     0.203 HD
HETATM    7  C17 UNL     1      -0.494  -3.140  -0.165  1.00  0.00     0.705 A 
HETATM    8  N9  UNL     1      -1.694  -2.584  -0.024  1.00  0.00    -0.021 N 
ATOM      9  H9  UNL     1      -2.513  -3.187   0.055  1.00  0.00     0.203 HD
ENDROOT
BRANCH   4  10
HETATM   10  N4  UNL     1       1.602  -0.124  -0.337  1.00  0.00    -0.212 N 
HETATM   11  C10 UNL     1       1.360   1.304  -0.314  1.00  0.00     0.174 C 
HETATM   12  C11 UNL     1       2.553   2.167  -0.293  1.00  0.00     0.204 C 
HETATM   13  C12 UNL     1       3.712   1.639   0.496  1.00  0.00     0.074 C 
HETATM   14  C13 UNL     1       3.928   0.181   0.398  1.00  0.00     0.141 C 
HETATM   15  C16 UNL     1       2.944  -0.579  -0.462  1.00  0.00     0.180 C 
BRANCH  12  16
HETATM   16  N5  UNL     1       2.970   2.516  -1.649  1.00  0.00    -0.073 N 
ATOM     17  H53 UNL     1       3.116   1.686  -2.223  1.00  0.00     0.274 HD
ATOM     18  H52 UNL     1       2.209   2.939  -2.180  1.00  0.00     0.274 HD
ATOM     19  H51 UNL     1       3.796   3.114  -1.634  1.00  0.00     0.274 HD
ENDBRANCH  12  16
BRANCH  14  20
HETATM   20  N6  UNL     1       3.803  -0.395   1.748  1.00  0.00    -0.069 N 
ATOM     21  H63 UNL     1       4.424   0.050   2.424  1.00  0.00     0.275 HD
ATOM     22  H62 UNL     1       2.918  -0.158   2.196  1.00  0.00     0.275 HD
ATOM     23  H61 UNL     1       3.952  -1.402   1.680  1.00  0.00     0.275 HD
ENDBRANCH  14  20
BRANCH  14  24
HETATM   24  C14 UNL     1       5.341  -0.100  -0.042  1.00  0.00     0.036 C 
HETATM   25  C15 UNL     1       5.685   0.485  -1.375  1.00  0.00     0.007 C 
ENDBRANCH  14  24
ENDBRANCH   4  10
BRANCH   1  26
HETATM   26  N2  UNL     1      -3.189  -0.763   0.172  1.00  0.00    -0.207 N 
HETATM   27  C3  UNL     1      -3.468   0.639   0.134  1.00  0.00     0.126 C 
HETATM   28  C4  UNL     1      -3.666   1.055   1.599  1.00  0.00     0.049 C 
HETATM   29  C5  UNL     1      -4.761   0.204   2.212  1.00  0.00     0.116 C 
HETATM   30  N1  UNL     1      -5.796  -0.131   1.306  1.00  0.00    -0.420 N 
HETATM   31  C6  UNL     1      -5.559  -1.175   0.379  1.00  0.00     0.134 C 
ATOM     32  H1  UNL     1      -6.687   0.365   1.321  1.00  0.00     0.153 HD
HETATM   33  C7  UNL     1      -4.217  -1.799   0.380  1.00  0.00     0.161 C 
BRANCH  27  34
HETATM   34  C2  UNL     1      -2.495   1.484  -0.549  1.00  0.00    -0.011 C 
HETATM   35  C1  UNL     1      -2.589   1.622  -1.861  1.00  0.00     0.009 C 
ENDBRANCH  27  34
ENDBRANCH   1  26
BRANCH   7  36
HETATM   36  N8  UNL     1      -0.343  -4.418  -0.205  1.00  0.00    -0.234 N 
ATOM     37  H82 UNL     1       0.577  -4.844  -0.313  1.00  0.00     0.174 HD
ATOM     38  H81 UNL     1      -1.146  -5.042  -0.130  1.00  0.00     0.174 HD
ENDBRANCH   7  36
TORSDOF 7
