REMARK  7 active torsions:
REMARK  status: ('A' for Active; 'I' for Inactive)
REMARK    1  A    between atoms: C2_2  and  C3_3 
REMARK    2  A    between atoms: C3_3  and  C4_4 
REMARK    3  A    between atoms: C3_3  and  N1_6 
REMARK    4  A    between atoms: N1_6  and  C6_7 
REMARK    5  A    between atoms: C7_10  and  N3_11 
REMARK    6  A    between atoms: C10_18  and  N6_19 
REMARK    7  A    between atoms: C11_24  and  N8_25 
ROOT
HETATM    1  C6  UNL     1       1.640  -0.970   0.389  1.00  0.00     0.217 A 
HETATM    2  N2  UNL     1       2.520  -1.993   0.392  1.00  0.00    -0.162 N 
ATOM      3  H2  UNL     1       3.490  -1.810   0.650  1.00  0.00     0.187 HD
HETATM    4  C7  UNL     1       2.161  -3.234   0.069  1.00  0.00     0.694 A 
HETATM    5  N4  UNL     1       0.887  -3.552  -0.283  1.00  0.00    -0.074 N 
HETATM    6  C8  UNL     1       0.612  -4.894  -0.608  1.00  0.00     0.204 C 
HETATM    7  N5  UNL     1       0.439  -6.023  -0.869  1.00  0.00    -0.171 NA
HETATM    8  C9  UNL     1      -0.038  -2.620  -0.314  1.00  0.00     0.143 A 
HETATM    9  C10 UNL     1      -1.360  -2.938  -0.684  1.00  0.00     0.146 A 
HETATM   10  N7  UNL     1      -2.209  -1.837  -0.672  1.00  0.00    -0.175 N 
ATOM     11  H7  UNL     1      -3.183  -1.992  -0.931  1.00  0.00     0.186 HD
HETATM   12  C11 UNL     1      -1.853  -0.605  -0.352  1.00  0.00     0.682 A 
HETATM   13  N10 UNL     1      -0.586  -0.332  -0.003  1.00  0.00    -0.184 N 
ATOM     14  H10 UNL     1      -0.315   0.620   0.243  1.00  0.00     0.184 HD
HETATM   15  C16 UNL     1       0.324  -1.321   0.020  1.00  0.00     0.139 A 
ENDROOT
BRANCH   4  16
HETATM   16  N3  UNL     1       3.047  -4.186   0.085  1.00  0.00    -0.233 N 
ATOM     17  H32 UNL     1       4.003  -3.947   0.349  1.00  0.00     0.174 HD
ATOM     18  H31 UNL     1       2.772  -5.137  -0.162  1.00  0.00     0.174 HD
ENDBRANCH   4  16
BRANCH   9  19
HETATM   19  N6  UNL     1      -1.778  -4.015  -0.978  1.00  0.00    -0.383 N 
ATOM     20  H62 UNL     1      -1.155  -4.823  -0.987  1.00  0.00     0.157 HD
ATOM     21  H61 UNL     1      -2.735  -4.245  -1.246  1.00  0.00     0.157 HD
ENDBRANCH   9  19
BRANCH   1  22
HETATM   22  N1  UNL     1       1.928   0.129   0.669  1.00  0.00    -0.422 NA
BRANCH  22  23
HETATM   23  C3  UNL     1       2.128   1.432   0.968  1.00  0.00     0.164 C 
BRANCH  23  24
HETATM   24  C2  UNL     1       3.242   1.751   1.922  1.00  0.00     0.035 C 
HETATM   25  C1  UNL     1       4.628   1.533   1.470  1.00  0.00     0.008 C 
ENDBRANCH  23  24
BRANCH  23  26
HETATM   26  C4  UNL     1       2.180   2.261  -0.293  1.00  0.00     0.035 C 
HETATM   27  C5  UNL     1       3.364   2.129  -1.152  1.00  0.00     0.008 C 
ENDBRANCH  23  26
ENDBRANCH  22  23
ENDBRANCH   1  22
BRANCH  12  28
HETATM   28  N8  UNL     1      -2.844   0.443  -0.400  1.00  0.00    -0.214 N 
HETATM   29  C12 UNL     1      -2.889   1.256  -1.584  1.00  0.00     0.168 C 
HETATM   30  C13 UNL     1      -4.340   1.564  -1.889  1.00  0.00     0.252 C 
HETATM   31  N9  UNL     1      -4.884   2.244  -0.728  1.00  0.00    -0.072 N 
HETATM   32  C14 UNL     1      -4.975   1.364   0.416  1.00  0.00     0.252 C 
ATOM     33  H92 UNL     1      -4.352   3.086  -0.508  1.00  0.00     0.277 HD
ATOM     34  H91 UNL     1      -5.785   2.675  -0.938  1.00  0.00     0.277 HD
HETATM   35  C15 UNL     1      -3.716   0.621   0.698  1.00  0.00     0.168 C 
ENDBRANCH  12  28
TORSDOF 7
