REMARK  6 active torsions:
REMARK  status: ('A' for Active; 'I' for Inactive)
REMARK    1  A    between atoms: C4_7  and  N3_8 
REMARK       I    between atoms: N6_17  and  C7_18 
REMARK       I    between atoms: C7_18  and  N7_20 
REMARK    2  A    between atoms: N7_20  and  C8_22 
REMARK    3  A    between atoms: C8_22  and  C9_23 
REMARK    4  A    between atoms: C9_23  and  C10_24 
REMARK    5  A    between atoms: C10_24  and  N8_25 
REMARK    6  A    between atoms: C15_33  and  N10_34 
ROOT
HETATM    1  N1  UNL     1       2.495   3.499  -5.503  1.00  0.00    -0.190 NA
HETATM    2  C1  UNL     1       2.210   3.587  -4.383  1.00  0.00     0.121 C 
HETATM    3  C2  UNL     1       1.855   3.673  -2.973  1.00  0.00     0.159 A 
HETATM    4  N2  UNL     1       2.151   4.752  -2.248  1.00  0.00    -0.339 N 
ATOM      5  H2  UNL     1       2.635   5.547  -2.665  1.00  0.00     0.167 HD
HETATM    6  C3  UNL     1       1.792   4.762  -0.947  1.00  0.00     0.122 A 
HETATM    7  C4  UNL     1       2.095   5.875  -0.161  1.00  0.00     0.131 A 
HETATM    8  N4  UNL     1       1.749   5.900   1.143  1.00  0.00    -0.337 N 
ATOM      9  H4  UNL     1       1.972   6.715   1.714  1.00  0.00     0.168 HD
HETATM   10  C5  UNL     1       1.106   4.844   1.694  1.00  0.00     0.183 A 
HETATM   11  N5  UNL     1       0.811   3.770   0.947  1.00  0.00    -0.336 N 
ATOM     12  H5  UNL     1       0.326   2.981   1.375  1.00  0.00     0.168 HD
HETATM   13  C6  UNL     1       1.143   3.713  -0.359  1.00  0.00     0.149 A 
HETATM   14  N6  UNL     1       0.822   2.588  -1.073  1.00  0.00    -0.230 N 
HETATM   15  C7  UNL     1       0.149   1.568  -0.406  1.00  0.00     0.330 C 
HETATM   16  O1  UNL     1      -0.145   1.802   0.837  1.00  0.00    -0.246 OA
HETATM   17  N7  UNL     1      -0.241   0.335  -0.913  1.00  0.00    -0.342 N 
ATOM     18  H7  UNL     1      -0.029   0.122  -1.888  1.00  0.00     0.164 HD
HETATM   19  C15 UNL     1       1.191   2.600  -2.374  1.00  0.00     0.149 A 
ENDROOT
BRANCH  19  20
HETATM   20  N10 UNL     1       0.934   1.612  -3.113  1.00  0.00    -0.382 N 
ATOM     21 2H10 UNL     1       1.212   1.621  -4.094  1.00  0.00     0.157 HD
ATOM     22 1H10 UNL     1       0.449   0.828  -2.676  1.00  0.00     0.157 HD
ENDBRANCH  19  20
BRANCH   7  23
HETATM   23  N3  UNL     1       2.707   6.850  -0.732  1.00  0.00    -0.383 N 
ATOM     24  H32 UNL     1       2.969   6.831  -1.718  1.00  0.00     0.157 HD
ATOM     25  H31 UNL     1       2.928   7.663  -0.158  1.00  0.00     0.157 HD
ENDBRANCH   7  23
BRANCH  17  26
HETATM   26  C8  UNL     1      -0.945  -0.678  -0.112  1.00  0.00     0.129 C 
BRANCH  26  27
HETATM   27  C9  UNL     1      -0.166  -1.157   1.048  1.00  0.00     0.064 C 
BRANCH  27  28
HETATM   28  C10 UNL     1      -0.840  -2.186   1.903  1.00  0.00     0.065 C 
BRANCH  28  29
HETATM   29  N8  UNL     1      -1.158  -3.412   1.326  1.00  0.00    -0.371 N 
HETATM   30  C11 UNL     1      -2.140  -3.592   0.367  1.00  0.00     0.090 C 
HETATM   31  C12 UNL     1      -2.879  -4.894   0.666  1.00  0.00     0.277 C 
HETATM   32  N9  UNL     1      -1.919  -5.943   0.374  1.00  0.00    -0.069 N 
HETATM   33  C13 UNL     1      -0.735  -5.837   1.188  1.00  0.00     0.252 C 
ATOM     34  H92 UNL     1      -2.344  -6.866   0.458  1.00  0.00     0.277 HD
ATOM     35  H91 UNL     1      -1.684  -5.963  -0.618  1.00  0.00     0.277 HD
HETATM   36  C14 UNL     1      -0.633  -4.575   1.968  1.00  0.00     0.154 C 
ENDBRANCH  28  29
ENDBRANCH  27  28
ENDBRANCH  26  27
ENDBRANCH  17  26
TORSDOF 6
