REMARK  6 active torsions:
REMARK  status: ('A' for Active; 'I' for Inactive)
REMARK    1  A    between atoms: N1_2  and  C2_4 
REMARK    2  A    between atoms: C4_12  and  N5_13 
REMARK    3  A    between atoms: N5_13  and  C5_15 
REMARK    4  A    between atoms: C5_15  and  C6_16 
REMARK    5  A    between atoms: C6_16  and  N6_17 
REMARK    6  A    between atoms: C13_34  and  N12_35 
ROOT
HETATM    1  C2  UNL     1      -4.741  -0.528  -2.839  1.00  0.00     0.137 A 
HETATM    2  N2  UNL     1      -4.259  -0.614  -4.086  1.00  0.00    -0.283 N 
ATOM      3  H2  UNL     1      -4.802  -0.452  -4.934  1.00  0.00     0.188 HD
HETATM    4  N3  UNL     1      -2.961  -0.944  -4.059  1.00  0.00    -0.283 N 
ATOM      5  H3  UNL     1      -2.373  -1.070  -4.883  1.00  0.00     0.188 HD
HETATM    6  C3  UNL     1      -2.545  -1.086  -2.784  1.00  0.00     0.153 A 
HETATM    7  N4  UNL     1      -1.378  -1.398  -2.194  1.00  0.00    -0.174 N 
ATOM      8  H4  UNL     1      -0.549  -1.591  -2.756  1.00  0.00     0.186 HD
HETATM    9  C4  UNL     1      -1.321  -1.451  -0.855  1.00  0.00     0.681 A 
HETATM   10  N11 UNL     1      -2.415  -1.196  -0.083  1.00  0.00    -0.176 N 
ATOM     11  H11 UNL     1      -2.338  -1.244   0.933  1.00  0.00     0.186 HD
HETATM   12  C13 UNL     1      -3.580  -0.886  -0.640  1.00  0.00     0.132 A 
HETATM   13  C14 UNL     1      -3.666  -0.824  -2.013  1.00  0.00     0.099 A 
ENDROOT
BRANCH   9  14
HETATM   14  N5  UNL     1      -0.233  -1.744  -0.236  1.00  0.00    -0.224 N 
ATOM     15  H5  UNL     1       0.606  -1.941  -0.782  1.00  0.00     0.177 HD
BRANCH  14  16
HETATM   16  C5  UNL     1      -0.156  -1.805   1.210  1.00  0.00     0.157 C 
BRANCH  16  17
HETATM   17  C6  UNL     1       1.239  -2.262   1.593  1.00  0.00     0.141 C 
BRANCH  17  18
HETATM   18  N6  UNL     1       2.250  -1.373   1.116  1.00  0.00    -0.373 N 
HETATM   19  C7  UNL     1       2.648  -0.297   1.681  1.00  0.00     0.133 A 
HETATM   20  N7  UNL     1       2.073   0.066   2.854  1.00  0.00    -0.337 N 
HETATM   21  C10 UNL     1       3.636   0.485   1.126  1.00  0.00     0.122 A 
HETATM   22  C8  UNL     1       2.489   1.200   3.457  1.00  0.00     0.183 A 
ATOM     23  H7  UNL     1       1.340  -0.507   3.273  1.00  0.00     0.168 HD
HETATM   24  N8  UNL     1       3.451   1.967   2.921  1.00  0.00    -0.336 N 
HETATM   25  C9  UNL     1       4.045   1.635   1.753  1.00  0.00     0.140 A 
ATOM     26  H8  UNL     1       3.740   2.817   3.405  1.00  0.00     0.168 HD
HETATM   27  N10 UNL     1       4.998   2.163   0.981  1.00  0.00    -0.332 N 
HETATM   28  C11 UNL     1       5.194   1.380  -0.101  1.00  0.00     0.184 A 
HETATM   29  C12 UNL     1       5.698   3.398   1.294  1.00  0.00     0.158 C 
HETATM   30  N9  UNL     1       4.336   0.339   0.005  1.00  0.00    -0.346 N 
ATOM     31  H9  UNL     1       4.242  -0.427  -0.662  1.00  0.00     0.167 HD
ATOM     32  H6  UNL     1       2.700  -1.622   0.235  1.00  0.00     0.161 HD
ENDBRANCH  17  18
ENDBRANCH  16  17
ENDBRANCH  14  16
ENDBRANCH   9  14
BRANCH  12  33
HETATM   33  N12 UNL     1      -4.656  -0.632   0.041  1.00  0.00    -0.384 N 
ATOM     34 2H12 UNL     1      -4.592  -0.678   1.058  1.00  0.00     0.157 HD
ATOM     35 1H12 UNL     1      -5.551  -0.394  -0.387  1.00  0.00     0.157 HD
ENDBRANCH  12  33
BRANCH   1  36
HETATM   36  N1  UNL     1      -6.062  -0.205  -2.431  1.00  0.00    -0.360 N 
HETATM   37  C1  UNL     1      -6.555   0.969  -2.617  1.00  0.00     0.120 C 
ATOM     38  H1  UNL     1      -6.633  -0.920  -1.980  1.00  0.00     0.165 HD
ENDBRANCH   1  36
TORSDOF 6
