REMARK  4 active torsions:
REMARK  status: ('A' for Active; 'I' for Inactive)
REMARK    1  A    between atoms: C2_2  and  N1_3 
REMARK    2  A    between atoms: N1_3  and  C3_6 
REMARK    3  A    between atoms: C3_6  and  C4_7 
REMARK    4  A    between atoms: C4_7  and  N2_8 
ROOT
HETATM    1  N2  UNL     1       0.438  -0.044   0.586  1.00  0.00    -0.361 N 
ATOM      2  H2  UNL     1       0.008   0.405   1.395  1.00  0.00     0.162 HD
HETATM    3  C5  UNL     1       1.574   0.342   0.157  1.00  0.00     0.171 C 
HETATM    4  N3  UNL     1       2.282  -0.180  -0.940  1.00  0.00    -0.361 N 
ATOM      5  H3  UNL     1       1.885  -0.649  -1.754  1.00  0.00     0.162 HD
HETATM    6  C6  UNL     1       3.707   0.083  -0.685  1.00  0.00     0.142 C 
HETATM    7  C7  UNL     1       3.703   1.175   0.326  1.00  0.00     0.142 C 
HETATM    8  N4  UNL     1       2.342   1.386   0.712  1.00  0.00    -0.361 N 
ATOM      9  H4  UNL     1       1.991   2.153   1.285  1.00  0.00     0.162 HD
ENDROOT
BRANCH   1  10
HETATM   10  C4  UNL     1      -0.230  -1.129  -0.095  1.00  0.00     0.150 C 
BRANCH  10  11
HETATM   11  C3  UNL     1      -1.356  -1.615   0.797  1.00  0.00     0.251 C 
BRANCH  11  12
HETATM   12  N1  UNL     1      -2.310  -0.576   1.074  1.00  0.00    -0.074 N 
ATOM     13  H12 UNL     1      -1.856   0.230   1.504  1.00  0.00     0.277 HD
ATOM     14  H11 UNL     1      -2.930  -0.846   1.838  1.00  0.00     0.277 HD
BRANCH  12  15
HETATM   15  C2  UNL     1      -3.067  -0.180  -0.088  1.00  0.00     0.228 C 
HETATM   16  C1  UNL     1      -4.022   0.915   0.354  1.00  0.00     0.034 C 
ENDBRANCH  12  15
ENDBRANCH  11  12
ENDBRANCH  10  11
ENDBRANCH   1  10
TORSDOF 4
