REMARK  7 active torsions:
REMARK  status: ('A' for Active; 'I' for Inactive)
REMARK       I    between atoms: C2_2  and  N1_4 
REMARK    1  A    between atoms: N1_4  and  C3_6 
REMARK    2  A    between atoms: C3_6  and  C4_7 
REMARK    3  A    between atoms: C3_6  and  C17_29 
REMARK       I    between atoms: C4_7  and  N2_9 
REMARK    4  A    between atoms: C11_16  and  O3_17 
REMARK    5  A    between atoms: C12_19  and  C13_20 
REMARK       I    between atoms: C13_20  and  N3_22 
REMARK    6  A    between atoms: C14_24  and  C15_25 
REMARK    7  A    between atoms: C15_25  and  C16_26 
ROOT
HETATM    1  C4  UNL     1      -0.472   0.646   1.067  1.00  0.00     0.244 C 
HETATM    2  O2  UNL     1      -0.355   1.851   1.393  1.00  0.00    -0.271 OA
HETATM    3  N2  UNL     1       0.731  -0.088   0.809  1.00  0.00    -0.329 N 
HETATM    4  C5  UNL     1       0.788  -1.476   0.484  1.00  0.00     0.095 C 
HETATM    5  C6  UNL     1       0.704  -2.360   1.723  1.00  0.00     0.026 C 
HETATM    6  C7  UNL     1       0.466  -3.769   1.215  1.00  0.00     0.002 C 
HETATM    7  C8  UNL     1       1.687  -4.182   0.447  1.00  0.00     0.001 C 
HETATM    8  C9  UNL     1       2.706  -3.097   0.301  1.00  0.00     0.009 C 
HETATM    9  C10 UNL     1       2.156  -1.777  -0.111  1.00  0.00     0.040 C 
HETATM   10  C11 UNL     1       2.984  -0.684   0.512  1.00  0.00     0.156 C 
HETATM   11  C12 UNL     1       2.078   0.435   0.833  1.00  0.00     0.209 C 
ENDROOT
BRANCH   1  12
HETATM   12  C3  UNL     1      -1.792   0.058   0.970  1.00  0.00     0.180 C 
BRANCH  12  13
HETATM   13  N1  UNL     1      -2.561   0.556   2.136  1.00  0.00    -0.348 N 
HETATM   14  C2  UNL     1      -3.177  -0.355   3.032  1.00  0.00     0.214 C 
HETATM   15  C1  UNL     1      -3.948   0.133   4.201  1.00  0.00     0.117 C 
HETATM   16  O1  UNL     1      -3.104  -1.611   2.889  1.00  0.00    -0.274 OA
ATOM     17  H1  UNL     1      -2.648   1.560   2.295  1.00  0.00     0.163 HD
ENDBRANCH  12  13
BRANCH  12  18
HETATM   18  C17 UNL     1      -2.563   0.480  -0.263  1.00  0.00     0.018 C 
HETATM   19  C18 UNL     1      -2.727   1.962  -0.391  1.00  0.00     0.013 C 
HETATM   20  C19 UNL     1      -3.623   2.327  -1.510  1.00  0.00     0.079 C 
HETATM   21  C20 UNL     1      -4.078   1.221  -2.381  1.00  0.00     0.243 C 
HETATM   22  F1  UNL     1      -4.387   1.774  -3.634  1.00  0.00    -0.206 F 
HETATM   23  F2  UNL     1      -5.303   0.733  -1.905  1.00  0.00    -0.206 F 
HETATM   24  C21 UNL     1      -3.098   0.130  -2.616  1.00  0.00     0.079 C 
HETATM   25  C22 UNL     1      -2.077  -0.075  -1.550  1.00  0.00     0.013 C 
ENDBRANCH  12  18
ENDBRANCH   1  12
BRANCH  11  26
HETATM   26  C13 UNL     1       2.291   1.508  -0.155  1.00  0.00     0.246 C 
HETATM   27  O4  UNL     1       1.350   1.829  -0.917  1.00  0.00    -0.271 OA
HETATM   28  N3  UNL     1       3.520   2.196  -0.281  1.00  0.00    -0.338 N 
HETATM   29  C14 UNL     1       4.205   2.359  -1.332  1.00  0.00     0.074 C 
ATOM     30  H3  UNL     1       3.897   2.608   0.573  1.00  0.00     0.167 HD
BRANCH  29  31
HETATM   31  C15 UNL     1       3.890   1.872  -2.691  1.00  0.00     0.157 C 
BRANCH  31  32
HETATM   32  C16 UNL     1       4.002   2.931  -3.711  1.00  0.00     0.177 C 
HETATM   33  O5  UNL     1       3.766   2.664  -4.909  1.00  0.00    -0.648 OA
HETATM   34  O6  UNL     1       4.369   4.205  -3.324  1.00  0.00    -0.648 OA
ENDBRANCH  31  32
ENDBRANCH  29  31
ENDBRANCH  11  26
BRANCH  10  35
HETATM   35  O3  UNL     1       3.647  -1.095   1.670  1.00  0.00    -0.393 OA
ATOM     36  H3  UNL     1       4.169  -0.406   2.063  1.00  0.00     0.210 HD
ENDBRANCH  10  35
TORSDOF 7
