REMARK  8 active torsions:
REMARK  status: ('A' for Active; 'I' for Inactive)
REMARK    1  A    between atoms: C2_2  and  C5_5 
REMARK    2  A    between atoms: C7_7  and  N1_8 
REMARK    3  A    between atoms: N1_8  and  C8_10 
REMARK    4  A    between atoms: C8_10  and  C10_15 
REMARK    5  A    between atoms: C15_21  and  S1_22 
REMARK    6  A    between atoms: S1_22  and  N4_25 
REMARK    7  A    between atoms: N4_25  and  C16_27 
REMARK    8  A    between atoms: N5_31  and  C20_32 
ROOT
HETATM    1  C8  UNL     1      -3.435   1.818   0.372  1.00  0.00     0.116 C 
HETATM    2  N2  UNL     1      -2.924   2.838  -0.174  1.00  0.00    -0.281 N 
ATOM      3  H2  UNL     1      -1.923   2.932  -0.001  1.00  0.00     0.179 HD
HETATM    4  C9  UNL     1      -3.436   3.836  -0.945  1.00  0.00     0.183 C 
HETATM    5  N3  UNL     1      -3.843   4.695  -1.596  1.00  0.00    -0.172 NA
ENDROOT
BRANCH   1   6
HETATM    6  N1  UNL     1      -2.525   0.965   1.142  1.00  0.00    -0.372 N 
ATOM      7  H1  UNL     1      -2.475   1.013   2.160  1.00  0.00     0.161 HD
BRANCH   6   8
HETATM    8  C7  UNL     1      -1.718   0.070   0.396  1.00  0.00     0.084 C 
HETATM    9  C6  UNL     1      -0.801  -0.776   1.250  1.00  0.00     0.032 C 
HETATM   10  C5  UNL     1       0.297  -1.252   0.285  1.00  0.00     0.015 C 
HETATM   11  C15 UNL     1       0.139  -0.438  -0.917  1.00  0.00     0.136 C 
HETATM   12  C14 UNL     1      -0.646   0.807  -0.425  1.00  0.00     0.047 C 
BRANCH  10  13
HETATM   13  C2  UNL     1       0.177  -2.750   0.091  1.00  0.00    -0.046 C 
HETATM   14  C1  UNL     1       1.219  -3.327  -0.835  1.00  0.00     0.015 C 
HETATM   15  C3  UNL     1       0.326  -3.487   1.416  1.00  0.00     0.015 C 
HETATM   16  C4  UNL     1      -1.184  -3.127  -0.451  1.00  0.00     0.015 C 
ENDBRANCH  10  13
BRANCH  11  17
HETATM   17  S1  UNL     1       1.451   0.140  -1.866  1.00  0.00     0.231 S 
HETATM   18  O2  UNL     1       0.819   1.158  -2.868  1.00  0.00    -0.206 OA
HETATM   19  O3  UNL     1       1.999  -0.919  -2.822  1.00  0.00    -0.206 OA
BRANCH  17  20
HETATM   20  N4  UNL     1       2.752   0.928  -1.192  1.00  0.00    -0.309 N 
ATOM     21  H4  UNL     1       2.958   1.898  -1.431  1.00  0.00     0.172 HD
BRANCH  20  22
HETATM   22  C16 UNL     1       3.565   0.216  -0.278  1.00  0.00     0.133 C 
HETATM   23  C17 UNL     1       3.541   0.903   1.046  1.00  0.00    -0.002 C 
HETATM   24  C18 UNL     1       4.350   1.912   1.312  1.00  0.00    -0.009 C 
HETATM   25  C19 UNL     1       5.278   2.308   0.204  1.00  0.00     0.149 C 
HETATM   26  N5  UNL     1       5.875   1.131  -0.333  1.00  0.00    -0.354 N 
HETATM   27  C21 UNL     1       5.012   0.104  -0.780  1.00  0.00     0.152 C 
BRANCH  26  28
HETATM   28  C20 UNL     1       7.077   0.707   0.313  1.00  0.00     0.456 C 
HETATM   29  F1  UNL     1       6.931   0.416   1.646  1.00  0.00    -0.191 F 
HETATM   30  F2  UNL     1       7.478  -0.480  -0.314  1.00  0.00    -0.191 F 
ENDBRANCH  26  28
ENDBRANCH  20  22
ENDBRANCH  17  20
ENDBRANCH  11  17
ENDBRANCH   6   8
ENDBRANCH   1   6
BRANCH   1  31
HETATM   31  C10 UNL     1      -4.829   1.387   0.329  1.00  0.00     0.189 C 
HETATM   32  C11 UNL     1      -5.756   2.204  -0.520  1.00  0.00     0.042 C 
HETATM   33  C12 UNL     1      -6.999   1.283  -0.487  1.00  0.00     0.029 C 
HETATM   34  C13 UNL     1      -6.326  -0.069  -0.448  1.00  0.00     0.168 C 
HETATM   35  O1  UNL     1      -4.970   0.126  -0.251  1.00  0.00    -0.378 OA
ENDBRANCH   1  31
TORSDOF 8
