REMARK  8 active torsions:
REMARK  status: ('A' for Active; 'I' for Inactive)
REMARK    1  A    between atoms: C6_6  and  N1_7 
REMARK    2  A    between atoms: N1_7  and  C7_8 
REMARK    3  A    between atoms: C11_15  and  N3_16 
REMARK    4  A    between atoms: C12_18  and  C13_19 
REMARK    5  A    between atoms: C13_19  and  C14_20 
REMARK    6  A    between atoms: C14_20  and  N4_21 
REMARK    7  A    between atoms: C19_29  and  C20_30 
REMARK    8  A    between atoms: C20_30  and  O2_31 
ROOT
HETATM    1  C7  UNL     1      -1.949  -0.923  -0.020  1.00  0.00     0.261 A 
HETATM    2  N2  UNL     1      -1.532  -2.180  -0.360  1.00  0.00    -0.319 N 
ATOM      3  H2  UNL     1      -2.235  -2.866  -0.633  1.00  0.00     0.170 HD
HETATM    4  C8  UNL     1      -0.264  -2.550  -0.352  1.00  0.00     0.030 A 
HETATM    5  C9  UNL     1       0.182  -3.937  -0.728  1.00  0.00     0.070 C 
HETATM    6  C10 UNL     1       0.687  -1.626   0.017  1.00  0.00     0.077 A 
HETATM    7 BR1  UNL     1       2.535  -2.188   0.021  1.00  0.00    -0.045 Br
HETATM    8  C11 UNL     1       0.347  -0.341   0.372  1.00  0.00     0.128 A 
HETATM    9  N5  UNL     1      -0.992  -0.056   0.332  1.00  0.00    -0.301 N 
ATOM     10  H5  UNL     1      -1.282   0.887   0.590  1.00  0.00     0.171 HD
ENDROOT
BRANCH   1  11
HETATM   11  N1  UNL     1      -3.117  -0.677  -0.059  1.00  0.00    -0.370 NA
BRANCH  11  12
HETATM   12  C6  UNL     1      -4.380  -0.386  -0.093  1.00  0.00     0.125 A 
HETATM   13  C4  UNL     1      -5.367  -1.236   0.411  1.00  0.00    -0.020 A 
HETATM   14  C3  UNL     1      -6.701  -0.900   0.357  1.00  0.00     0.017 A 
HETATM   15  C5  UNL     1      -4.900  -2.508   1.002  1.00  0.00     0.052 C 
HETATM   16  C2  UNL     1      -7.091   0.294  -0.202  1.00  0.00    -0.061 A 
HETATM   17  C1  UNL     1      -8.552   0.564  -0.214  1.00  0.00     0.048 C 
HETATM   18  C21 UNL     1      -6.166   1.148  -0.702  1.00  0.00     0.019 A 
HETATM   19  C19 UNL     1      -4.843   0.818  -0.650  1.00  0.00     0.007 A 
BRANCH  19  20
HETATM   20  C20 UNL     1      -3.838   1.739  -1.192  1.00  0.00     0.206 C 
BRANCH  20  21
HETATM   21  O2  UNL     1      -4.481   2.864  -1.698  1.00  0.00    -0.396 OA
ATOM     22  H2  UNL     1      -3.830   3.460  -2.049  1.00  0.00     0.209 HD
ENDBRANCH  20  21
ENDBRANCH  19  20
ENDBRANCH  11  12
ENDBRANCH   1  11
BRANCH   8  23
HETATM   23  N3  UNL     1       1.168   0.511   0.707  1.00  0.00    -0.355 N 
HETATM   24  C12 UNL     1       2.453   0.879   0.940  1.00  0.00     0.064 C 
ATOM     25  H3  UNL     1       0.615   1.345   0.906  1.00  0.00     0.166 HD
BRANCH  24  26
HETATM   26  C13 UNL     1       3.204   1.511  -0.223  1.00  0.00     0.074 C 
BRANCH  26  27
HETATM   27  C14 UNL     1       4.599   1.932   0.131  1.00  0.00     0.277 C 
BRANCH  27  28
HETATM   28  N4  UNL     1       5.483   0.915   0.565  1.00  0.00     0.092 N 
HETATM   29  C15 UNL     1       5.896  -0.038  -0.428  1.00  0.00     0.298 C 
HETATM   30  C16 UNL     1       7.404  -0.061  -0.595  1.00  0.00     0.198 C 
HETATM   31  O1  UNL     1       7.808   1.252  -0.793  1.00  0.00    -0.388 OA
HETATM   32  C17 UNL     1       7.712   1.925   0.401  1.00  0.00     0.198 C 
HETATM   33  C18 UNL     1       6.602   1.472   1.299  1.00  0.00     0.298 C 
ENDBRANCH  27  28
ENDBRANCH  26  27
ENDBRANCH  24  26
ENDBRANCH   8  23
TORSDOF 8
