REMARK  7 active torsions:
REMARK  status: ('A' for Active; 'I' for Inactive)
REMARK    1  A    between atoms: O1_2  and  C2_3 
REMARK    2  A    between atoms: C4_5  and  C5_6 
REMARK    3  A    between atoms: C6_9  and  C7_10 
REMARK    4  A    between atoms: C7_10  and  N2_12 
REMARK    5  A    between atoms: C15_26  and  N6_27 
REMARK    6  A    between atoms: C18_32  and  C19_33 
REMARK    7  A    between atoms: C22_37  and  O2_38 
ROOT
HETATM    1  C19 UNL     1      -5.317  -1.362   0.338  1.00  0.00     0.031 C 
HETATM    2  C20 UNL     1      -5.883  -2.146  -0.815  1.00  0.00     0.061 C 
HETATM    3  C21 UNL     1      -6.179  -1.263   1.472  1.00  0.00     0.095 C 
HETATM    4  N7  UNL     1      -6.869  -1.233   2.441  1.00  0.00    -0.192 NA
ENDROOT
BRANCH   1   5
HETATM    5  C18 UNL     1      -4.254  -0.415   0.065  1.00  0.00     0.017 A 
HETATM    6  C17 UNL     1      -2.940  -0.897  -0.122  1.00  0.00     0.029 A 
HETATM    7  C4  UNL     1      -1.827  -0.146  -0.139  1.00  0.00    -0.003 A 
HETATM    8  C3  UNL     1      -2.021   1.229   0.029  1.00  0.00     0.053 A 
HETATM    9  C2  UNL     1      -3.236   1.825   0.205  1.00  0.00     0.103 A 
HETATM   10  C22 UNL     1      -4.358   0.947   0.220  1.00  0.00     0.113 A 
BRANCH   7  11
HETATM   11  C5  UNL     1      -0.445  -0.570  -0.238  1.00  0.00     0.077 A 
HETATM   12  N1  UNL     1       0.547   0.214  -0.763  1.00  0.00    -0.340 N 
HETATM   13  C6  UNL     1       1.745  -0.430  -0.814  1.00  0.00     0.138 A 
ATOM     14  H1  UNL     1       0.404   1.173  -1.080  1.00  0.00     0.167 HD
HETATM   15  N3  UNL     1       1.567  -1.660  -0.333  1.00  0.00    -0.235 N 
HETATM   16  N4  UNL     1       2.354  -2.695  -0.183  1.00  0.00    -0.288 N 
HETATM   17  C16 UNL     1       0.234  -1.754   0.033  1.00  0.00     0.129 A 
HETATM   18  C14 UNL     1       1.925  -3.847   0.315  1.00  0.00     0.199 A 
ATOM     19  H4  UNL     1       3.332  -2.613  -0.459  1.00  0.00     0.188 HD
HETATM   20  N5  UNL     1       0.665  -3.997   0.689  1.00  0.00    -0.336 N 
HETATM   21  C15 UNL     1      -0.191  -2.942   0.554  1.00  0.00     0.131 A 
ATOM     22  H5  UNL     1       0.339  -4.885   1.071  1.00  0.00     0.168 HD
BRANCH  13  23
HETATM   23  C7  UNL     1       2.988   0.245  -1.280  1.00  0.00     0.287 C 
HETATM   24  C8  UNL     1       2.514   1.619  -1.853  1.00  0.00     0.051 C 
BRANCH  23  25
HETATM   25  N2  UNL     1       3.970   0.561  -0.242  1.00  0.00     0.100 N 
HETATM   26  C9  UNL     1       4.997   1.348  -0.941  1.00  0.00     0.279 C 
HETATM   27  C10 UNL     1       6.161   1.731  -0.106  1.00  0.00     0.109 C 
HETATM   28  C11 UNL     1       6.381   0.893   1.113  1.00  0.00     0.246 C 
HETATM   29  F1  UNL     1       7.773   0.826   1.340  1.00  0.00    -0.206 F 
HETATM   30  F2  UNL     1       5.804   1.389   2.247  1.00  0.00    -0.206 F 
HETATM   31  C12 UNL     1       5.975  -0.524   0.810  1.00  0.00     0.109 C 
HETATM   32  C13 UNL     1       4.566  -0.636   0.245  1.00  0.00     0.279 C 
ENDBRANCH  23  25
ENDBRANCH  13  23
BRANCH  21  33
HETATM   33  N6  UNL     1      -1.356  -3.083   1.044  1.00  0.00    -0.383 N 
ATOM     34  H62 UNL     1      -1.674  -3.971   1.433  1.00  0.00     0.157 HD
ATOM     35  H61 UNL     1      -1.996  -2.295   0.943  1.00  0.00     0.157 HD
ENDBRANCH  21  33
ENDBRANCH   7  11
BRANCH   9  36
HETATM   36  O1  UNL     1      -3.495   3.183   0.335  1.00  0.00    -0.353 OA
HETATM   37  C1  UNL     1      -2.578   4.212   0.276  1.00  0.00     0.210 C 
ENDBRANCH   9  36
BRANCH  10  38
HETATM   38  O2  UNL     1      -5.564   1.577   0.374  1.00  0.00    -0.352 OA
HETATM   39  C23 UNL     1      -6.265   2.017   1.439  1.00  0.00     0.210 C 
ENDBRANCH  10  38
ENDBRANCH   1   5
TORSDOF 7
