REMARK  8 active torsions:
REMARK  status: ('A' for Active; 'I' for Inactive)
REMARK    1  A    between atoms: O1_2  and  C2_3 
REMARK    2  A    between atoms: C4_5  and  C5_6 
REMARK    3  A    between atoms: C5_6  and  N1_7 
REMARK    4  A    between atoms: N1_7  and  N2_9 
REMARK    5  A    between atoms: N2_9  and  C6_11 
REMARK    6  A    between atoms: N6_23  and  C11_25 
REMARK    7  A    between atoms: C14_29  and  O3_30 
REMARK    8  A    between atoms: C20_37  and  O4_38 
ROOT
HETATM    1  C6  UNL     1       0.478  -2.009  -0.095  1.00  0.00     0.140 A 
HETATM    2  N3  UNL     1      -0.314  -3.101  -0.067  1.00  0.00    -0.330 N 
ATOM      3  H3  UNL     1      -1.321  -2.962   0.019  1.00  0.00     0.168 HD
HETATM    4  C7  UNL     1       0.145  -4.355  -0.145  1.00  0.00     0.080 A 
HETATM    5  C8  UNL     1      -0.807  -5.512  -0.107  1.00  0.00     0.089 C 
HETATM    6  N4  UNL     1       1.469  -4.542  -0.259  1.00  0.00    -0.324 N 
ATOM      7  H4  UNL     1       1.845  -5.488  -0.322  1.00  0.00     0.169 HD
HETATM    8  C9  UNL     1       2.314  -3.471  -0.291  1.00  0.00     0.189 A 
HETATM    9  O2  UNL     1       3.624  -3.377  -0.394  1.00  0.00    -0.217 OA
HETATM   10  N5  UNL     1       4.024  -2.144  -0.386  1.00  0.00    -0.242 N 
ATOM     11  H5  UNL     1       4.992  -1.829  -0.454  1.00  0.00     0.196 HD
HETATM   12  C10 UNL     1       2.943  -1.350  -0.272  1.00  0.00     0.144 A 
HETATM   13  N6  UNL     1       2.883  -0.053  -0.225  1.00  0.00    -0.335 N 
ATOM     14  H6  UNL     1       1.994   0.439  -0.137  1.00  0.00     0.168 HD
HETATM   15  C18 UNL     1       1.849  -2.178  -0.211  1.00  0.00     0.108 A 
ENDROOT
BRANCH   1  16
HETATM   16  N2  UNL     1       0.040  -0.817  -0.020  1.00  0.00    -0.285 N 
ATOM     17  H2  UNL     1       0.716  -0.054  -0.049  1.00  0.00     0.188 HD
BRANCH  16  18
HETATM   18  N1  UNL     1      -1.318  -0.493   0.100  1.00  0.00    -0.309 N 
ATOM     19  H1  UNL     1      -1.972  -1.230   0.363  1.00  0.00     0.186 HD
BRANCH  18  20
HETATM   20  C5  UNL     1      -1.773   0.679  -0.104  1.00  0.00     0.118 C 
BRANCH  20  21
HETATM   21  C4  UNL     1      -3.191   0.956   0.035  1.00  0.00    -0.014 A 
HETATM   22  C3  UNL     1      -4.060  -0.077   0.397  1.00  0.00     0.049 A 
HETATM   23  C2  UNL     1      -5.401   0.162   0.535  1.00  0.00     0.071 A 
HETATM   24  C22 UNL     1      -5.887   1.417   0.316  1.00  0.00     0.073 A 
HETATM   25  C20 UNL     1      -5.062   2.486  -0.048  1.00  0.00     0.071 A 
HETATM   26  C19 UNL     1      -3.715   2.220  -0.180  1.00  0.00     0.049 A 
BRANCH  23  27
HETATM   27  O1  UNL     1      -6.229  -0.883   0.894  1.00  0.00    -0.356 OA
HETATM   28  C1  UNL     1      -7.614  -0.643   1.037  1.00  0.00     0.210 C 
ENDBRANCH  23  27
BRANCH  25  29
HETATM   29  O4  UNL     1      -5.584   3.757  -0.265  1.00  0.00    -0.356 OA
HETATM   30  C21 UNL     1      -6.973   3.946  -0.109  1.00  0.00     0.210 C 
ENDBRANCH  25  29
ENDBRANCH  20  21
ENDBRANCH  18  20
ENDBRANCH  16  18
ENDBRANCH   1  16
BRANCH  13  31
HETATM   31  C11 UNL     1       4.136   0.657  -0.303  1.00  0.00     0.112 A 
HETATM   32  C12 UNL     1       4.775   1.053   0.853  1.00  0.00     0.148 A 
HETATM   33  F1  UNL     1       4.228   0.777   2.049  1.00  0.00    -0.203 F 
HETATM   34  C13 UNL     1       5.990   1.741   0.766  1.00  0.00     0.081 A 
HETATM   35  C14 UNL     1       6.532   2.014  -0.470  1.00  0.00     0.074 A 
HETATM   36  C16 UNL     1       5.905   1.624  -1.649  1.00  0.00     0.081 A 
HETATM   37  C17 UNL     1       4.710   0.948  -1.529  1.00  0.00     0.148 A 
HETATM   38  F2  UNL     1       4.058   0.545  -2.661  1.00  0.00    -0.203 F 
BRANCH  35  39
HETATM   39  O3  UNL     1       7.732   2.693  -0.554  1.00  0.00    -0.356 OA
HETATM   40  C15 UNL     1       8.384   3.097   0.632  1.00  0.00     0.210 C 
ENDBRANCH  35  39
ENDBRANCH  13  31
TORSDOF 8
