REMARK  6 active torsions:
REMARK  status: ('A' for Active; 'I' for Inactive)
REMARK    1  A    between atoms: S1_2  and  C2_3 
REMARK    2  A    between atoms: C3_8  and  C4_9 
REMARK    3  A    between atoms: C4_9  and  N3_11 
REMARK    4  A    between atoms: C8_14  and  C9_15 
REMARK    5  A    between atoms: C9_15  and  C10_16 
REMARK       I    between atoms: N6_22  and  C12_24 
REMARK    6  A    between atoms: C12_24  and  C13_26 
ROOT
HETATM    1  N3  UNL     1      -2.513   1.313   0.284  1.00  0.00     0.100 N 
HETATM    2  C6  UNL     1      -1.408   1.408   1.183  1.00  0.00     0.273 C 
HETATM    3  C7  UNL     1      -0.177   0.642   0.738  1.00  0.00     0.035 C 
HETATM    4  C8  UNL     1       0.244   0.957  -0.666  1.00  0.00    -0.005 C 
HETATM    5  C15 UNL     1      -0.823   1.798  -1.313  1.00  0.00     0.035 C 
HETATM    6  C16 UNL     1      -2.149   1.069  -1.076  1.00  0.00     0.273 C 
ENDROOT
BRANCH   4   7
HETATM    7  C9  UNL     1       1.592   1.605  -0.731  1.00  0.00     0.071 C 
BRANCH   7   8
HETATM    8  C10 UNL     1       2.596   0.650  -0.133  1.00  0.00     0.070 A 
HETATM    9  N4  UNL     1       2.393  -0.560   0.363  1.00  0.00    -0.296 N 
HETATM   10  N5  UNL     1       3.362  -1.232   0.832  1.00  0.00    -0.279 N 
ATOM     11  H4  UNL     1       1.452  -0.955   0.368  1.00  0.00     0.187 HD
HETATM   12  C11 UNL     1       4.583  -0.689   0.814  1.00  0.00     0.167 A 
ATOM     13  H5  UNL     1       3.212  -2.166   1.214  1.00  0.00     0.189 HD
HETATM   14  N6  UNL     1       5.704  -1.222   1.250  1.00  0.00    -0.303 N 
HETATM   15  S2  UNL     1       4.281   0.829   0.093  1.00  0.00    -0.038 SA
HETATM   16  C12 UNL     1       6.918  -0.527   1.164  1.00  0.00     0.262 C 
ATOM     17  H6  UNL     1       5.689  -2.157   1.658  1.00  0.00     0.171 HD
HETATM   18  O1  UNL     1       7.143   0.452   1.951  1.00  0.00    -0.270 OA
BRANCH  16  19
HETATM   19  C13 UNL     1       7.954  -0.907   0.170  1.00  0.00     0.190 C 
HETATM   20  C14 UNL     1       7.336  -0.767  -1.209  1.00  0.00     0.061 C 
HETATM   21 CL1  UNL     1       8.380  -2.636   0.403  1.00  0.00    -0.091 Cl
HETATM   22 CL2  UNL     1       9.422   0.057   0.339  1.00  0.00    -0.091 Cl
ENDBRANCH  16  19
ENDBRANCH   7   8
ENDBRANCH   4   7
BRANCH   1  23
HETATM   23  C4  UNL     1      -3.467   0.353   0.808  1.00  0.00     0.294 C 
HETATM   24  C5  UNL     1      -3.965   0.902   2.149  1.00  0.00     0.052 C 
BRANCH  23  25
HETATM   25  C3  UNL     1      -4.622   0.237  -0.137  1.00  0.00     0.174 A 
HETATM   26  N2  UNL     1      -5.289   1.235  -0.748  1.00  0.00    -0.279 N 
HETATM   27  N1  UNL     1      -6.249   0.721  -1.507  1.00  0.00    -0.272 N 
ATOM     28  H2  UNL     1      -5.088   2.230  -0.644  1.00  0.00     0.189 HD
HETATM   29  C2  UNL     1      -6.179  -0.628  -1.368  1.00  0.00     0.203 A 
ATOM     30  H1  UNL     1      -6.912   1.239  -2.084  1.00  0.00     0.189 HD
HETATM   31  O2  UNL     1      -5.203  -0.861  -0.549  1.00  0.00    -0.270 OA
BRANCH  29  32
HETATM   32  S1  UNL     1      -7.283  -1.781  -2.207  1.00  0.00    -0.089 SA
HETATM   33  C1  UNL     1      -6.793  -3.449  -1.701  1.00  0.00     0.099 C 
ENDBRANCH  29  32
ENDBRANCH  23  25
ENDBRANCH   1  23
TORSDOF 6
