REMARK  9 active torsions:
REMARK  status: ('A' for Active; 'I' for Inactive)
REMARK    1  A    between atoms: N1_1  and  C1_4 
REMARK    2  A    between atoms: C2_7  and  N3_8 
REMARK    3  A    between atoms: N3_8  and  C3_10 
REMARK    4  A    between atoms: C3_10  and  C4_11 
REMARK    5  A    between atoms: C4_11  and  O1_12 
REMARK    6  A    between atoms: C5_16  and  N5_17 
REMARK    7  A    between atoms: N5_17  and  C6_19 
REMARK    8  A    between atoms: C6_19  and  C7_20 
REMARK    9  A    between atoms: C7_20  and  N6_21 
ROOT
HETATM    1  C1  UNL     1       1.338  -1.699   3.197  1.00  0.00     0.705 A 
HETATM    2  N2  UNL     1       1.997  -2.463   2.323  1.00  0.00    -0.022 N 
ATOM      3  H2  UNL     1       2.407  -3.342   2.639  1.00  0.00     0.203 HD
HETATM    4  C2  UNL     1       2.134  -2.095   1.020  1.00  0.00     0.707 A 
HETATM    5  N4  UNL     1       1.588  -0.931   0.614  1.00  0.00    -0.022 N 
ATOM      6  H4  UNL     1       1.684  -0.643  -0.360  1.00  0.00     0.203 HD
HETATM    7  C5  UNL     1       0.926  -0.153   1.467  1.00  0.00     0.707 A 
HETATM    8  N8  UNL     1       0.806  -0.545   2.757  1.00  0.00    -0.022 N 
ATOM      9  H8  UNL     1       0.299   0.050   3.412  1.00  0.00     0.203 HD
ENDROOT
BRANCH   7  10
HETATM   10  N5  UNL     1       0.408   0.944   1.112  1.00  0.00    -0.223 N 
ATOM     11  H5  UNL     1      -0.087   1.497   1.812  1.00  0.00     0.177 HD
BRANCH  10  12
HETATM   12  C6  UNL     1       0.483   1.445  -0.223  1.00  0.00     0.168 C 
BRANCH  12  13
HETATM   13  C7  UNL     1      -0.619   0.876  -1.053  1.00  0.00     0.292 C 
BRANCH  13  14
HETATM   14  N6  UNL     1      -1.910   1.259  -0.505  1.00  0.00     0.093 N 
HETATM   15  C8  UNL     1      -2.896   0.562  -1.364  1.00  0.00     0.300 C 
HETATM   16  C9  UNL     1      -4.240   0.785  -0.662  1.00  0.00     0.262 C 
HETATM   17  N7  UNL     1      -4.524   2.201  -0.785  1.00  0.00    -0.072 N 
HETATM   18  C10 UNL     1      -3.524   2.961  -0.067  1.00  0.00     0.262 C 
ATOM     19  H72 UNL     1      -4.604   2.494  -1.759  1.00  0.00     0.277 HD
ATOM     20  H71 UNL     1      -5.471   2.431  -0.484  1.00  0.00     0.277 HD
HETATM   21  C11 UNL     1      -2.179   2.672  -0.716  1.00  0.00     0.300 C 
ENDBRANCH  13  14
ENDBRANCH  12  13
ENDBRANCH  10  12
ENDBRANCH   7  10
BRANCH   4  22
HETATM   22  N3  UNL     1       2.767  -2.850   0.213  1.00  0.00    -0.223 N 
ATOM     23  H3  UNL     1       3.152  -3.717   0.588  1.00  0.00     0.177 HD
BRANCH  22  24
HETATM   24  C3  UNL     1       2.983  -2.583  -1.174  1.00  0.00     0.164 C 
BRANCH  24  25
HETATM   25  C4  UNL     1       4.216  -1.706  -1.391  1.00  0.00     0.184 C 
BRANCH  25  26
HETATM   26  O1  UNL     1       5.357  -2.345  -0.888  1.00  0.00    -0.399 OA
ATOM     27  H1  UNL     1       6.123  -1.800  -1.023  1.00  0.00     0.209 HD
ENDBRANCH  25  26
ENDBRANCH  24  25
ENDBRANCH  22  24
ENDBRANCH   4  22
BRANCH   1  28
HETATM   28  N1  UNL     1       1.250  -2.113   4.418  1.00  0.00    -0.234 N 
ATOM     29  H12 UNL     1       1.654  -2.988   4.752  1.00  0.00     0.174 HD
ATOM     30  H11 UNL     1       0.746  -1.529   5.086  1.00  0.00     0.174 HD
ENDBRANCH   1  28
TORSDOF 9
