REMARK  7 active torsions:
REMARK  status: ('A' for Active; 'I' for Inactive)
REMARK    1  A    between atoms: C2_5  and  C3_7 
REMARK    2  A    between atoms: C5_12  and  N6_13 
REMARK    3  A    between atoms: N8_19  and  C7_21 
REMARK    4  A    between atoms: C7_21  and  C8_22 
REMARK    5  A    between atoms: C8_22  and  C9_23 
REMARK    6  A    between atoms: C9_23  and  O1_24 
REMARK    7  A    between atoms: O1_24  and  C10_25 
ROOT
HETATM    1  N1  UNL     1      -5.529  -0.585   1.771  1.00  0.00    -0.172 NA
HETATM    2  C1  UNL     1      -4.618  -1.004   1.182  1.00  0.00     0.183 C 
HETATM    3  N2  UNL     1      -3.515  -1.492   0.487  1.00  0.00    -0.281 N 
ATOM      4  H2  UNL     1      -3.424  -2.496   0.329  1.00  0.00     0.179 HD
HETATM    5  C2  UNL     1      -2.587  -0.677   0.031  1.00  0.00     0.142 C 
HETATM    6  N3  UNL     1      -2.804   0.701   0.296  1.00  0.00    -0.081 NA
ENDROOT
BRANCH   5   7
HETATM    7  C3  UNL     1      -1.416  -1.203  -0.636  1.00  0.00     0.092 A 
HETATM    8  C4  UNL     1      -1.332  -2.569  -0.789  1.00  0.00     0.149 A 
HETATM    9  N4  UNL     1      -2.361  -3.451  -0.369  1.00  0.00    -0.081 NA
HETATM   10  N5  UNL     1      -0.224  -3.046  -1.377  1.00  0.00    -0.178 N 
HETATM   11  C5  UNL     1       0.754  -2.226  -1.795  1.00  0.00     0.678 A 
ATOM     12  H5  UNL     1      -0.123  -4.052  -1.509  1.00  0.00     0.185 HD
HETATM   13  N7  UNL     1       0.666  -0.891  -1.644  1.00  0.00    -0.176 N 
HETATM   14  C6  UNL     1      -0.432  -0.320  -1.053  1.00  0.00     0.134 A 
ATOM     15  H7  UNL     1       1.426  -0.296  -1.974  1.00  0.00     0.186 HD
HETATM   16  N8  UNL     1      -0.568   0.881  -0.879  1.00  0.00    -0.375 N 
ATOM     17  H8  UNL     1      -1.467   1.019  -0.417  1.00  0.00     0.161 HD
BRANCH  11  18
HETATM   18  N6  UNL     1       1.797  -2.759  -2.353  1.00  0.00    -0.234 N 
ATOM     19  H62 UNL     1       1.864  -3.770  -2.467  1.00  0.00     0.174 HD
ATOM     20  H61 UNL     1       2.540  -2.136  -2.670  1.00  0.00     0.174 HD
ENDBRANCH  11  18
BRANCH  16  21
HETATM   21  C7  UNL     1      -0.006   2.121  -1.051  1.00  0.00     0.123 C 
BRANCH  21  22
HETATM   22  C8  UNL     1       1.280   2.273  -0.231  1.00  0.00     0.046 C 
BRANCH  22  23
HETATM   23  C9  UNL     1       1.026   2.062   1.228  1.00  0.00     0.182 C 
BRANCH  23  24
HETATM   24  O1  UNL     1       2.173   2.215   1.989  1.00  0.00    -0.306 OA
BRANCH  24  25
HETATM   25  C10 UNL     1       3.340   1.506   1.930  1.00  0.00     0.372 C 
HETATM   26  N9  UNL     1       4.440   1.769   2.787  1.00  0.00    -0.032 NA
HETATM   27  O2  UNL     1       3.466   0.577   1.089  1.00  0.00    -0.242 OA
ENDBRANCH  24  25
ENDBRANCH  23  24
ENDBRANCH  22  23
ENDBRANCH  21  22
ENDBRANCH  16  21
ENDBRANCH   5   7
TORSDOF 7
