REMARK  8 active torsions:
REMARK  status: ('A' for Active; 'I' for Inactive)
REMARK    1  A    between atoms: N1_1  and  C1_4 
REMARK    2  A    between atoms: C4_12  and  C5_13 
REMARK    3  A    between atoms: C5_13  and  N4_14 
REMARK    4  A    between atoms: C8_20  and  N7_21 
REMARK    5  A    between atoms: N7_21  and  C9_23 
REMARK    6  A    between atoms: C9_23  and  C10_24 
REMARK    7  A    between atoms: C10_24  and  C11_25 
REMARK    8  A    between atoms: C11_25  and  O2_26 
ROOT
HETATM    1  N4  UNL     1       1.029  -0.168   1.124  1.00  0.00    -0.250 N 
HETATM    2  N5  UNL     1       0.903  -1.453   1.368  1.00  0.00    -0.282 N 
ATOM      3  H5  UNL     1       1.697  -1.941   1.783  1.00  0.00     0.188 HD
HETATM    4  C6  UNL     1      -0.212  -2.168   1.104  1.00  0.00     0.133 A 
HETATM    5  N6  UNL     1      -0.311  -3.558   1.382  1.00  0.00    -0.081 NA
HETATM    6  C7  UNL     1      -1.289  -1.478   0.536  1.00  0.00     0.081 A 
HETATM    7  C8  UNL     1      -1.200  -0.129   0.263  1.00  0.00     0.101 A 
HETATM    8  C12 UNL     1      -0.017   0.508   0.570  1.00  0.00     0.288 A 
HETATM    9  O3  UNL     1       0.123   1.740   0.344  1.00  0.00    -0.264 OA
ENDROOT
BRANCH   1  10
HETATM   10  C5  UNL     1       2.225   0.551   1.418  1.00  0.00     0.196 C 
BRANCH  10  11
HETATM   11  C4  UNL     1       3.201   0.586   0.337  1.00  0.00     0.021 A 
HETATM   12  C1  UNL     1       4.392   1.250   0.506  1.00  0.00     0.112 A 
HETATM   13  N2  UNL     1       5.328   1.311  -0.465  1.00  0.00    -0.294 N 
HETATM   14  C2  UNL     1       5.093   0.707  -1.629  1.00  0.00     0.325 A 
ATOM     15  H2  UNL     1       6.203   1.812  -0.310  1.00  0.00     0.172 HD
HETATM   16  O1  UNL     1       5.968   0.765  -2.534  1.00  0.00    -0.247 OA
HETATM   17  N3  UNL     1       3.931   0.040  -1.838  1.00  0.00    -0.318 N 
HETATM   18  C3  UNL     1       2.973  -0.032  -0.869  1.00  0.00     0.105 A 
ATOM     19  H3  UNL     1       3.770  -0.416  -2.736  1.00  0.00     0.170 HD
BRANCH  12  20
HETATM   20  N1  UNL     1       4.663   1.846   1.609  1.00  0.00    -0.385 N 
ATOM     21  H12 UNL     1       5.547   2.339   1.734  1.00  0.00     0.157 HD
ATOM     22  H11 UNL     1       3.956   1.800   2.343  1.00  0.00     0.157 HD
ENDBRANCH  12  20
ENDBRANCH  10  11
ENDBRANCH   1  10
BRANCH   7  23
HETATM   23  N7  UNL     1      -2.181   0.500  -0.255  1.00  0.00    -0.385 N 
ATOM     24  H7  UNL     1      -2.052   1.496  -0.432  1.00  0.00     0.159 HD
BRANCH  23  25
HETATM   25  C9  UNL     1      -3.442  -0.065  -0.609  1.00  0.00     0.122 C 
BRANCH  25  26
HETATM   26  C10 UNL     1      -4.459   1.062  -0.755  1.00  0.00     0.045 C 
BRANCH  26  27
HETATM   27  C11 UNL     1      -5.825   0.485  -1.135  1.00  0.00     0.165 C 
BRANCH  27  28
HETATM   28  O2  UNL     1      -6.722   1.518  -1.261  1.00  0.00    -0.401 OA
ATOM     29  H2  UNL     1      -7.570   1.160  -1.497  1.00  0.00     0.209 HD
ENDBRANCH  27  28
ENDBRANCH  26  27
ENDBRANCH  25  26
ENDBRANCH  23  25
ENDBRANCH   7  23
TORSDOF 8
