REMARK  5 active torsions:
REMARK  status: ('A' for Active; 'I' for Inactive)
REMARK    1  A    between atoms: C3_4  and  C4_5 
REMARK    2  A    between atoms: C4_5  and  N2_6 
REMARK    3  A    between atoms: C4_5  and  N3_10 
REMARK    4  A    between atoms: N3_10  and  C5_12 
REMARK    5  A    between atoms: C9_16  and  C10_17 
ROOT
HETATM    1  N1  UNL     1      -6.449   2.190  -0.716  1.00  0.00    -0.192 NA
HETATM    2  C1  UNL     1      -5.535   1.451  -0.725  1.00  0.00     0.087 C 
HETATM    3  C2  UNL     1      -4.416   0.563  -0.723  1.00  0.00     0.093 C 
HETATM    4  C3  UNL     1      -3.519   0.659   0.234  1.00  0.00     0.037 C 
ENDROOT
BRANCH   4   5
HETATM    5  C4  UNL     1      -2.323  -0.226   0.311  1.00  0.00     0.306 C 
BRANCH   5   6
HETATM    6  N2  UNL     1      -2.361  -1.213  -0.771  1.00  0.00    -0.055 N 
ATOM      7  H23 UNL     1      -3.231  -1.745  -0.773  1.00  0.00     0.277 HD
ATOM      8  H22 UNL     1      -2.453  -0.773  -1.687  1.00  0.00     0.277 HD
ATOM      9  H21 UNL     1      -1.542  -1.819  -0.718  1.00  0.00     0.277 HD
ENDBRANCH   5   6
BRANCH   5  10
HETATM   10  N3  UNL     1      -1.101   0.507   0.162  1.00  0.00    -0.360 N 
ATOM     11  H3  UNL     1      -1.137   1.510  -0.021  1.00  0.00     0.162 HD
BRANCH  10  12
HETATM   12  C5  UNL     1       0.145  -0.130   0.264  1.00  0.00     0.030 A 
HETATM   13  C6  UNL     1       0.319  -1.453   0.586  1.00  0.00     0.029 A 
HETATM   14  C7  UNL     1       1.562  -2.035   0.669  1.00  0.00     0.003 A 
HETATM   15  C8  UNL     1       2.685  -1.292   0.427  1.00  0.00     0.015 A 
HETATM   16  C9  UNL     1       2.569   0.043   0.098  1.00  0.00     0.007 A 
HETATM   17  C11 UNL     1       1.324   0.592   0.023  1.00  0.00     0.044 A 
BRANCH  16  18
HETATM   18  C10 UNL     1       3.759   0.839  -0.161  1.00  0.00     0.120 C 
HETATM   19  N4  UNL     1       3.644   2.083  -0.467  1.00  0.00    -0.387 N 
ATOM     20  H42 UNL     1       2.705   2.479  -0.518  1.00  0.00     0.157 HD
ATOM     21  H41 UNL     1       4.478   2.641  -0.649  1.00  0.00     0.157 HD
HETATM   22  N5  UNL     1       5.060   0.290  -0.090  1.00  0.00    -0.082 NA
ENDBRANCH  16  18
ENDBRANCH  10  12
ENDBRANCH   5  10
ENDBRANCH   4   5
TORSDOF 5
