REMARK  4 active torsions:
REMARK  status: ('A' for Active; 'I' for Inactive)
REMARK    1  A    between atoms: C2_2  and  C4_4 
REMARK    2  A    between atoms: C6_8  and  C7_9 
REMARK    3  A    between atoms: C7_9  and  N2_10 
REMARK    4  A    between atoms: C7_9  and  C8_14 
ROOT
HETATM    1  C4  UNL     1      -1.307   0.303   0.055  1.00  0.00     0.034 A 
HETATM    2  N1  UNL     1      -1.098   1.290  -0.814  1.00  0.00    -0.367 N 
ATOM      3  H1  UNL     1      -1.814   1.945  -1.130  1.00  0.00     0.165 HD
HETATM    4  C5  UNL     1       0.170   1.307  -1.215  1.00  0.00     0.099 A 
HETATM    5  C6  UNL     1       0.849   0.271  -0.576  1.00  0.00     0.017 A 
HETATM    6  C9  UNL     1      -0.089  -0.350   0.216  1.00  0.00     0.077 A 
HETATM    7  C10 UNL     1       0.083  -1.499   1.072  1.00  0.00     0.102 C 
HETATM    8  N5  UNL     1       0.237  -2.428   1.749  1.00  0.00    -0.191 NA
ENDROOT
BRANCH   1   9
HETATM    9  C2  UNL     1      -2.577  -0.043   0.722  1.00  0.00     0.029 C 
HETATM   10  C1  UNL     1      -3.639   0.986   0.318  1.00  0.00     0.016 C 
HETATM   11  C3  UNL     1      -3.114  -1.385   0.265  1.00  0.00     0.016 C 
ENDBRANCH   1   9
BRANCH   5  12
HETATM   12  C7  UNL     1       2.274  -0.065  -0.704  1.00  0.00     0.283 C 
BRANCH  12  13
HETATM   13  N2  UNL     1       2.971   0.835  -1.606  1.00  0.00    -0.064 N 
ATOM     14  H23 UNL     1       2.516   0.868  -2.518  1.00  0.00     0.275 HD
ATOM     15  H22 UNL     1       2.845   1.808  -1.327  1.00  0.00     0.275 HD
ATOM     16  H21 UNL     1       3.960   0.602  -1.695  1.00  0.00     0.275 HD
ENDBRANCH  12  13
BRANCH  12  17
HETATM   17  C8  UNL     1       3.007  -0.213   0.562  1.00  0.00     0.122 C 
HETATM   18  N3  UNL     1       2.661   0.357   1.669  1.00  0.00    -0.389 N 
ATOM     19  H32 UNL     1       1.814   0.924   1.703  1.00  0.00     0.157 HD
ATOM     20  H31 UNL     1       3.169   0.254   2.547  1.00  0.00     0.157 HD
HETATM   21  N4  UNL     1       4.198  -1.010   0.514  1.00  0.00    -0.086 NA
ENDBRANCH  12  17
ENDBRANCH   5  12
TORSDOF 4
