REMARK  4 active torsions:
REMARK  status: ('A' for Active; 'I' for Inactive)
REMARK    1  A    between atoms: C2_2  and  O1_4 
REMARK    2  A    between atoms: O1_4  and  C4_5 
REMARK    3  A    between atoms: C9_10  and  N1_11 
REMARK    4  A    between atoms: N1_11  and  N2_13 
REMARK       I    between atoms: N2_13  and  C10_15 
ROOT
HETATM    1  C4  UNL     1      -0.784  -1.336  -0.063  1.00  0.00     0.097 A 
HETATM    2  C5  UNL     1      -1.198  -2.689  -0.247  1.00  0.00     0.039 A 
HETATM    3  C6  UNL     1      -0.279  -3.682  -0.388  1.00  0.00     0.003 A 
HETATM    4  C7  UNL     1       1.079  -3.418  -0.355  1.00  0.00     0.002 A 
HETATM    5  C8  UNL     1       1.464  -2.107  -0.176  1.00  0.00     0.034 A 
HETATM    6  C9  UNL     1       0.558  -1.055  -0.028  1.00  0.00     0.081 A 
ENDROOT
BRANCH   6   7
HETATM    7  N1  UNL     1       1.059   0.249   0.169  1.00  0.00    -0.296 N 
ATOM      8  H1  UNL     1       0.856   0.728   1.047  1.00  0.00     0.187 HD
BRANCH   7   9
HETATM    9  N2  UNL     1       1.827   0.910  -0.802  1.00  0.00    -0.273 N 
HETATM   10  C10 UNL     1       2.842   1.847  -0.434  1.00  0.00     0.200 C 
HETATM   11  N3  UNL     1       2.884   3.036  -0.946  1.00  0.00    -0.372 N 
HETATM   12  N4  UNL     1       3.810   1.460   0.513  1.00  0.00    -0.062 NA
ATOM     13  H32 UNL     1       2.183   3.316  -1.632  1.00  0.00     0.158 HD
ATOM     14  H31 UNL     1       3.608   3.705  -0.683  1.00  0.00     0.158 HD
ATOM     15  H2  UNL     1       1.658   0.718  -1.789  1.00  0.00     0.189 HD
ENDBRANCH   7   9
ENDBRANCH   6   7
BRANCH   1  16
HETATM   16  O1  UNL     1      -1.747  -0.422   0.065  1.00  0.00    -0.344 OA
BRANCH  16  17
HETATM   17  C2  UNL     1      -1.970   0.894   0.214  1.00  0.00     0.120 C 
HETATM   18  C1  UNL     1      -3.101   1.444  -0.655  1.00  0.00     0.040 C 
HETATM   19  C3  UNL     1      -2.357   1.165   1.699  1.00  0.00     0.040 C 
ENDBRANCH  16  17
ENDBRANCH   1  16
TORSDOF 4
