REMARK  4 active torsions:
REMARK  status: ('A' for Active; 'I' for Inactive)
REMARK    1  A    between atoms: C5_7  and  C6_8 
REMARK    2  A    between atoms: C9_15  and  N4_16 
REMARK    3  A    between atoms: C10_21  and  N6_22 
REMARK    4  A    between atoms: C19_34  and  C20_35 
ROOT
HETATM    1  C6  UNL     1       3.086   0.328  -0.317  1.00  0.00     0.060 A 
HETATM    2  C7  UNL     1       3.949   0.457  -1.403  1.00  0.00     0.120 A 
HETATM    3  N2  UNL     1       3.551   0.500  -2.671  1.00  0.00    -0.348 N 
ATOM      4  H2  UNL     1       4.227   0.597  -3.429  1.00  0.00     0.167 HD
HETATM    5  C8  UNL     1       2.234   0.412  -2.927  1.00  0.00     0.151 A 
HETATM    6  N3  UNL     1       1.800   0.473  -4.201  1.00  0.00    -0.174 N 
ATOM      7  H3  UNL     1       2.457   0.570  -4.975  1.00  0.00     0.186 HD
HETATM    8  C9  UNL     1       0.484   0.403  -4.422  1.00  0.00     0.679 A 
HETATM    9  N5  UNL     1      -0.389   0.276  -3.444  1.00  0.00    -0.174 N 
ATOM     10  H5  UNL     1      -1.380   0.228  -3.679  1.00  0.00     0.186 HD
HETATM   11  C10 UNL     1      -0.021   0.205  -2.113  1.00  0.00     0.152 A 
HETATM   12  C28 UNL     1       1.322   0.279  -1.871  1.00  0.00     0.123 A 
HETATM   13  N9  UNL     1       1.778   0.242  -0.613  1.00  0.00    -0.348 N 
ATOM     14  H9  UNL     1       1.108   0.145   0.150  1.00  0.00     0.166 HD
ENDROOT
BRANCH  11  15
HETATM   15  N6  UNL     1      -1.061   0.068  -1.195  1.00  0.00    -0.328 N 
HETATM   16  C11 UNL     1      -2.219  -0.844  -0.883  1.00  0.00     0.166 A 
HETATM   17  C12 UNL     1      -3.330  -1.004  -1.832  1.00  0.00    -0.005 A 
HETATM   18  C19 UNL     1      -2.038   0.358  -0.163  1.00  0.00     0.170 A 
HETATM   19  C13 UNL     1      -3.419  -2.216  -2.557  1.00  0.00     0.012 A 
HETATM   20  C17 UNL     1      -4.338  -0.107  -1.943  1.00  0.00     0.043 A 
HETATM   21  C14 UNL     1      -4.503  -2.489  -3.353  1.00  0.00     0.001 A 
HETATM   22  C15 UNL     1      -5.523  -1.569  -3.451  1.00  0.00     0.002 A 
HETATM   23  C16 UNL     1      -5.451  -0.382  -2.754  1.00  0.00     0.030 A 
HETATM   24  N7  UNL     1      -4.175   1.171  -1.360  1.00  0.00    -0.324 N 
HETATM   25  C18 UNL     1      -2.971   1.464  -0.706  1.00  0.00     0.258 C 
ATOM     26  H7  UNL     1      -4.920   1.866  -1.415  1.00  0.00     0.169 HD
HETATM   27  O1  UNL     1      -2.647   2.690  -0.576  1.00  0.00    -0.270 OA
BRANCH  18  28
HETATM   28  C20 UNL     1      -1.782   0.535   1.257  1.00  0.00    -0.006 A 
HETATM   29  C21 UNL     1      -2.274   1.613   1.988  1.00  0.00     0.011 A 
HETATM   30  C22 UNL     1      -2.158   1.739   3.371  1.00  0.00     0.003 A 
HETATM   31  C23 UNL     1      -1.523   0.743   4.054  1.00  0.00     0.030 A 
HETATM   32  C24 UNL     1      -1.005  -0.357   3.403  1.00  0.00     0.043 A 
HETATM   33  N8  UNL     1      -0.319  -1.431   3.876  1.00  0.00    -0.365 N 
HETATM   34  C27 UNL     1      -1.133  -0.458   2.017  1.00  0.00     0.001 A 
HETATM   35  C25 UNL     1      -0.013  -2.192   2.836  1.00  0.00     0.089 A 
ATOM     36  H8  UNL     1      -0.084  -1.616   4.851  1.00  0.00     0.165 HD
HETATM   37  C26 UNL     1      -0.497  -1.625   1.662  1.00  0.00     0.031 A 
ENDBRANCH  18  28
ENDBRANCH  11  15
BRANCH   8  38
HETATM   38  N4  UNL     1       0.027   0.460  -5.652  1.00  0.00    -0.234 N 
ATOM     39  H42 UNL     1       0.703   0.558  -6.409  1.00  0.00     0.174 HD
ATOM     40  H41 UNL     1      -0.978   0.407  -5.821  1.00  0.00     0.174 HD
ENDBRANCH   8  38
BRANCH   1  41
HETATM   41  C5  UNL     1       3.597   0.344   1.044  1.00  0.00     0.008 A 
HETATM   42  C4  UNL     1       2.762   0.449   2.122  1.00  0.00     0.101 A 
HETATM   43  N1  UNL     1       3.234   0.433   3.404  1.00  0.00    -0.374 N 
HETATM   44  C3  UNL     1       4.540   0.315   3.646  1.00  0.00     0.094 A 
ATOM     45  H1  UNL     1       2.581   0.512   4.184  1.00  0.00     0.164 HD
HETATM   46  C2  UNL     1       5.427   0.206   2.612  1.00  0.00    -0.046 A 
HETATM   47  C1  UNL     1       6.867   0.076   2.890  1.00  0.00     0.049 C 
HETATM   48  C29 UNL     1       4.934   0.223   1.302  1.00  0.00     0.023 A 
ENDBRANCH   1  41
TORSDOF 4
