REMARK  6 active torsions:
REMARK  status: ('A' for Active; 'I' for Inactive)
REMARK    1  A    between atoms: C6_6  and  O1_7 
REMARK    2  A    between atoms: C7_9  and  C8_10 
REMARK    3  A    between atoms: C13_15  and  C14_16 
REMARK    4  A    between atoms: C22_25  and  O2_26 
REMARK    5  A    between atoms: C24_29  and  O3_30 
REMARK    6  A    between atoms: C31_40  and  O4_42 
ROOT
HETATM    1  C8  UNL     1      -0.985   0.455  -0.834  1.00  0.00    -0.007 C 
HETATM    2  C9  UNL     1      -0.593  -0.494  -1.820  1.00  0.00     0.015 C 
HETATM    3  C10 UNL     1       0.672  -0.680  -2.332  1.00  0.00     0.031 C 
HETATM    4  C11 UNL     1       1.883  -0.538  -1.688  1.00  0.00     0.040 A 
HETATM    5  C12 UNL     1       2.989  -1.252  -2.070  1.00  0.00     0.043 A 
HETATM    6  C13 UNL     1       3.978  -0.868  -1.182  1.00  0.00    -0.008 A 
HETATM    7  C20 UNL     1       3.465   0.055  -0.293  1.00  0.00     0.110 A 
HETATM    8  N1  UNL     1       2.180   0.238  -0.629  1.00  0.00    -0.318 N 
HETATM    9  C21 UNL     1       1.305   1.074  -0.010  1.00  0.00     0.085 A 
HETATM   10  C22 UNL     1       1.713   2.054   0.900  1.00  0.00     0.107 A 
HETATM   11  C23 UNL     1       0.572   2.708   1.367  1.00  0.00     0.044 A 
HETATM   12  C24 UNL     1       0.461   3.738   2.281  1.00  0.00     0.079 A 
HETATM   13  C25 UNL     1      -0.814   4.244   2.614  1.00  0.00     0.037 A 
HETATM   14  C26 UNL     1      -1.903   3.711   2.031  1.00  0.00     0.004 A 
HETATM   15  C27 UNL     1      -1.822   2.664   1.098  1.00  0.00     0.013 A 
HETATM   16  C28 UNL     1      -0.589   2.179   0.780  1.00  0.00    -0.007 A 
HETATM   17  C29 UNL     1      -0.154   1.183  -0.064  1.00  0.00     0.017 A 
ENDROOT
BRANCH   1  18
HETATM   18  C7  UNL     1      -2.421   0.525  -0.834  1.00  0.00     0.035 A 
HETATM   19  C6  UNL     1      -3.114   1.346  -1.689  1.00  0.00     0.079 A 
HETATM   20  C5  UNL     1      -4.490   1.305  -1.716  1.00  0.00     0.038 A 
HETATM   21  C4  UNL     1      -5.165   0.437  -0.882  1.00  0.00     0.017 A 
HETATM   22  C3  UNL     1      -4.471  -0.397  -0.014  1.00  0.00    -0.002 A 
HETATM   23  C2  UNL     1      -4.934  -1.278   0.844  1.00  0.00    -0.017 A 
HETATM   24  C30 UNL     1      -3.105  -0.344   0.000  1.00  0.00     0.055 A 
HETATM   25  C1  UNL     1      -6.348  -1.595   1.091  1.00  0.00     0.049 C 
HETATM   26  C31 UNL     1      -3.763  -1.893   1.516  1.00  0.00     0.153 A 
HETATM   27  N2  UNL     1      -2.661  -1.208   0.886  1.00  0.00    -0.354 N 
HETATM   28  C32 UNL     1      -3.673  -3.372   1.159  1.00  0.00     0.076 C 
ATOM     29  H2  UNL     1      -1.677  -1.371   1.098  1.00  0.00     0.163 HD
BRANCH  19  30
HETATM   30  O1  UNL     1      -2.484   2.237  -2.549  1.00  0.00    -0.360 OA
ATOM     31  H1  UNL     1      -1.535   2.265  -2.530  1.00  0.00     0.217 HD
ENDBRANCH  19  30
BRANCH  26  32
HETATM   32  O4  UNL     1      -3.782  -1.713   2.898  1.00  0.00    -0.367 OA
ATOM     33  H4  UNL     1      -3.032  -2.107   3.328  1.00  0.00     0.213 HD
ENDBRANCH  26  32
ENDBRANCH   1  18
BRANCH  10  34
HETATM   34  O2  UNL     1       3.003   2.252   1.200  1.00  0.00    -0.357 OA
ATOM     35  H2  UNL     1       3.280   2.918   1.818  1.00  0.00     0.217 HD
ENDBRANCH  10  34
BRANCH  12  36
HETATM   36  O3  UNL     1       1.526   4.314   2.899  1.00  0.00    -0.360 OA
ATOM     37  H3  UNL     1       1.450   5.022   3.528  1.00  0.00     0.217 HD
ENDBRANCH  12  36
BRANCH   6  38
HETATM   38  C14 UNL     1       5.334  -1.400  -1.233  1.00  0.00    -0.025 A 
HETATM   39  C15 UNL     1       6.374  -0.595  -0.830  1.00  0.00     0.012 A 
HETATM   40  C16 UNL     1       7.652  -1.116  -0.883  1.00  0.00     0.001 A 
HETATM   41  C17 UNL     1       7.865  -2.414  -1.332  1.00  0.00     0.000 A 
HETATM   42  C18 UNL     1       6.787  -3.198  -1.731  1.00  0.00     0.001 A 
HETATM   43  C19 UNL     1       5.521  -2.691  -1.682  1.00  0.00     0.012 A 
ENDBRANCH   6  38
TORSDOF 6
