REMARK  8 active torsions:
REMARK  status: ('A' for Active; 'I' for Inactive)
REMARK    1  A    between atoms: C2_2  and  C4_4 
REMARK       I    between atoms: N1_7  and  C7_8 
REMARK    2  A    between atoms: C7_8  and  C8_10 
REMARK    3  A    between atoms: C8_10  and  C9_13 
REMARK       I    between atoms: C9_13  and  N2_15 
REMARK    4  A    between atoms: C11_17  and  O3_18 
REMARK    5  A    between atoms: O3_18  and  C12_19 
REMARK    6  A    between atoms: C14_25  and  C15_26 
REMARK    7  A    between atoms: C16_29  and  C17_30 
REMARK       I    between atoms: C17_30  and  N5_32 
REMARK    8  A    between atoms: N5_32  and  C18_34 
ROOT
HETATM    1  C8  UNL     1       1.288  -1.749  -0.908  1.00  0.00     0.401 C 
HETATM    2  F1  UNL     1       1.654  -2.077  -2.227  1.00  0.00    -0.184 F 
HETATM    3  F2  UNL     1       1.502  -2.877  -0.185  1.00  0.00    -0.184 F 
ENDROOT
BRANCH   1   4
HETATM    4  C7  UNL     1      -0.140  -1.396  -0.911  1.00  0.00     0.303 C 
HETATM    5  N1  UNL     1      -0.929  -1.161   0.263  1.00  0.00    -0.333 N 
HETATM    6  C6  UNL     1      -0.435  -1.303   1.593  1.00  0.00     0.127 C 
HETATM    7  C16 UNL     1      -2.304  -0.749   0.306  1.00  0.00     0.183 C 
HETATM    8  C5  UNL     1      -1.692  -1.330   2.493  1.00  0.00     0.027 C 
HETATM    9  C4  UNL     1      -2.582  -0.418   1.724  1.00  0.00     0.023 C 
HETATM   10  O1  UNL     1      -0.727  -1.285  -2.020  1.00  0.00    -0.266 OA
BRANCH   9  11
HETATM   11  C2  UNL     1      -4.007  -0.428   2.158  1.00  0.00    -0.016 C 
HETATM   12  C1  UNL     1      -4.036  -0.003   3.624  1.00  0.00     0.010 C 
HETATM   13  C3  UNL     1      -4.756  -1.691   1.926  1.00  0.00     0.010 C 
ENDBRANCH   9  11
BRANCH   7  14
HETATM   14  C17 UNL     1      -2.560   0.418  -0.595  1.00  0.00     0.241 C 
HETATM   15  O6  UNL     1      -1.676   1.177  -1.017  1.00  0.00    -0.271 OA
HETATM   16  N5  UNL     1      -3.901   0.666  -0.991  1.00  0.00    -0.351 N 
ATOM     17  H5  UNL     1      -4.648   0.053  -0.664  1.00  0.00     0.163 HD
BRANCH  16  18
HETATM   18  C18 UNL     1      -4.217   1.795  -1.864  1.00  0.00     0.022 C 
HETATM   19  C19 UNL     1      -5.681   1.848  -2.145  1.00  0.00     0.037 C 
HETATM   20  C20 UNL     1      -3.867   3.097  -1.126  1.00  0.00     0.037 C 
HETATM   21  C21 UNL     1      -3.455   1.731  -3.163  1.00  0.00     0.037 C 
ENDBRANCH  16  18
ENDBRANCH   7  14
ENDBRANCH   1   4
BRANCH   1  22
HETATM   22  C9  UNL     1       2.143  -0.588  -0.503  1.00  0.00     0.303 C 
HETATM   23  O2  UNL     1       1.571   0.511  -0.308  1.00  0.00    -0.266 OA
HETATM   24  N2  UNL     1       3.525  -0.683  -0.340  1.00  0.00    -0.329 N 
HETATM   25  C10 UNL     1       4.421   0.388   0.030  1.00  0.00     0.159 C 
HETATM   26  C14 UNL     1       4.321  -1.889  -0.518  1.00  0.00     0.191 C 
HETATM   27  C11 UNL     1       5.823  -0.054  -0.201  1.00  0.00     0.152 C 
HETATM   28  C13 UNL     1       5.694  -1.359  -0.929  1.00  0.00     0.070 C 
BRANCH  27  29
HETATM   29  O3  UNL     1       6.569   0.851  -0.989  1.00  0.00    -0.318 OA
BRANCH  29  30
HETATM   30  C12 UNL     1       6.808   2.161  -0.645  1.00  0.00     0.225 C 
HETATM   31  N3  UNL     1       6.692   2.470   0.604  1.00  0.00    -0.368 N 
ATOM     32  H32 UNL     1       6.437   1.794   1.324  1.00  0.00     0.159 HD
ATOM     33  H31 UNL     1       6.869   3.442   0.859  1.00  0.00     0.159 HD
HETATM   34  N4  UNL     1       7.160   3.094  -1.639  1.00  0.00    -0.057 NA
ENDBRANCH  29  30
ENDBRANCH  27  29
BRANCH  26  35
HETATM   35  C15 UNL     1       4.540  -2.581   0.776  1.00  0.00     0.197 C 
HETATM   36  O4  UNL     1       4.122  -2.153   1.875  1.00  0.00    -0.646 OA
HETATM   37  O5  UNL     1       5.246  -3.774   0.805  1.00  0.00    -0.646 OA
ENDBRANCH  26  35
ENDBRANCH   1  22
TORSDOF 8
