REMARK  7 active torsions:
REMARK  status: ('A' for Active; 'I' for Inactive)
REMARK    1  A    between atoms: C3_6  and  C4_7 
REMARK    2  A    between atoms: C4_7  and  O1_8 
REMARK    3  A    between atoms: C4_7  and  C5_10 
REMARK    4  A    between atoms: C5_10  and  N2_11 
REMARK    5  A    between atoms: N2_11  and  C6_14 
REMARK       I    between atoms: N3_17  and  C9_18 
REMARK    6  A    between atoms: C9_18  and  C10_20 
REMARK    7  A    between atoms: C10_20  and  C11_21 
ROOT
HETATM    1  C5  UNL     1      -1.757  -1.617  -0.346  1.00  0.00     0.268 C 
ENDROOT
BRANCH   1   2
HETATM    2  C4  UNL     1      -2.583  -0.514  -0.929  1.00  0.00     0.194 C 
BRANCH   2   3
HETATM    3  C3  UNL     1      -3.829  -0.268  -0.072  1.00  0.00     0.318 C 
HETATM    4  N1  UNL     1      -4.486   0.873  -0.702  1.00  0.00    -0.039 N 
HETATM    5  C2  UNL     1      -4.849   1.803   0.331  1.00  0.00     0.275 C 
ATOM      6  H12 UNL     1      -5.278   0.600  -1.283  1.00  0.00     0.280 HD
ATOM      7  H11 UNL     1      -3.919   1.299  -1.435  1.00  0.00     0.280 HD
HETATM    8  C1  UNL     1      -4.810   3.191  -0.281  1.00  0.00     0.050 C 
HETATM    9  C23 UNL     1      -6.208   1.502   0.858  1.00  0.00     0.250 C 
HETATM   10  N5  UNL     1      -7.270   0.596   0.573  1.00  0.00    -0.342 N 
HETATM   11  O4  UNL     1      -6.512   2.247   1.823  1.00  0.00    -0.271 OA
HETATM   12  C20 UNL     1      -7.327  -0.628  -0.163  1.00  0.00     0.174 C 
HETATM   13  C22 UNL     1      -8.514   1.026   1.151  1.00  0.00     0.153 C 
HETATM   14  C19 UNL     1      -6.158  -1.504   0.059  1.00  0.00     0.241 C 
HETATM   15  C21 UNL     1      -8.593  -1.398   0.174  1.00  0.00     0.042 C 
HETATM   16  N4  UNL     1      -4.746  -1.392  -0.119  1.00  0.00    -0.329 N 
HETATM   17  O3  UNL     1      -6.454  -2.646   0.524  1.00  0.00    -0.271 OA
ATOM     18  H4  UNL     1      -4.289  -2.282  -0.320  1.00  0.00     0.164 HD
ENDBRANCH   2   3
BRANCH   2  19
HETATM   19  O1  UNL     1      -3.030  -0.806  -2.205  1.00  0.00    -0.390 OA
ATOM     20  H1  UNL     1      -2.257  -0.959  -2.736  1.00  0.00     0.210 HD
ENDBRANCH   2  19
ENDBRANCH   1   2
BRANCH   1  21
HETATM   21  N2  UNL     1      -0.602  -1.876  -1.161  1.00  0.00    -0.068 N 
ATOM     22  H22 UNL     1      -0.171  -2.763  -0.902  1.00  0.00     0.277 HD
ATOM     23  H21 UNL     1      -0.879  -2.093  -2.118  1.00  0.00     0.277 HD
BRANCH  21  24
HETATM   24  C6  UNL     1       0.370  -0.816  -1.143  1.00  0.00     0.189 C 
HETATM   25  C7  UNL     1       0.987  -0.564   0.195  1.00  0.00     0.053 C 
HETATM   26  C8  UNL     1       2.470  -0.869   0.256  1.00  0.00     0.128 C 
HETATM   27  N3  UNL     1       3.202  -0.248  -0.838  1.00  0.00    -0.352 N 
HETATM   28  C9  UNL     1       4.586   0.055  -0.758  1.00  0.00     0.220 C 
HETATM   29  C17 UNL     1       2.449   0.053  -2.042  1.00  0.00     0.128 C 
HETATM   30  O2  UNL     1       5.128   0.595  -1.751  1.00  0.00    -0.273 OA
HETATM   31  C18 UNL     1       1.413  -1.058  -2.236  1.00  0.00     0.053 C 
BRANCH  28  32
HETATM   32  C10 UNL     1       5.282  -0.287   0.483  1.00  0.00     0.107 C 
BRANCH  32  33
HETATM   33  C11 UNL     1       6.737   0.024   0.528  1.00  0.00    -0.005 C 
HETATM   34  C12 UNL     1       7.541  -0.686  -0.531  1.00  0.00     0.011 C 
HETATM   35  C13 UNL     1       9.009  -0.498  -0.114  1.00  0.00     0.079 C 
HETATM   36  C14 UNL     1       9.375   0.959  -0.300  1.00  0.00     0.243 C 
HETATM   37  F1  UNL     1      10.204   1.131  -1.386  1.00  0.00    -0.206 F 
HETATM   38  F2  UNL     1      10.059   1.403   0.817  1.00  0.00    -0.206 F 
HETATM   39  C15 UNL     1       8.153   1.825  -0.484  1.00  0.00     0.079 C 
HETATM   40  C16 UNL     1       7.070   1.479   0.541  1.00  0.00     0.011 C 
ENDBRANCH  32  33
ENDBRANCH  28  32
ENDBRANCH  21  24
ENDBRANCH   1  21
TORSDOF 7
