REMARK  8 active torsions:
REMARK  status: ('A' for Active; 'I' for Inactive)
REMARK    1  A    between atoms: S1_2  and  N1_4 
REMARK    2  A    between atoms: S1_2  and  N2_13 
REMARK    3  A    between atoms: N1_4  and  C1_6 
REMARK    4  A    between atoms: C1_6  and  C2_7 
REMARK    5  A    between atoms: C2_7  and  C3_9 
REMARK    6  A    between atoms: C9_19  and  N3_20 
REMARK    7  A    between atoms: N3_20  and  C10_22 
REMARK    8  A    between atoms: N6_29  and  C13_31 
ROOT
HETATM    1  N2  UNL     1       4.681  -1.612  -0.787  1.00  0.00    -0.193 NA
HETATM    2  C4  UNL     1       4.464  -1.450   0.610  1.00  0.00     0.110 C 
HETATM    3  C5  UNL     1       3.125  -0.704   0.726  1.00  0.00     0.026 C 
HETATM    4  C6  UNL     1       2.340  -1.428  -0.357  1.00  0.00    -0.025 C 
HETATM    5  C7  UNL     1       1.821  -2.705   0.218  1.00  0.00     0.013 C 
HETATM    6  C8  UNL     1       0.310  -2.441   0.327  1.00  0.00     0.026 C 
HETATM    7  C9  UNL     1       0.077  -1.653  -0.917  1.00  0.00     0.100 C 
HETATM    8  C19 UNL     1       1.165  -0.610  -0.842  1.00  0.00     0.036 C 
HETATM    9  C20 UNL     1       3.367  -1.659  -1.415  1.00  0.00     0.118 C 
ENDROOT
BRANCH   7  10
HETATM   10  N3  UNL     1      -1.218  -1.173  -1.153  1.00  0.00    -0.221 N 
ATOM     11  H3  UNL     1      -1.590  -1.375  -2.081  1.00  0.00     0.178 HD
BRANCH  10  12
HETATM   12  C10 UNL     1      -2.009  -0.518  -0.381  1.00  0.00     0.693 A 
HETATM   13  N4  UNL     1      -1.700  -0.161   0.867  1.00  0.00    -0.187 N 
HETATM   14  C11 UNL     1      -2.593   0.519   1.588  1.00  0.00     0.215 A 
ATOM     15  H4  UNL     1      -0.793  -0.405   1.265  1.00  0.00     0.185 HD
HETATM   16  N5  UNL     1      -3.817   0.875   1.120  1.00  0.00    -0.187 N 
HETATM   17  C12 UNL     1      -4.116   0.511  -0.135  1.00  0.00     0.693 A 
ATOM     18  H5  UNL     1      -4.478   1.395   1.697  1.00  0.00     0.185 HD
HETATM   19  N6  UNL     1      -5.251   0.811  -0.643  1.00  0.00    -0.221 N 
HETATM   20  N7  UNL     1      -3.200  -0.187  -0.876  1.00  0.00    -0.022 N 
ATOM     21  H6  UNL     1      -5.453   0.521  -1.600  1.00  0.00     0.178 HD
ATOM     22  H7  UNL     1      -3.436  -0.460  -1.830  1.00  0.00     0.203 HD
BRANCH  19  23
HETATM   23  C13 UNL     1      -6.243   1.534   0.078  1.00  0.00     0.099 C 
HETATM   24  C14 UNL     1      -6.943   0.657   1.060  1.00  0.00     0.026 C 
HETATM   25  C15 UNL     1      -8.139  -0.071   0.543  1.00  0.00     0.002 C 
HETATM   26  C16 UNL     1      -9.071   0.756  -0.297  1.00  0.00     0.000 C 
HETATM   27  C17 UNL     1      -8.222   1.278  -1.464  1.00  0.00     0.002 C 
HETATM   28  C18 UNL     1      -7.228   2.224  -0.855  1.00  0.00     0.026 C 
ENDBRANCH  19  23
ENDBRANCH  10  12
ENDBRANCH   7  10
BRANCH   1  29
HETATM   29  S1  UNL     1       5.592  -0.408  -1.561  1.00  0.00     0.298 S 
HETATM   30  O1  UNL     1       5.626  -0.715  -3.034  1.00  0.00    -0.188 OA
HETATM   31  O2  UNL     1       4.828   0.901  -1.392  1.00  0.00    -0.188 OA
BRANCH  29  32
HETATM   32  N1  UNL     1       7.186  -0.214  -1.018  1.00  0.00    -0.304 N 
ATOM     33  H1  UNL     1       7.945  -0.825  -1.321  1.00  0.00     0.173 HD
BRANCH  32  34
HETATM   34  C1  UNL     1       7.392   0.867  -0.104  1.00  0.00     0.179 C 
BRANCH  34  35
HETATM   35  C2  UNL     1       8.852   0.967   0.332  1.00  0.00     0.295 C 
HETATM   36  F1  UNL     1       9.637   1.177  -0.790  1.00  0.00    -0.238 F 
BRANCH  35  37
HETATM   37  C3  UNL     1       8.930   2.244   1.180  1.00  0.00     0.419 C 
HETATM   38  F2  UNL     1       8.076   2.100   2.250  1.00  0.00    -0.168 F 
HETATM   39  F3  UNL     1       8.621   3.319   0.382  1.00  0.00    -0.168 F 
HETATM   40  F4  UNL     1      10.225   2.423   1.655  1.00  0.00    -0.168 F 
ENDBRANCH  35  37
ENDBRANCH  34  35
ENDBRANCH  32  34
ENDBRANCH  29  32
ENDBRANCH   1  29
TORSDOF 8
