REMARK  6 active torsions:
REMARK  status: ('A' for Active; 'I' for Inactive)
REMARK    1  A    between atoms: N1_1  and  C1_4 
REMARK    2  A    between atoms: C2_7  and  C3_8 
REMARK    3  A    between atoms: C3_8  and  C4_9 
REMARK    4  A    between atoms: C4_9  and  C5_10 
REMARK    5  A    between atoms: C5_10  and  N3_11 
REMARK    6  A    between atoms: N5_17  and  N6_18 
ROOT
HETATM    1  C1  UNL     1      -2.541   0.790  -0.085  1.00  0.00     0.713 A 
HETATM    2  N2  UNL     1      -1.514   1.074  -0.898  1.00  0.00    -0.176 N 
ATOM      3  H2  UNL     1      -1.502   1.841  -1.571  1.00  0.00     0.185 HD
HETATM    4  C2  UNL     1      -0.483   0.194  -0.702  1.00  0.00     0.114 A 
HETATM    5  N4  UNL     1      -0.924  -0.630   0.257  1.00  0.00    -0.253 N 
ATOM      6  H4  UNL     1      -0.395  -1.411   0.644  1.00  0.00     0.191 HD
HETATM    7  N5  UNL     1      -2.167  -0.278   0.637  1.00  0.00    -0.026 N 
ENDROOT
BRANCH   4   8
HETATM    8  C3  UNL     1       0.786   0.211  -1.462  1.00  0.00     0.080 C 
BRANCH   8   9
HETATM    9  C4  UNL     1       1.812  -0.708  -0.925  1.00  0.00     0.034 C 
BRANCH   9  10
HETATM   10  C5  UNL     1       2.293  -0.386   0.466  1.00  0.00     0.230 C 
BRANCH  10  11
HETATM   11  N3  UNL     1       2.875   0.910   0.495  1.00  0.00    -0.079 N 
ATOM     12  H33 UNL     1       3.617   1.011  -0.198  1.00  0.00     0.274 HD
ATOM     13  H32 UNL     1       2.238   1.622   0.137  1.00  0.00     0.274 HD
ATOM     14  H31 UNL     1       3.201   1.128   1.437  1.00  0.00     0.274 HD
ENDBRANCH  10  11
ENDBRANCH   9  10
ENDBRANCH   8   9
ENDBRANCH   4   8
BRANCH   1  15
HETATM   15  N1  UNL     1      -3.688   1.426  -0.006  1.00  0.00    -0.231 N 
ATOM     16  H12 UNL     1      -3.972   2.238  -0.555  1.00  0.00     0.174 HD
ATOM     17  H11 UNL     1      -4.470   1.210   0.613  1.00  0.00     0.174 HD
ENDBRANCH   1  15
BRANCH   7  18
HETATM   18  N6  UNL     1      -2.912  -0.935   1.619  1.00  0.00    -0.309 N 
ATOM     19  H62 UNL     1      -3.854  -0.668   1.907  1.00  0.00     0.179 HD
ATOM     20  H61 UNL     1      -2.628  -1.747   2.168  1.00  0.00     0.179 HD
ENDBRANCH   7  18
TORSDOF 6
