REMARK  5 active torsions:
REMARK  status: ('A' for Active; 'I' for Inactive)
REMARK    1  A    between atoms: N1_2  and  N2_4 
REMARK    2  A    between atoms: N2_4  and  C2_6 
REMARK    3  A    between atoms: N5_13  and  N6_14 
REMARK    4  A    between atoms: N6_14  and  N7_16 
REMARK    5  A    between atoms: N7_16  and  N8_17 
ROOT
HETATM    1  C2  UNL     1      -0.239  -0.822  -0.048  1.00  0.00     0.186 A 
HETATM    2  C3  UNL     1       0.183  -2.099  -0.425  1.00  0.00     0.072 A 
HETATM    3  C4  UNL     1      -0.510  -3.396  -0.155  1.00  0.00     0.074 C 
HETATM    4  N3  UNL     1       1.339  -1.923  -1.076  1.00  0.00    -0.285 N 
ATOM      5  H3  UNL     1       1.913  -2.660  -1.485  1.00  0.00     0.188 HD
HETATM    6  N4  UNL     1       1.606  -0.638  -1.098  1.00  0.00    -0.218 N 
ATOM      7  H4  UNL     1       2.432  -0.230  -1.536  1.00  0.00     0.210 HD
HETATM    8  N5  UNL     1       0.664   0.063  -0.478  1.00  0.00    -0.149 N 
ENDROOT
BRANCH   8   9
HETATM    9  N6  UNL     1       0.715   1.462  -0.336  1.00  0.00    -0.203 N 
ATOM     10  H6  UNL     1       0.125   2.078  -0.895  1.00  0.00     0.208 HD
BRANCH   9  11
HETATM   11  N7  UNL     1       1.624   1.973   0.620  1.00  0.00    -0.012 NA
BRANCH  11  12
HETATM   12  N8  UNL     1       2.798   2.429   0.054  1.00  0.00    -0.327 N 
ATOM     13  H82 UNL     1       2.976   2.394  -0.950  1.00  0.00     0.174 HD
ATOM     14  H81 UNL     1       3.453   2.797   0.743  1.00  0.00     0.174 HD
ENDBRANCH  11  12
ENDBRANCH   9  11
ENDBRANCH   8   9
BRANCH   1  15
HETATM   15  N2  UNL     1      -1.312  -0.621   0.589  1.00  0.00    -0.286 N 
ATOM     16  H2  UNL     1      -1.847  -1.460   0.814  1.00  0.00     0.188 HD
BRANCH  15  17
HETATM   17  N1  UNL     1      -1.868   0.566   1.026  1.00  0.00    -0.339 N 
HETATM   18  C1  UNL     1      -2.916   1.248   0.282  1.00  0.00     0.167 C 
ATOM     19  H1  UNL     1      -1.533   0.977   1.897  1.00  0.00     0.179 HD
ENDBRANCH  15  17
ENDBRANCH   1  15
TORSDOF 5
