REMARK  5 active torsions:
REMARK  status: ('A' for Active; 'I' for Inactive)
REMARK    1  A    between atoms: C1_4  and  N2_5 
REMARK    2  A    between atoms: N2_5  and  N3_7 
REMARK    3  A    between atoms: N3_7  and  N4_9 
REMARK    4  A    between atoms: N4_9  and  C2_11 
REMARK    5  A    between atoms: C4_17  and  N7_18 
ROOT
HETATM    1  C2  UNL     1      -0.862  -0.883  -0.112  1.00  0.00     0.713 A 
HETATM    2  N5  UNL     1      -1.960  -1.566  -0.453  1.00  0.00    -0.185 N 
ATOM      3  H5  UNL     1      -1.881  -2.463  -0.931  1.00  0.00     0.185 HD
HETATM    4  C3  UNL     1      -3.170  -1.058  -0.159  1.00  0.00     0.215 A 
HETATM    5  N6  UNL     1      -3.278   0.143   0.482  1.00  0.00    -0.187 N 
ATOM      6  H6  UNL     1      -4.195   0.530   0.707  1.00  0.00     0.185 HD
HETATM    7  C4  UNL     1      -2.157   0.807   0.812  1.00  0.00     0.691 A 
HETATM    8  N8  UNL     1      -0.950   0.296   0.516  1.00  0.00    -0.021 N 
ATOM      9  H8  UNL     1      -0.103   0.805   0.769  1.00  0.00     0.203 HD
ENDROOT
BRANCH   1  10
HETATM   10  N4  UNL     1       0.307  -1.374  -0.396  1.00  0.00    -0.117 N 
ATOM     11  H4  UNL     1       0.376  -2.272  -0.874  1.00  0.00     0.207 HD
BRANCH  10  12
HETATM   12  N3  UNL     1       1.455  -0.689  -0.056  1.00  0.00    -0.228 N 
ATOM     13  H3  UNL     1       1.871  -0.823   0.866  1.00  0.00     0.209 HD
BRANCH  12  14
HETATM   14  N2  UNL     1       2.051   0.185  -0.963  1.00  0.00    -0.282 N 
ATOM     15  H2  UNL     1       1.495   0.585  -1.719  1.00  0.00     0.189 HD
BRANCH  14  16
HETATM   16  C1  UNL     1       3.424   0.524  -0.845  1.00  0.00     0.192 C 
HETATM   17  N1  UNL     1       3.923   1.080   0.204  1.00  0.00    -0.394 N 
ATOM     18  H12 UNL     1       3.288   1.279   0.977  1.00  0.00     0.156 HD
ATOM     19  H11 UNL     1       4.910   1.324   0.289  1.00  0.00     0.156 HD
ENDBRANCH  14  16
ENDBRANCH  12  14
ENDBRANCH  10  12
ENDBRANCH   1  10
BRANCH   7  20
HETATM   20  N7  UNL     1      -2.211   1.947   1.419  1.00  0.00    -0.234 N 
ATOM     21  H72 UNL     1      -3.127   2.335   1.644  1.00  0.00     0.174 HD
ATOM     22  H71 UNL     1      -1.360   2.451   1.669  1.00  0.00     0.174 HD
ENDBRANCH   7  20
TORSDOF 5
