REMARK  4 active torsions:
REMARK  status: ('A' for Active; 'I' for Inactive)
REMARK    1  A    between atoms: C2_3  and  N2_4 
REMARK    2  A    between atoms: N2_4  and  N3_5 
REMARK    3  A    between atoms: N2_4  and  C3_8 
REMARK    4  A    between atoms: C5_15  and  N7_16 
ROOT
HETATM    1  N1  UNL     1      -4.167  -0.301  -1.410  1.00  0.00    -0.195 NA
HETATM    2  C1  UNL     1      -3.425   0.034  -0.587  1.00  0.00     0.081 C 
HETATM    3  C2  UNL     1      -2.461   0.442   0.464  1.00  0.00     0.290 C 
ENDROOT
BRANCH   3   4
HETATM    4  N2  UNL     1      -1.346  -0.446   0.454  1.00  0.00    -0.116 N 
BRANCH   4   5
HETATM    5  N3  UNL     1      -1.617  -1.807   0.693  1.00  0.00    -0.328 N 
ATOM      6  H32 UNL     1      -2.581  -2.096   0.861  1.00  0.00     0.177 HD
ATOM      7  H31 UNL     1      -0.819  -2.442   0.686  1.00  0.00     0.177 HD
ENDBRANCH   4   5
BRANCH   4   8
HETATM    8  C3  UNL     1      -0.004  -0.044   0.220  1.00  0.00     0.716 A 
HETATM    9  N4  UNL     1       0.993  -0.968   0.232  1.00  0.00    -0.161 N 
HETATM   10  C4  UNL     1       2.276  -0.676   0.023  1.00  0.00     0.221 A 
ATOM     11  H4  UNL     1       0.745  -1.941   0.411  1.00  0.00     0.187 HD
HETATM   12  N5  UNL     1       3.324  -1.603   0.029  1.00  0.00    -0.062 NA
HETATM   13  N6  UNL     1       2.612   0.626  -0.218  1.00  0.00    -0.163 N 
HETATM   14  C5  UNL     1       1.665   1.577  -0.240  1.00  0.00     0.692 A 
ATOM     15  H6  UNL     1       3.587   0.877  -0.382  1.00  0.00     0.187 HD
HETATM   16  N8  UNL     1       0.371   1.213  -0.019  1.00  0.00    -0.021 N 
ATOM     17  H8  UNL     1      -0.346   1.938  -0.037  1.00  0.00     0.203 HD
BRANCH  14  18
HETATM   18  N7  UNL     1       1.968   2.811  -0.466  1.00  0.00    -0.234 N 
ATOM     19  H72 UNL     1       2.937   3.084  -0.631  1.00  0.00     0.174 HD
ATOM     20  H71 UNL     1       1.248   3.534  -0.483  1.00  0.00     0.174 HD
ENDBRANCH  14  18
ENDBRANCH   4   8
ENDBRANCH   3   4
TORSDOF 4
