REMARK  4 active torsions:
REMARK  status: ('A' for Active; 'I' for Inactive)
REMARK    1  A    between atoms: N1_1  and  C1_4 
REMARK    2  A    between atoms: C2_10  and  C3_11 
REMARK    3  A    between atoms: C3_11  and  N4_12 
REMARK    4  A    between atoms: C3_11  and  N5_16 
ROOT
HETATM    1  C1  UNL     1      -1.773  -0.052   0.142  1.00  0.00     0.149 A 
HETATM    2  N2  UNL     1      -2.770   0.689  -0.392  1.00  0.00    -0.224 N 
ATOM      3  H2  UNL     1      -3.762   0.579  -0.180  1.00  0.00     0.198 HD
HETATM    4  O1  UNL     1      -2.272   1.563  -1.217  1.00  0.00    -0.155 OA
HETATM    5  N3  UNL     1      -0.976   1.436  -1.258  1.00  0.00    -0.239 N 
ATOM      6  H3  UNL     1      -0.342   1.998  -1.826  1.00  0.00     0.196 HD
HETATM    7  C2  UNL     1      -0.607   0.426  -0.415  1.00  0.00     0.126 A 
ENDROOT
BRANCH   7   8
HETATM    8  C3  UNL     1       0.783   0.006  -0.211  1.00  0.00     0.340 C 
BRANCH   8   9
HETATM    9  N4  UNL     1       0.921  -1.431  -0.236  1.00  0.00    -0.055 N 
ATOM     10  H43 UNL     1       0.297  -1.875   0.438  1.00  0.00     0.276 HD
ATOM     11  H42 UNL     1       0.537  -1.825  -1.095  1.00  0.00     0.276 HD
ATOM     12  H41 UNL     1       1.888  -1.723  -0.094  1.00  0.00     0.276 HD
ENDBRANCH   8   9
BRANCH   8  13
HETATM   13  N5  UNL     1       1.245   0.539   1.079  1.00  0.00    -0.128 NA
HETATM   14  S1  UNL     1       2.924   0.038   1.337  1.00  0.00     0.029 SA
ENDBRANCH   8  13
ENDBRANCH   7   8
BRANCH   1  15
HETATM   15  N1  UNL     1      -1.867  -1.005   0.989  1.00  0.00    -0.382 N 
ATOM     16  H12 UNL     1      -2.730  -1.359   1.401  1.00  0.00     0.157 HD
ATOM     17  H11 UNL     1      -1.115  -1.564   1.392  1.00  0.00     0.157 HD
ENDBRANCH   1  15
TORSDOF 4
