REMARK  5 active torsions:
REMARK  status: ('A' for Active; 'I' for Inactive)
REMARK    1  A    between atoms: N2_4  and  N3_6 
REMARK    2  A    between atoms: C1_8  and  N4_9 
REMARK    3  A    between atoms: C4_12  and  C5_13 
REMARK    4  A    between atoms: C5_13  and  N5_14 
REMARK    5  A    between atoms: N5_14  and  C6_16 
ROOT
HETATM    1  N4  UNL     1       1.058  -0.369   0.378  1.00  0.00    -0.319 N 
HETATM    2  C2  UNL     1       1.692  -1.110   1.393  1.00  0.00     0.100 A 
HETATM    3  C3  UNL     1       0.387  -1.706   1.603  1.00  0.00     0.045 A 
HETATM    4  C4  UNL     1      -0.146  -0.998   0.656  1.00  0.00     0.036 A 
ENDROOT
BRANCH   1   5
HETATM    5  C1  UNL     1       1.461   0.621  -0.562  1.00  0.00     0.206 C 
HETATM    6  N3  UNL     1       0.947   0.595  -1.738  1.00  0.00    -0.282 N 
ATOM      7  H3  UNL     1       0.268  -0.132  -1.963  1.00  0.00     0.189 HD
BRANCH   6   8
HETATM    8  N2  UNL     1       1.287   1.530  -2.721  1.00  0.00    -0.248 N 
HETATM    9  N1  UNL     1       1.923   2.591  -2.440  1.00  0.00    -0.331 N 
ATOM     10  H12 UNL     1       2.186   2.751  -1.467  1.00  0.00     0.178 HD
ATOM     11  H11 UNL     1       2.171   3.273  -3.157  1.00  0.00     0.178 HD
ATOM     12  H2  UNL     1       1.017   1.354  -3.689  1.00  0.00     0.207 HD
ENDBRANCH   6   8
ENDBRANCH   1   5
BRANCH   4  13
HETATM   13  C5  UNL     1      -1.541  -0.895   0.075  1.00  0.00     0.179 C 
BRANCH  13  14
HETATM   14  N5  UNL     1      -2.055   0.433   0.214  1.00  0.00    -0.363 N 
ATOM     15  H5  UNL     1      -2.318   0.973  -0.611  1.00  0.00     0.162 HD
BRANCH  14  16
HETATM   16  C6  UNL     1      -2.195   0.990   1.506  1.00  0.00     0.348 C 
HETATM   17  O1  UNL     1      -1.881   0.354   2.549  1.00  0.00    -0.284 OA
ENDBRANCH  14  16
ENDBRANCH  13  14
ENDBRANCH   4  13
TORSDOF 5
