REMARK  5 active torsions:
REMARK  status: ('A' for Active; 'I' for Inactive)
REMARK    1  A    between atoms: N2_4  and  N3_6 
REMARK    2  A    between atoms: C1_8  and  C2_9 
REMARK    3  A    between atoms: C4_11  and  C5_12 
REMARK    4  A    between atoms: C5_12  and  N4_13 
REMARK    5  A    between atoms: N4_13  and  C6_15 
ROOT
HETATM    1  C2  UNL     1      -0.714  -0.944  -0.154  1.00  0.00     0.032 A 
HETATM    2  C3  UNL     1       0.290  -1.447   0.931  1.00  0.00     0.017 A 
HETATM    3  C4  UNL     1       0.307  -0.015   0.406  1.00  0.00     0.013 A 
ENDROOT
BRANCH   1   4
HETATM    4  C1  UNL     1      -2.117  -0.830   0.308  1.00  0.00     0.086 C 
HETATM    5  N3  UNL     1      -2.955  -0.121  -0.360  1.00  0.00    -0.301 N 
ATOM      6  H3  UNL     1      -2.644   0.358  -1.205  1.00  0.00     0.187 HD
BRANCH   5   7
HETATM    7  N2  UNL     1      -4.261   0.003   0.043  1.00  0.00    -0.250 N 
HETATM    8  N1  UNL     1      -5.005   0.898  -0.428  1.00  0.00    -0.331 N 
ATOM      9  H12 UNL     1      -4.616   1.536  -1.122  1.00  0.00     0.178 HD
ATOM     10  H11 UNL     1      -5.976   0.990  -0.128  1.00  0.00     0.178 HD
ATOM     11  H2  UNL     1      -4.634  -0.644   0.738  1.00  0.00     0.207 HD
ENDBRANCH   5   7
ENDBRANCH   1   4
BRANCH   3  12
HETATM   12  C5  UNL     1       1.526   0.351  -0.378  1.00  0.00     0.127 C 
BRANCH  12  13
HETATM   13  N4  UNL     1       2.399   1.257   0.323  1.00  0.00    -0.368 N 
ATOM     14  H4  UNL     1       2.140   1.571   1.258  1.00  0.00     0.161 HD
BRANCH  13  15
HETATM   15  C6  UNL     1       3.604   1.722  -0.250  1.00  0.00     0.348 C 
HETATM   16  O1  UNL     1       3.948   1.344  -1.418  1.00  0.00    -0.284 OA
ENDBRANCH  13  15
ENDBRANCH  12  13
ENDBRANCH   3  12
TORSDOF 5
