REMARK  2 active torsions:
REMARK  status: ('A' for Active; 'I' for Inactive)
REMARK    1  A    between atoms: S1_2  and  C2_3 
REMARK    2  A    between atoms: C12_14  and  O1_15 
ROOT
HETATM    1  C2  UNL     1       2.148  -0.400  -1.144  1.00  0.00     0.016 A 
HETATM    2  C3  UNL     1       2.895  -1.371  -1.754  1.00  0.00     0.071 A 
HETATM    3  S2  UNL     1       1.989  -2.787  -1.501  1.00  0.00    -0.083 SA
HETATM    4  C4  UNL     1       0.678  -2.126  -0.627  1.00  0.00     0.080 A 
HETATM    5  C5  UNL     1       0.989  -0.802  -0.557  1.00  0.00    -0.003 A 
HETATM    6  C6  UNL     1       0.001   0.114   0.168  1.00  0.00     0.031 C 
HETATM    7  C7  UNL     1      -0.195   1.401  -0.586  1.00  0.00     0.010 C 
HETATM    8  C8  UNL     1      -1.611   1.864  -0.672  1.00  0.00     0.001 C 
HETATM    9  C9  UNL     1      -2.451   1.606   0.533  1.00  0.00     0.001 C 
HETATM   10  C10 UNL     1      -2.123   0.324   1.254  1.00  0.00     0.010 C 
HETATM   11  C11 UNL     1      -1.328  -0.536   0.259  1.00  0.00     0.043 C 
HETATM   12  C12 UNL     1      -1.321  -1.926   0.874  1.00  0.00     0.223 C 
HETATM   13  N1  UNL     1      -0.518  -2.711  -0.043  1.00  0.00    -0.357 N 
ATOM     14  H1  UNL     1      -0.790  -3.666  -0.277  1.00  0.00     0.162 HD
ENDROOT
BRANCH   1  15
HETATM   15  S1  UNL     1       2.789   1.322  -1.166  1.00  0.00    -0.133 SA
HETATM   16  C1  UNL     1       3.816   1.594   0.287  1.00  0.00     0.095 C 
ENDBRANCH   1  15
BRANCH  12  17
HETATM   17  O1  UNL     1      -2.609  -2.385   0.956  1.00  0.00    -0.376 OA
ATOM     18  H1  UNL     1      -2.605  -3.254   1.340  1.00  0.00     0.212 HD
ENDBRANCH  12  17
TORSDOF 2
