REMARK  3 active torsions:
REMARK  status: ('A' for Active; 'I' for Inactive)
REMARK    1  A    between atoms: N1_1  and  N2_4 
REMARK    2  A    between atoms: N2_4  and  N3_5 
REMARK       I    between atoms: N3_5  and  C1_7 
REMARK       I    between atoms: C1_7  and  N5_9 
REMARK    3  A    between atoms: N5_9  and  C2_11 
ROOT
HETATM    1  C2  UNL     1      -0.417  -0.020   0.287  1.00  0.00     0.152 A 
HETATM    2  N6  UNL     1      -1.071  -0.784   1.178  1.00  0.00    -0.302 N 
ATOM      3  H6  UNL     1      -0.519  -1.322   1.846  1.00  0.00     0.171 HD
HETATM    4  C3  UNL     1      -2.417  -0.881   1.241  1.00  0.00     0.315 A 
HETATM    5  O1  UNL     1      -3.013  -1.596   2.075  1.00  0.00    -0.262 OA
HETATM    6  C4  UNL     1      -3.133  -0.144   0.327  1.00  0.00     0.315 A 
HETATM    7  O2  UNL     1      -4.406  -0.197   0.338  1.00  0.00    -0.262 OA
HETATM    8  N7  UNL     1      -2.548   0.660  -0.617  1.00  0.00    -0.304 N 
ATOM      9  H7  UNL     1      -3.099   1.197  -1.287  1.00  0.00     0.170 HD
HETATM   10  C5  UNL     1      -1.201   0.698  -0.607  1.00  0.00     0.164 A 
HETATM   11  N8  UNL     1      -0.533   1.517  -1.558  1.00  0.00    -0.079 NA
ENDROOT
BRANCH   1  12
HETATM   12  N5  UNL     1       0.928   0.068   0.229  1.00  0.00    -0.312 N 
HETATM   13  C1  UNL     1       1.997  -0.482   0.084  1.00  0.00     0.220 C 
HETATM   14  N3  UNL     1       3.253   0.272   0.151  1.00  0.00    -0.187 N 
HETATM   15  N4  UNL     1       2.066  -1.887  -0.164  1.00  0.00    -0.061 NA
ATOM     16  H3  UNL     1       4.148  -0.208   0.061  1.00  0.00     0.206 HD
ATOM     17  H5  UNL     1       1.145   1.054   0.375  1.00  0.00     0.170 HD
BRANCH  14  18
HETATM   18  N2  UNL     1       3.211   1.613   0.333  1.00  0.00    -0.241 NA
BRANCH  18  19
HETATM   19  N1  UNL     1       3.202   2.731   0.491  1.00  0.00    -0.260 N 
ATOM     20  H12 UNL     1       3.976   2.073   0.583  1.00  0.00     0.193 HD
ATOM     21  H11 UNL     1       3.170   3.741   0.628  1.00  0.00     0.193 HD
ENDBRANCH  18  19
ENDBRANCH  14  18
ENDBRANCH   1  12
TORSDOF 3
