REMARK  7 active torsions:
REMARK  status: ('A' for Active; 'I' for Inactive)
REMARK    1  A    between atoms: C4_9  and  N3_10 
REMARK    2  A    between atoms: N7_20  and  C6_21 
REMARK    3  A    between atoms: C6_21  and  C7_22 
REMARK    4  A    between atoms: C7_22  and  N8_23 
REMARK    5  A    between atoms: C9_27  and  C10_28 
REMARK    6  A    between atoms: C10_28  and  O1_29 
REMARK    7  A    between atoms: C11_31  and  O2_32 
ROOT
HETATM    1  N1  UNL     1      -3.528  -1.389   2.777  1.00  0.00    -0.234 N 
ATOM      2  H11 UNL     1      -4.234  -1.596   3.483  1.00  0.00     0.174 HD
ATOM      3  H12 UNL     1      -2.567  -1.680   2.956  1.00  0.00     0.174 HD
HETATM    4  C1  UNL     1      -3.836  -0.777   1.687  1.00  0.00     0.679 A 
HETATM    5  N2  UNL     1      -2.900  -0.503   0.751  1.00  0.00    -0.173 N 
ATOM      6  H2  UNL     1      -1.944  -0.801   0.945  1.00  0.00     0.186 HD
HETATM    7  C2  UNL     1      -3.120   0.120  -0.396  1.00  0.00     0.168 A 
HETATM    8  C3  UNL     1      -4.416   0.526  -0.666  1.00  0.00     0.124 A 
HETATM    9  C4  UNL     1      -5.377   0.243   0.298  1.00  0.00     0.145 A 
HETATM   10  N4  UNL     1      -5.105  -0.393   1.451  1.00  0.00    -0.175 N 
ATOM     11  H4  UNL     1      -5.842  -0.580   2.131  1.00  0.00     0.186 HD
HETATM   12  N5  UNL     1      -4.728   1.189  -1.879  1.00  0.00    -0.345 N 
ATOM     13  H5  UNL     1      -5.693   1.474  -2.046  1.00  0.00     0.167 HD
HETATM   14  C5  UNL     1      -3.845   1.447  -2.779  1.00  0.00     0.198 A 
HETATM   15  N6  UNL     1      -2.490   1.039  -2.527  1.00  0.00    -0.292 N 
ATOM     16  H6  UNL     1      -1.783   1.239  -3.234  1.00  0.00     0.188 HD
HETATM   17  N7  UNL     1      -2.096   0.380  -1.358  1.00  0.00    -0.272 N 
ENDROOT
BRANCH  17  18
HETATM   18  C6  UNL     1      -0.725   0.007  -1.101  1.00  0.00     0.172 C 
BRANCH  18  19
HETATM   19  C7  UNL     1      -0.033   0.841  -0.080  1.00  0.00     0.172 C 
BRANCH  19  20
HETATM   20  N8  UNL     1       1.312   0.308   0.080  1.00  0.00    -0.284 N 
HETATM   21  C8  UNL     1       2.240   0.461  -0.992  1.00  0.00     0.196 C 
HETATM   22  N9  UNL     1       3.521   0.382  -0.884  1.00  0.00    -0.375 N 
HETATM   23  C9  UNL     1       4.298   0.133   0.284  1.00  0.00     0.143 C 
ATOM     24  H9  UNL     1       4.048   0.515  -1.747  1.00  0.00     0.160 HD
HETATM   25  C11 UNL     1       4.008  -1.153   1.003  1.00  0.00     0.236 C 
HETATM   26  C12 UNL     1       2.650  -1.177   1.606  1.00  0.00     0.267 C 
HETATM   27  O3  UNL     1       2.500  -2.075   2.462  1.00  0.00    -0.269 OA
HETATM   28  N10 UNL     1       1.519  -0.323   1.337  1.00  0.00    -0.265 N 
ATOM     29  H10 UNL     1       0.839  -0.165   2.080  1.00  0.00     0.190 HD
BRANCH  23  30
HETATM   30  C10 UNL     1       5.757   0.130  -0.110  1.00  0.00     0.192 C 
BRANCH  30  31
HETATM   31  O1  UNL     1       6.039   1.401  -0.651  1.00  0.00    -0.399 OA
ATOM     32  H1  UNL     1       6.956   1.399  -0.899  1.00  0.00     0.209 HD
ENDBRANCH  30  31
ENDBRANCH  23  30
BRANCH  25  33
HETATM   33  O2  UNL     1       4.238  -2.256   0.196  1.00  0.00    -0.384 OA
ATOM     34  H2  UNL     1       4.055  -3.070   0.651  1.00  0.00     0.210 HD
ENDBRANCH  25  33
ENDBRANCH  19  20
ENDBRANCH  18  19
ENDBRANCH  17  18
BRANCH   9  35
HETATM   35  N3  UNL     1      -6.586   0.605   0.085  1.00  0.00    -0.383 N 
ATOM     36  H32 UNL     1      -6.792   1.087  -0.790  1.00  0.00     0.157 HD
ATOM     37  H31 UNL     1      -7.291   0.397   0.792  1.00  0.00     0.157 HD
ENDBRANCH   9  35
TORSDOF 7
