REMARK  6 active torsions:
REMARK  status: ('A' for Active; 'I' for Inactive)
REMARK    1  A    between atoms: C5_7  and  O1_8 
REMARK    2  A    between atoms: C5_7  and  N3_10 
REMARK    3  A    between atoms: N3_10  and  C6_12 
REMARK    4  A    between atoms: C6_12  and  C8_15 
REMARK       I    between atoms: C8_15  and  N5_17 
REMARK       I    between atoms: N5_17  and  C9_18 
REMARK    5  A    between atoms: C10_21  and  N8_22 
REMARK    6  A    between atoms: N8_22  and  N9_23 
ROOT
HETATM    1  N1  UNL     1      -5.959   1.774  -1.950  1.00  0.00    -0.191 NA
HETATM    2  C1  UNL     1      -5.134   1.454  -1.181  1.00  0.00     0.105 C 
HETATM    3  C2  UNL     1      -4.143   1.056  -0.220  1.00  0.00     0.113 A 
HETATM    4  C3  UNL     1      -2.819   0.940  -0.572  1.00  0.00     0.089 A 
HETATM    5  N2  UNL     1      -2.431   1.216  -1.907  1.00  0.00    -0.100 NA
HETATM    6  C4  UNL     1      -1.813   0.553   0.345  1.00  0.00     0.087 A 
HETATM    7  C5  UNL     1      -0.474   0.454  -0.090  1.00  0.00     0.153 C 
HETATM    8  C10 UNL     1      -2.257   0.308   1.595  1.00  0.00     0.155 A 
HETATM    9  N11 UNL     1      -3.592   0.428   1.938  1.00  0.00    -0.325 N 
ATOM     10  H11 UNL     1      -3.869   0.228   2.899  1.00  0.00     0.169 HD
HETATM   11  C12 UNL     1      -4.528   0.792   1.069  1.00  0.00     0.123 A 
HETATM   12  N12 UNL     1      -5.776   0.891   1.445  1.00  0.00    -0.384 N 
ATOM     13 1H12 UNL     1      -6.062   0.695   2.404  1.00  0.00     0.157 HD
ATOM     14 2H12 UNL     1      -6.495   1.171   0.778  1.00  0.00     0.157 HD
ENDROOT
BRANCH   7  15
HETATM   15  O1  UNL     1      -0.316   0.744  -1.377  1.00  0.00    -0.346 OA
ATOM     16  H1  UNL     1       0.585   0.677  -1.670  1.00  0.00     0.219 HD
ENDBRANCH   7  15
BRANCH   7  17
HETATM   17  N3  UNL     1       0.735   0.127   0.485  1.00  0.00    -0.345 N 
ATOM     18  H3  UNL     1       0.779  -0.121   1.473  1.00  0.00     0.163 HD
BRANCH  17  19
HETATM   19  C6  UNL     1       1.970   0.135  -0.331  1.00  0.00     0.299 C 
HETATM   20  C7  UNL     1       2.938   1.023   0.275  1.00  0.00     0.095 C 
HETATM   21  N4  UNL     1       3.699   1.736   0.776  1.00  0.00    -0.195 NA
BRANCH  19  22
HETATM   22  C8  UNL     1       2.570  -1.246  -0.383  1.00  0.00     0.331 C 
HETATM   23  O2  UNL     1       1.943  -2.170   0.249  1.00  0.00    -0.253 OA
HETATM   24  N5  UNL     1       3.679  -1.490  -1.044  1.00  0.00    -0.338 NA
HETATM   25  C9  UNL     1       4.815  -1.614  -1.414  1.00  0.00     0.278 C 
HETATM   26  N6  UNL     1       5.255  -2.130  -2.698  1.00  0.00    -0.052 NA
HETATM   27  N7  UNL     1       5.918  -1.232  -0.555  1.00  0.00    -0.052 NA
ENDBRANCH  19  22
ENDBRANCH  17  19
ENDBRANCH   7  17
BRANCH   8  28
HETATM   28  N8  UNL     1      -1.425  -0.093   2.652  1.00  0.00    -0.179 N 
HETATM   29  C11 UNL     1      -1.259  -1.452   2.914  1.00  0.00     0.206 C 
HETATM   30  N10 UNL     1      -1.135  -2.605   3.123  1.00  0.00    -0.170 NA
BRANCH  28  31
HETATM   31  N9  UNL     1      -0.830   0.875   3.454  1.00  0.00    -0.328 N 
ATOM     32  H92 UNL     1      -0.951   1.869   3.262  1.00  0.00     0.178 HD
ATOM     33  H91 UNL     1      -0.225   0.584   4.222  1.00  0.00     0.178 HD
ENDBRANCH  28  31
ENDBRANCH   8  28
TORSDOF 6
