REMARK  7 active torsions:
REMARK  status: ('A' for Active; 'I' for Inactive)
REMARK    1  A    between atoms: N1_1  and  C1_4 
REMARK    2  A    between atoms: C2_7  and  N3_8 
REMARK    3  A    between atoms: C5_11  and  N4_12 
REMARK    4  A    between atoms: N4_12  and  N5_14 
REMARK    5  A    between atoms: C6_16  and  C7_17 
REMARK    6  A    between atoms: C9_27  and  N10_28 
REMARK    7  A    between atoms: N10_28  and  N11_30 
ROOT
HETATM    1  C1  UNL     1      -3.279  -0.470  -0.875  1.00  0.00     0.692 C 
HETATM    2  N2  UNL     1      -2.733   0.715  -1.206  1.00  0.00    -0.173 N 
ATOM      3  H2  UNL     1      -3.356   1.381  -1.662  1.00  0.00     0.186 HD
HETATM    4  C2  UNL     1      -1.450   1.138  -1.008  1.00  0.00     0.165 C 
HETATM    5  C5  UNL     1      -0.432   0.516  -0.318  1.00  0.00     0.180 C 
HETATM    6  N9  UNL     1      -0.548  -0.622   0.393  1.00  0.00    -0.170 N 
ATOM      7  H9  UNL     1       0.325  -0.961   0.797  1.00  0.00     0.186 HD
HETATM    8  C9  UNL     1      -1.622  -1.385   0.659  1.00  0.00     0.712 C 
HETATM    9  N12 UNL     1      -2.834  -1.302   0.085  1.00  0.00    -0.021 N 
ATOM     10  H12 UNL     1      -3.522  -1.972   0.429  1.00  0.00     0.203 HD
ENDROOT
BRANCH   5  11
HETATM   11  N4  UNL     1       0.717   1.102  -0.382  1.00  0.00    -0.282 N 
ATOM     12  H4  UNL     1       0.849   1.965  -0.909  1.00  0.00     0.188 HD
BRANCH  11  13
HETATM   13  N5  UNL     1       1.770   0.495   0.307  1.00  0.00    -0.308 N 
HETATM   14  C6  UNL     1       2.721  -0.143  -0.254  1.00  0.00     0.139 C 
ATOM     15  H5  UNL     1       1.779   0.567   1.324  1.00  0.00     0.186 HD
BRANCH  14  16
HETATM   16  C7  UNL     1       3.756  -0.724   0.614  1.00  0.00     0.083 A 
HETATM   17  C8  UNL     1       3.835  -0.669   1.985  1.00  0.00     0.141 A 
HETATM   18  N6  UNL     1       4.931  -1.324   2.387  1.00  0.00    -0.295 N 
HETATM   19  N7  UNL     1       5.521  -1.776   1.304  1.00  0.00    -0.243 N 
ATOM     20  H6  UNL     1       5.247  -1.448   3.349  1.00  0.00     0.187 HD
HETATM   21  N8  UNL     1       4.843  -1.434   0.224  1.00  0.00    -0.284 N 
ATOM     22  H7  UNL     1       6.385  -2.318   1.298  1.00  0.00     0.208 HD
ATOM     23  H8  UNL     1       5.094  -1.664  -0.738  1.00  0.00     0.188 HD
ENDBRANCH  14  16
ENDBRANCH  11  13
ENDBRANCH   5  11
BRANCH   4  24
HETATM   24  N3  UNL     1      -1.070   2.381  -1.571  1.00  0.00    -0.361 N 
HETATM   25  C3  UNL     1      -0.556   3.778  -1.348  1.00  0.00     0.144 A 
HETATM   26  C4  UNL     1      -0.863   3.289  -2.679  1.00  0.00     0.144 A 
ENDBRANCH   4  24
BRANCH   8  27
HETATM   27  N10 UNL     1      -1.410  -2.271   1.566  1.00  0.00    -0.138 N 
ATOM     28  H10 UNL     1      -0.481  -2.313   1.986  1.00  0.00     0.205 HD
BRANCH  27  29
HETATM   29  N11 UNL     1      -2.365  -3.174   2.009  1.00  0.00    -0.331 N 
ATOM     30 2H11 UNL     1      -3.288  -3.118   1.578  1.00  0.00     0.177 HD
ATOM     31 1H11 UNL     1      -2.197  -3.877   2.729  1.00  0.00     0.177 HD
ENDBRANCH  27  29
ENDBRANCH   8  27
BRANCH   1  32
HETATM   32  N1  UNL     1      -4.333  -0.861  -1.534  1.00  0.00    -0.234 N 
ATOM     33  H12 UNL     1      -4.670  -0.231  -2.261  1.00  0.00     0.174 HD
ATOM     34  H11 UNL     1      -4.747  -1.759  -1.283  1.00  0.00     0.174 HD
ENDBRANCH   1  32
TORSDOF 7
