REMARK  6 active torsions:
REMARK  status: ('A' for Active; 'I' for Inactive)
REMARK    1  A    between atoms: C2_2  and  O1_3 
REMARK    2  A    between atoms: O1_3  and  C3_4 
REMARK    3  A    between atoms: C3_4  and  N1_5 
REMARK    4  A    between atoms: C7_12  and  N3_13 
REMARK    5  A    between atoms: N3_13  and  N4_15 
REMARK    6  A    between atoms: C8_20  and  N6_21 
ROOT
HETATM    1  N1  UNL     1       0.812   0.840   0.502  1.00  0.00    -0.305 N 
HETATM    2  C4  UNL     1       0.530   2.163   0.592  1.00  0.00     0.187 A 
HETATM    3  N2  UNL     1      -0.809   2.311   0.525  1.00  0.00    -0.346 N 
ATOM      4  H2  UNL     1      -1.299   3.205   0.568  1.00  0.00     0.167 HD
HETATM    5  C5  UNL     1      -1.402   1.124   0.395  1.00  0.00     0.133 A 
HETATM    6  C6  UNL     1      -2.752   0.860   0.295  1.00  0.00     0.247 C 
HETATM    7  O2  UNL     1      -3.496   1.863   0.531  1.00  0.00    -0.282 OA
HETATM    8  C7  UNL     1      -3.420  -0.318  -0.020  1.00  0.00     0.188 C 
HETATM    9  N5  UNL     1      -2.864  -1.537  -0.133  1.00  0.00    -0.171 N 
ATOM     10  H5  UNL     1      -3.506  -2.308  -0.320  1.00  0.00     0.186 HD
HETATM   11  C8  UNL     1      -1.562  -1.862  -0.029  1.00  0.00     0.679 C 
HETATM   12  N7  UNL     1      -0.464  -1.145   0.268  1.00  0.00    -0.174 N 
ATOM     13  H7  UNL     1       0.393  -1.675   0.425  1.00  0.00     0.186 HD
HETATM   14  C9  UNL     1      -0.368   0.197   0.382  1.00  0.00     0.157 A 
ENDROOT
BRANCH   8  15
HETATM   15  N3  UNL     1      -4.677  -0.260  -0.223  1.00  0.00    -0.288 N 
ATOM     16  H3  UNL     1      -5.161  -1.128  -0.453  1.00  0.00     0.188 HD
BRANCH  15  17
HETATM   17  N4  UNL     1      -5.429   0.894  -0.154  1.00  0.00    -0.344 N 
ATOM     18  H42 UNL     1      -4.929   1.752   0.077  1.00  0.00     0.176 HD
ATOM     19  H41 UNL     1      -6.435   0.940  -0.316  1.00  0.00     0.176 HD
ENDBRANCH  15  17
ENDBRANCH   8  15
BRANCH  11  20
HETATM   20  N6  UNL     1      -1.341  -3.112  -0.264  1.00  0.00    -0.234 N 
ATOM     21  H62 UNL     1      -2.174  -3.656  -0.489  1.00  0.00     0.174 HD
ATOM     22  H61 UNL     1      -0.354  -3.358  -0.185  1.00  0.00     0.174 HD
ENDBRANCH  11  20
BRANCH   1  23
HETATM   23  C3  UNL     1       2.122   0.253   0.532  1.00  0.00     0.301 C 
BRANCH  23  24
HETATM   24  O1  UNL     1       2.681   0.139  -0.740  1.00  0.00    -0.372 OA
BRANCH  24  25
HETATM   25  C2  UNL     1       3.931  -0.424  -0.681  1.00  0.00     0.165 C 
HETATM   26  C1  UNL     1       4.919   0.351   0.139  1.00  0.00     0.033 C 
ENDBRANCH  24  25
ENDBRANCH  23  24
ENDBRANCH   1  23
TORSDOF 6
