REMARK  4 active torsions:
REMARK  status: ('A' for Active; 'I' for Inactive)
REMARK    1  A    between atoms: C1_4  and  C2_6 
REMARK    2  A    between atoms: C3_7  and  C4_8 
REMARK    3  A    between atoms: C4_8  and  O1_9 
REMARK    4  A    between atoms: C4_8  and  N3_11 
REMARK       I    between atoms: N3_11  and  C5_13 
ROOT
HETATM    1  C2  UNL     1       1.423  -0.091  -0.567  1.00  0.00     0.104 A 
HETATM    2  C3  UNL     1       0.760  -0.620   0.479  1.00  0.00     0.106 A 
HETATM    3  N6  UNL     1       1.337  -1.684   1.177  1.00  0.00    -0.304 N 
ATOM      4  H6  UNL     1       0.831  -2.075   1.972  1.00  0.00     0.171 HD
HETATM    5  C6  UNL     1       2.510  -2.208   0.855  1.00  0.00     0.327 A 
HETATM    6  O2  UNL     1       2.984  -3.185   1.538  1.00  0.00    -0.247 OA
HETATM    7  N7  UNL     1       3.192  -1.714  -0.180  1.00  0.00    -0.275 N 
ATOM      8  H7  UNL     1       4.095  -2.113  -0.435  1.00  0.00     0.173 HD
HETATM    9  C7  UNL     1       2.689  -0.697  -0.879  1.00  0.00     0.265 A 
HETATM   10  O3  UNL     1       3.306  -0.212  -1.857  1.00  0.00    -0.267 OA
ENDROOT
BRANCH   2  11
HETATM   11  C4  UNL     1      -0.537  -0.241   0.905  1.00  0.00     0.170 C 
BRANCH  11  12
HETATM   12  O1  UNL     1      -0.969  -0.854   1.978  1.00  0.00    -0.344 OA
ATOM     13  H1  UNL     1      -1.839  -0.600   2.264  1.00  0.00     0.219 HD
ENDBRANCH  11  12
BRANCH  11  14
HETATM   14  N3  UNL     1      -1.477   0.638   0.433  1.00  0.00    -0.312 N 
HETATM   15  C5  UNL     1      -2.769   0.487   0.534  1.00  0.00     0.203 C 
HETATM   16  N4  UNL     1      -3.583   1.507  -0.018  1.00  0.00    -0.066 NA
HETATM   17  N5  UNL     1      -3.365  -0.634   1.161  1.00  0.00    -0.066 NA
ATOM     18  H3  UNL     1      -1.139   1.479  -0.035  1.00  0.00     0.170 HD
ENDBRANCH  11  14
ENDBRANCH   2  11
BRANCH   1  19
HETATM   19  C1  UNL     1       1.105   1.105  -1.285  1.00  0.00     0.128 C 
HETATM   20  N1  UNL     1       1.897   1.403  -2.341  1.00  0.00    -0.387 N 
ATOM     21  H12 UNL     1       1.670   2.256  -2.853  1.00  0.00     0.157 HD
ATOM     22  H11 UNL     1       2.573   0.658  -2.509  1.00  0.00     0.157 HD
HETATM   23  N2  UNL     1       0.185   2.118  -1.057  1.00  0.00    -0.082 NA
ENDBRANCH   1  19
TORSDOF 4
