REMARK  5 active torsions:
REMARK  status: ('A' for Active; 'I' for Inactive)
REMARK    1  A    between atoms: N1_1  and  N2_4 
REMARK       I    between atoms: C1_6  and  N4_8 
REMARK    2  A    between atoms: N4_8  and  N5_10 
REMARK    3  A    between atoms: N5_10  and  C2_12 
REMARK    4  A    between atoms: C4_19  and  N8_20 
REMARK    5  A    between atoms: N8_20  and  C5_22 
ROOT
HETATM    1  C2  UNL     1       0.465  -0.642   0.586  1.00  0.00     0.715 A 
HETATM    2  N6  UNL     1       1.116  -1.011   1.704  1.00  0.00    -0.139 N 
ATOM      3  H6  UNL     1       0.622  -1.540   2.423  1.00  0.00     0.189 HD
HETATM    4  C3  UNL     1       2.424  -0.687   1.888  1.00  0.00     0.352 A 
HETATM    5  O1  UNL     1       3.037  -1.031   2.936  1.00  0.00    -0.246 OA
HETATM    6  N7  UNL     1       3.118   0.009   0.971  1.00  0.00    -0.140 N 
ATOM      7  H7  UNL     1       4.099   0.249   1.114  1.00  0.00     0.189 HD
HETATM    8  C4  UNL     1       2.461   0.375  -0.144  1.00  0.00     0.703 A 
HETATM    9  N9  UNL     1       1.171   0.055  -0.324  1.00  0.00    -0.020 N 
ATOM     10  H9  UNL     1       0.707   0.351  -1.183  1.00  0.00     0.203 HD
ENDROOT
BRANCH   1  11
HETATM   11  N5  UNL     1      -0.756  -0.952   0.429  1.00  0.00    -0.129 N 
ATOM     12  H5  UNL     1      -1.195  -1.482   1.182  1.00  0.00     0.205 HD
BRANCH  11  13
HETATM   13  N4  UNL     1      -1.547  -0.646  -0.654  1.00  0.00    -0.258 N 
HETATM   14  C1  UNL     1      -2.937  -0.351  -0.604  1.00  0.00     0.222 C 
HETATM   15  N2  UNL     1      -3.790  -1.313  -0.755  1.00  0.00    -0.279 N 
HETATM   16  N3  UNL     1      -3.340   1.005  -0.389  1.00  0.00    -0.061 NA
ATOM     17  H2  UNL     1      -3.486  -2.275  -0.908  1.00  0.00     0.189 HD
ATOM     18  H4  UNL     1      -1.099  -0.629  -1.570  1.00  0.00     0.190 HD
BRANCH  15  19
HETATM   19  N1  UNL     1      -5.146  -0.976  -0.699  1.00  0.00    -0.343 N 
ATOM     20  H12 UNL     1      -5.434  -0.010  -0.545  1.00  0.00     0.176 HD
ATOM     21  H11 UNL     1      -5.818  -1.734  -0.818  1.00  0.00     0.176 HD
ENDBRANCH  15  19
ENDBRANCH  11  13
ENDBRANCH   1  11
BRANCH   8  22
HETATM   22  N8  UNL     1       3.111   1.049  -1.047  1.00  0.00    -0.167 N 
ATOM     23  H8  UNL     1       2.621   1.330  -1.897  1.00  0.00     0.186 HD
BRANCH  22  24
HETATM   24  C5  UNL     1       4.458   1.404  -0.897  1.00  0.00     0.368 C 
HETATM   25  O2  UNL     1       5.258   1.200  -1.833  1.00  0.00    -0.283 OA
ENDBRANCH  22  24
ENDBRANCH   8  22
TORSDOF 5
