REMARK  11 active torsions:
REMARK  status: ('A' for Active; 'I' for Inactive)
REMARK    1  A    between atoms: N1_2  and  O3_4 
REMARK    2  A    between atoms: O3_4  and  C1_5 
REMARK    3  A    between atoms: C1_5  and  C2_6 
REMARK    4  A    between atoms: C2_6  and  O4_7 
REMARK    5  A    between atoms: O4_7  and  C3_8 
REMARK    6  A    between atoms: C4_12  and  C5_13 
REMARK    7  A    between atoms: C5_13  and  N3_14 
REMARK    8  A    between atoms: N3_14  and  C6_16 
REMARK    9  A    between atoms: C12_22  and  O5_23 
REMARK   10  A    between atoms: C13_25  and  O6_26 
REMARK   11  A    between atoms: C14_28  and  O7_29 
ROOT
HETATM    1  C3  UNL     1      -1.856  -1.205  -0.584  1.00  0.00     0.353 C 
HETATM    2  N2  UNL     1      -0.439  -0.907  -0.710  1.00  0.00    -0.038 N 
ATOM      3  H21 UNL     1      -0.253  -0.053  -1.236  1.00  0.00     0.281 HD
ATOM      4  H22 UNL     1       0.053  -1.550  -1.330  1.00  0.00     0.281 HD
HETATM    5  C4  UNL     1       0.105  -0.880   0.630  1.00  0.00     0.237 C 
HETATM    6  C12 UNL     1      -0.108  -2.143   1.394  1.00  0.00     0.181 C 
HETATM    7  C13 UNL     1      -1.464  -2.743   1.249  1.00  0.00     0.182 C 
HETATM    8  C14 UNL     1      -1.915  -2.693  -0.202  1.00  0.00     0.205 C 
ENDROOT
BRANCH   5   9
HETATM    9  C5  UNL     1       1.552  -0.526   0.591  1.00  0.00     0.155 C 
BRANCH   9  10
HETATM   10  N3  UNL     1       1.765   0.770  -0.002  1.00  0.00    -0.388 N 
ATOM     11  H3  UNL     1       0.954   1.299  -0.323  1.00  0.00     0.159 HD
BRANCH  10  12
HETATM   12  C6  UNL     1       3.058   1.345  -0.159  1.00  0.00     0.028 A 
HETATM   13  C7  UNL     1       3.215   2.588  -0.731  1.00  0.00     0.029 A 
HETATM   14  C8  UNL     1       4.488   3.124  -0.872  1.00  0.00     0.002 A 
HETATM   15  C9  UNL     1       5.626   2.467  -0.462  1.00  0.00     0.000 A 
HETATM   16  C10 UNL     1       5.458   1.215   0.114  1.00  0.00     0.002 A 
HETATM   17  C11 UNL     1       4.195   0.683   0.254  1.00  0.00     0.029 A 
ENDBRANCH  10  12
ENDBRANCH   9  10
ENDBRANCH   5   9
BRANCH   6  18
HETATM   18  O5  UNL     1       0.064  -1.832   2.762  1.00  0.00    -0.391 OA
ATOM     19  H5  UNL     1      -0.072  -2.637   3.249  1.00  0.00     0.210 HD
ENDBRANCH   6  18
BRANCH   1  20
HETATM   20  O4  UNL     1      -2.577  -0.930  -1.700  1.00  0.00    -0.355 OA
BRANCH  20  21
HETATM   21  C2  UNL     1      -3.534   0.033  -1.437  1.00  0.00     0.199 C 
BRANCH  21  22
HETATM   22  C1  UNL     1      -2.978   1.367  -1.007  1.00  0.00     0.234 C 
BRANCH  22  23
HETATM   23  O3  UNL     1      -4.101   2.214  -0.787  1.00  0.00    -0.219 OA
BRANCH  23  24
HETATM   24  N1  UNL     1      -3.974   3.520  -0.381  1.00  0.00     0.004 N 
HETATM   25  O1  UNL     1      -3.027   3.832   0.362  1.00  0.00    -0.511 OA
HETATM   26  O2  UNL     1      -4.919   4.410  -0.831  1.00  0.00    -0.511 OA
ENDBRANCH  23  24
ENDBRANCH  22  23
ENDBRANCH  21  22
ENDBRANCH  20  21
ENDBRANCH   1  20
BRANCH   7  27
HETATM   27  O6  UNL     1      -1.464  -4.039   1.745  1.00  0.00    -0.390 OA
ATOM     28  H6  UNL     1      -2.329  -4.422   1.653  1.00  0.00     0.210 HD
ENDBRANCH   7  27
BRANCH   8  29
HETATM   29  O7  UNL     1      -3.173  -3.199  -0.386  1.00  0.00    -0.388 OA
ATOM     30  H7  UNL     1      -3.209  -4.118  -0.150  1.00  0.00     0.210 HD
ENDBRANCH   8  29
TORSDOF 11
