REMARK  10 active torsions:
REMARK  status: ('A' for Active; 'I' for Inactive)
REMARK    1  A    between atoms: N1_2  and  C2_4 
REMARK    2  A    between atoms: C4_6  and  C5_7 
REMARK    3  A    between atoms: C5_7  and  C6_8 
REMARK       I    between atoms: C6_8  and  N2_10 
REMARK    4  A    between atoms: N2_10  and  C7_11 
REMARK    5  A    between atoms: C7_11  and  C8_12 
REMARK    6  A    between atoms: C8_12  and  N3_13 
REMARK    7  A    between atoms: C8_12  and  N4_17 
REMARK    8  A    between atoms: N4_17  and  O2_19 
REMARK    9  A    between atoms: O2_19  and  C9_20 
REMARK   10  A    between atoms: C10_24  and  S2_25 
ROOT
HETATM    1  C6  UNL     1       0.602  -0.437   0.577  1.00  0.00     0.287 C 
HETATM    2  O1  UNL     1       0.398  -1.233   1.540  1.00  0.00    -0.258 OA
HETATM    3  N2  UNL     1       1.622  -0.491  -0.330  1.00  0.00    -0.411 NA
ENDROOT
BRANCH   1   4
HETATM    4  C5  UNL     1      -0.449   0.669   0.496  1.00  0.00     0.134 C 
BRANCH   4   5
HETATM    5  C4  UNL     1      -1.640   0.254   1.304  1.00  0.00     0.064 C 
HETATM    6  C3  UNL     1      -2.288  -0.981   0.772  1.00  0.00     0.070 C 
HETATM    7  C2  UNL     1      -3.756  -0.963   0.840  1.00  0.00     0.006 C 
HETATM    8  C10 UNL     1      -4.358   0.231   1.405  1.00  0.00     0.153 C 
HETATM    9  S1  UNL     1      -2.968   1.464   1.248  1.00  0.00    -0.142 SA
BRANCH   7  10
HETATM   10  N1  UNL     1      -4.374  -1.543  -0.281  1.00  0.00    -0.399 N 
HETATM   11  C1  UNL     1      -4.138  -1.060  -1.579  1.00  0.00     0.145 C 
ATOM     12  H1  UNL     1      -5.007  -2.332  -0.149  1.00  0.00     0.158 HD
ENDBRANCH   7  10
BRANCH   8  13
HETATM   13  S2  UNL     1      -5.852   0.908   0.777  1.00  0.00    -0.152 SA
HETATM   14  C11 UNL     1      -5.764   1.791  -0.778  1.00  0.00     0.091 C 
ENDBRANCH   8  13
ENDBRANCH   4   5
ENDBRANCH   1   4
BRANCH   3  15
HETATM   15  C7  UNL     1       2.635  -0.545  -1.230  1.00  0.00     0.277 C 
BRANCH  15  16
HETATM   16  C8  UNL     1       4.018  -0.324  -0.566  1.00  0.00     0.333 C 
BRANCH  16  17
HETATM   17  N3  UNL     1       4.244  -1.321   0.454  1.00  0.00    -0.054 N 
ATOM     18  H33 UNL     1       3.490  -1.342   1.141  1.00  0.00     0.277 HD
ATOM     19  H32 UNL     1       4.142  -2.269   0.091  1.00  0.00     0.277 HD
ATOM     20  H31 UNL     1       5.154  -1.176   0.891  1.00  0.00     0.277 HD
ENDBRANCH  16  17
BRANCH  16  21
HETATM   21  N4  UNL     1       4.049   1.007  -0.142  1.00  0.00    -0.259 N 
ATOM     22  H4  UNL     1       3.256   1.626  -0.311  1.00  0.00     0.190 HD
BRANCH  21  23
HETATM   23  O2  UNL     1       5.112   1.440   0.473  1.00  0.00    -0.186 OA
BRANCH  23  24
HETATM   24  C9  UNL     1       6.418   1.129   0.236  1.00  0.00     0.394 C 
HETATM   25  N5  UNL     1       7.414   1.747   1.034  1.00  0.00    -0.031 NA
HETATM   26  O3  UNL     1       6.783   0.327  -0.656  1.00  0.00    -0.240 OA
ENDBRANCH  23  24
ENDBRANCH  21  23
ENDBRANCH  16  21
ENDBRANCH  15  16
ENDBRANCH   3  15
TORSDOF 10
