REMARK  2 active torsions:
REMARK  status: ('A' for Active; 'I' for Inactive)
REMARK    1  A    between atoms: C1_2  and  C2_3 
REMARK       I    between atoms: C1_2  and  N2_24 
REMARK    2  A    between atoms: C12_14  and  C13_15 
ROOT
HETATM    1  C2  UNL     1      -0.054   1.524  -0.090  1.00  0.00     0.149 A 
HETATM    2  C3  UNL     1       0.312   2.872  -0.556  1.00  0.00    -0.007 A 
HETATM    3  C4  UNL     1       1.673   3.215  -0.696  1.00  0.00     0.011 A 
HETATM    4  C5  UNL     1       2.014   4.476  -1.115  1.00  0.00     0.001 A 
HETATM    5  C6  UNL     1       1.047   5.411  -1.401  1.00  0.00     0.003 A 
HETATM    6  C7  UNL     1      -0.272   5.058  -1.260  1.00  0.00     0.038 A 
HETATM    7  C8  UNL     1      -0.666   3.791  -0.838  1.00  0.00     0.083 A 
HETATM    8  O2  UNL     1      -2.016   3.489  -0.717  1.00  0.00    -0.310 OA
HETATM    9  C9  UNL     1      -2.409   2.225  -0.301  1.00  0.00     0.083 A 
HETATM   10  C10 UNL     1      -3.784   1.981  -0.202  1.00  0.00     0.039 A 
HETATM   11  C11 UNL     1      -4.243   0.746   0.202  1.00  0.00     0.015 A 
HETATM   12  C12 UNL     1      -3.321  -0.244   0.508  1.00  0.00    -0.024 A 
HETATM   13  C18 UNL     1      -1.986   0.035   0.399  1.00  0.00     0.023 A 
HETATM   14  C19 UNL     1      -1.478   1.267  -0.005  1.00  0.00    -0.006 A 
ENDROOT
BRANCH   1  15
HETATM   15  C1  UNL     1       0.701   0.430  -0.765  1.00  0.00     0.237 C 
HETATM   16  O1  UNL     1       0.349   0.067  -1.924  1.00  0.00    -0.272 OA
HETATM   17  N2  UNL     1       1.799  -0.228  -0.160  1.00  0.00    -0.312 N 
HETATM   18  C20 UNL     1       2.278  -0.049   1.241  1.00  0.00     0.173 A 
HETATM   19  C27 UNL     1       2.593  -1.207  -0.810  1.00  0.00     0.050 A 
HETATM   20  C21 UNL     1       3.413  -1.018   1.325  1.00  0.00    -0.010 A 
HETATM   21  C22 UNL     1       4.452  -1.631   2.038  1.00  0.00     0.098 A 
HETATM   22  C28 UNL     1       3.497  -1.612   0.109  1.00  0.00     0.027 A 
HETATM   23  N3  UNL     1       5.069  -2.535   1.198  1.00  0.00    -0.365 N 
HETATM   24  C23 UNL     1       4.485  -2.532  -0.003  1.00  0.00     0.045 A 
ATOM     25  H3  UNL     1       5.861  -3.123   1.458  1.00  0.00     0.165 HD
HETATM   26  C24 UNL     1       4.576  -3.145  -1.247  1.00  0.00     0.030 A 
HETATM   27  C25 UNL     1       3.682  -2.786  -2.254  1.00  0.00     0.005 A 
HETATM   28  C26 UNL     1       2.676  -1.820  -2.070  1.00  0.00     0.031 A 
ENDBRANCH   1  15
BRANCH  12  29
HETATM   29  C13 UNL     1      -3.821  -1.542   0.933  1.00  0.00    -0.011 A 
HETATM   30  C14 UNL     1      -5.008  -2.017   0.447  1.00  0.00     0.015 A 
HETATM   31  C15 UNL     1      -5.507  -3.239   0.829  1.00  0.00     0.018 A 
HETATM   32  C16 UNL     1      -4.769  -3.983   1.726  1.00  0.00     0.087 A 
HETATM   33  N1  UNL     1      -3.592  -3.525   2.214  1.00  0.00    -0.374 N 
HETATM   34  C17 UNL     1      -3.111  -2.327   1.835  1.00  0.00     0.099 A 
ATOM     35  H1  UNL     1      -3.064  -4.094   2.876  1.00  0.00     0.164 HD
ENDBRANCH  12  29
TORSDOF 2
