REMARK  2 active torsions:
REMARK  status: ('A' for Active; 'I' for Inactive)
REMARK       I    between atoms: C1_2  and  N1_3 
REMARK    1  A    between atoms: C1_2  and  C22_28 
REMARK    2  A    between atoms: N1_3  and  N2_5 
ROOT
HETATM    1  N2  UNL     1       0.278  -0.375  -0.887  1.00  0.00    -0.230 N 
HETATM    2  C2  UNL     1       0.206  -1.342  -1.916  1.00  0.00     0.274 A 
HETATM    3  O2  UNL     1       1.193  -1.850  -2.550  1.00  0.00    -0.266 OA
HETATM    4  C3  UNL     1      -1.189  -1.680  -2.151  1.00  0.00     0.043 A 
HETATM    5  C4  UNL     1      -1.754  -2.586  -3.062  1.00  0.00     0.018 A 
HETATM    6  C5  UNL     1      -3.108  -2.729  -3.086  1.00  0.00     0.001 A 
HETATM    7  C6  UNL     1      -3.915  -2.009  -2.241  1.00  0.00     0.001 A 
HETATM    8  C7  UNL     1      -3.336  -1.139  -1.370  1.00  0.00     0.011 A 
HETATM    9  C8  UNL     1      -1.955  -0.948  -1.298  1.00  0.00    -0.003 A 
HETATM   10  C9  UNL     1      -1.075  -0.087  -0.476  1.00  0.00     0.142 A 
HETATM   11  C10 UNL     1      -1.361   1.345  -0.833  1.00  0.00    -0.002 A 
HETATM   12  C11 UNL     1      -1.925   1.621  -2.091  1.00  0.00     0.012 A 
HETATM   13  C12 UNL     1      -2.195   2.892  -2.474  1.00  0.00     0.001 A 
HETATM   14  C13 UNL     1      -1.920   3.940  -1.631  1.00  0.00     0.001 A 
HETATM   15  C14 UNL     1      -1.360   3.687  -0.378  1.00  0.00     0.019 A 
HETATM   16  C15 UNL     1      -1.102   2.401  -0.025  1.00  0.00     0.015 A 
HETATM   17  S1  UNL     1      -0.383   2.088   1.609  1.00  0.00    -0.089 SA
HETATM   18  C16 UNL     1      -0.994   0.437   1.992  1.00  0.00     0.015 A 
HETATM   19  C17 UNL     1      -1.192   0.028   3.285  1.00  0.00     0.019 A 
HETATM   20  C18 UNL     1      -1.669  -1.245   3.579  1.00  0.00     0.001 A 
HETATM   21  C19 UNL     1      -1.945  -2.102   2.562  1.00  0.00     0.001 A 
HETATM   22  C20 UNL     1      -1.754  -1.716   1.255  1.00  0.00     0.012 A 
HETATM   23  C21 UNL     1      -1.268  -0.416   0.955  1.00  0.00    -0.002 A 
ENDROOT
BRANCH   1  24
HETATM   24  N1  UNL     1       1.497   0.135  -0.427  1.00  0.00    -0.259 N 
HETATM   25  C1  UNL     1       2.309  -0.565   0.510  1.00  0.00     0.270 C 
HETATM   26  O1  UNL     1       1.890  -1.672   0.921  1.00  0.00    -0.266 OA
ATOM     27  H1  UNL     1       1.815   1.040  -0.775  1.00  0.00     0.190 HD
BRANCH  25  28
HETATM   28  C22 UNL     1       3.572  -0.067   1.002  1.00  0.00     0.033 A 
HETATM   29  C23 UNL     1       4.124   1.112   0.535  1.00  0.00     0.017 A 
HETATM   30  C24 UNL     1       5.327   1.542   1.036  1.00  0.00     0.001 A 
HETATM   31  C25 UNL     1       6.000   0.822   1.997  1.00  0.00     0.000 A 
HETATM   32  C26 UNL     1       5.452  -0.351   2.462  1.00  0.00     0.001 A 
HETATM   33  C27 UNL     1       4.245  -0.790   1.963  1.00  0.00     0.017 A 
ENDBRANCH  25  28
ENDBRANCH   1  24
TORSDOF 2
