REMARK  2 active torsions:
REMARK  status: ('A' for Active; 'I' for Inactive)
REMARK    1  A    between atoms: C10_15  and  C11_16 
REMARK    2  A    between atoms: C18_23  and  C19_24 
ROOT
HETATM    1  O1  UNL     1       3.340  -2.379   3.648  1.00  0.00    -0.267 OA
HETATM    2  C1  UNL     1       4.080  -1.785   2.804  1.00  0.00     0.259 A 
HETATM    3  N1  UNL     1       5.508  -1.682   2.873  1.00  0.00    -0.322 N 
ATOM      4  H1  UNL     1       6.101  -2.073   3.605  1.00  0.00     0.169 HD
HETATM    5  C2  UNL     1       5.955  -0.941   1.747  1.00  0.00     0.046 A 
HETATM    6  C3  UNL     1       7.239  -0.579   1.363  1.00  0.00     0.030 A 
HETATM    7  C4  UNL     1       7.405   0.144   0.217  1.00  0.00     0.002 A 
HETATM    8  C5  UNL     1       6.305   0.503  -0.539  1.00  0.00     0.001 A 
HETATM    9  C6  UNL     1       5.030   0.153  -0.176  1.00  0.00     0.015 A 
HETATM   10  C7  UNL     1       4.838  -0.582   0.983  1.00  0.00     0.009 A 
HETATM   11  C8  UNL     1       3.673  -1.087   1.609  1.00  0.00     0.078 A 
HETATM   12  C9  UNL     1       2.360  -0.970   1.238  1.00  0.00     0.092 A 
HETATM   13  N2  UNL     1       1.888  -0.377   0.194  1.00  0.00    -0.348 N 
ATOM     14  H2  UNL     1       2.503   0.072  -0.485  1.00  0.00     0.166 HD
HETATM   15  C10 UNL     1       0.599  -0.375   0.043  1.00  0.00     0.060 A 
HETATM   16  C17 UNL     1      -0.350  -0.813   0.674  1.00  0.00     0.035 A 
HETATM   17  C18 UNL     1      -1.452  -1.264   1.320  1.00  0.00     0.032 C 
HETATM   18  S1  UNL     1       0.992  -1.521   2.001  1.00  0.00    -0.069 SA
ENDROOT
BRANCH  15  19
HETATM   19  C11 UNL     1       0.158   0.270  -1.329  1.00  0.00    -0.008 A 
HETATM   20  C12 UNL     1      -0.791   1.207  -1.404  1.00  0.00     0.014 A 
HETATM   21  C13 UNL     1      -1.172   1.736  -2.654  1.00  0.00     0.001 A 
HETATM   22  C14 UNL     1      -0.548   1.267  -3.787  1.00  0.00     0.000 A 
HETATM   23  C15 UNL     1       0.437   0.295  -3.707  1.00  0.00     0.001 A 
HETATM   24  C16 UNL     1       0.766  -0.187  -2.442  1.00  0.00     0.014 A 
ENDBRANCH  15  19
BRANCH  17  25
HETATM   25  C19 UNL     1      -2.755  -0.895   0.724  1.00  0.00    -0.034 A 
HETATM   26  C20 UNL     1      -3.345  -1.505  -0.333  1.00  0.00     0.012 A 
HETATM   27  C21 UNL     1      -4.585  -1.079  -0.828  1.00  0.00     0.013 A 
HETATM   28  C22 UNL     1      -5.184  -0.024  -0.207  1.00  0.00    -0.026 A 
HETATM   29  C23 UNL     1      -6.413   0.467  -0.664  1.00  0.00     0.012 A 
HETATM   30  C27 UNL     1      -4.619   0.635   0.882  1.00  0.00    -0.025 A 
HETATM   31  C24 UNL     1      -7.020   1.538  -0.063  1.00  0.00     0.001 A 
HETATM   32  C25 UNL     1      -6.449   2.190   1.025  1.00  0.00     0.001 A 
HETATM   33  C26 UNL     1      -5.260   1.725   1.476  1.00  0.00     0.012 A 
HETATM   34  C28 UNL     1      -3.421   0.188   1.325  1.00  0.00     0.023 A 
ENDBRANCH  17  25
TORSDOF 2
