REMARK  2 active torsions:
REMARK  status: ('A' for Active; 'I' for Inactive)
REMARK       I    between atoms: N2_8  and  C6_10 
REMARK    1  A    between atoms: C6_10  and  C7_12 
REMARK    2  A    between atoms: C10_15  and  C11_16 
REMARK       I    between atoms: C11_16  and  N3_18 
ROOT
HETATM    1  C7  UNL     1       1.780  -1.301  -0.723  1.00  0.00     0.032 A 
HETATM    2  C8  UNL     1       1.347  -1.867   0.452  1.00  0.00     0.018 A 
HETATM    3  C9  UNL     1       0.047  -1.748   0.884  1.00  0.00     0.018 A 
HETATM    4  C10 UNL     1      -0.893  -1.037   0.132  1.00  0.00     0.033 A 
HETATM    5  C24 UNL     1      -0.476  -0.457  -1.061  1.00  0.00     0.018 A 
HETATM    6  C25 UNL     1       0.837  -0.606  -1.448  1.00  0.00     0.018 A 
ENDROOT
BRANCH   4   7
HETATM    7  C11 UNL     1      -2.303  -1.090   0.545  1.00  0.00     0.263 C 
HETATM    8  O2  UNL     1      -2.591  -2.194   1.145  1.00  0.00    -0.267 OA
HETATM    9  N3  UNL     1      -3.317  -0.121   0.342  1.00  0.00    -0.276 N 
HETATM   10  C12 UNL     1      -2.956   1.232   0.071  1.00  0.00     0.060 A 
HETATM   11  C23 UNL     1      -4.632  -0.646   0.012  1.00  0.00     0.060 A 
HETATM   12  C13 UNL     1      -1.783   1.743   0.681  1.00  0.00     0.031 A 
HETATM   13  C17 UNL     1      -3.735   2.180  -0.534  1.00  0.00     0.033 A 
HETATM   14  C14 UNL     1      -1.452   3.079   0.662  1.00  0.00     0.002 A 
HETATM   15  C15 UNL     1      -2.263   3.998   0.039  1.00  0.00     0.002 A 
HETATM   16  C16 UNL     1      -3.419   3.500  -0.558  1.00  0.00     0.021 A 
HETATM   17  S1  UNL     1      -5.252   1.694  -1.294  1.00  0.00    -0.086 SA
HETATM   18  C18 UNL     1      -5.634   0.073  -0.596  1.00  0.00     0.033 A 
HETATM   19  C19 UNL     1      -6.916  -0.407  -0.788  1.00  0.00     0.021 A 
HETATM   20  C20 UNL     1      -7.227  -1.669  -0.360  1.00  0.00     0.002 A 
HETATM   21  C21 UNL     1      -6.293  -2.452   0.249  1.00  0.00     0.002 A 
HETATM   22  C22 UNL     1      -5.006  -1.921   0.424  1.00  0.00     0.031 A 
ENDBRANCH   4   7
BRANCH   1  23
HETATM   23  C6  UNL     1       3.138  -1.405  -1.207  1.00  0.00     0.257 C 
HETATM   24  N2  UNL     1       4.164  -2.103  -0.519  1.00  0.00    -0.309 N 
HETATM   25  C5  UNL     1       5.029  -1.373   0.142  1.00  0.00     0.108 A 
ATOM     26  H2  UNL     1       4.225  -3.121  -0.538  1.00  0.00     0.170 HD
HETATM   27  N1  UNL     1       6.039  -1.954   0.825  1.00  0.00    -0.352 N 
HETATM   28  C26 UNL     1       4.952   0.006   0.171  1.00  0.00     0.055 A 
HETATM   29  C4  UNL     1       6.950  -1.212   1.520  1.00  0.00     0.090 A 
ATOM     30  H1  UNL     1       6.123  -2.971   0.821  1.00  0.00     0.166 HD
HETATM   31  C3  UNL     1       6.887   0.152   1.558  1.00  0.00     0.024 A 
HETATM   32  C2  UNL     1       5.878   0.778   0.877  1.00  0.00    -0.057 A 
HETATM   33  C1  UNL     1       5.769   2.256   0.890  1.00  0.00     0.048 C 
HETATM   34  O1  UNL     1       3.434  -0.851  -2.293  1.00  0.00    -0.267 OA
ENDBRANCH   1  23
TORSDOF 2
