REMARK  8 active torsions:
REMARK  status: ('A' for Active; 'I' for Inactive)
REMARK    1  A    between atoms: N1_1  and  C1_4 
REMARK    2  A    between atoms: N2_8  and  C4_9 
REMARK    3  A    between atoms: C5_10  and  C6_11 
REMARK    4  A    between atoms: C6_11  and  O2_13 
REMARK    5  A    between atoms: O2_13  and  C7_14 
REMARK    6  A    between atoms: C9_16  and  C10_17 
REMARK    7  A    between atoms: C10_17  and  C11_18 
REMARK    8  A    between atoms: C11_18  and  O3_19 
ROOT
HETATM    1  C6  UNL     1       1.065   1.397  -0.376  1.00  0.00     0.286 C 
HETATM    2  O1  UNL     1       0.486   2.534  -0.272  1.00  0.00    -0.260 OA
ENDROOT
BRANCH   1   3
HETATM    3  C5  UNL     1       2.498   1.353  -0.185  1.00  0.00     0.100 C 
HETATM    4  C4  UNL     1       3.180   0.241  -0.239  1.00  0.00     0.104 C 
BRANCH   4   5
HETATM    5  N2  UNL     1       4.617   0.163  -0.056  1.00  0.00    -0.313 N 
HETATM    6  C1  UNL     1       5.221  -1.031   0.000  1.00  0.00     0.148 A 
HETATM    7  S1  UNL     1       6.865  -0.634   0.206  1.00  0.00    -0.064 SA
HETATM    8  C2  UNL     1       6.711   1.062   0.209  1.00  0.00     0.071 A 
HETATM    9  C3  UNL     1       5.357   1.228   0.046  1.00  0.00     0.105 A 
BRANCH   6  10
HETATM   10  N1  UNL     1       4.707  -2.215  -0.080  1.00  0.00    -0.379 N 
ATOM     11  H12 UNL     1       5.167  -3.124  -0.037  1.00  0.00     0.158 HD
ATOM     12  H11 UNL     1       3.723  -2.453  -0.203  1.00  0.00     0.158 HD
ENDBRANCH   6  10
ENDBRANCH   4   5
ENDBRANCH   1   3
BRANCH   1  13
HETATM   13  O2  UNL     1       0.239   0.343  -0.661  1.00  0.00    -0.286 OA
BRANCH  13  14
HETATM   14  C7  UNL     1      -1.142   0.497  -0.813  1.00  0.00     0.275 C 
HETATM   15  C8  UNL     1      -1.969  -0.364   0.077  1.00  0.00     0.070 C 
HETATM   16  C9  UNL     1      -3.392   0.095   0.088  1.00  0.00     0.016 C 
HETATM   17  C12 UNL     1      -3.783   0.483  -1.290  1.00  0.00     0.002 C 
HETATM   18  C13 UNL     1      -2.961   0.578  -2.312  1.00  0.00     0.134 C 
HETATM   19  O4  UNL     1      -1.589   0.306  -2.162  1.00  0.00    -0.332 OA
BRANCH  16  20
HETATM   20  C10 UNL     1      -4.383  -0.943   0.573  1.00  0.00     0.034 C 
BRANCH  20  21
HETATM   21  C11 UNL     1      -4.118  -1.378   1.969  1.00  0.00     0.164 C 
BRANCH  21  22
HETATM   22  O3  UNL     1      -2.903  -1.977   2.123  1.00  0.00    -0.401 OA
ATOM     23  H3  UNL     1      -2.734  -2.255   3.015  1.00  0.00     0.209 HD
ENDBRANCH  21  22
ENDBRANCH  20  21
ENDBRANCH  16  20
ENDBRANCH  13  14
ENDBRANCH   1  13
TORSDOF 8
