REMARK  7 active torsions:
REMARK  status: ('A' for Active; 'I' for Inactive)
REMARK    1  A    between atoms: N1_3  and  C4_5 
REMARK    2  A    between atoms: C4_5  and  C5_6 
REMARK    3  A    between atoms: C5_6  and  N2_7 
REMARK    4  A    between atoms: N2_7  and  C6_9 
REMARK    5  A    between atoms: C6_9  and  C7_10 
REMARK    6  A    between atoms: C7_10  and  N3_11 
REMARK    7  A    between atoms: N3_11  and  C8_13 
ROOT
HETATM    1  C1  UNL     1       6.439  -0.498  -2.317  1.00  0.00     0.123 C 
HETATM    2  C2  UNL     1       5.839   0.061  -1.407  1.00  0.00    -0.078 C 
HETATM    3  N1  UNL     1       5.164   0.721  -0.385  1.00  0.00    -0.355 N 
HETATM    4  C3  UNL     1       5.436   2.142  -0.174  1.00  0.00     0.159 C 
ENDROOT
BRANCH   3   5
HETATM    5  C4  UNL     1       4.200   0.048   0.475  1.00  0.00     0.150 C 
BRANCH   5   6
HETATM    6  C5  UNL     1       2.806   0.555   0.196  1.00  0.00     0.134 C 
BRANCH   6   7
HETATM    7  N2  UNL     1       1.791  -0.004   1.001  1.00  0.00    -0.415 N 
ATOM      8  H2  UNL     1       1.285   0.551   1.691  1.00  0.00     0.153 HD
BRANCH   7   9
HETATM    9  C6  UNL     1       1.514  -1.376   0.800  1.00  0.00     0.158 C 
BRANCH   9  10
HETATM   10  C7  UNL     1       0.886  -1.638  -0.541  1.00  0.00     0.082 C 
BRANCH  10  11
HETATM   11  N3  UNL     1      -0.283  -0.980  -0.871  1.00  0.00    -0.353 N 
ATOM     12  H3  UNL     1      -0.212  -0.580  -1.806  1.00  0.00     0.166 HD
BRANCH  11  13
HETATM   13  C8  UNL     1      -1.398  -0.726  -0.375  1.00  0.00     0.128 A 
HETATM   14  N4  UNL     1      -1.853  -1.085   0.823  1.00  0.00    -0.344 N 
HETATM   15  C9  UNL     1      -3.080  -0.770   1.323  1.00  0.00     0.025 A 
ATOM     16  H4  UNL     1      -1.234  -1.640   1.414  1.00  0.00     0.167 HD
HETATM   17  C10 UNL     1      -3.481  -1.219   2.680  1.00  0.00     0.069 C 
HETATM   18  C11 UNL     1      -3.964  -0.029   0.583  1.00  0.00     0.083 A 
HETATM   19  C12 UNL     1      -5.199   0.292   1.083  1.00  0.00     0.262 A 
HETATM   20  C14 UNL     1      -3.546   0.375  -0.680  1.00  0.00     0.076 A 
HETATM   21  O1  UNL     1      -5.607  -0.062   2.226  1.00  0.00    -0.267 OA
HETATM   22  N5  UNL     1      -6.023   1.035   0.289  1.00  0.00    -0.299 N 
HETATM   23  C13 UNL     1      -5.630   1.427  -0.926  1.00  0.00     0.179 A 
ATOM     24  H5  UNL     1      -6.950   1.294   0.627  1.00  0.00     0.171 HD
HETATM   25  S1  UNL     1      -6.660   2.326  -1.855  1.00  0.00    -0.040 SA
HETATM   26  N6  UNL     1      -4.418   1.115  -1.423  1.00  0.00    -0.331 N 
ATOM     27  H6  UNL     1      -4.152   1.432  -2.355  1.00  0.00     0.168 HD
HETATM   28  C15 UNL     1      -2.311   0.040  -1.144  1.00  0.00     0.116 A 
HETATM   29  C16 UNL     1      -1.890   0.452  -2.440  1.00  0.00     0.105 C 
HETATM   30  N7  UNL     1      -1.560   0.801  -3.494  1.00  0.00    -0.191 NA
ENDBRANCH  11  13
ENDBRANCH  10  11
ENDBRANCH   9  10
ENDBRANCH   7   9
ENDBRANCH   6   7
ENDBRANCH   5   6
ENDBRANCH   3   5
TORSDOF 7
