REMARK  9 active torsions:
REMARK  status: ('A' for Active; 'I' for Inactive)
REMARK    1  A    between atoms: C2_2  and  C3_3 
REMARK    2  A    between atoms: C3_3  and  O1_4 
REMARK    3  A    between atoms: O1_4  and  C4_5 
REMARK    4  A    between atoms: C6_7  and  N1_8 
REMARK    5  A    between atoms: N1_8  and  C7_9 
REMARK    6  A    between atoms: C7_9  and  O2_11 
REMARK    7  A    between atoms: C8_13  and  N3_14 
REMARK    8  A    between atoms: C10_18  and  C11_19 
REMARK    9  A    between atoms: N4_20  and  N5_22 
ROOT
HETATM    1  C4  UNL     1      -0.268   0.648   0.718  1.00  0.00     0.084 A 
HETATM    2  C5  UNL     1      -1.590   0.171   0.593  1.00  0.00     0.085 A 
HETATM    3  C6  UNL     1      -1.966  -0.876  -0.217  1.00  0.00     0.146 A 
HETATM    4  C8  UNL     1      -0.932  -1.484  -0.944  1.00  0.00     0.144 A 
HETATM    5  C9  UNL     1       0.346  -1.019  -0.826  1.00  0.00     0.055 A 
HETATM    6  C10 UNL     1       0.702   0.023  -0.022  1.00  0.00     0.017 A 
ENDROOT
BRANCH   6   7
HETATM    7  C11 UNL     1       2.120   0.461   0.000  1.00  0.00     0.121 C 
HETATM    8  N4  UNL     1       2.980  -0.119  -0.708  1.00  0.00    -0.309 N 
ATOM      9  H4  UNL     1       2.538  -0.868  -1.241  1.00  0.00     0.186 HD
BRANCH   8  10
HETATM   10  N5  UNL     1       4.261  -0.075  -0.985  1.00  0.00    -0.276 N 
HETATM   11  C12 UNL     1       5.323  -0.422  -0.363  1.00  0.00     0.215 C 
HETATM   12  N6  UNL     1       5.199  -1.001   0.940  1.00  0.00    -0.065 NA
HETATM   13  N7  UNL     1       6.621  -0.266  -0.916  1.00  0.00    -0.065 NA
ATOM     14  H5  UNL     1       4.454   0.326  -1.903  1.00  0.00     0.189 HD
ENDBRANCH   8  10
ENDBRANCH   6   7
BRANCH   1  15
HETATM   15  O1  UNL     1       0.072   1.698   1.548  1.00  0.00    -0.346 OA
BRANCH  15  16
HETATM   16  C3  UNL     1      -0.721   2.469   2.353  1.00  0.00     0.202 C 
BRANCH  16  17
HETATM   17  C2  UNL     1      -1.707   3.370   1.739  1.00  0.00    -0.011 C 
HETATM   18  C1  UNL     1      -1.969   3.590   0.480  1.00  0.00     0.009 C 
ENDBRANCH  16  17
ENDBRANCH  15  16
ENDBRANCH   1  15
BRANCH   4  19
HETATM   19  N3  UNL     1      -1.185  -2.605  -1.764  1.00  0.00    -0.112 N 
HETATM   20  O3  UNL     1      -1.977  -3.467  -1.433  1.00  0.00    -0.532 OA
HETATM   21  O4  UNL     1      -0.445  -2.765  -2.908  1.00  0.00    -0.532 OA
ENDBRANCH   4  19
BRANCH   3  22
HETATM   22  N1  UNL     1      -3.285  -1.231  -0.475  1.00  0.00    -0.365 NA
BRANCH  22  23
HETATM   23  C7  UNL     1      -4.542  -1.570  -0.721  1.00  0.00     0.306 C 
HETATM   24  N2  UNL     1      -5.083  -2.326  -1.840  1.00  0.00    -0.042 NA
BRANCH  23  25
HETATM   25  O2  UNL     1      -5.560  -1.242   0.055  1.00  0.00    -0.324 OA
ATOM     26  H2  UNL     1      -6.461  -1.485  -0.121  1.00  0.00     0.221 HD
ENDBRANCH  23  25
ENDBRANCH  22  23
ENDBRANCH   3  22
TORSDOF 9
