REMARK  9 active torsions:
REMARK  status: ('A' for Active; 'I' for Inactive)
REMARK    1  A    between atoms: C2_2  and  C3_3 
REMARK    2  A    between atoms: C2_2  and  C8_16 
REMARK    3  A    between atoms: C3_3  and  C4_4 
REMARK    4  A    between atoms: C4_4  and  N2_7 
REMARK    5  A    between atoms: N2_7  and  O1_8 
REMARK    6  A    between atoms: O1_8  and  C6_9 
REMARK    7  A    between atoms: C6_9  and  C7_11 
REMARK    8  A    between atoms: C7_11  and  N3_12 
REMARK       I    between atoms: C8_16  and  N4_18 
REMARK       I    between atoms: N4_18  and  C9_20 
REMARK    9  A    between atoms: C9_20  and  C10_22 
ROOT
HETATM    1  C4  UNL     1       2.226   0.055  -0.124  1.00  0.00     0.214 C 
HETATM    2  C5  UNL     1       2.368  -0.175   1.336  1.00  0.00     0.083 C 
HETATM    3  N1  UNL     1       2.478  -0.338   2.472  1.00  0.00    -0.195 NA
ENDROOT
BRANCH   1   4
HETATM    4  C3  UNL     1       1.537  -1.146  -0.715  1.00  0.00     0.052 C 
BRANCH   4   5
HETATM    5  C2  UNL     1       0.181  -1.437  -0.179  1.00  0.00     0.076 C 
HETATM    6  C1  UNL     1      -0.300  -2.704  -0.915  1.00  0.00     0.020 C 
BRANCH   5   7
HETATM    7  C8  UNL     1      -0.829  -0.408  -0.511  1.00  0.00     0.228 C 
HETATM    8  O3  UNL     1      -0.480   0.589  -1.173  1.00  0.00    -0.273 OA
HETATM    9  N4  UNL     1      -2.176  -0.552  -0.084  1.00  0.00    -0.293 N 
HETATM   10  C9  UNL     1      -3.161   0.402  -0.380  1.00  0.00     0.258 C 
ATOM     11  H4  UNL     1      -2.436  -1.377   0.456  1.00  0.00     0.172 HD
HETATM   12  O4  UNL     1      -2.794   1.421  -1.060  1.00  0.00    -0.267 OA
BRANCH  10  13
HETATM   13  C10 UNL     1      -4.541   0.289   0.038  1.00  0.00     0.032 A 
HETATM   14  C11 UNL     1      -5.437   1.292  -0.310  1.00  0.00     0.017 A 
HETATM   15  C12 UNL     1      -6.758   1.219   0.070  1.00  0.00     0.001 A 
HETATM   16  C13 UNL     1      -7.250   0.174   0.797  1.00  0.00     0.000 A 
HETATM   17  C14 UNL     1      -6.375  -0.821   1.145  1.00  0.00     0.001 A 
HETATM   18  C15 UNL     1      -5.041  -0.760   0.769  1.00  0.00     0.017 A 
ENDBRANCH  10  13
ENDBRANCH   5   7
ENDBRANCH   4   5
ENDBRANCH   1   4
BRANCH   1  19
HETATM   19  N2  UNL     1       3.558   0.091  -0.704  1.00  0.00    -0.072 NA
BRANCH  19  20
HETATM   20  O1  UNL     1       4.283   1.165  -0.224  1.00  0.00    -0.204 OA
BRANCH  20  21
HETATM   21  C6  UNL     1       5.665   1.191  -0.220  1.00  0.00     0.302 C 
HETATM   22  O2  UNL     1       6.263   0.190  -0.674  1.00  0.00    -0.262 OA
BRANCH  21  23
HETATM   23  C7  UNL     1       6.466   2.324   0.285  1.00  0.00     0.341 C 
BRANCH  23  24
HETATM   24  N3  UNL     1       7.866   1.998   0.131  1.00  0.00    -0.070 N 
ATOM     25  H33 UNL     1       8.114   1.114   0.575  1.00  0.00     0.274 HD
ATOM     26  H32 UNL     1       8.106   1.744  -0.827  1.00  0.00     0.274 HD
ATOM     27  H31 UNL     1       8.419   2.781   0.480  1.00  0.00     0.274 HD
ENDBRANCH  23  24
ENDBRANCH  21  23
ENDBRANCH  20  21
ENDBRANCH  19  20
ENDBRANCH   1  19
TORSDOF 9
