REMARK  8 active torsions:
REMARK  status: ('A' for Active; 'I' for Inactive)
REMARK    1  A    between atoms: N1_1  and  C1_5 
REMARK    2  A    between atoms: C1_5  and  C2_6 
REMARK    3  A    between atoms: C1_5  and  C4_10 
REMARK    4  A    between atoms: C2_6  and  C3_8 
REMARK       I    between atoms: C4_10  and  N2_12 
REMARK    5  A    between atoms: N2_12  and  C5_14 
REMARK    6  A    between atoms: C5_14  and  C6_15 
REMARK    7  A    between atoms: C5_14  and  C12_23 
REMARK    8  A    between atoms: C6_15  and  C7_16 
ROOT
HETATM    1  C5  UNL     1      -0.957  -1.242  -0.544  1.00  0.00     0.156 C 
ENDROOT
BRANCH   1   2
HETATM    2  N2  UNL     1       0.282  -0.792   0.014  1.00  0.00    -0.347 N 
HETATM    3  C4  UNL     1       1.269  -0.164  -0.788  1.00  0.00     0.256 C 
HETATM    4  O2  UNL     1       1.046  -0.007  -1.997  1.00  0.00    -0.271 OA
ATOM      5  H2  UNL     1       0.459  -0.926   1.010  1.00  0.00     0.163 HD
BRANCH   3   6
HETATM    6  C1  UNL     1       2.534   0.285  -0.167  1.00  0.00     0.344 C 
BRANCH   6   7
HETATM    7  N1  UNL     1       2.584   0.004   1.248  1.00  0.00    -0.059 N 
ATOM      8  H13 UNL     1       3.449   0.324   1.683  1.00  0.00     0.275 HD
ATOM      9  H12 UNL     1       1.938   0.580   1.787  1.00  0.00     0.275 HD
ATOM     10  H11 UNL     1       2.423  -0.995   1.378  1.00  0.00     0.275 HD
ENDBRANCH   6   7
BRANCH   6  11
HETATM   11  C2  UNL     1       2.768   1.741  -0.356  1.00  0.00     0.176 C 
HETATM   12  O1  UNL     1       2.770   2.204  -1.498  1.00  0.00    -0.294 OA
BRANCH  11  13
HETATM   13  C3  UNL     1       3.002   2.695   0.752  1.00  0.00     0.167 C 
HETATM   14  S1  UNL     1       4.791   2.760   1.054  1.00  0.00    -0.090 SA
ENDBRANCH  11  13
ENDBRANCH   6  11
ENDBRANCH   3   6
ENDBRANCH   1   2
BRANCH   1  15
HETATM   15  C6  UNL     1      -2.162  -0.586   0.083  1.00  0.00     0.073 C 
BRANCH  15  16
HETATM   16  C7  UNL     1      -2.201   0.857  -0.049  1.00  0.00    -0.040 A 
HETATM   17  C8  UNL     1      -1.630   1.658   0.908  1.00  0.00     0.010 A 
HETATM   18  C9  UNL     1      -1.653   3.050   0.804  1.00  0.00     0.018 A 
HETATM   19  C10 UNL     1      -2.280   3.572  -0.307  1.00  0.00     0.087 A 
HETATM   20  N3  UNL     1      -2.841   2.816  -1.247  1.00  0.00    -0.375 N 
HETATM   21  C11 UNL     1      -2.806   1.455  -1.127  1.00  0.00     0.094 A 
ATOM     22  H3  UNL     1      -3.294   3.249  -2.052  1.00  0.00     0.164 HD
ENDBRANCH  15  16
ENDBRANCH   1  15
BRANCH   1  23
HETATM   23  C12 UNL     1      -1.103  -2.700  -0.368  1.00  0.00     0.104 A 
HETATM   24  N4  UNL     1      -0.841  -3.373   0.762  1.00  0.00    -0.353 N 
HETATM   25  C13 UNL     1      -1.094  -4.702   0.544  1.00  0.00     0.106 A 
ATOM     26  H4  UNL     1      -0.509  -2.965   1.636  1.00  0.00     0.166 HD
HETATM   27  C14 UNL     1      -1.519  -4.825  -0.754  1.00  0.00     0.106 A 
HETATM   28  N5  UNL     1      -1.507  -3.588  -1.261  1.00  0.00    -0.353 N 
ATOM     29  H5  UNL     1      -1.776  -3.358  -2.218  1.00  0.00     0.166 HD
ENDBRANCH   1  23
TORSDOF 8
