REMARK  6 active torsions:
REMARK  status: ('A' for Active; 'I' for Inactive)
REMARK    1  A    between atoms: C2_2  and  C3_4 
REMARK    2  A    between atoms: C3_4  and  C5_6 
REMARK    3  A    between atoms: C5_6  and  C6_8 
REMARK       I    between atoms: C6_8  and  N1_10 
REMARK    4  A    between atoms: N1_10  and  N2_12 
REMARK    5  A    between atoms: C7_14  and  C8_15 
REMARK    6  A    between atoms: C11_18  and  N3_19 
REMARK       I    between atoms: N3_19  and  C12_21 
ROOT
HETATM    1  N2  UNL     1      -0.284  -0.720  -0.799  1.00  0.00    -0.308 N 
ATOM      2  H2  UNL     1      -0.022  -1.611  -0.376  1.00  0.00     0.186 HD
HETATM    3  C7  UNL     1       0.613   0.157  -1.004  1.00  0.00     0.118 C 
ENDROOT
BRANCH   3   4
HETATM    4  C8  UNL     1       2.013  -0.091  -0.643  1.00  0.00    -0.019 A 
HETATM    5  C9  UNL     1       2.411  -1.280  -0.068  1.00  0.00     0.015 A 
HETATM    6  C10 UNL     1       3.751  -1.472   0.258  1.00  0.00     0.030 A 
HETATM    7  C11 UNL     1       4.699  -0.500   0.022  1.00  0.00     0.034 A 
HETATM    8  C13 UNL     1       4.312   0.692  -0.553  1.00  0.00     0.030 A 
HETATM    9  C14 UNL     1       2.975   0.869  -0.872  1.00  0.00     0.015 A 
BRANCH   7  10
HETATM   10  N3  UNL     1       6.073  -0.711   0.362  1.00  0.00    -0.331 N 
HETATM   11  C12 UNL     1       7.071   0.259   0.136  1.00  0.00     0.186 C 
HETATM   12  N4  UNL     1       7.801   0.233  -0.926  1.00  0.00    -0.373 N 
HETATM   13  N5  UNL     1       7.346   1.322   1.047  1.00  0.00    -0.064 NA
ATOM     14  H42 UNL     1       7.604  -0.527  -1.577  1.00  0.00     0.158 HD
ATOM     15  H41 UNL     1       8.523   0.935  -1.089  1.00  0.00     0.158 HD
ATOM     16  H3  UNL     1       6.341  -1.599   0.785  1.00  0.00     0.168 HD
ENDBRANCH   7  10
ENDBRANCH   3   4
BRANCH   1  17
HETATM   17  N1  UNL     1      -1.609  -0.495  -1.136  1.00  0.00    -0.264 N 
HETATM   18  C6  UNL     1      -2.670  -0.525  -0.191  1.00  0.00     0.306 C 
HETATM   19  O3  UNL     1      -2.388  -0.766   1.003  1.00  0.00    -0.263 OA
ATOM     20  H1  UNL     1      -1.834  -0.298  -2.111  1.00  0.00     0.190 HD
BRANCH  18  21
HETATM   21  C5  UNL     1      -4.063  -0.282  -0.586  1.00  0.00     0.229 C 
HETATM   22  O2  UNL     1      -4.274  -0.049  -1.795  1.00  0.00    -0.286 OA
BRANCH  21  23
HETATM   23  C3  UNL     1      -5.173  -0.304   0.364  1.00  0.00     0.131 C 
HETATM   24  C4  UNL     1      -4.904   0.768   1.423  1.00  0.00     0.026 C 
BRANCH  23  25
HETATM   25  C2  UNL     1      -6.452  -0.041  -0.281  1.00  0.00     0.134 C 
HETATM   26  C1  UNL     1      -7.708  -0.017   0.552  1.00  0.00     0.091 C 
HETATM   27  O1  UNL     1      -6.550   0.158  -1.460  1.00  0.00    -0.298 OA
ENDBRANCH  23  25
ENDBRANCH  21  23
ENDBRANCH  18  21
ENDBRANCH   1  17
TORSDOF 6
