REMARK  9 active torsions:
REMARK  status: ('A' for Active; 'I' for Inactive)
REMARK    1  A    between atoms: C2_2  and  C3_4 
REMARK    2  A    between atoms: C3_4  and  O2_5 
REMARK    3  A    between atoms: O2_5  and  C4_6 
REMARK    4  A    between atoms: C9_11  and  O3_12 
REMARK    5  A    between atoms: O3_12  and  C10_13 
REMARK    6  A    between atoms: C10_13  and  C11_14 
REMARK    7  A    between atoms: C11_14  and  O4_15 
REMARK    8  A    between atoms: C11_14  and  C12_17 
REMARK    9  A    between atoms: C14_21  and  N2_22 
ROOT
HETATM    1  C11 UNL     1      -1.958  -2.604  -0.379  1.00  0.00     0.082 C 
ENDROOT
BRANCH   1   2
HETATM    2  C10 UNL     1      -0.864  -2.483  -1.329  1.00  0.00     0.241 C 
BRANCH   2   3
HETATM    3  O3  UNL     1      -0.084  -1.347  -1.289  1.00  0.00    -0.342 OA
BRANCH   3   4
HETATM    4  C9  UNL     1       0.719  -0.992  -0.237  1.00  0.00     0.102 A 
HETATM    5  C4  UNL     1       1.417   0.232  -0.388  1.00  0.00     0.102 A 
HETATM    6  C5  UNL     1       2.239   0.644   0.635  1.00  0.00     0.039 A 
HETATM    7  C6  UNL     1       2.391  -0.116   1.795  1.00  0.00     0.003 A 
HETATM    8  C7  UNL     1       1.711  -1.302   1.933  1.00  0.00     0.003 A 
HETATM    9  C8  UNL     1       0.888  -1.719   0.916  1.00  0.00     0.039 A 
BRANCH   5  10
HETATM   10  O2  UNL     1       1.210   0.914  -1.566  1.00  0.00    -0.341 OA
BRANCH  10  11
HETATM   11  C3  UNL     1       1.863   2.110  -1.861  1.00  0.00     0.253 C 
BRANCH  11  12
HETATM   12  C2  UNL     1       3.332   2.014  -1.989  1.00  0.00     0.146 C 
HETATM   13  C1  UNL     1       4.134   3.260  -2.216  1.00  0.00     0.093 C 
HETATM   14  O1  UNL     1       3.952   0.974  -1.922  1.00  0.00    -0.296 OA
ENDBRANCH  11  12
ENDBRANCH  10  11
ENDBRANCH   5  10
ENDBRANCH   3   4
ENDBRANCH   2   3
ENDBRANCH   1   2
BRANCH   1  15
HETATM   15  O4  UNL     1      -2.437  -3.799  -0.173  1.00  0.00    -0.362 OA
ATOM     16  H4  UNL     1      -3.152  -3.878   0.448  1.00  0.00     0.217 HD
ENDBRANCH   1  15
BRANCH   1  17
HETATM   17  C12 UNL     1      -2.552  -1.514   0.354  1.00  0.00     0.055 A 
HETATM   18  C13 UNL     1      -2.794  -1.712   1.711  1.00  0.00     0.124 A 
HETATM   19  N1  UNL     1      -3.274  -0.729   2.465  1.00  0.00    -0.201 N 
HETATM   20  C14 UNL     1      -3.528   0.458   1.917  1.00  0.00     0.677 A 
ATOM     21  H1  UNL     1      -3.447  -0.883   3.458  1.00  0.00     0.183 HD
HETATM   22  N3  UNL     1      -3.313   0.690   0.624  1.00  0.00    -0.176 N 
HETATM   23  C15 UNL     1      -2.820  -0.286  -0.205  1.00  0.00     0.129 A 
ATOM     24  H3  UNL     1      -3.519   1.613   0.241  1.00  0.00     0.186 HD
HETATM   25  N4  UNL     1      -2.735  -0.016  -1.456  1.00  0.00    -0.384 N 
ATOM     26  H42 UNL     1      -2.369  -0.742  -2.072  1.00  0.00     0.157 HD
ATOM     27  H41 UNL     1      -2.934   0.895  -1.870  1.00  0.00     0.157 HD
BRANCH  20  28
HETATM   28  N2  UNL     1      -3.999   1.422   2.665  1.00  0.00    -0.234 N 
ATOM     29  H22 UNL     1      -4.164   1.244   3.656  1.00  0.00     0.174 HD
ATOM     30  H21 UNL     1      -4.194   2.331   2.245  1.00  0.00     0.174 HD
ENDBRANCH  20  28
ENDBRANCH   1  17
TORSDOF 9
