REMARK  7 active torsions:
REMARK  status: ('A' for Active; 'I' for Inactive)
REMARK    1  A    between atoms: N1_1  and  N2_4 
REMARK    2  A    between atoms: N2_4  and  C1_5 
REMARK    3  A    between atoms: C1_5  and  C2_7 
REMARK       I    between atoms: C2_7  and  N3_9 
REMARK    4  A    between atoms: N3_9  and  C3_11 
REMARK    5  A    between atoms: C3_11  and  C4_12 
REMARK    6  A    between atoms: C3_11  and  C5_15 
REMARK    7  A    between atoms: C6_18  and  C7_19 
ROOT
HETATM    1  C3  UNL     1      -1.011  -1.060  -0.932  1.00  0.00     0.243 C 
ENDROOT
BRANCH   1   2
HETATM    2  N3  UNL     1      -2.184  -1.034  -0.076  1.00  0.00    -0.339 N 
HETATM    3  C2  UNL     1      -3.472  -0.702  -0.545  1.00  0.00     0.250 C 
HETATM    4  O1  UNL     1      -3.584  -0.418  -1.777  1.00  0.00    -0.271 OA
ATOM      5  H3  UNL     1      -2.071  -1.267   0.911  1.00  0.00     0.163 HD
BRANCH   3   6
HETATM    6  C1  UNL     1      -4.615  -0.696   0.380  1.00  0.00     0.262 C 
HETATM    7  S1  UNL     1      -4.276   0.385   1.797  1.00  0.00    -0.062 SA
BRANCH   6   8
HETATM    8  N2  UNL     1      -5.847  -0.331  -0.292  1.00  0.00    -0.122 NA
BRANCH   8   9
HETATM    9  N1  UNL     1      -5.825   0.964  -0.780  1.00  0.00    -0.347 N 
ATOM     10  H12 UNL     1      -5.021   1.582  -0.671  1.00  0.00     0.172 HD
ATOM     11  H11 UNL     1      -6.692   1.221  -1.253  1.00  0.00     0.172 HD
ENDBRANCH   8   9
ENDBRANCH   6   8
ENDBRANCH   3   6
ENDBRANCH   1   2
BRANCH   1  12
HETATM   12  C4  UNL     1      -0.400  -2.409  -0.865  1.00  0.00     0.203 C 
HETATM   13  O2  UNL     1      -0.906  -3.284  -0.154  1.00  0.00    -0.646 OA
HETATM   14  O3  UNL     1       0.742  -2.680  -1.605  1.00  0.00    -0.646 OA
ENDBRANCH   1  12
BRANCH   1  15
HETATM   15  C5  UNL     1      -0.024  -0.029  -0.480  1.00  0.00     0.085 A 
HETATM   16  N4  UNL     1       1.281  -0.119  -0.319  1.00  0.00    -0.351 N 
HETATM   17  C6  UNL     1       1.954   0.912   0.088  1.00  0.00     0.049 A 
ATOM     18  H4  UNL     1       1.761  -0.998  -0.514  1.00  0.00     0.166 HD
HETATM   19  C13 UNL     1       1.256   2.067   0.336  1.00  0.00     0.082 A 
HETATM   20  S2  UNL     1      -0.345   1.585  -0.039  1.00  0.00    -0.084 SA
BRANCH  17  21
HETATM   21  C7  UNL     1       3.428   0.860   0.284  1.00  0.00    -0.009 A 
HETATM   22  C8  UNL     1       4.147   1.935   0.712  1.00  0.00     0.014 A 
HETATM   23  C9  UNL     1       5.515   1.909   0.901  1.00  0.00     0.001 A 
HETATM   24  C10 UNL     1       6.205   0.752   0.651  1.00  0.00     0.000 A 
HETATM   25  C11 UNL     1       5.517  -0.353   0.219  1.00  0.00     0.001 A 
HETATM   26  C12 UNL     1       4.152  -0.299   0.039  1.00  0.00     0.014 A 
ENDBRANCH  17  21
ENDBRANCH   1  15
TORSDOF 7
