REMARK  8 active torsions:
REMARK  status: ('A' for Active; 'I' for Inactive)
REMARK    1  A    between atoms: C2_2  and  N1_3 
REMARK    2  A    between atoms: C2_2  and  C13_25 
REMARK       I    between atoms: N1_3  and  C3_5 
REMARK    3  A    between atoms: C3_5  and  C4_7 
REMARK    4  A    between atoms: C4_7  and  C6_10 
REMARK    5  A    between atoms: C6_10  and  N4_14 
REMARK    6  A    between atoms: N4_14  and  O2_16 
REMARK    7  A    between atoms: O2_16  and  C7_17 
REMARK    8  A    between atoms: C7_17  and  C8_18 
ROOT
HETATM    1  C4  UNL     1      -0.435  -2.238   1.158  1.00  0.00     0.253 C 
HETATM    2  C5  UNL     1      -0.167  -3.665   1.017  1.00  0.00     0.081 C 
HETATM    3  N2  UNL     1       0.053  -4.798   0.913  1.00  0.00    -0.196 NA
ENDROOT
BRANCH   1   4
HETATM    4  C3  UNL     1      -1.406  -1.777   0.127  1.00  0.00     0.243 C 
HETATM    5  N1  UNL     1      -1.837  -0.425   0.045  1.00  0.00    -0.348 N 
ATOM      6  H1  UNL     1      -1.487   0.274   0.700  1.00  0.00     0.163 HD
HETATM    7  O1  UNL     1      -1.842  -2.631  -0.683  1.00  0.00    -0.272 OA
BRANCH   5   8
HETATM    8  C2  UNL     1      -2.773  -0.067  -0.977  1.00  0.00     0.148 C 
HETATM    9  C1  UNL     1      -2.096   0.998  -1.848  1.00  0.00     0.040 C 
BRANCH   8  10
HETATM   10  C13 UNL     1      -4.033   0.514  -0.397  1.00  0.00     0.103 A 
HETATM   11  N6  UNL     1      -5.306   0.235  -0.733  1.00  0.00    -0.353 N 
HETATM   12  C14 UNL     1      -6.160   0.948   0.000  1.00  0.00     0.106 A 
ATOM     13  H6  UNL     1      -5.580  -0.433  -1.453  1.00  0.00     0.166 HD
HETATM   14  C15 UNL     1      -5.400   1.722   0.848  1.00  0.00     0.106 A 
HETATM   15  N7  UNL     1      -4.112   1.435   0.581  1.00  0.00    -0.353 N 
ATOM     16  H7  UNL     1      -3.311   1.855   1.052  1.00  0.00     0.166 HD
ENDBRANCH   8  10
ENDBRANCH   5   8
ENDBRANCH   1   4
BRANCH   1  17
HETATM   17  C6  UNL     1       0.853  -1.531   1.067  1.00  0.00     0.122 C 
HETATM   18  N3  UNL     1       1.270  -0.853   2.070  1.00  0.00    -0.386 N 
ATOM     19  H32 UNL     1       0.677  -0.834   2.900  1.00  0.00     0.157 HD
ATOM     20  H31 UNL     1       2.162  -0.363   2.007  1.00  0.00     0.157 HD
BRANCH  17  21
HETATM   21  N4  UNL     1       1.679  -1.557  -0.090  1.00  0.00    -0.253 N 
ATOM     22  H4  UNL     1       2.479  -2.189  -0.091  1.00  0.00     0.195 HD
BRANCH  21  23
HETATM   23  O2  UNL     1       1.475  -0.810  -1.171  1.00  0.00    -0.273 OA
BRANCH  23  24
HETATM   24  C7  UNL     1       2.618  -0.401  -1.818  1.00  0.00     0.258 C 
BRANCH  24  25
HETATM   25  C8  UNL     1       3.514   0.423  -0.957  1.00  0.00     0.035 A 
HETATM   26  C9  UNL     1       4.496  -0.115  -0.180  1.00  0.00     0.027 A 
HETATM   27  C10 UNL     1       5.338   0.632   0.627  1.00  0.00     0.003 A 
HETATM   28  C11 UNL     1       5.170   2.000   0.642  1.00  0.00     0.017 A 
HETATM   29  C12 UNL     1       4.170   2.522  -0.152  1.00  0.00     0.088 A 
HETATM   30  N5  UNL     1       3.368   1.770  -0.925  1.00  0.00    -0.367 N 
ATOM     31  H5  UNL     1       2.646   2.215  -1.491  1.00  0.00     0.165 HD
ENDBRANCH  24  25
ENDBRANCH  23  24
ENDBRANCH  21  23
ENDBRANCH  17  21
ENDBRANCH   1  17
TORSDOF 8
