REMARK  9 active torsions:
REMARK  status: ('A' for Active; 'I' for Inactive)
REMARK    1  A    between atoms: O1_2  and  C2_3 
REMARK    2  A    between atoms: C5_6  and  N1_7 
REMARK       I    between atoms: N1_7  and  C6_9 
REMARK    3  A    between atoms: C6_9  and  C7_11 
REMARK    4  A    between atoms: C7_11  and  N2_14 
REMARK       I    between atoms: N2_14  and  C10_16 
REMARK    5  A    between atoms: C10_16  and  C11_18 
REMARK    6  A    between atoms: C11_18  and  O4_19 
REMARK    7  A    between atoms: C11_18  and  C12_21 
REMARK    8  A    between atoms: C12_21  and  N3_23 
REMARK    9  A    between atoms: N3_23  and  O5_24 
ROOT
HETATM    1  C7  UNL     1      -0.802  -1.968   0.231  1.00  0.00     0.107 C 
HETATM    2  C8  UNL     1      -0.977  -2.798   1.449  1.00  0.00     0.048 C 
HETATM    3  C9  UNL     1      -0.426  -2.878  -0.951  1.00  0.00     0.048 C 
ENDROOT
BRANCH   1   4
HETATM    4  C6  UNL     1       0.399  -1.052   0.429  1.00  0.00     0.249 C 
HETATM    5  N1  UNL     1       1.716  -1.379   0.402  1.00  0.00    -0.325 N 
ATOM      6  H1  UNL     1       1.988  -2.356   0.293  1.00  0.00     0.169 HD
HETATM    7  O2  UNL     1       0.074   0.179   0.633  1.00  0.00    -0.270 OA
BRANCH   5   8
HETATM    8  C5  UNL     1       2.725  -0.380   0.523  1.00  0.00     0.035 A 
HETATM    9  C4  UNL     1       2.637   0.782   1.178  1.00  0.00     0.032 A 
HETATM   10  C3  UNL     1       3.572   1.836   1.128  1.00  0.00     0.039 A 
HETATM   11  C2  UNL     1       4.685   1.587   0.289  1.00  0.00     0.068 A 
HETATM   12  C15 UNL     1       4.814   0.426  -0.382  1.00  0.00     0.039 A 
HETATM   13  C14 UNL     1       3.869  -0.559  -0.287  1.00  0.00     0.032 A 
BRANCH  11  14
HETATM   14  O1  UNL     1       5.613   2.618   0.234  1.00  0.00    -0.356 OA
HETATM   15  C1  UNL     1       6.749   2.398  -0.592  1.00  0.00     0.210 C 
ENDBRANCH  11  14
ENDBRANCH   5   8
ENDBRANCH   1   4
BRANCH   1  16
HETATM   16  N2  UNL     1      -1.908  -1.146  -0.071  1.00  0.00    -0.338 N 
HETATM   17  C10 UNL     1      -3.273  -1.097  -0.298  1.00  0.00     0.273 C 
HETATM   18  O3  UNL     1      -4.010  -2.058  -0.243  1.00  0.00    -0.266 OA
ATOM     19  H2  UNL     1      -1.556  -0.193  -0.158  1.00  0.00     0.164 HD
BRANCH  17  20
HETATM   20  C11 UNL     1      -3.750   0.260  -0.606  1.00  0.00     0.132 C 
BRANCH  20  21
HETATM   21  O4  UNL     1      -2.784   1.139  -0.839  1.00  0.00    -0.358 OA
ATOM     22  H4  UNL     1      -3.092   2.015  -1.038  1.00  0.00     0.217 HD
ENDBRANCH  20  21
BRANCH  20  23
HETATM   23  C12 UNL     1      -5.078   0.822  -0.688  1.00  0.00     0.164 C 
HETATM   24  C13 UNL     1      -4.844   2.373  -1.014  1.00  0.00     0.037 C 
BRANCH  23  25
HETATM   25  N3  UNL     1      -5.656   0.892   0.672  1.00  0.00    -0.092 NA
BRANCH  25  26
HETATM   26  O5  UNL     1      -4.740   1.413   1.485  1.00  0.00    -0.295 OA
ATOM     27  H5  UNL     1      -5.111   1.458   2.358  1.00  0.00     0.238 HD
ENDBRANCH  25  26
ENDBRANCH  23  25
ENDBRANCH  20  23
ENDBRANCH  17  20
ENDBRANCH   1  16
TORSDOF 9
