REMARK  8 active torsions:
REMARK  status: ('A' for Active; 'I' for Inactive)
REMARK    1  A    between atoms: C5_6  and  S1_7 
REMARK    2  A    between atoms: S1_7  and  N2_10 
REMARK    3  A    between atoms: N2_10  and  C6_12 
REMARK    4  A    between atoms: C6_12  and  C7_13 
REMARK    5  A    between atoms: C7_13  and  N3_14 
REMARK    6  A    between atoms: C7_13  and  C8_18 
REMARK    7  A    between atoms: C8_18  and  N4_19 
REMARK       I    between atoms: N4_19  and  C9_21 
REMARK    8  A    between atoms: C9_21  and  C10_23 
ROOT
HETATM    1  C7  UNL     1      -0.831  -0.095   0.221  1.00  0.00     0.219 C 
ENDROOT
BRANCH   1   2
HETATM    2  C6  UNL     1       0.562  -0.387  -0.338  1.00  0.00     0.166 C 
BRANCH   2   3
HETATM    3  N2  UNL     1       1.059   0.705  -1.122  1.00  0.00    -0.313 N 
ATOM      4  H2  UNL     1       0.532   1.565  -1.277  1.00  0.00     0.172 HD
BRANCH   3   5
HETATM    5  S1  UNL     1       2.606   0.435  -1.769  1.00  0.00     0.258 S 
HETATM    6  O1  UNL     1       2.555  -0.864  -2.556  1.00  0.00    -0.201 OA
HETATM    7  O2  UNL     1       3.077   1.487  -2.692  1.00  0.00    -0.201 OA
BRANCH   5   8
HETATM    8  C5  UNL     1       3.833   0.198  -0.534  1.00  0.00     0.081 A 
HETATM    9  C4  UNL     1       4.487   1.326  -0.080  1.00  0.00     0.025 A 
HETATM   10  C3  UNL     1       5.456   1.213   0.884  1.00  0.00     0.003 A 
HETATM   11  C2  UNL     1       5.761  -0.033   1.385  1.00  0.00     0.026 A 
HETATM   12  C1  UNL     1       5.119  -1.167   0.944  1.00  0.00     0.047 A 
HETATM   13  N1  UNL     1       5.431  -2.456   1.460  1.00  0.00    -0.102 NA
HETATM   14  C14 UNL     1       4.150  -1.020  -0.025  1.00  0.00     0.051 A 
ENDBRANCH   5   8
ENDBRANCH   3   5
ENDBRANCH   2   3
ENDBRANCH   1   2
BRANCH   1  15
HETATM   15  N3  UNL     1      -1.174  -1.279   0.971  1.00  0.00    -0.072 N 
ATOM     16  H33 UNL     1      -1.114  -2.144   0.434  1.00  0.00     0.274 HD
ATOM     17  H32 UNL     1      -0.487  -1.537   1.679  1.00  0.00     0.274 HD
ATOM     18  H31 UNL     1      -2.103  -1.084   1.344  1.00  0.00     0.274 HD
ENDBRANCH   1  15
BRANCH   1  19
HETATM   19  C8  UNL     1      -1.755   0.085  -0.930  1.00  0.00     0.157 C 
BRANCH  19  20
HETATM   20  N4  UNL     1      -3.115   0.392  -0.671  1.00  0.00    -0.353 N 
HETATM   21  C9  UNL     1      -4.111  -0.322  -0.021  1.00  0.00     0.275 C 
HETATM   22  O3  UNL     1      -3.955  -1.446   0.475  1.00  0.00    -0.265 OA
ATOM     23  H4  UNL     1      -3.414   1.300  -1.026  1.00  0.00     0.162 HD
BRANCH  21  24
HETATM   24  C10 UNL     1      -5.474   0.242   0.125  1.00  0.00     0.142 A 
HETATM   25  C11 UNL     1      -5.878   1.476  -0.347  1.00  0.00     0.045 A 
HETATM   26  C12 UNL     1      -7.215   1.615  -0.004  1.00  0.00     0.027 A 
HETATM   27  C13 UNL     1      -7.561   0.478   0.651  1.00  0.00     0.143 A 
HETATM   28  O4  UNL     1      -6.512  -0.287   0.699  1.00  0.00    -0.317 OA
ENDBRANCH  21  24
ENDBRANCH  19  20
ENDBRANCH   1  19
TORSDOF 8
