REMARK  8 active torsions:
REMARK  status: ('A' for Active; 'I' for Inactive)
REMARK    1  A    between atoms: C2_2  and  C3_3 
REMARK    2  A    between atoms: C2_2  and  N4_21 
REMARK    3  A    between atoms: C3_3  and  C4_4 
REMARK    4  A    between atoms: C4_4  and  C6_6 
REMARK       I    between atoms: C6_6  and  N1_8 
REMARK    5  A    between atoms: N1_8  and  C7_10 
REMARK    6  A    between atoms: C10_13  and  O2_14 
REMARK    7  A    between atoms: O2_14  and  C11_15 
REMARK    8  A    between atoms: N4_21  and  S1_23 
ROOT
HETATM    1  C6  UNL     1       0.141  -1.027  -1.103  1.00  0.00     0.227 C 
HETATM    2  O1  UNL     1       0.561  -0.053  -1.760  1.00  0.00    -0.273 OA
HETATM    3  N1  UNL     1       1.064  -1.710  -0.247  1.00  0.00    -0.307 N 
ATOM      4  H1  UNL     1       0.748  -2.510   0.300  1.00  0.00     0.171 HD
ENDROOT
BRANCH   1   5
HETATM    5  C4  UNL     1      -1.280  -1.502  -1.183  1.00  0.00     0.076 C 
HETATM    6  C5  UNL     1      -1.080  -3.037  -1.412  1.00  0.00     0.020 C 
BRANCH   5   7
HETATM    7  C3  UNL     1      -2.028  -1.346   0.092  1.00  0.00     0.039 C 
BRANCH   7   8
HETATM    8  C2  UNL     1      -2.401   0.007   0.539  1.00  0.00     0.089 C 
HETATM    9  C1  UNL     1      -1.266   0.947   0.784  1.00  0.00     0.033 C 
BRANCH   8  10
HETATM   10  N4  UNL     1      -3.436   0.617  -0.292  1.00  0.00    -0.315 N 
ATOM     11  H4  UNL     1      -3.296   0.866  -1.271  1.00  0.00     0.172 HD
BRANCH  10  12
HETATM   12  S1  UNL     1      -4.910   0.871   0.547  1.00  0.00     0.223 S 
HETATM   13  C12 UNL     1      -4.710   1.980   1.922  1.00  0.00     0.185 C 
HETATM   14  O4  UNL     1      -5.861   1.525  -0.414  1.00  0.00    -0.206 OA
HETATM   15  O5  UNL     1      -5.466  -0.416   1.086  1.00  0.00    -0.206 OA
ENDBRANCH  10  12
ENDBRANCH   8  10
ENDBRANCH   7   8
ENDBRANCH   5   7
ENDBRANCH   1   5
BRANCH   3  16
HETATM   16  C7  UNL     1       2.415  -1.284  -0.153  1.00  0.00     0.153 A 
HETATM   17  C8  UNL     1       3.412  -1.836   0.622  1.00  0.00     0.061 A 
HETATM   18  C9  UNL     1       4.530  -1.082   0.372  1.00  0.00     0.069 A 
HETATM   19  C10 UNL     1       4.197  -0.097  -0.539  1.00  0.00     0.195 A 
HETATM   20  O3  UNL     1       2.931  -0.269  -0.811  1.00  0.00    -0.270 OA
BRANCH  19  21
HETATM   21  O2  UNL     1       4.985   0.890  -1.085  1.00  0.00    -0.258 OA
BRANCH  21  22
HETATM   22  C11 UNL     1       5.058   2.125  -0.462  1.00  0.00     0.232 C 
HETATM   23  N2  UNL     1       4.905   2.165   0.809  1.00  0.00    -0.367 N 
ATOM     24  H22 UNL     1       4.735   1.307   1.334  1.00  0.00     0.159 HD
ATOM     25  H21 UNL     1       4.959   3.074   1.268  1.00  0.00     0.159 HD
HETATM   26  N3  UNL     1       5.294   3.315  -1.191  1.00  0.00    -0.056 NA
ENDBRANCH  21  22
ENDBRANCH  19  21
ENDBRANCH   3  16
TORSDOF 8
