REMARK  8 active torsions:
REMARK  status: ('A' for Active; 'I' for Inactive)
REMARK    1  A    between atoms: N1_1  and  C1_4 
REMARK    2  A    between atoms: C4_9  and  N3_10 
REMARK       I    between atoms: N5_17  and  C7_18 
REMARK    3  A    between atoms: C7_18  and  C8_20 
REMARK    4  A    between atoms: C8_20  and  C9_21 
REMARK    5  A    between atoms: C9_21  and  C10_22 
REMARK    6  A    between atoms: C10_22  and  C11_23 
REMARK    7  A    between atoms: C11_23  and  C12_24 
REMARK    8  A    between atoms: C12_24  and  N6_25 
ROOT
HETATM    1  C1  UNL     1      -4.929   1.822  -1.407  1.00  0.00     0.679 A 
HETATM    2  N2  UNL     1      -4.720   0.491  -1.373  1.00  0.00    -0.170 N 
ATOM      3  H2  UNL     1      -5.325  -0.125  -1.916  1.00  0.00     0.186 HD
HETATM    4  C2  UNL     1      -3.743  -0.030  -0.647  1.00  0.00     0.169 A 
HETATM    5  C3  UNL     1      -2.886   0.754   0.113  1.00  0.00     0.039 A 
HETATM    6  C4  UNL     1      -3.100   2.110   0.077  1.00  0.00     0.125 A 
HETATM    7  N4  UNL     1      -4.119   2.613  -0.684  1.00  0.00    -0.177 N 
ATOM      8  H4  UNL     1      -4.269   3.622  -0.703  1.00  0.00     0.186 HD
HETATM    9  C5  UNL     1      -1.766   0.404   0.976  1.00  0.00     0.067 C 
HETATM   10  C6  UNL     1      -1.648  -1.076   1.243  1.00  0.00     0.133 C 
HETATM   11  N5  UNL     1      -1.552  -1.889   0.070  1.00  0.00    -0.330 N 
HETATM   12  C7  UNL     1      -0.241  -2.324  -0.299  1.00  0.00     0.221 C 
HETATM   13  O1  UNL     1      -0.058  -3.034  -1.336  1.00  0.00    -0.273 OA
HETATM   14  C14 UNL     1      -2.647  -2.328  -0.772  1.00  0.00     0.305 C 
HETATM   15  O2  UNL     1      -3.673  -1.400  -0.728  1.00  0.00    -0.315 OA
ENDROOT
BRANCH  12  16
HETATM   16  C8  UNL     1       0.910  -1.941   0.541  1.00  0.00     0.103 C 
BRANCH  16  17
HETATM   17  C9  UNL     1       2.172  -2.442  -0.155  1.00  0.00     0.009 C 
BRANCH  17  18
HETATM   18  C10 UNL     1       3.353  -2.076   0.684  1.00  0.00     0.002 C 
BRANCH  18  19
HETATM   19  C11 UNL     1       3.463  -0.591   0.885  1.00  0.00     0.022 C 
BRANCH  19  20
HETATM   20  C12 UNL     1       3.604   0.098  -0.437  1.00  0.00     0.153 C 
BRANCH  20  21
HETATM   21  N6  UNL     1       3.730   1.551  -0.257  1.00  0.00    -0.250 N 
HETATM   22  N7  UNL     1       2.787   2.461  -0.214  1.00  0.00    -0.224 N 
HETATM   23  N8  UNL     1       3.352   3.656  -0.034  1.00  0.00    -0.226 N 
ATOM     24  H7  UNL     1       1.786   2.284  -0.303  1.00  0.00     0.210 HD
HETATM   25  N9  UNL     1       4.659   3.520   0.040  1.00  0.00    -0.259 N 
ATOM     26  H8  UNL     1       2.848   4.540   0.036  1.00  0.00     0.210 HD
HETATM   27  C13 UNL     1       4.898   2.200  -0.100  1.00  0.00     0.210 A 
ATOM     28  H9  UNL     1       5.348   4.260   0.175  1.00  0.00     0.191 HD
HETATM   29  S1  UNL     1       6.401   1.551  -0.073  1.00  0.00    -0.038 SA
ENDBRANCH  20  21
ENDBRANCH  19  20
ENDBRANCH  18  19
ENDBRANCH  17  18
ENDBRANCH  16  17
ENDBRANCH  12  16
BRANCH   6  30
HETATM   30  N3  UNL     1      -2.389   2.966   0.726  1.00  0.00    -0.384 N 
ATOM     31  H32 UNL     1      -1.629   2.591   1.294  1.00  0.00     0.157 HD
ATOM     32  H31 UNL     1      -2.548   3.973   0.699  1.00  0.00     0.157 HD
ENDBRANCH   6  30
BRANCH   1  33
HETATM   33  N1  UNL     1      -5.896   2.307  -2.130  1.00  0.00    -0.234 N 
ATOM     34  H12 UNL     1      -6.511   1.706  -2.679  1.00  0.00     0.174 HD
ATOM     35  H11 UNL     1      -6.054   3.314  -2.156  1.00  0.00     0.174 HD
ENDBRANCH   1  33
TORSDOF 8
