REMARK  8 active torsions:
REMARK  status: ('A' for Active; 'I' for Inactive)
REMARK    1  A    between atoms: C2_2  and  C3_3 
REMARK    2  A    between atoms: C3_3  and  O1_4 
REMARK    3  A    between atoms: O1_4  and  C4_5 
REMARK    4  A    between atoms: C5_6  and  C6_7 
REMARK    5  A    between atoms: C8_16  and  C9_17 
REMARK    6  A    between atoms: C9_17  and  N5_18 
REMARK    7  A    between atoms: C11_23  and  C12_24 
REMARK    8  A    between atoms: C15_30  and  N7_31 
ROOT
HETATM    1  C4  UNL     1      -0.330  -0.377  -0.582  1.00  0.00     0.095 A 
HETATM    2  C5  UNL     1      -0.345  -1.743  -0.433  1.00  0.00     0.045 A 
HETATM    3  C7  UNL     1      -1.355  -2.309   0.339  1.00  0.00     0.027 A 
HETATM    4  C8  UNL     1      -2.323  -1.568   0.940  1.00  0.00    -0.031 A 
HETATM    5  C10 UNL     1      -2.296  -0.214   0.772  1.00  0.00     0.025 A 
HETATM    6  C11 UNL     1      -1.294   0.412   0.000  1.00  0.00     0.026 A 
ENDROOT
BRANCH   6   7
HETATM    7  C12 UNL     1      -1.503   1.837  -0.228  1.00  0.00     0.067 A 
HETATM    8  C13 UNL     1      -1.169   2.398  -1.435  1.00  0.00     0.106 A 
HETATM    9  C14 UNL     1      -1.459   3.745  -1.717  1.00  0.00     0.261 A 
HETATM   10  O2  UNL     1      -1.149   4.252  -2.825  1.00  0.00    -0.268 OA
HETATM   11  N6  UNL     1      -2.073   4.441  -0.753  1.00  0.00    -0.156 N 
HETATM   12  C15 UNL     1      -2.401   3.878   0.438  1.00  0.00     0.679 A 
ATOM     13  H6  UNL     1      -2.301   5.422  -0.918  1.00  0.00     0.187 HD
HETATM   14  N8  UNL     1      -2.129   2.600   0.716  1.00  0.00    -0.191 N 
ATOM     15  H8  UNL     1      -2.385   2.200   1.619  1.00  0.00     0.184 HD
BRANCH  12  16
HETATM   16  N7  UNL     1      -2.990   4.649   1.287  1.00  0.00    -0.234 N 
ATOM     17  H72 UNL     1      -3.198   5.625   1.075  1.00  0.00     0.174 HD
ATOM     18  H71 UNL     1      -3.236   4.226   2.182  1.00  0.00     0.174 HD
ENDBRANCH  12  16
ENDBRANCH   6   7
BRANCH   1  19
HETATM   19  O1  UNL     1       0.666   0.250  -1.298  1.00  0.00    -0.348 OA
BRANCH  19  20
HETATM   20  C3  UNL     1       1.799   0.860  -0.834  1.00  0.00     0.189 C 
BRANCH  20  21
HETATM   21  C2  UNL     1       2.841   0.217  -0.037  1.00  0.00     0.021 C 
HETATM   22  C1  UNL     1       2.468  -0.388   1.293  1.00  0.00     0.022 C 
HETATM   23  C16 UNL     1       3.969   1.278   0.242  1.00  0.00     0.181 C 
HETATM   24  O3  UNL     1       4.914   0.248   0.203  1.00  0.00    -0.389 OA
HETATM   25  C17 UNL     1       4.035  -0.408  -0.657  1.00  0.00     0.181 C 
ENDBRANCH  20  21
ENDBRANCH  19  20
ENDBRANCH   1  19
BRANCH   2  26
HETATM   26  C6  UNL     1       0.563  -2.666  -1.108  1.00  0.00     0.147 A 
HETATM   27  N1  UNL     1       0.643  -3.995  -0.851  1.00  0.00    -0.271 N 
HETATM   28  N2  UNL     1       1.493  -4.560  -1.651  1.00  0.00    -0.225 N 
ATOM     29  H1  UNL     1       0.110  -4.482  -0.130  1.00  0.00     0.190 HD
HETATM   30  N3  UNL     1       1.998  -3.634  -2.454  1.00  0.00    -0.005 NA
ATOM     31  H2  UNL     1       1.733  -5.551  -1.661  1.00  0.00     0.205 HD
HETATM   32  N4  UNL     1       1.428  -2.490  -2.116  1.00  0.00    -0.266 N 
ATOM     33  H4  UNL     1       1.621  -1.594  -2.563  1.00  0.00     0.186 HD
ENDBRANCH   2  26
BRANCH   4  34
HETATM   34  C9  UNL     1      -3.411  -2.192   1.776  1.00  0.00     0.268 C 
BRANCH  34  35
HETATM   35  N5  UNL     1      -3.251  -3.628   1.822  1.00  0.00    -0.075 N 
ATOM     36  H53 UNL     1      -3.209  -4.035   0.888  1.00  0.00     0.274 HD
ATOM     37  H52 UNL     1      -2.322  -3.896   2.146  1.00  0.00     0.274 HD
ATOM     38  H51 UNL     1      -3.987  -4.050   2.388  1.00  0.00     0.274 HD
ENDBRANCH  34  35
ENDBRANCH   4  34
TORSDOF 8
