REMARK  7 active torsions:
REMARK  status: ('A' for Active; 'I' for Inactive)
REMARK    1  A    between atoms: C7_8  and  C8_9 
REMARK    2  A    between atoms: C8_9  and  S1_10 
REMARK    3  A    between atoms: S1_10  and  C9_11 
REMARK    4  A    between atoms: C10_14  and  C11_15 
REMARK    5  A    between atoms: C12_18  and  N3_19 
REMARK    6  A    between atoms: N3_19  and  N4_21 
REMARK    7  A    between atoms: N4_21  and  C13_23 
ROOT
HETATM    1  C9  UNL     1       0.162  -1.539   0.432  1.00  0.00     0.146 A 
HETATM    2  N1  UNL     1       0.303  -0.533  -0.425  1.00  0.00    -0.330 N 
ATOM      3  H1  UNL     1      -0.319  -0.374  -1.217  1.00  0.00     0.168 HD
HETATM    4  C10 UNL     1       1.358   0.256  -0.134  1.00  0.00     0.145 A 
HETATM    5  C12 UNL     1       1.929  -0.286   0.987  1.00  0.00     0.154 A 
HETATM    6  N7  UNL     1       1.204  -1.363   1.320  1.00  0.00    -0.320 N 
ATOM      7  H7  UNL     1       1.396  -1.968   2.118  1.00  0.00     0.169 HD
ENDROOT
BRANCH   1   8
HETATM    8  S1  UNL     1      -0.997  -2.881   0.496  1.00  0.00    -0.089 SA
BRANCH   8   9
HETATM    9  C8  UNL     1      -2.265  -2.760  -0.700  1.00  0.00     0.116 C 
BRANCH   9  10
HETATM   10  C7  UNL     1      -3.363  -1.761  -0.458  1.00  0.00    -0.066 C 
HETATM   11  C6  UNL     1      -4.618  -2.248  -0.342  1.00  0.00     0.053 C 
HETATM   12  C5  UNL     1      -5.722  -1.350  -0.110  1.00  0.00     0.150 C 
HETATM   13  C4  UNL     1      -5.609  -0.008  -0.767  1.00  0.00     0.092 C 
HETATM   14  O1  UNL     1      -6.687  -1.703   0.594  1.00  0.00    -0.293 OA
HETATM   15  C2  UNL     1      -4.307   0.565  -0.256  1.00  0.00    -0.037 C 
HETATM   16  C1  UNL     1      -4.560   0.883   1.222  1.00  0.00     0.015 C 
HETATM   17  C3  UNL     1      -4.057   1.883  -0.954  1.00  0.00     0.015 C 
HETATM   18  C16 UNL     1      -3.131  -0.340  -0.354  1.00  0.00     0.044 C 
ENDBRANCH   9  10
ENDBRANCH   8   9
ENDBRANCH   1   8
BRANCH   4  19
HETATM   19  C11 UNL     1       1.819   1.445  -0.837  1.00  0.00     0.285 C 
HETATM   20  N2  UNL     1       1.134   1.926  -1.997  1.00  0.00    -0.056 NA
HETATM   21  O2  UNL     1       2.817   2.063  -0.442  1.00  0.00    -0.269 OA
ENDBRANCH   4  19
BRANCH   5  22
HETATM   22  N3  UNL     1       3.092   0.173   1.689  1.00  0.00    -0.281 N 
ATOM     23  H3  UNL     1       3.045   1.075   2.164  1.00  0.00     0.188 HD
BRANCH  22  24
HETATM   24  N4  UNL     1       4.265  -0.537   1.756  1.00  0.00    -0.270 N 
ATOM     25  H4  UNL     1       4.268  -1.430   2.248  1.00  0.00     0.190 HD
BRANCH  24  26
HETATM   26  C13 UNL     1       5.477  -0.080   1.168  1.00  0.00     0.190 C 
HETATM   27  N5  UNL     1       6.004  -0.676   0.134  1.00  0.00    -0.360 N 
HETATM   28  C14 UNL     1       7.213  -0.042  -0.276  1.00  0.00     0.142 C 
ATOM     29  H5  UNL     1       5.601  -1.494  -0.324  1.00  0.00     0.162 HD
HETATM   30  C15 UNL     1       7.201   1.275   0.464  1.00  0.00     0.142 C 
HETATM   31  N6  UNL     1       6.295   1.014   1.554  1.00  0.00    -0.360 N 
ATOM     32  H6  UNL     1       6.250   1.521   2.438  1.00  0.00     0.162 HD
ENDBRANCH  24  26
ENDBRANCH  22  24
ENDBRANCH   5  22
TORSDOF 7
