REMARK  6 active torsions:
REMARK  status: ('A' for Active; 'I' for Inactive)
REMARK    1  A    between atoms: N1_2  and  C2_4 
REMARK    2  A    between atoms: C3_7  and  N3_8 
REMARK    3  A    between atoms: C6_13  and  N5_14 
REMARK    4  A    between atoms: N5_14  and  C7_16 
REMARK    5  A    between atoms: C7_16  and  C8_17 
REMARK       I    between atoms: C8_17  and  N6_19 
REMARK    6  A    between atoms: N6_19  and  C9_21 
ROOT
HETATM    1  N5  UNL     1      -0.109   1.065   0.325  1.00  0.00    -0.216 N 
ATOM      2  H5  UNL     1       0.214   2.022   0.471  1.00  0.00     0.178 HD
ENDROOT
BRANCH   1   3
HETATM    3  C6  UNL     1      -1.377   0.864   0.286  1.00  0.00     0.707 A 
HETATM    4  N4  UNL     1      -1.877  -0.352   0.099  1.00  0.00    -0.021 N 
HETATM    5  C3  UNL     1      -3.200  -0.595   0.053  1.00  0.00     0.708 A 
ATOM      6  H4  UNL     1      -1.232  -1.134  -0.014  1.00  0.00     0.203 HD
HETATM    7  N2  UNL     1      -4.020   0.458   0.206  1.00  0.00    -0.021 N 
HETATM    8  C2  UNL     1      -3.557   1.710   0.398  1.00  0.00     0.706 A 
ATOM      9  H2  UNL     1      -5.028   0.305   0.176  1.00  0.00     0.203 HD
HETATM   10  N10 UNL     1      -2.221   1.887   0.434  1.00  0.00    -0.022 N 
ATOM     11  H10 UNL     1      -1.847   2.825   0.578  1.00  0.00     0.203 HD
BRANCH   5  12
HETATM   12  N3  UNL     1      -3.674  -1.917  -0.149  1.00  0.00    -0.225 N 
HETATM   13  C4  UNL     1      -5.100  -2.167  -0.197  1.00  0.00     0.168 C 
HETATM   14  C5  UNL     1      -2.736  -3.009  -0.307  1.00  0.00     0.168 C 
ENDBRANCH   5  12
BRANCH   8  15
HETATM   15  N1  UNL     1      -4.384   2.701   0.542  1.00  0.00    -0.229 N 
HETATM   16  C1  UNL     1      -3.874   4.033   0.746  1.00  0.00     0.165 C 
ATOM     17  H1  UNL     1      -5.390   2.537   0.511  1.00  0.00     0.177 HD
ENDBRANCH   8  15
ENDBRANCH   1   3
BRANCH   1  18
HETATM   18  C7  UNL     1       0.883   0.047   0.179  1.00  0.00     0.241 C 
BRANCH  18  19
HETATM   19  C8  UNL     1       2.218   0.675   0.238  1.00  0.00     0.241 C 
HETATM   20  O1  UNL     1       2.368   1.915   0.394  1.00  0.00    -0.271 OA
HETATM   21  N6  UNL     1       3.371  -0.122   0.117  1.00  0.00    -0.309 N 
ATOM     22  H6  UNL     1       3.260  -1.128  -0.011  1.00  0.00     0.170 HD
BRANCH  21  23
HETATM   23  C9  UNL     1       4.688   0.421   0.166  1.00  0.00     0.147 A 
HETATM   24  N7  UNL     1       5.014   1.736   0.329  1.00  0.00    -0.269 N 
HETATM   25  N8  UNL     1       6.332   1.815   0.318  1.00  0.00    -0.241 N 
ATOM     26  H7  UNL     1       4.362   2.512   0.439  1.00  0.00     0.190 HD
HETATM   27  N9  UNL     1       6.875   0.632   0.158  1.00  0.00    -0.287 N 
ATOM     28  H8  UNL     1       6.859   2.682   0.421  1.00  0.00     0.208 HD
HETATM   29  C10 UNL     1       5.876  -0.249   0.061  1.00  0.00     0.068 A 
ATOM     30  H9  UNL     1       7.873   0.424   0.116  1.00  0.00     0.188 HD
HETATM   31  C11 UNL     1       5.974  -1.737  -0.132  1.00  0.00     0.074 C 
ENDBRANCH  21  23
ENDBRANCH  18  19
ENDBRANCH   1  18
TORSDOF 6
