REMARK  6 active torsions:
REMARK  status: ('A' for Active; 'I' for Inactive)
REMARK    1  A    between atoms: N1_2  and  C3_4 
REMARK    2  A    between atoms: C4_7  and  C5_8 
REMARK    3  A    between atoms: C5_8  and  N4_12 
REMARK       I    between atoms: N4_12  and  C6_13 
REMARK    4  A    between atoms: C6_13  and  C7_15 
REMARK    5  A    between atoms: C10_19  and  N5_20 
REMARK    6  A    between atoms: N5_20  and  C11_22 
ROOT
HETATM    1  C3  UNL     1      -0.808  -0.981   0.226  1.00  0.00     0.131 A 
HETATM    2  N2  UNL     1       0.447  -1.153   0.103  1.00  0.00    -0.337 N 
ATOM      3  H2  UNL     1       0.767  -2.095  -0.120  1.00  0.00     0.167 HD
HETATM    4  C4  UNL     1       1.460  -0.130   0.251  1.00  0.00     0.092 A 
HETATM    5  C8  UNL     1       1.053   1.084   0.537  1.00  0.00     0.037 A 
HETATM    6  C9  UNL     1      -0.383   1.358   0.696  1.00  0.00     0.036 A 
HETATM    7  C10 UNL     1      -1.252   0.380   0.547  1.00  0.00     0.093 A 
ENDROOT
BRANCH   7   8
HETATM    8  N5  UNL     1      -2.605   0.675   0.708  1.00  0.00    -0.185 N 
ATOM      9  H5  UNL     1      -3.132   0.074   1.342  1.00  0.00     0.184 HD
BRANCH   8  10
HETATM   10  C11 UNL     1      -3.251   1.617   0.146  1.00  0.00     0.714 A 
HETATM   11  N6  UNL     1      -4.567   1.828   0.365  1.00  0.00    -0.115 N 
HETATM   12  N7  UNL     1      -4.924   2.865  -0.359  1.00  0.00    -0.213 N 
ATOM     13  H6  UNL     1      -5.172   1.283   0.979  1.00  0.00     0.207 HD
HETATM   14  N8  UNL     1      -3.902   3.340  -1.042  1.00  0.00    -0.213 N 
ATOM     15  H7  UNL     1      -5.868   3.251  -0.388  1.00  0.00     0.210 HD
HETATM   16  N9  UNL     1      -2.878   2.570  -0.727  1.00  0.00    -0.115 N 
ATOM     17  H8  UNL     1      -3.903   4.136  -1.680  1.00  0.00     0.210 HD
ATOM     18  H9  UNL     1      -1.933   2.682  -1.095  1.00  0.00     0.207 HD
ENDBRANCH   8  10
ENDBRANCH   7   8
BRANCH   1  19
HETATM   19  N1  UNL     1      -1.699  -2.066   0.055  1.00  0.00    -0.374 N 
HETATM   20  C1  UNL     1      -3.119  -1.957   0.082  1.00  0.00     0.150 C 
HETATM   21  C2  UNL     1      -1.108  -3.383  -0.168  1.00  0.00     0.150 C 
ENDBRANCH   1  19
BRANCH   4  22
HETATM   22  C5  UNL     1       2.841  -0.513   0.069  1.00  0.00     0.204 C 
HETATM   23  N3  UNL     1       3.078  -1.815  -0.221  1.00  0.00    -0.372 N 
ATOM     24  H32 UNL     1       2.211  -2.351  -0.261  1.00  0.00     0.158 HD
ATOM     25  H31 UNL     1       4.053  -2.085  -0.350  1.00  0.00     0.158 HD
BRANCH  22  26
HETATM   26  N4  UNL     1       4.010   0.210   0.123  1.00  0.00    -0.344 NA
HETATM   27  C6  UNL     1       5.134   0.905   0.175  1.00  0.00     0.355 C 
HETATM   28  O1  UNL     1       5.235   2.167   0.427  1.00  0.00    -0.248 OA
BRANCH  27  29
HETATM   29  C7  UNL     1       6.437   0.229  -0.069  1.00  0.00     0.348 C 
HETATM   30  O2  UNL     1       6.468  -0.983  -0.308  1.00  0.00    -0.295 OA
ENDBRANCH  27  29
ENDBRANCH  22  26
ENDBRANCH   4  22
TORSDOF 6
