REMARK  5 active torsions:
REMARK  status: ('A' for Active; 'I' for Inactive)
REMARK    1  A    between atoms: C2_2  and  N1_3 
REMARK    2  A    between atoms: N6_15  and  C5_16 
REMARK    3  A    between atoms: C5_16  and  C6_17 
REMARK    4  A    between atoms: C6_17  and  C7_18 
REMARK    5  A    between atoms: C7_18  and  C8_19 
REMARK       I    between atoms: C8_19  and  N7_21 
ROOT
HETATM    1  C1  UNL     1       3.687   2.228  -0.052  1.00  0.00     0.097 C 
HETATM    2  C2  UNL     1       3.864   0.772   0.330  1.00  0.00     0.275 C 
HETATM    3  N2  UNL     1       5.194   0.411  -0.082  1.00  0.00    -0.315 N 
ATOM      4  H2  UNL     1       5.967   0.843   0.424  1.00  0.00     0.166 HD
HETATM    5  C3  UNL     1       5.499  -0.399  -1.021  1.00  0.00     0.193 C 
HETATM    6  N3  UNL     1       6.884  -0.671  -1.342  1.00  0.00    -0.063 NA
HETATM    7  N4  UNL     1       4.469  -1.085  -1.698  1.00  0.00    -0.305 N 
ATOM      8  H4  UNL     1       4.722  -1.723  -2.452  1.00  0.00     0.171 HD
HETATM    9  C4  UNL     1       3.232  -0.941  -1.407  1.00  0.00     0.196 C 
HETATM   10  N5  UNL     1       2.212  -1.645  -2.119  1.00  0.00    -0.063 NA
HETATM   11  N6  UNL     1       2.891  -0.107  -0.280  1.00  0.00    -0.306 N 
ENDROOT
BRANCH  11  12
HETATM   12  C5  UNL     1       1.527  -0.243   0.207  1.00  0.00     0.130 C 
BRANCH  12  13
HETATM   13  C6  UNL     1       0.671   0.965  -0.004  1.00  0.00     0.029 C 
BRANCH  13  14
HETATM   14  C7  UNL     1      -0.728   0.839   0.486  1.00  0.00     0.104 C 
BRANCH  14  15
HETATM   15  C8  UNL     1      -1.526  -0.221  -0.164  1.00  0.00     0.219 C 
HETATM   16  O1  UNL     1      -1.105  -0.818  -1.182  1.00  0.00    -0.273 OA
HETATM   17  N7  UNL     1      -2.804  -0.556   0.394  1.00  0.00    -0.350 N 
HETATM   18  C9  UNL     1      -3.155   0.214   1.552  1.00  0.00     0.127 C 
HETATM   19  C13 UNL     1      -3.469  -1.602  -0.327  1.00  0.00     0.153 C 
HETATM   20  C10 UNL     1      -4.641   0.218   1.828  1.00  0.00     0.047 C 
HETATM   21  C11 UNL     1      -5.343   0.525   0.525  1.00  0.00     0.234 C 
HETATM   22  N8  UNL     1      -5.712  -0.727  -0.063  1.00  0.00    -0.074 N 
HETATM   23  C12 UNL     1      -4.742  -1.162  -1.013  1.00  0.00     0.252 C 
ATOM     24  H82 UNL     1      -5.883  -1.438   0.648  1.00  0.00     0.277 HD
ATOM     25  H81 UNL     1      -6.645  -0.687  -0.473  1.00  0.00     0.277 HD
ENDBRANCH  14  15
ENDBRANCH  13  14
ENDBRANCH  12  13
ENDBRANCH  11  12
BRANCH   2  26
HETATM   26  N1  UNL     1       3.711   0.698   1.780  1.00  0.00    -0.034 N 
ATOM     27  H13 UNL     1       4.338   1.326   2.284  1.00  0.00     0.279 HD
ATOM     28  H12 UNL     1       2.834   1.098   2.113  1.00  0.00     0.279 HD
ATOM     29  H11 UNL     1       3.830  -0.282   2.037  1.00  0.00     0.279 HD
ENDBRANCH   2  26
TORSDOF 5
