REMARK  6 active torsions:
REMARK  status: ('A' for Active; 'I' for Inactive)
REMARK    1  A    between atoms: C4_4  and  C5_5 
REMARK       I    between atoms: C5_5  and  N1_7 
REMARK    2  A    between atoms: N1_7  and  C6_9 
REMARK    3  A    between atoms: C7_19  and  S1_20 
REMARK    4  A    between atoms: S1_20  and  C8_21 
REMARK    5  A    between atoms: C8_21  and  C9_22 
REMARK       I    between atoms: C9_22  and  N7_24 
REMARK    6  A    between atoms: N7_24  and  N8_26 
ROOT
HETATM    1  C1  UNL     1      -0.641   2.903   2.354  1.00  0.00     0.043 C 
HETATM    2  C2  UNL     1      -0.389   1.823   1.622  1.00  0.00     0.026 A 
HETATM    3  C3  UNL     1      -1.180   1.525   0.436  1.00  0.00     0.064 A 
HETATM    4  C4  UNL     1      -0.884   0.441  -0.248  1.00  0.00     0.105 A 
HETATM    5  N6  UNL     1       0.199  -0.399   0.195  1.00  0.00    -0.332 N 
ATOM      6  H6  UNL     1       0.415  -1.235  -0.347  1.00  0.00     0.168 HD
HETATM    7  C7  UNL     1       0.980  -0.124   1.345  1.00  0.00     0.145 A 
HETATM    8  N9  UNL     1       0.664   0.956   2.005  1.00  0.00    -0.338 N 
ATOM      9  H9  UNL     1       1.203   1.188   2.840  1.00  0.00     0.168 HD
ENDROOT
BRANCH   4  10
HETATM   10  C5  UNL     1      -1.621   0.066  -1.445  1.00  0.00     0.286 C 
HETATM   11  O1  UNL     1      -1.287  -0.981  -2.050  1.00  0.00    -0.265 OA
HETATM   12  N1  UNL     1      -2.701   0.846  -1.944  1.00  0.00    -0.152 N 
ATOM     13  H1  UNL     1      -2.505   1.565  -2.640  1.00  0.00     0.188 HD
BRANCH  12  14
HETATM   14  C6  UNL     1      -3.916   0.680  -1.552  1.00  0.00     0.713 A 
HETATM   15  N2  UNL     1      -4.957   1.416  -2.019  1.00  0.00    -0.118 N 
HETATM   16  N3  UNL     1      -6.077   1.026  -1.440  1.00  0.00    -0.212 N 
ATOM     17  H2  UNL     1      -4.884   2.159  -2.714  1.00  0.00     0.207 HD
HETATM   18  N4  UNL     1      -5.758   0.048  -0.609  1.00  0.00     0.009 NA
ATOM     19  H3  UNL     1      -7.010   1.406  -1.602  1.00  0.00     0.206 HD
HETATM   20  N5  UNL     1      -4.448  -0.169  -0.670  1.00  0.00    -0.113 N 
ATOM     21  H5  UNL     1      -3.935  -0.868  -0.132  1.00  0.00     0.203 HD
ENDBRANCH  12  14
ENDBRANCH   4  10
BRANCH   7  22
HETATM   22  S1  UNL     1       2.341  -1.125   1.888  1.00  0.00    -0.085 SA
BRANCH  22  23
HETATM   23  C8  UNL     1       2.849  -2.266   0.598  1.00  0.00     0.186 C 
BRANCH  23  24
HETATM   24  C9  UNL     1       3.534  -1.519  -0.474  1.00  0.00     0.245 C 
HETATM   25  O2  UNL     1       2.931  -1.143  -1.486  1.00  0.00    -0.271 OA
HETATM   26  N7  UNL     1       4.916  -1.236  -0.320  1.00  0.00    -0.276 N 
ATOM     27  H7  UNL     1       5.412  -1.546   0.515  1.00  0.00     0.189 HD
BRANCH  26  28
HETATM   28  N8  UNL     1       5.594  -0.530  -1.318  1.00  0.00    -0.343 N 
ATOM     29  H82 UNL     1       5.083  -0.227  -2.147  1.00  0.00     0.176 HD
ATOM     30  H81 UNL     1       6.587  -0.327  -1.207  1.00  0.00     0.176 HD
ENDBRANCH  26  28
ENDBRANCH  23  24
ENDBRANCH  22  23
ENDBRANCH   7  22
TORSDOF 6
