REMARK  11 active torsions:
REMARK  status: ('A' for Active; 'I' for Inactive)
REMARK    1  A    between atoms: N1_1  and  C1_4 
REMARK    2  A    between atoms: N4_12  and  C5_13 
REMARK    3  A    between atoms: C5_13  and  C6_14 
REMARK    4  A    between atoms: C6_14  and  C7_15 
REMARK    5  A    between atoms: C6_14  and  N6_21 
REMARK    6  A    between atoms: C7_15  and  S1_16 
REMARK    7  A    between atoms: S1_16  and  C8_17 
REMARK    8  A    between atoms: C8_17  and  C9_18 
REMARK    9  A    between atoms: N6_21  and  C10_22 
REMARK   10  A    between atoms: N9_27  and  N10_28 
REMARK   11  A    between atoms: C15_38  and  N14_39 
ROOT
HETATM    1  C1  UNL     1       6.839   1.809   0.341  1.00  0.00     0.693 A 
HETATM    2  N2  UNL     1       6.061   1.548  -0.735  1.00  0.00    -0.171 N 
ATOM      3  H2  UNL     1       6.300   1.778  -1.700  1.00  0.00     0.186 HD
HETATM    4  C2  UNL     1       4.926   0.940  -0.345  1.00  0.00     0.191 A 
HETATM    5  C3  UNL     1       3.795   0.450  -0.965  1.00  0.00     0.126 A 
HETATM    6  N3  UNL     1       3.445   0.416  -2.267  1.00  0.00    -0.346 N 
ATOM      7  H3  UNL     1       4.002   0.780  -3.040  1.00  0.00     0.167 HD
HETATM    8  C4  UNL     1       2.243  -0.175  -2.381  1.00  0.00     0.185 A 
HETATM    9  N4  UNL     1       1.789  -0.537  -1.144  1.00  0.00    -0.324 N 
HETATM   10  C14 UNL     1       2.751  -0.147  -0.287  1.00  0.00     0.155 A 
HETATM   11  N13 UNL     1       2.884  -0.239   1.063  1.00  0.00    -0.172 N 
ATOM     12  H13 UNL     1       2.145  -0.671   1.618  1.00  0.00     0.186 HD
HETATM   13  C15 UNL     1       3.985   0.237   1.670  1.00  0.00     0.701 A 
HETATM   14  N15 UNL     1       4.997   0.819   0.991  1.00  0.00    -0.053 N 
HETATM   15  N16 UNL     1       6.147   1.342   1.396  1.00  0.00    -0.109 N 
ATOM     16  H16 UNL     1       6.461   1.384   2.366  1.00  0.00     0.207 HD
ENDROOT
BRANCH   9  17
HETATM   17  C5  UNL     1       0.525  -1.177  -0.886  1.00  0.00     0.171 C 
BRANCH  17  18
HETATM   18  C6  UNL     1      -0.619  -0.189  -0.769  1.00  0.00     0.191 C 
BRANCH  18  19
HETATM   19  C7  UNL     1      -0.364   0.800   0.380  1.00  0.00     0.115 C 
BRANCH  19  20
HETATM   20  S1  UNL     1      -1.836   1.882   0.389  1.00  0.00    -0.157 SA
BRANCH  20  21
HETATM   21  C8  UNL     1      -1.933   2.877  -1.098  1.00  0.00     0.173 C 
BRANCH  21  22
HETATM   22  C9  UNL     1      -0.858   3.877  -1.229  1.00  0.00     0.240 C 
HETATM   23  N5  UNL     1       0.187   4.103  -0.317  1.00  0.00    -0.061 NA
HETATM   24  O1  UNL     1      -0.900   4.597  -2.276  1.00  0.00    -0.276 OA
ENDBRANCH  21  22
ENDBRANCH  20  21
ENDBRANCH  19  20
ENDBRANCH  18  19
BRANCH  18  25
HETATM   25  N6  UNL     1      -1.830  -0.731  -0.670  1.00  0.00    -0.435 NA
BRANCH  25  26
HETATM   26  C10 UNL     1      -2.857  -1.301  -0.416  1.00  0.00     0.170 A 
HETATM   27  C11 UNL     1      -4.009  -1.226  -1.233  1.00  0.00     0.175 A 
HETATM   28  N7  UNL     1      -3.947  -0.437  -2.410  1.00  0.00    -0.077 NA
HETATM   29  N8  UNL     1      -5.144  -1.864  -0.942  1.00  0.00    -0.263 N 
HETATM   30  N9  UNL     1      -5.280  -2.613   0.129  1.00  0.00    -0.186 N 
ATOM     31  H8  UNL     1      -5.937  -1.767  -1.576  1.00  0.00     0.190 HD
HETATM   32  C12 UNL     1      -4.230  -2.733   0.952  1.00  0.00     0.183 A 
HETATM   33  N11 UNL     1      -4.397  -3.544   2.100  1.00  0.00    -0.077 NA
HETATM   34  C13 UNL     1      -3.023  -2.106   0.721  1.00  0.00     0.134 A 
HETATM   35  N12 UNL     1      -1.947  -2.275   1.639  1.00  0.00    -0.095 NA
BRANCH  30  36
HETATM   36  N10 UNL     1      -6.473  -3.263   0.402  1.00  0.00    -0.323 N 
ATOM     37 2H10 UNL     1      -7.273  -3.172  -0.225  1.00  0.00     0.179 HD
ATOM     38 1H10 UNL     1      -6.579  -3.844   1.233  1.00  0.00     0.179 HD
ENDBRANCH  30  36
ENDBRANCH  25  26
ENDBRANCH  18  25
ENDBRANCH  17  18
ENDBRANCH   9  17
BRANCH  13  39
HETATM   39  N14 UNL     1       4.085   0.135   2.965  1.00  0.00    -0.233 N 
ATOM     40 2H14 UNL     1       3.321  -0.305   3.478  1.00  0.00     0.174 HD
ATOM     41 1H14 UNL     1       4.920   0.496   3.426  1.00  0.00     0.174 HD
ENDBRANCH  13  39
BRANCH   1  42
HETATM   42  N1  UNL     1       8.010   2.392   0.334  1.00  0.00    -0.233 N 
ATOM     43  H12 UNL     1       8.535   2.746  -0.466  1.00  0.00     0.174 HD
ATOM     44  H11 UNL     1       8.596   2.589   1.145  1.00  0.00     0.174 HD
ENDBRANCH   1  42
TORSDOF 11
