REMARK  15 active torsions:
REMARK  status: ('A' for Active; 'I' for Inactive)
REMARK    1  A    between atoms: S1_2  and  C2_3 
REMARK    2  A    between atoms: N1_5  and  O1_6 
REMARK    3  A    between atoms: N2_10  and  C5_11 
REMARK    4  A    between atoms: C5_11  and  C6_12 
REMARK    5  A    between atoms: C5_11  and  C7_17 
REMARK    6  A    between atoms: C6_12  and  N3_13 
REMARK    7  A    between atoms: C7_17  and  O3_18 
REMARK    8  A    between atoms: C7_17  and  C8_20 
REMARK    9  A    between atoms: C8_20  and  N4_21 
REMARK   10  A    between atoms: N4_21  and  O4_22 
REMARK   11  A    between atoms: N4_21  and  C9_24 
REMARK   12  A    between atoms: C11_28  and  O5_29 
REMARK   13  A    between atoms: N6_31  and  N7_32 
REMARK   14  A    between atoms: C12_35  and  N8_36 
REMARK   15  A    between atoms: C15_44  and  N11_45 
ROOT
HETATM    1  C9  UNL     1       2.021  -1.201  -0.076  1.00  0.00     0.172 A 
HETATM    2  N5  UNL     1       2.529  -0.008  -0.452  1.00  0.00    -0.331 N 
ATOM      3  H5  UNL     1       1.915   0.800  -0.553  1.00  0.00     0.168 HD
HETATM    4  C10 UNL     1       3.864   0.115  -0.697  1.00  0.00     0.133 A 
HETATM    5  C11 UNL     1       4.400   1.325  -1.082  1.00  0.00     0.210 A 
HETATM    6  N6  UNL     1       5.711   1.414  -1.314  1.00  0.00    -0.068 N 
HETATM    7  C12 UNL     1       6.514   0.332  -1.176  1.00  0.00     0.700 A 
HETATM    8  N9  UNL     1       5.975  -0.847  -0.799  1.00  0.00    -0.172 N 
ATOM      9  H9  UNL     1       6.586  -1.657  -0.698  1.00  0.00     0.186 HD
HETATM   10  C13 UNL     1       4.651  -0.993  -0.550  1.00  0.00     0.156 A 
HETATM   11  N10 UNL     1       4.182  -2.200  -0.177  1.00  0.00    -0.319 N 
HETATM   12  C14 UNL     1       5.052  -3.352  -0.033  1.00  0.00     0.159 C 
HETATM   13  C15 UNL     1       2.846  -2.295   0.061  1.00  0.00     0.149 A 
ENDROOT
BRANCH   1  14
HETATM   14  N4  UNL     1       0.630  -1.326   0.178  1.00  0.00    -0.238 N 
BRANCH  14  15
HETATM   15  C8  UNL     1      -0.297  -0.225   0.052  1.00  0.00     0.191 C 
BRANCH  15  16
HETATM   16  C7  UNL     1      -0.941  -0.023   1.430  1.00  0.00     0.163 C 
BRANCH  16  17
HETATM   17  C5  UNL     1      -1.876   1.155   1.398  1.00  0.00     0.144 C 
BRANCH  17  18
HETATM   18  N2  UNL     1      -2.987   0.947   0.496  1.00  0.00    -0.322 N 
HETATM   19  C4  UNL     1      -3.121   1.847  -0.594  1.00  0.00     0.344 C 
HETATM   20  N1  UNL     1      -4.244   1.775  -1.471  1.00  0.00    -0.209 N 
HETATM   21  O2  UNL     1      -2.228   2.740  -0.803  1.00  0.00    -0.245 OA
HETATM   22  C3  UNL     1      -5.442   1.123  -1.032  1.00  0.00     0.177 C 
HETATM   23  C2  UNL     1      -5.325   0.515   0.336  1.00  0.00     0.085 C 
HETATM   24  C16 UNL     1      -3.965  -0.087   0.604  1.00  0.00     0.145 C 
BRANCH  20  25
HETATM   25  O1  UNL     1      -4.209   2.307  -2.709  1.00  0.00    -0.283 OA
ATOM     26  H1  UNL     1      -3.415   2.739  -3.000  1.00  0.00     0.245 HD
ENDBRANCH  20  25
BRANCH  23  27
HETATM   27  S1  UNL     1      -6.568  -0.764   0.539  1.00  0.00    -0.165 SA
HETATM   28  C1  UNL     1      -6.307  -2.176  -0.538  1.00  0.00     0.090 C 
ENDBRANCH  23  27
ENDBRANCH  17  18
BRANCH  17  29
HETATM   29  C6  UNL     1      -2.389   1.399   2.798  1.00  0.00     0.257 C 
BRANCH  29  30
HETATM   30  N3  UNL     1      -1.314   1.618   3.706  1.00  0.00    -0.077 N 
ATOM     31  H33 UNL     1      -0.639   0.854   3.681  1.00  0.00     0.274 HD
ATOM     32  H32 UNL     1      -0.705   2.373   3.392  1.00  0.00     0.274 HD
ATOM     33  H31 UNL     1      -1.660   1.783   4.651  1.00  0.00     0.274 HD
ENDBRANCH  29  30
ENDBRANCH  17  29
ENDBRANCH  16  17
BRANCH  16  34
HETATM   34  O3  UNL     1       0.101   0.264   2.300  1.00  0.00    -0.392 OA
ATOM     35  H3  UNL     1       0.691  -0.480   2.320  1.00  0.00     0.210 HD
ENDBRANCH  16  34
ENDBRANCH  15  16
ENDBRANCH  14  15
BRANCH  14  36
HETATM   36  O4  UNL     1       0.127  -2.517   0.556  1.00  0.00    -0.286 OA
ATOM     37  H4  UNL     1       0.737  -3.241   0.639  1.00  0.00     0.244 HD
ENDBRANCH  14  36
ENDBRANCH   1  14
BRANCH  13  38
HETATM   38  N11 UNL     1       2.339  -3.434   0.423  1.00  0.00    -0.382 N 
ATOM     39 2H11 UNL     1       1.337  -3.505   0.601  1.00  0.00     0.157 HD
ATOM     40 1H11 UNL     1       2.950  -4.244   0.524  1.00  0.00     0.157 HD
ENDBRANCH  13  38
BRANCH   5  41
HETATM   41  O5  UNL     1       3.621   2.462  -1.237  1.00  0.00    -0.343 OA
ATOM     42  H5  UNL     1       3.990   3.296  -1.502  1.00  0.00     0.219 HD
ENDBRANCH   5  41
BRANCH   6  43
HETATM   43  N7  UNL     1       6.310   2.607  -1.704  1.00  0.00    -0.322 N 
ATOM     44  H72 UNL     1       5.705   3.422  -1.808  1.00  0.00     0.178 HD
ATOM     45  H71 UNL     1       7.312   2.675  -1.881  1.00  0.00     0.178 HD
ENDBRANCH   6  43
BRANCH   7  46
HETATM   46  N8  UNL     1       7.781   0.435  -1.406  1.00  0.00    -0.233 N 
ATOM     47  H82 UNL     1       8.188   1.326  -1.691  1.00  0.00     0.174 HD
ATOM     48  H81 UNL     1       8.386  -0.380  -1.302  1.00  0.00     0.174 HD
ENDBRANCH   7  46
TORSDOF 15
