REMARK  14 active torsions:
REMARK  status: ('A' for Active; 'I' for Inactive)
REMARK    1  A    between atoms: N1_1  and  C1_4 
REMARK    2  A    between atoms: N2_6  and  C2_7 
REMARK    3  A    between atoms: C2_7  and  C3_8 
REMARK    4  A    between atoms: C2_7  and  C4_11 
REMARK    5  A    between atoms: C3_8  and  O1_9 
REMARK    6  A    between atoms: C4_11  and  O2_12 
REMARK    7  A    between atoms: C4_11  and  C5_14 
REMARK    8  A    between atoms: C4_11  and  C6_17 
REMARK    9  A    between atoms: C5_14  and  O3_15 
REMARK   10  A    between atoms: C6_17  and  O4_18 
REMARK   11  A    between atoms: O4_18  and  N3_19 
REMARK   12  A    between atoms: C8_23  and  N4_24 
REMARK       I    between atoms: N4_24  and  C9_26 
REMARK   13  A    between atoms: C9_26  and  C10_28 
REMARK   14  A    between atoms: C13_36  and  C14_37 
ROOT
HETATM    1  C1  UNL     1      -1.237  -2.355   0.151  1.00  0.00     0.113 A 
HETATM    2  S1  UNL     1      -2.890  -2.117  -0.172  1.00  0.00     0.008 SA
HETATM    3  N2  UNL     1      -2.866  -0.507  -0.606  1.00  0.00    -0.314 N 
HETATM    4  C7  UNL     1      -1.581  -0.163  -0.498  1.00  0.00     0.132 A 
HETATM    5  C8  UNL     1      -0.691  -1.087  -0.108  1.00  0.00     0.086 A 
ENDROOT
BRANCH   5   6
HETATM    6  N4  UNL     1       0.715  -0.909   0.063  1.00  0.00    -0.318 N 
HETATM    7  C9  UNL     1       1.393   0.297  -0.158  1.00  0.00     0.280 C 
HETATM    8  O5  UNL     1       0.832   1.337  -0.527  1.00  0.00    -0.265 OA
ATOM      9  H4  UNL     1       1.263  -1.714   0.367  1.00  0.00     0.169 HD
BRANCH   7  10
HETATM   10  C10 UNL     1       2.878   0.359   0.057  1.00  0.00     0.146 A 
HETATM   11  N5  UNL     1       3.708  -0.582   0.443  1.00  0.00    -0.330 N 
HETATM   12  C11 UNL     1       4.987  -0.305   0.567  1.00  0.00     0.142 A 
ATOM     13  H5  UNL     1       3.363  -1.520   0.645  1.00  0.00     0.168 HD
HETATM   14  N6  UNL     1       5.967  -1.195   0.961  1.00  0.00    -0.327 N 
HETATM   15  C15 UNL     1       5.381   0.973   0.282  1.00  0.00     0.121 A 
HETATM   16  C12 UNL     1       7.217  -0.780   1.044  1.00  0.00     0.150 A 
ATOM     17  H6  UNL     1       5.728  -2.161   1.185  1.00  0.00     0.168 HD
HETATM   18  N7  UNL     1       8.261  -1.687   1.453  1.00  0.00    -0.080 NA
HETATM   19  C13 UNL     1       7.663   0.501   0.766  1.00  0.00     0.140 A 
HETATM   20  N9  UNL     1       6.689   1.370   0.378  1.00  0.00    -0.341 N 
ATOM     21  H9  UNL     1       6.938   2.334   0.155  1.00  0.00     0.167 HD
HETATM   22  S2  UNL     1       3.898   1.704  -0.149  1.00  0.00    -0.045 SA
BRANCH  19  23
HETATM   23  C14 UNL     1       9.039   0.903   0.871  1.00  0.00     0.284 C 
HETATM   24  N8  UNL     1       9.509   2.206   0.591  1.00  0.00    -0.056 NA
HETATM   25  O6  UNL     1       9.887   0.050   1.235  1.00  0.00    -0.269 OA
ENDBRANCH  19  23
ENDBRANCH   7  10
ENDBRANCH   5   6
BRANCH   1  26
HETATM   26  N1  UNL     1      -0.625  -3.445   0.543  1.00  0.00    -0.391 N 
ATOM     27  H12 UNL     1      -1.021  -4.366   0.731  1.00  0.00     0.157 HD
ATOM     28  H11 UNL     1       0.366  -3.588   0.737  1.00  0.00     0.157 HD
ENDBRANCH   1  26
BRANCH   3  29
HETATM   29  C2  UNL     1      -3.984   0.382  -1.021  1.00  0.00     0.159 C 
BRANCH  29  30
HETATM   30  C3  UNL     1      -4.227   0.010  -2.470  1.00  0.00     0.193 C 
BRANCH  30  31
HETATM   31  O1  UNL     1      -3.039   0.252  -3.183  1.00  0.00    -0.399 OA
ATOM     32  H1  UNL     1      -3.191   0.019  -4.091  1.00  0.00     0.209 HD
ENDBRANCH  30  31
ENDBRANCH  29  30
BRANCH  29  33
HETATM   33  C4  UNL     1      -5.181   0.055  -0.202  1.00  0.00     0.126 C 
BRANCH  33  34
HETATM   34  O2  UNL     1      -5.535  -1.268  -0.412  1.00  0.00    -0.383 OA
ATOM     35  H2  UNL     1      -6.300  -1.477   0.111  1.00  0.00     0.210 HD
ENDBRANCH  33  34
BRANCH  33  36
HETATM   36  C5  UNL     1      -6.336   0.922  -0.634  1.00  0.00     0.206 C 
BRANCH  36  37
HETATM   37  O3  UNL     1      -6.034   2.292  -0.455  1.00  0.00    -0.398 OA
ATOM     38  H3  UNL     1      -6.762   2.838  -0.727  1.00  0.00     0.209 HD
ENDBRANCH  36  37
ENDBRANCH  33  36
BRANCH  33  39
HETATM   39  C6  UNL     1      -4.970   0.349   1.273  1.00  0.00     0.242 C 
BRANCH  39  40
HETATM   40  O4  UNL     1      -6.159   0.089   1.967  1.00  0.00    -0.284 OA
BRANCH  40  41
HETATM   41  N3  UNL     1      -6.038   0.330   3.276  1.00  0.00    -0.311 N 
ATOM     42  H32 UNL     1      -5.175   0.664   3.704  1.00  0.00     0.184 HD
ATOM     43  H31 UNL     1      -6.904   0.141   3.781  1.00  0.00     0.184 HD
ENDBRANCH  40  41
ENDBRANCH  39  40
ENDBRANCH  33  39
ENDBRANCH  29  33
ENDBRANCH   3  29
TORSDOF 14
