REMARK  14 active torsions:
REMARK  status: ('A' for Active; 'I' for Inactive)
REMARK    1  A    between atoms: N1_2  and  C2_4 
REMARK    2  A    between atoms: C3_5  and  O1_6 
REMARK    3  A    between atoms: O1_6  and  C4_7 
REMARK    4  A    between atoms: C5_9  and  S1_10 
REMARK    5  A    between atoms: S1_10  and  C6_11 
REMARK    6  A    between atoms: C7_15  and  N3_16 
REMARK    7  A    between atoms: C8_20  and  O3_21 
REMARK    8  A    between atoms: C9_23  and  O4_24 
REMARK    9  A    between atoms: C10_30  and  C11_31 
REMARK   10  A    between atoms: C11_31  and  S2_32 
REMARK   11  A    between atoms: S2_32  and  C12_33 
REMARK   12  A    between atoms: C13_36  and  N8_37 
REMARK   13  A    between atoms: C14_41  and  O5_42 
REMARK   14  A    between atoms: C15_44  and  O6_45 
ROOT
HETATM    1  C2  UNL     1      -0.229   0.308  -1.574  1.00  0.00     0.157 C 
HETATM    2  C3  UNL     1      -0.732   0.598  -0.163  1.00  0.00     0.263 C 
HETATM    3  N4  UNL     1       0.359   1.077   0.597  1.00  0.00    -0.309 N 
ATOM      4  H4  UNL     1       0.198   1.811   1.286  1.00  0.00     0.182 HD
HETATM    5  N5  UNL     1       1.488   0.637   0.452  1.00  0.00    -0.330 N 
ATOM      6  H5  UNL     1       2.216   1.040   1.042  1.00  0.00     0.180 HD
HETATM    7  C10 UNL     1       1.894  -0.387  -0.461  1.00  0.00     0.139 C 
HETATM    8  C15 UNL     1       0.775  -0.837  -1.376  1.00  0.00     0.169 C 
ENDROOT
BRANCH   2   9
HETATM    9  O1  UNL     1      -1.854   1.379  -0.155  1.00  0.00    -0.331 OA
BRANCH   9  10
HETATM   10  C4  UNL     1      -2.957   0.722   0.314  1.00  0.00     0.295 C 
HETATM   11  O2  UNL     1      -3.954   0.683  -0.657  1.00  0.00    -0.340 OA
HETATM   12  C5  UNL     1      -4.935  -0.241  -0.397  1.00  0.00     0.224 C 
HETATM   13  C7  UNL     1      -5.432  -0.320   1.000  1.00  0.00     0.253 C 
HETATM   14  C8  UNL     1      -4.582   0.301   2.051  1.00  0.00     0.185 C 
HETATM   15  C9  UNL     1      -3.613   1.353   1.523  1.00  0.00     0.204 C 
BRANCH  12  16
HETATM   16  S1  UNL     1      -4.480  -1.895  -1.046  1.00  0.00    -0.091 SA
BRANCH  16  17
HETATM   17  C6  UNL     1      -5.830  -2.992  -0.662  1.00  0.00     0.129 C 
HETATM   18  N2  UNL     1      -7.024  -2.733  -1.018  1.00  0.00    -0.403 N 
ATOM     19  H22 UNL     1      -7.195  -1.871  -1.536  1.00  0.00     0.155 HD
ATOM     20  H21 UNL     1      -7.797  -3.361  -0.798  1.00  0.00     0.155 HD
ENDBRANCH  16  17
ENDBRANCH  12  16
BRANCH  13  21
HETATM   21  N3  UNL     1      -6.837   0.104   1.109  1.00  0.00    -0.069 N 
ATOM     22  H33 UNL     1      -6.974   1.037   0.719  1.00  0.00     0.275 HD
ATOM     23  H32 UNL     1      -7.434  -0.425   0.473  1.00  0.00     0.275 HD
ATOM     24  H31 UNL     1      -7.178   0.050   2.069  1.00  0.00     0.275 HD
ENDBRANCH  13  21
BRANCH  14  25
HETATM   25  O3  UNL     1      -5.385   0.814   3.058  1.00  0.00    -0.391 OA
ATOM     26  H3  UNL     1      -4.842   1.211   3.729  1.00  0.00     0.210 HD
ENDBRANCH  14  25
BRANCH  15  27
HETATM   27  O4  UNL     1      -2.700   1.622   2.537  1.00  0.00    -0.388 OA
ATOM     28  H4  UNL     1      -3.112   2.018   3.296  1.00  0.00     0.210 HD
ENDBRANCH  15  27
ENDBRANCH   9  10
ENDBRANCH   2   9
BRANCH   1  29
HETATM   29  N1  UNL     1       0.479   1.397  -2.147  1.00  0.00    -0.415 N 
HETATM   30  C1  UNL     1      -0.253   2.603  -2.337  1.00  0.00     0.140 C 
ATOM     31  H1  UNL     1       1.462   1.319  -2.409  1.00  0.00     0.153 HD
ENDBRANCH   1  29
BRANCH   8  32
HETATM   32  O6  UNL     1       0.088  -1.847  -0.704  1.00  0.00    -0.391 OA
ATOM     33  H6  UNL     1       0.709  -2.555  -0.582  1.00  0.00     0.210 HD
ENDBRANCH   8  32
BRANCH   7  34
HETATM   34  C11 UNL     1       2.436  -1.526   0.361  1.00  0.00     0.105 C 
BRANCH  34  35
HETATM   35  S2  UNL     1       3.842  -1.018   1.366  1.00  0.00    -0.141 SA
BRANCH  35  36
HETATM   36  C12 UNL     1       5.227  -0.620   0.322  1.00  0.00     0.188 C 
HETATM   37  N6  UNL     1       5.094   0.535  -0.498  1.00  0.00    -0.128 NA
HETATM   38  N7  UNL     1       6.366   0.983  -0.837  1.00  0.00    -0.111 NA
HETATM   39  C13 UNL     1       7.334   0.288  -0.030  1.00  0.00     0.322 C 
HETATM   40  C14 UNL     1       6.485  -0.260   1.126  1.00  0.00     0.196 C 
BRANCH  39  41
HETATM   41  N8  UNL     1       8.408   1.119   0.419  1.00  0.00    -0.058 N 
ATOM     42  H83 UNL     1       8.861   1.580  -0.370  1.00  0.00     0.276 HD
ATOM     43  H82 UNL     1       8.049   1.937   0.911  1.00  0.00     0.276 HD
ATOM     44  H81 UNL     1       9.094   0.626   0.991  1.00  0.00     0.276 HD
ENDBRANCH  39  41
BRANCH  40  45
HETATM   45  O5  UNL     1       7.055  -1.360   1.724  1.00  0.00    -0.390 OA
ATOM     46  H5  UNL     1       7.833  -1.137   2.221  1.00  0.00     0.210 HD
ENDBRANCH  40  45
ENDBRANCH  35  36
ENDBRANCH  34  35
ENDBRANCH   7  34
TORSDOF 14
