REMARK  15 active torsions:
REMARK  status: ('A' for Active; 'I' for Inactive)
REMARK    1  A    between atoms: C2_2  and  N1_3 
REMARK    2  A    between atoms: C2_2  and  C11_31 
REMARK    3  A    between atoms: N1_3  and  C3_6 
REMARK    4  A    between atoms: C3_6  and  C4_7 
REMARK    5  A    between atoms: C6_11  and  N3_12 
REMARK    6  A    between atoms: C7_17  and  N5_18 
REMARK    7  A    between atoms: C11_31  and  N13_44 
REMARK    8  A    between atoms: N10_32  and  O1_34 
REMARK    9  A    between atoms: O1_34  and  S1_35 
REMARK   10  A    between atoms: S1_35  and  N11_37 
REMARK   11  A    between atoms: S1_35  and  O4_41 
REMARK   12  A    between atoms: N11_37  and  O3_39 
REMARK   13  A    between atoms: N13_44  and  C13_46 
REMARK   14  A    between atoms: C13_46  and  N14_47 
REMARK   15  A    between atoms: C13_46  and  O5_51 
ROOT
HETATM    1  O4  UNL     1      -7.166   1.750  -0.110  1.00  0.00    -0.147 OA
HETATM    2  C12 UNL     1      -7.137   1.297  -1.380  1.00  0.00     0.245 C 
HETATM    3  N12 UNL     1      -7.119   0.893  -2.466  1.00  0.00    -0.163 NA
ENDROOT
BRANCH   1   4
HETATM    4  S1  UNL     1      -5.925   1.567   1.010  1.00  0.00     0.332 S 
HETATM    5  O2  UNL     1      -6.005   2.713   1.979  1.00  0.00    -0.186 OA
BRANCH   4   6
HETATM    6  O1  UNL     1      -4.392   1.548   0.282  1.00  0.00    -0.142 OA
BRANCH   6   7
HETATM    7  N10 UNL     1      -3.237   1.316   0.941  1.00  0.00    -0.234 N 
HETATM    8  C11 UNL     1      -2.486   0.285   0.774  1.00  0.00     0.132 C 
ATOM      9  H10 UNL     1      -2.937   2.012   1.624  1.00  0.00     0.197 HD
BRANCH   8  10
HETATM   10  C2  UNL     1      -1.223   0.057   1.512  1.00  0.00     0.251 C 
HETATM   11  C1  UNL     1      -1.370  -1.250   2.265  1.00  0.00     0.048 C 
BRANCH  10  12
HETATM   12  N1  UNL     1      -0.060   0.050   0.629  1.00  0.00    -0.059 N 
ATOM     13  H12 UNL     1      -0.120  -0.657  -0.104  1.00  0.00     0.278 HD
ATOM     14  H11 UNL     1      -0.016   0.868   0.021  1.00  0.00     0.278 HD
BRANCH  12  15
HETATM   15  C3  UNL     1       1.095  -0.096   1.452  1.00  0.00     0.294 C 
BRANCH  15  16
HETATM   16  C4  UNL     1       2.373  -0.119   0.713  1.00  0.00     0.082 A 
HETATM   17  N2  UNL     1       2.484  -0.014  -0.616  1.00  0.00    -0.349 N 
HETATM   18  C5  UNL     1       3.736  -0.051  -1.162  1.00  0.00     0.124 A 
ATOM     19  H2  UNL     1       1.658   0.091  -1.205  1.00  0.00     0.166 HD
HETATM   20  C6  UNL     1       3.925   0.052  -2.519  1.00  0.00     0.145 A 
HETATM   21  C8  UNL     1       4.863  -0.192  -0.379  1.00  0.00     0.175 A 
HETATM   22  N4  UNL     1       5.182   0.011  -3.017  1.00  0.00    -0.175 N 
HETATM   23  C7  UNL     1       6.272  -0.126  -2.251  1.00  0.00     0.679 A 
ATOM     24  H4  UNL     1       5.306   0.088  -4.026  1.00  0.00     0.186 HD
HETATM   25  N6  UNL     1       6.105  -0.229  -0.916  1.00  0.00    -0.172 N 
ATOM     26  H6  UNL     1       6.918  -0.335  -0.309  1.00  0.00     0.186 HD
HETATM   27  N7  UNL     1       4.747  -0.298   0.955  1.00  0.00    -0.218 N 
HETATM   28  N8  UNL     1       5.666  -0.440   1.910  1.00  0.00    -0.286 N 
HETATM   29  C10 UNL     1       3.526  -0.262   1.486  1.00  0.00     0.154 A 
HETATM   30  C9  UNL     1       5.030  -0.496   3.073  1.00  0.00     0.199 A 
ATOM     31  H8  UNL     1       6.675  -0.496   1.772  1.00  0.00     0.188 HD
HETATM   32  N9  UNL     1       3.718  -0.388   2.824  1.00  0.00    -0.334 N 
ATOM     33  H9  UNL     1       2.980  -0.399   3.528  1.00  0.00     0.168 HD
BRANCH  20  34
HETATM   34  N3  UNL     1       2.926   0.185  -3.309  1.00  0.00    -0.383 N 
ATOM     35  H32 UNL     1       1.978   0.216  -2.933  1.00  0.00     0.157 HD
ATOM     36  H31 UNL     1       3.066   0.261  -4.316  1.00  0.00     0.157 HD
ENDBRANCH  20  34
BRANCH  23  37
HETATM   37  N5  UNL     1       7.475  -0.167  -2.696  1.00  0.00    -0.234 N 
ATOM     38  H52 UNL     1       7.601  -0.089  -3.705  1.00  0.00     0.174 HD
ATOM     39  H51 UNL     1       8.305  -0.271  -2.113  1.00  0.00     0.174 HD
ENDBRANCH  23  37
ENDBRANCH  15  16
ENDBRANCH  12  15
ENDBRANCH  10  12
ENDBRANCH   8  10
BRANCH   8  40
HETATM   40  N13 UNL     1      -2.894  -0.689  -0.174  1.00  0.00    -0.328 N 
ATOM     41  H13 UNL     1      -3.566  -1.406   0.098  1.00  0.00     0.165 HD
BRANCH  40  42
HETATM   42  C13 UNL     1      -2.373  -0.678  -1.511  1.00  0.00     0.424 C 
BRANCH  42  43
HETATM   43  N14 UNL     1      -2.679   0.565  -2.206  1.00  0.00    -0.035 N 
ATOM     44 3H14 UNL     1      -3.681   0.757  -2.198  1.00  0.00     0.279 HD
ATOM     45 2H14 UNL     1      -2.356   1.374  -1.676  1.00  0.00     0.279 HD
ATOM     46 1H14 UNL     1      -2.309   0.573  -3.156  1.00  0.00     0.279 HD
ENDBRANCH  42  43
BRANCH  42  47
HETATM   47  O5  UNL     1      -2.994  -1.700  -2.252  1.00  0.00    -0.355 OA
ATOM     48  H5  UNL     1      -2.649  -1.693  -3.137  1.00  0.00     0.213 HD
ENDBRANCH  42  47
ENDBRANCH  40  42
ENDBRANCH   8  40
ENDBRANCH   6   7
ENDBRANCH   4   6
BRANCH   4  49
HETATM   49  N11 UNL     1      -6.195   0.256   1.840  1.00  0.00    -0.181 N 
ATOM     50  H11 UNL     1      -5.623  -0.582   1.733  1.00  0.00     0.208 HD
BRANCH  49  51
HETATM   51  O3  UNL     1      -7.260   0.314   2.725  1.00  0.00    -0.279 OA
ATOM     52  H3  UNL     1      -7.423  -0.477   3.226  1.00  0.00     0.245 HD
ENDBRANCH  49  51
ENDBRANCH   4  49
ENDBRANCH   1   4
TORSDOF 15
