REMARK  14 active torsions:
REMARK  status: ('A' for Active; 'I' for Inactive)
REMARK    1  A    between atoms: C3_3  and  O1_4 
REMARK    2  A    between atoms: C4_6  and  C5_7 
REMARK    3  A    between atoms: C5_7  and  C6_8 
REMARK       I    between atoms: C6_8  and  N1_10 
REMARK    4  A    between atoms: N1_10  and  C7_12 
REMARK    5  A    between atoms: N2_22  and  C17_23 
REMARK    6  A    between atoms: C17_23  and  C18_24 
REMARK    7  A    between atoms: C18_24  and  C19_26 
REMARK    8  A    between atoms: C19_26  and  C20_27 
REMARK    9  A    between atoms: C19_26  and  N4_35 
REMARK   10  A    between atoms: C20_27  and  C21_28 
REMARK   11  A    between atoms: C21_28  and  C22_29 
REMARK   12  A    between atoms: C22_29  and  C23_30 
REMARK   13  A    between atoms: C23_30  and  N3_31 
REMARK       I    between atoms: N4_35  and  C24_36 
REMARK   14  A    between atoms: C24_36  and  C25_38 
ROOT
HETATM    1  C1  UNL     1      -0.154  -1.261  -0.667  1.00  0.00     0.071 C 
HETATM    2  C2  UNL     1       0.324  -0.556   0.567  1.00  0.00     0.041 C 
HETATM    3  C3  UNL     1       1.744  -0.834   0.789  1.00  0.00     0.070 C 
HETATM    4  C4  UNL     1       2.740  -0.797  -0.322  1.00  0.00     0.053 C 
HETATM    5  C13 UNL     1       2.521   0.285  -1.328  1.00  0.00     0.012 C 
HETATM    6  C14 UNL     1       2.518   1.686  -0.811  1.00  0.00     0.006 C 
HETATM    7  C15 UNL     1       1.084   2.164  -0.706  1.00  0.00     0.045 C 
HETATM    8  C16 UNL     1       0.634   1.854   0.718  1.00  0.00     0.069 C 
HETATM    9  N2  UNL     1      -0.179   0.710   0.706  1.00  0.00    -0.334 N 
ENDROOT
BRANCH   9  10
HETATM   10  C17 UNL     1      -1.543   0.909   0.420  1.00  0.00     0.149 C 
BRANCH  10  11
HETATM   11  C18 UNL     1      -2.536   0.290   1.299  1.00  0.00     0.200 C 
HETATM   12  O3  UNL     1      -2.193  -0.449   2.212  1.00  0.00    -0.288 OA
BRANCH  11  13
HETATM   13  C19 UNL     1      -4.049   0.518   1.134  1.00  0.00     0.241 C 
BRANCH  13  14
HETATM   14  C20 UNL     1      -4.239   1.348  -0.149  1.00  0.00     0.048 C 
BRANCH  14  15
HETATM   15  C21 UNL     1      -5.708   1.617  -0.355  1.00  0.00     0.005 C 
BRANCH  15  16
HETATM   16  C22 UNL     1      -6.291   2.335   0.831  1.00  0.00     0.027 C 
BRANCH  16  17
HETATM   17  C23 UNL     1      -7.764   2.595   0.684  1.00  0.00     0.229 C 
BRANCH  17  18
HETATM   18  N3  UNL     1      -8.118   3.386  -0.460  1.00  0.00    -0.079 N 
ATOM     19  H33 UNL     1      -7.601   4.265  -0.457  1.00  0.00     0.274 HD
ATOM     20  H32 UNL     1      -7.745   2.966  -1.311  1.00  0.00     0.274 HD
ATOM     21  H31 UNL     1      -9.118   3.562  -0.560  1.00  0.00     0.274 HD
ENDBRANCH  17  18
ENDBRANCH  16  17
ENDBRANCH  15  16
ENDBRANCH  14  15
ENDBRANCH  13  14
BRANCH  13  22
HETATM   22  N4  UNL     1      -4.750  -0.613   1.305  1.00  0.00    -0.400 NA
HETATM   23  C24 UNL     1      -5.477  -1.782   1.488  1.00  0.00     0.322 C 
HETATM   24  O4  UNL     1      -6.071  -2.096   2.542  1.00  0.00    -0.255 OA
BRANCH  23  25
HETATM   25  C25 UNL     1      -5.605  -2.798   0.402  1.00  0.00     0.338 C 
HETATM   26  C26 UNL     1      -6.462  -3.978   0.753  1.00  0.00     0.122 C 
HETATM   27  S1  UNL     1      -6.757  -4.608  -0.960  1.00  0.00    -0.137 SA
HETATM   28  C27 UNL     1      -5.968  -3.200  -1.843  1.00  0.00     0.347 C 
HETATM   29  N5  UNL     1      -6.110  -2.184  -0.783  1.00  0.00     0.108 N 
HETATM   30  C28 UNL     1      -7.568  -1.987  -0.696  1.00  0.00     0.312 C 
ENDBRANCH  23  25
ENDBRANCH  13  22
ENDBRANCH  11  13
ENDBRANCH  10  11
ENDBRANCH   9  10
BRANCH   3  31
HETATM   31  O1  UNL     1       2.258  -0.251   1.983  1.00  0.00    -0.363 OA
ATOM     32  H1  UNL     1       3.180  -0.431   2.127  1.00  0.00     0.217 HD
ENDBRANCH   3  31
BRANCH   4  33
HETATM   33  C5  UNL     1       4.077  -0.546   0.372  1.00  0.00     0.114 C 
BRANCH  33  34
HETATM   34  C6  UNL     1       5.260  -0.537  -0.459  1.00  0.00     0.218 C 
HETATM   35  O2  UNL     1       5.336  -0.855  -1.682  1.00  0.00    -0.274 OA
HETATM   36  N1  UNL     1       6.495  -0.136   0.133  1.00  0.00    -0.356 N 
ATOM     37  H1  UNL     1       6.503   0.142   1.114  1.00  0.00     0.162 HD
BRANCH  36  38
HETATM   38  C7  UNL     1       7.740  -0.110  -0.611  1.00  0.00     0.084 C 
HETATM   39  C8  UNL     1       8.711  -1.136  -0.032  1.00  0.00     0.025 C 
HETATM   40  C9  UNL     1      10.107  -0.781  -0.463  1.00  0.00     0.002 C 
HETATM   41  C10 UNL     1      10.557   0.438   0.325  1.00  0.00     0.000 C 
HETATM   42  C11 UNL     1       9.412   1.405   0.496  1.00  0.00     0.002 C 
HETATM   43  C12 UNL     1       8.392   1.226  -0.623  1.00  0.00     0.025 C 
ENDBRANCH  36  38
ENDBRANCH  33  34
ENDBRANCH   4  33
TORSDOF 14
