REMARK  16 active torsions:
REMARK  status: ('A' for Active; 'I' for Inactive)
REMARK    1  A    between atoms: C2_2  and  C3_3 
REMARK    2  A    between atoms: C3_3  and  C4_4 
REMARK    3  A    between atoms: C4_4  and  N1_5 
REMARK    4  A    between atoms: N1_5  and  C5_6 
REMARK       I    between atoms: N1_5  and  C9_10 
REMARK    5  A    between atoms: C5_6  and  C6_7 
REMARK    6  A    between atoms: C6_7  and  C7_8 
REMARK    7  A    between atoms: C9_10  and  C10_12 
REMARK    8  A    between atoms: C13_15  and  O2_16 
REMARK    9  A    between atoms: C14_18  and  C15_19 
REMARK   10  A    between atoms: C16_20  and  C17_21 
REMARK   11  A    between atoms: C18_22  and  O3_23 
REMARK   12  A    between atoms: C20_26  and  O4_27 
REMARK   13  A    between atoms: C23_31  and  C24_32 
REMARK   14  A    between atoms: C24_32  and  C25_33 
REMARK   15  A    between atoms: C25_33  and  C26_34 
REMARK   16  A    between atoms: C26_34  and  O5_35 
ROOT
HETATM    1  C10 UNL     1      -1.629  -0.929  -0.635  1.00  0.00     0.115 C 
HETATM    2  C11 UNL     1      -0.819  -2.181  -1.031  1.00  0.00     0.020 C 
HETATM    3  C12 UNL     1       0.626  -1.742  -1.117  1.00  0.00     0.042 C 
HETATM    4  C13 UNL     1       0.527  -0.267  -0.972  1.00  0.00     0.097 C 
HETATM    5  C14 UNL     1       1.741   0.484  -0.707  1.00  0.00     0.052 C 
HETATM    6  C23 UNL     1       1.524   1.720   0.213  1.00  0.00     0.035 C 
HETATM    7  C27 UNL     1       0.141   2.124   0.277  1.00  0.00     0.109 C 
HETATM    8  C28 UNL     1      -0.290   3.086   1.369  1.00  0.00     0.208 C 
HETATM    9  O6  UNL     1      -1.276   3.533   0.492  1.00  0.00    -0.385 OA
HETATM   10  C29 UNL     1      -0.386   3.276  -0.551  1.00  0.00     0.208 C 
HETATM   11  O7  UNL     1      -0.826   1.136   0.241  1.00  0.00    -0.361 OA
HETATM   12  C30 UNL     1      -0.535  -0.148   0.114  1.00  0.00     0.102 C 
HETATM   13  C31 UNL     1      -0.231  -0.908   1.354  1.00  0.00     0.050 C 
ENDROOT
BRANCH   5  14
HETATM   14  C15 UNL     1       2.919  -0.288  -0.228  1.00  0.00    -0.022 C 
HETATM   15  C16 UNL     1       3.991  -0.500  -0.985  1.00  0.00    -0.023 C 
BRANCH  15  16
HETATM   16  C17 UNL     1       5.186  -1.244  -0.594  1.00  0.00     0.043 C 
HETATM   17  C18 UNL     1       5.439  -2.487  -1.424  1.00  0.00     0.128 C 
HETATM   18  C19 UNL     1       6.662  -3.046  -0.683  1.00  0.00     0.064 C 
HETATM   19  C20 UNL     1       6.333  -2.792   0.771  1.00  0.00     0.125 C 
HETATM   20  C21 UNL     1       5.176  -1.805   0.789  1.00  0.00     0.020 C 
HETATM   21  C22 UNL     1       5.564  -0.690   1.753  1.00  0.00     0.013 C 
BRANCH  17  22
HETATM   22  O3  UNL     1       4.452  -3.434  -1.296  1.00  0.00    -0.395 OA
ATOM     23  H3  UNL     1       4.611  -4.213  -1.816  1.00  0.00     0.210 HD
ENDBRANCH  17  22
BRANCH  19  24
HETATM   24  O4  UNL     1       6.014  -3.963   1.455  1.00  0.00    -0.395 OA
ATOM     25  H4  UNL     1       5.807  -3.803   2.368  1.00  0.00     0.210 HD
ENDBRANCH  19  24
ENDBRANCH  15  16
ENDBRANCH   5  14
BRANCH   4  26
HETATM   26  O2  UNL     1      -0.122   0.201  -2.143  1.00  0.00    -0.386 OA
ATOM     27  H2  UNL     1      -0.185   1.144  -2.050  1.00  0.00     0.210 HD
ENDBRANCH   4  26
BRANCH   6  28
HETATM   28  C24 UNL     1       2.630   2.657  -0.126  1.00  0.00     0.010 C 
BRANCH  28  29
HETATM   29  C25 UNL     1       2.780   3.940   0.581  1.00  0.00     0.027 C 
BRANCH  29  30
HETATM   30  C26 UNL     1       4.073   4.642   0.035  1.00  0.00     0.164 C 
BRANCH  30  31
HETATM   31  O5  UNL     1       3.829   4.809  -1.326  1.00  0.00    -0.401 OA
ATOM     32  H5  UNL     1       4.612   5.234  -1.657  1.00  0.00     0.209 HD
ENDBRANCH  30  31
ENDBRANCH  29  30
ENDBRANCH  28  29
ENDBRANCH   6  28
BRANCH   1  33
HETATM   33  C9  UNL     1      -2.709  -1.327   0.276  1.00  0.00     0.227 C 
HETATM   34  N1  UNL     1      -3.957  -0.653   0.386  1.00  0.00    -0.352 N 
HETATM   35  O1  UNL     1      -2.545  -2.344   1.037  1.00  0.00    -0.273 OA
BRANCH  34  36
HETATM   36  C4  UNL     1      -4.276   0.458  -0.460  1.00  0.00     0.125 C 
BRANCH  36  37
HETATM   37  C3  UNL     1      -4.940   0.030  -1.772  1.00  0.00     0.020 C 
BRANCH  37  38
HETATM   38  C2  UNL     1      -5.213   1.285  -2.609  1.00  0.00    -0.003 C 
HETATM   39  C1  UNL     1      -6.122   2.225  -1.878  1.00  0.00     0.005 C 
ENDBRANCH  37  38
ENDBRANCH  36  37
ENDBRANCH  34  36
BRANCH  34  40
HETATM   40  C5  UNL     1      -4.863  -1.106   1.431  1.00  0.00     0.125 C 
BRANCH  40  41
HETATM   41  C6  UNL     1      -5.756  -2.222   0.980  1.00  0.00     0.020 C 
BRANCH  41  42
HETATM   42  C7  UNL     1      -6.675  -2.666   2.122  1.00  0.00    -0.003 C 
HETATM   43  C8  UNL     1      -7.520  -1.488   2.545  1.00  0.00     0.005 C 
ENDBRANCH  41  42
ENDBRANCH  40  41
ENDBRANCH  34  40
ENDBRANCH   1  33
TORSDOF 16
