REMARK  9 active torsions:
REMARK  status: ('A' for Active; 'I' for Inactive)
REMARK    1  A    between atoms: C2_2  and  C4_4 
REMARK    2  A    between atoms: C4_4  and  C5_5 
REMARK    3  A    between atoms: C5_5  and  C7_7 
REMARK    4  A    between atoms: C7_7  and  N1_8 
REMARK    5  A    between atoms: N1_8  and  C8_10 
REMARK    6  A    between atoms: C13_17  and  O3_18 
REMARK    7  A    between atoms: C16_22  and  C17_23 
REMARK    8  A    between atoms: C19_26  and  C20_27 
REMARK    9  A    between atoms: C32_41  and  O7_42 
ROOT
HETATM    1  C8  UNL     1       1.507   0.033  -0.762  1.00  0.00     0.078 C 
HETATM    2  C9  UNL     1       1.362  -1.424  -0.685  1.00  0.00     0.042 C 
HETATM    3  C10 UNL     1       0.151  -2.187  -0.558  1.00  0.00     0.125 C 
HETATM    4  C11 UNL     1       0.323  -3.458  -1.407  1.00  0.00     0.266 C 
HETATM    5  O1  UNL     1       1.097  -4.404  -1.115  1.00  0.00    -0.265 OA
HETATM    6  O2  UNL     1      -0.510  -3.374  -2.528  1.00  0.00    -0.318 OA
HETATM    7  C12 UNL     1      -0.950  -1.990  -2.503  1.00  0.00     0.218 C 
HETATM    8  C13 UNL     1      -1.178  -1.889  -0.988  1.00  0.00     0.103 C 
HETATM    9  C14 UNL     1      -1.969  -0.700  -0.566  1.00  0.00     0.035 C 
HETATM   10  C15 UNL     1      -1.293   0.418  -1.292  1.00  0.00     0.034 C 
HETATM   11  C16 UNL     1      -0.653   1.339  -0.229  1.00  0.00     0.037 C 
HETATM   12  C18 UNL     1       0.697   0.887   0.169  1.00  0.00     0.042 C 
HETATM   13  C19 UNL     1      -1.697   1.245   0.794  1.00  0.00     0.102 C 
HETATM   14  C21 UNL     1      -2.941   1.945   0.729  1.00  0.00     0.038 C 
HETATM   15  C22 UNL     1      -3.757   1.094   1.737  1.00  0.00     0.019 C 
HETATM   16  C23 UNL     1      -3.316  -0.297   1.465  1.00  0.00     0.031 C 
HETATM   17  C24 UNL     1      -4.179  -1.038   0.491  1.00  0.00    -0.033 C 
HETATM   18  C25 UNL     1      -5.622  -0.661   0.475  1.00  0.00     0.016 C 
HETATM   19  C26 UNL     1      -4.230  -2.470   1.051  1.00  0.00     0.016 C 
HETATM   20  C27 UNL     1      -3.456  -0.833  -0.774  1.00  0.00     0.031 C 
HETATM   21  C28 UNL     1      -4.068   0.152  -1.712  1.00  0.00    -0.020 C 
HETATM   22  C29 UNL     1      -4.244   1.559  -1.489  1.00  0.00    -0.001 C 
HETATM   23  C30 UNL     1      -3.832   2.330  -0.334  1.00  0.00    -0.079 C 
HETATM   24  C31 UNL     1      -3.594   3.791  -0.780  1.00  0.00     0.044 C 
HETATM   25  C32 UNL     1      -1.941  -0.276   0.834  1.00  0.00     0.093 C 
ENDROOT
BRANCH   1  26
HETATM   26  N1  UNL     1       2.890   0.292  -0.316  1.00  0.00    -0.417 N 
ATOM     27  H1  UNL     1       3.102   0.832   0.523  1.00  0.00     0.153 HD
BRANCH  26  28
HETATM   28  C7  UNL     1       3.901  -0.263  -1.137  1.00  0.00     0.118 C 
BRANCH  28  29
HETATM   29  C5  UNL     1       5.248   0.117  -0.490  1.00  0.00    -0.001 C 
HETATM   30  C6  UNL     1       6.318  -0.270  -1.435  1.00  0.00     0.011 C 
BRANCH  29  31
HETATM   31  C4  UNL     1       5.223  -0.477   0.855  1.00  0.00     0.010 C 
BRANCH  31  32
HETATM   32  C2  UNL     1       6.351  -0.283   1.776  1.00  0.00    -0.022 C 
HETATM   33  C1  UNL     1       7.644  -0.835   1.255  1.00  0.00     0.009 C 
HETATM   34  C3  UNL     1       6.501   1.134   2.283  1.00  0.00     0.009 C 
ENDBRANCH  31  32
ENDBRANCH  29  31
ENDBRANCH  28  29
ENDBRANCH  26  28
ENDBRANCH   1  26
BRANCH  11  35
HETATM   35  C17 UNL     1      -0.507   2.635  -0.939  1.00  0.00     0.242 C 
HETATM   36  O4  UNL     1       0.027   3.584  -0.396  1.00  0.00    -0.306 OA
ENDBRANCH  11  35
BRANCH   8  37
HETATM   37  O3  UNL     1      -1.952  -3.067  -0.832  1.00  0.00    -0.386 OA
ATOM     38  H3  UNL     1      -2.836  -2.869  -1.118  1.00  0.00     0.210 HD
ENDBRANCH   8  37
BRANCH  13  39
HETATM   39  C20 UNL     1      -1.056   1.536   2.113  1.00  0.00     0.186 C 
HETATM   40  O5  UNL     1      -0.112   2.361   2.174  1.00  0.00    -0.647 OA
HETATM   41  O6  UNL     1      -1.420   0.964   3.317  1.00  0.00    -0.647 OA
ENDBRANCH  13  39
BRANCH  25  42
HETATM   42  O7  UNL     1      -1.126  -0.949   1.689  1.00  0.00    -0.387 OA
ATOM     43  H7  UNL     1      -1.108  -0.674   2.598  1.00  0.00     0.210 HD
ENDBRANCH  25  42
TORSDOF 9
