REMARK  16 active torsions:
REMARK  status: ('A' for Active; 'I' for Inactive)
REMARK    1  A    between atoms: C2_2  and  N1_3 
REMARK    2  A    between atoms: C2_2  and  C8_12 
REMARK    3  A    between atoms: N1_3  and  C3_4 
REMARK    4  A    between atoms: C3_4  and  O1_5 
REMARK    5  A    between atoms: C3_4  and  O2_7 
REMARK    6  A    between atoms: O2_7  and  C4_8 
REMARK    7  A    between atoms: C8_12  and  O3_13 
REMARK    8  A    between atoms: C8_12  and  C9_15 
REMARK    9  A    between atoms: C9_15  and  N2_16 
REMARK   10  A    between atoms: N2_16  and  C10_18 
REMARK       I    between atoms: N3_20  and  C12_21 
REMARK   11  A    between atoms: C12_21  and  C13_23 
REMARK   12  A    between atoms: C13_23  and  N4_24 
REMARK   13  A    between atoms: C13_23  and  C19_33 
REMARK       I    between atoms: N4_24  and  C14_26 
REMARK   14  A    between atoms: C14_26  and  O6_28 
REMARK   15  A    between atoms: O6_28  and  C15_29 
REMARK   16  A    between atoms: C25_39  and  N5_40 
ROOT
HETATM    1  C10 UNL     1       0.613  -0.982  -0.872  1.00  0.00     0.049 C 
HETATM    2  C11 UNL     1      -0.438  -0.490   0.112  1.00  0.00     0.184 C 
HETATM    3  N3  UNL     1      -1.768  -0.693  -0.422  1.00  0.00    -0.344 N 
HETATM    4  C12 UNL     1      -2.867  -0.534   0.485  1.00  0.00     0.243 C 
HETATM    5  O4  UNL     1      -2.579  -0.231   1.700  1.00  0.00    -0.271 OA
HETATM    6  C23 UNL     1      -1.890  -1.000  -1.798  1.00  0.00     0.132 C 
HETATM    7  C24 UNL     1      -1.113  -2.222  -2.170  1.00  0.00     0.079 C 
HETATM    8  C25 UNL     1       0.227  -2.267  -1.403  1.00  0.00     0.032 C 
ENDROOT
BRANCH   1   9
HETATM    9  N2  UNL     1       1.890  -0.534  -0.631  1.00  0.00    -0.367 N 
ATOM     10  H2  UNL     1       2.360  -0.052  -1.397  1.00  0.00     0.165 HD
BRANCH   9  11
HETATM   11  C9  UNL     1       2.604  -0.673   0.553  1.00  0.00     0.095 C 
BRANCH  11  12
HETATM   12  C8  UNL     1       3.935  -0.012   0.513  1.00  0.00     0.192 C 
BRANCH  12  13
HETATM   13  C2  UNL     1       4.878  -0.423  -0.606  1.00  0.00     0.197 C 
HETATM   14  C1  UNL     1       5.443  -1.810  -0.199  1.00  0.00     0.050 C 
BRANCH  13  15
HETATM   15  N1  UNL     1       5.977   0.517  -0.607  1.00  0.00    -0.396 NA
BRANCH  15  16
HETATM   16  C3  UNL     1       6.971   1.367  -0.612  1.00  0.00     0.336 C 
BRANCH  16  17
HETATM   17  O1  UNL     1       7.585   1.899  -1.636  1.00  0.00    -0.316 OA
ATOM     18  H1  UNL     1       8.307   2.516  -1.640  1.00  0.00     0.222 HD
ENDBRANCH  16  17
BRANCH  16  19
HETATM   19  O2  UNL     1       7.573   1.874   0.588  1.00  0.00    -0.295 OA
BRANCH  19  20
HETATM   20  C4  UNL     1       8.628   2.774   0.584  1.00  0.00     0.061 C 
HETATM   21  C5  UNL     1       8.265   4.083  -0.123  1.00  0.00     0.046 C 
HETATM   22  C6  UNL     1       8.995   3.075   2.019  1.00  0.00     0.046 C 
HETATM   23  C7  UNL     1       9.854   2.185  -0.086  1.00  0.00     0.046 C 
ENDBRANCH  19  20
ENDBRANCH  16  19
ENDBRANCH  15  16
ENDBRANCH  13  15
ENDBRANCH  12  13
BRANCH  12  24
HETATM   24  O3  UNL     1       4.589  -0.122   1.738  1.00  0.00    -0.387 OA
ATOM     25  H3  UNL     1       4.000   0.135   2.437  1.00  0.00     0.210 HD
ENDBRANCH  12  24
ENDBRANCH  11  12
ENDBRANCH   9  11
ENDBRANCH   1   9
BRANCH   8  26
HETATM   26  N5  UNL     1       0.739  -3.413  -1.388  1.00  0.00    -0.391 N 
HETATM   27  C26 UNL     1       0.008  -4.495  -2.063  1.00  0.00     0.148 C 
HETATM   28  C27 UNL     1       1.972  -3.825  -0.788  1.00  0.00     0.148 C 
ENDBRANCH   8  26
BRANCH   4  29
HETATM   29  C13 UNL     1      -4.282  -0.675   0.184  1.00  0.00     0.186 C 
BRANCH  29  30
HETATM   30  N4  UNL     1      -4.960   0.344   1.033  1.00  0.00    -0.323 N 
HETATM   31  C14 UNL     1      -5.837   1.309   0.481  1.00  0.00     0.362 C 
HETATM   32  O5  UNL     1      -6.042   1.295  -0.754  1.00  0.00    -0.238 OA
ATOM     33  H4  UNL     1      -4.788   0.347   2.038  1.00  0.00     0.165 HD
BRANCH  31  34
HETATM   34  O6  UNL     1      -6.477   2.262   1.236  1.00  0.00    -0.294 OA
BRANCH  34  35
HETATM   35  C15 UNL     1      -7.352   3.244   0.793  1.00  0.00     0.061 C 
HETATM   36  C16 UNL     1      -8.596   2.684   0.112  1.00  0.00     0.046 C 
HETATM   37  C17 UNL     1      -7.851   3.998   2.039  1.00  0.00     0.046 C 
HETATM   38  C18 UNL     1      -6.734   4.284  -0.112  1.00  0.00     0.046 C 
ENDBRANCH  34  35
ENDBRANCH  31  34
ENDBRANCH  29  30
BRANCH  29  39
HETATM   39  C19 UNL     1      -4.882  -2.030   0.589  1.00  0.00    -0.022 C 
HETATM   40  C20 UNL     1      -4.216  -3.190  -0.091  1.00  0.00     0.017 C 
HETATM   41  C21 UNL     1      -4.848  -2.251   2.064  1.00  0.00     0.017 C 
HETATM   42  C22 UNL     1      -6.338  -2.041   0.077  1.00  0.00     0.017 C 
ENDBRANCH  29  39
ENDBRANCH   4  29
TORSDOF 16
