REMARK  10 active torsions:
REMARK  status: ('A' for Active; 'I' for Inactive)
REMARK    1  A    between atoms: C2_2  and  C3_3 
REMARK    2  A    between atoms: C6_6  and  C7_7 
REMARK    3  A    between atoms: C7_7  and  C8_8 
REMARK    4  A    between atoms: C8_8  and  O1_9 
REMARK    5  A    between atoms: C8_8  and  C9_11 
REMARK    6  A    between atoms: C9_11  and  C10_12 
REMARK    7  A    between atoms: C12_16  and  O4_17 
REMARK    8  A    between atoms: C15_21  and  O5_22 
REMARK    9  A    between atoms: C18_25  and  C19_26 
REMARK   10  A    between atoms: C24_33  and  O8_34 
ROOT
HETATM    1  C8  UNL     1      -1.030  -0.465   0.038  1.00  0.00     0.138 C 
ENDROOT
BRANCH   1   2
HETATM    2  C7  UNL     1       0.230  -0.466   0.825  1.00  0.00     0.038 C 
BRANCH   2   3
HETATM    3  C6  UNL     1       1.498  -0.572   0.050  1.00  0.00    -0.005 C 
HETATM    4  C5  UNL     1       1.683   0.564  -0.920  1.00  0.00     0.014 C 
HETATM    5  C3  UNL     1       2.802   0.377  -1.879  1.00  0.00    -0.038 C 
HETATM    6  C4  UNL     1       2.543  -0.687  -2.939  1.00  0.00     0.015 C 
HETATM    7  C26 UNL     1       4.075   0.037  -1.109  1.00  0.00     0.025 C 
HETATM    8  C24 UNL     1       4.243  -1.421  -0.868  1.00  0.00     0.126 C 
HETATM    9  C27 UNL     1       4.178   0.897   0.100  1.00  0.00     0.039 C 
HETATM   10  C23 UNL     1       3.558  -1.951   0.358  1.00  0.00     0.039 C 
HETATM   11  C22 UNL     1       2.648  -0.859   0.937  1.00  0.00     0.020 C 
HETATM   12  C28 UNL     1       3.523   0.270   1.323  1.00  0.00     0.034 C 
HETATM   13  C29 UNL     1       2.889   1.302   2.228  1.00  0.00     0.036 C 
HETATM   14  N1  UNL     1       4.589  -0.239   2.137  1.00  0.00    -0.393 N 
HETATM   15  C30 UNL     1       4.032   1.668   3.151  1.00  0.00     0.046 C 
HETATM   16  C31 UNL     1       4.885   0.474   3.114  1.00  0.00     0.056 C 
ATOM     17  H1  UNL     1       5.067  -1.116   1.932  1.00  0.00     0.159 HD
BRANCH   5  18
HETATM   18  C2  UNL     1       3.065   1.668  -2.619  1.00  0.00     0.005 C 
HETATM   19  C1  UNL     1       1.929   2.107  -3.484  1.00  0.00     0.006 C 
ENDBRANCH   5  18
BRANCH   8  20
HETATM   20  O8  UNL     1       5.612  -1.718  -0.723  1.00  0.00    -0.390 OA
HETATM   21  C25 UNL     1       6.004  -2.633  -1.697  1.00  0.00     0.202 C 
ENDBRANCH   8  20
ENDBRANCH   2   3
ENDBRANCH   1   2
BRANCH   1  22
HETATM   22  O1  UNL     1      -1.028  -1.704  -0.660  1.00  0.00    -0.394 OA
ATOM     23  H1  UNL     1      -1.834  -1.703  -1.163  1.00  0.00     0.210 HD
ENDBRANCH   1  22
BRANCH   1  24
HETATM   24  C9  UNL     1      -2.286  -0.495   0.848  1.00  0.00     0.088 C 
HETATM   25  C11 UNL     1      -2.665   0.693   1.627  1.00  0.00     0.042 C 
HETATM   26  C12 UNL     1      -4.023   0.403   2.253  1.00  0.00     0.136 C 
HETATM   27  C20 UNL     1      -3.183   1.739   0.636  1.00  0.00     0.010 C 
HETATM   28  C13 UNL     1      -4.915   0.272   1.005  1.00  0.00     0.027 C 
HETATM   29  C14 UNL     1      -6.293   0.771   1.169  1.00  0.00     0.022 C 
HETATM   30  C15 UNL     1      -4.717  -1.098   0.398  1.00  0.00     0.139 C 
HETATM   31  C18 UNL     1      -4.082   0.824  -0.136  1.00  0.00     0.071 C 
HETATM   32  C17 UNL     1      -3.431  -0.546  -0.179  1.00  0.00     0.058 C 
HETATM   33  C21 UNL     1      -2.223   2.562  -0.053  1.00  0.00     0.012 C 
BRANCH  24  34
HETATM   34  C10 UNL     1      -2.233  -1.751   1.642  1.00  0.00     0.185 C 
HETATM   35  O2  UNL     1      -2.108  -1.795   2.887  1.00  0.00    -0.647 OA
HETATM   36  O3  UNL     1      -2.324  -2.989   0.991  1.00  0.00    -0.647 OA
ENDBRANCH  24  34
BRANCH  26  37
HETATM   37  O4  UNL     1      -4.463   1.516   2.972  1.00  0.00    -0.394 OA
ATOM     38  H4  UNL     1      -5.310   1.335   3.362  1.00  0.00     0.210 HD
ENDBRANCH  26  37
BRANCH  30  39
HETATM   39  O5  UNL     1      -5.608  -1.475  -0.571  1.00  0.00    -0.389 OA
HETATM   40  C16 UNL     1      -6.116  -2.738  -0.240  1.00  0.00     0.202 C 
ENDBRANCH  30  39
BRANCH  31  41
HETATM   41  C19 UNL     1      -4.752   1.286  -1.311  1.00  0.00     0.183 C 
HETATM   42  O6  UNL     1      -6.004   1.255  -1.404  1.00  0.00    -0.647 OA
HETATM   43  O7  UNL     1      -4.073   1.788  -2.407  1.00  0.00    -0.647 OA
ENDBRANCH  31  41
ENDBRANCH   1  24
TORSDOF 10
