REMARK  2 active torsions:
REMARK  status: ('A' for Active; 'I' for Inactive)
REMARK    1  A    between atoms: C2_2  and  N2_6 
REMARK    2  A    between atoms: C4_9  and  C5_10 
ROOT
HETATM    1  N2  UNL     1       1.147   0.150   0.069  1.00  0.00    -0.347 N 
HETATM    2  C3  UNL     1       0.484   1.442   0.223  1.00  0.00     0.294 C 
HETATM    3  O1  UNL     1      -0.846   1.159   0.532  1.00  0.00    -0.364 OA
HETATM    4  C4  UNL     1      -1.107   0.102  -0.340  1.00  0.00     0.159 C 
HETATM    5  C7  UNL     1       0.051  -0.815  -0.066  1.00  0.00     0.159 C 
ENDROOT
BRANCH   1   6
HETATM    6  C2  UNL     1       2.534  -0.055   0.060  1.00  0.00     0.070 C 
HETATM    7  C1  UNL     1       3.118  -1.360   0.473  1.00  0.00     0.088 C 
HETATM    8  N1  UNL     1       3.328   0.897  -0.310  1.00  0.00    -0.389 N 
ATOM      9  H12 UNL     1       4.337   0.748  -0.317  1.00  0.00     0.157 HD
ATOM     10  H11 UNL     1       2.928   1.791  -0.593  1.00  0.00     0.157 HD
ENDBRANCH   1   6
BRANCH   4  11
HETATM   11  C5  UNL     1      -2.445  -0.535  -0.082  1.00  0.00     0.109 C 
HETATM   12  C6  UNL     1      -3.498   0.548  -0.273  1.00  0.00     0.029 C 
HETATM   13 CL1  UNL     1      -2.477  -1.112   1.604  1.00  0.00    -0.123 Cl
ENDBRANCH   4  11
TORSDOF 2
