REMARK  2 active torsions:
REMARK  status: ('A' for Active; 'I' for Inactive)
REMARK    1  A    between atoms: O1_1  and  C1_3 
REMARK    2  A    between atoms: C1_3  and  C2_5 
ROOT
HETATM    1  C2  UNL     1       0.050   0.323  -0.441  1.00  0.00     0.162 C 
HETATM    2  C3  UNL     1      -0.831  -0.795   0.084  1.00  0.00     0.061 C 
HETATM    3  C4  UNL     1      -1.700   0.433   0.316  1.00  0.00     0.171 C 
HETATM    4  O2  UNL     1      -0.504   1.111   0.567  1.00  0.00    -0.382 OA
ENDROOT
BRANCH   1   5
HETATM    5  C1  UNL     1       1.526   0.085  -0.336  1.00  0.00     0.218 C 
HETATM    6 BR1  UNL     1       2.192  -1.016  -1.762  1.00  0.00    -0.059 Br
BRANCH   5   7
HETATM    7  O1  UNL     1       1.771  -0.564   0.886  1.00  0.00    -0.382 OA
ATOM      8  H1  UNL     1       1.442  -0.019   1.591  1.00  0.00     0.211 HD
ENDBRANCH   5   7
ENDBRANCH   1   5
TORSDOF 2
