REMARK  1 active torsions:
REMARK  status: ('A' for Active; 'I' for Inactive)
REMARK    1  A    between atoms: N1_2  and  C3_4 
ROOT
HETATM    1  C3  UNL     1      -0.159  -0.067   0.440  1.00  0.00     0.264 C 
HETATM    2  C4  UNL     1      -0.483  -0.473  -0.953  1.00  0.00     0.066 C 
HETATM    3  C5  UNL     1      -2.013  -0.582  -0.872  1.00  0.00     0.236 C 
HETATM    4  N2  UNL     1      -2.436   0.324   0.144  1.00  0.00    -0.059 N 
ATOM      5  H21 UNL     1      -3.155  -0.076   0.747  1.00  0.00     0.278 HD
ATOM      6  H22 UNL     1      -2.980   1.101  -0.231  1.00  0.00     0.278 HD
HETATM    7  C6  UNL     1      -1.275   0.772   0.891  1.00  0.00     0.290 C 
HETATM    8 BR1  UNL     1      -1.129   2.656   0.692  1.00  0.00    -0.059 Br
ENDROOT
BRANCH   1   9
HETATM    9  N1  UNL     1       1.178   0.319   0.723  1.00  0.00     0.087 N 
HETATM   10  C1  UNL     1       2.026  -0.893   0.592  1.00  0.00     0.310 C 
HETATM   11  C2  UNL     1       1.752   1.214  -0.272  1.00  0.00     0.310 C 
ENDBRANCH   1   9
TORSDOF 1
