REMARK  1 active torsions:
REMARK  status: ('A' for Active; 'I' for Inactive)
REMARK    1  A    between atoms: C5_6  and  C6_7 
ROOT
HETATM    1  C6  UNL     1       0.443  -0.538  -0.561  1.00  0.00     0.208 C 
HETATM    2  C7  UNL     1       0.903  -0.518   0.848  1.00  0.00     0.038 C 
HETATM    3  C8  UNL     1       2.160   0.299   1.066  1.00  0.00     0.041 C 
HETATM    4  C9  UNL     1       3.266  -0.062   0.121  1.00  0.00     0.195 C 
HETATM    5  F1  UNL     1       4.235   0.940   0.227  1.00  0.00    -0.248 F 
HETATM    6  C10 UNL     1       2.702  -0.125  -1.270  1.00  0.00     0.269 C 
HETATM    7  N2  UNL     1       1.333   0.328  -1.336  1.00  0.00    -0.066 N 
ATOM      8  H21 UNL     1       1.248   1.303  -1.048  1.00  0.00     0.277 HD
ATOM      9  H22 UNL     1       1.017   0.420  -2.301  1.00  0.00     0.277 HD
ENDROOT
BRANCH   1  10
HETATM   10  C5  UNL     1      -0.947  -0.065  -0.818  1.00  0.00     0.109 C 
HETATM   11  N1  UNL     1      -2.016  -0.744  -0.224  1.00  0.00    -0.410 N 
HETATM   12  C1  UNL     1      -1.781  -1.789   0.691  1.00  0.00     0.143 C 
HETATM   13  C2  UNL     1      -3.025   0.185   0.181  1.00  0.00     0.117 C 
HETATM   14  C3  UNL     1      -2.654   1.510  -0.503  1.00  0.00     0.021 C 
HETATM   15  C4  UNL     1      -1.145   1.396  -0.461  1.00  0.00     0.028 C 
ENDBRANCH   1  10
TORSDOF 1
