REMARK  1 active torsions:
REMARK  status: ('A' for Active; 'I' for Inactive)
REMARK    1  A    between atoms: C5_8  and  N2_9 
ROOT
HETATM    1  F1  UNL     1       1.264   1.064   2.467  1.00  0.00    -0.247 F 
HETATM    2  C1  UNL     1       1.277   0.143   1.406  1.00  0.00     0.199 C 
HETATM    3  C2  UNL     1       2.657  -0.396   1.322  1.00  0.00     0.059 C 
HETATM    4  C3  UNL     1       3.485   0.268   0.247  1.00  0.00     0.121 C 
HETATM    5  N1  UNL     1       2.814   0.076  -0.979  1.00  0.00    -0.400 N 
ATOM      6  H1  UNL     1       3.279  -0.382  -1.763  1.00  0.00     0.158 HD
HETATM    7  C4  UNL     1       1.490   0.531  -1.093  1.00  0.00     0.083 C 
HETATM    8  C5  UNL     1       0.693   0.687   0.155  1.00  0.00     0.151 C 
ENDROOT
BRANCH   8   9
HETATM    9  N2  UNL     1      -0.654   0.268  -0.099  1.00  0.00    -0.401 N 
HETATM   10  C6  UNL     1      -0.899  -1.104  -0.286  1.00  0.00     0.117 C 
HETATM   11  C7  UNL     1      -2.150  -1.238  -1.167  1.00  0.00     0.019 C 
HETATM   12  C8  UNL     1      -3.277  -0.583  -0.403  1.00  0.00     0.003 C 
HETATM   13  C9  UNL     1      -2.955   0.894  -0.297  1.00  0.00     0.019 C 
HETATM   14  C10 UNL     1      -1.681   1.006   0.547  1.00  0.00     0.117 C 
ENDBRANCH   8   9
TORSDOF 1
