REMARK  1 active torsions:
REMARK  status: ('A' for Active; 'I' for Inactive)
REMARK    1  A    between atoms: N2_5  and  C4_6 
ROOT
HETATM    1  C1  UNL     1       4.161  -0.153  -0.218  1.00  0.00     0.132 C 
HETATM    2  N1  UNL     1       2.744   0.013  -0.149  1.00  0.00    -0.230 NA
HETATM    3  C2  UNL     1       2.003  -1.192  -0.362  1.00  0.00     0.153 C 
HETATM    4  C3  UNL     1       0.616  -1.178   0.211  1.00  0.00     0.078 C 
HETATM    5  N2  UNL     1       0.117   0.043   0.642  1.00  0.00    -0.344 N 
HETATM    6  C9  UNL     1       0.990   1.152   0.718  1.00  0.00     0.382 C 
HETATM    7  F1  UNL     1       0.569   2.120   1.595  1.00  0.00    -0.206 F 
HETATM    8  N3  UNL     1       2.353   0.709   1.009  1.00  0.00    -0.107 NA
ENDROOT
BRANCH   5   9
HETATM    9  C4  UNL     1      -1.205   0.408   0.414  1.00  0.00     0.087 C 
HETATM   10  C5  UNL     1      -2.279  -0.341   1.130  1.00  0.00     0.025 C 
HETATM   11  C6  UNL     1      -3.535   0.313   0.531  1.00  0.00     0.002 C 
HETATM   12  C7  UNL     1      -3.122   0.721  -0.882  1.00  0.00     0.002 C 
HETATM   13  C8  UNL     1      -1.678   0.264  -1.026  1.00  0.00     0.025 C 
ENDBRANCH   5   9
TORSDOF 1
