REMARK  2 active torsions:
REMARK  status: ('A' for Active; 'I' for Inactive)
REMARK    1  A    between atoms: C2_2  and  C3_3 
REMARK    2  A    between atoms: C3_3  and  N1_4 
ROOT
HETATM    1  N1  UNL     1       0.446  -0.191  -0.081  1.00  0.00     0.098 N 
HETATM    2  C4  UNL     1       0.514   1.214  -0.455  1.00  0.00     0.280 C 
HETATM    3  C5  UNL     1      -1.014   1.091  -0.594  1.00  0.00     0.050 C 
HETATM    4  C6  UNL     1      -1.607   1.131   0.787  1.00  0.00     0.027 C 
HETATM    5  C7  UNL     1      -1.970  -0.217   1.327  1.00  0.00     0.114 C 
HETATM    6  N2  UNL     1      -2.510  -1.099   0.342  1.00  0.00    -0.419 N 
ATOM      7  H2  UNL     1      -3.426  -1.536   0.441  1.00  0.00     0.153 HD
HETATM    8  C8  UNL     1      -1.674  -1.323  -0.788  1.00  0.00     0.150 C 
HETATM    9  C9  UNL     1      -0.611  -0.316  -1.029  1.00  0.00     0.246 C 
ENDROOT
BRANCH   1  10
HETATM   10  C3  UNL     1       1.669  -0.916  -0.306  1.00  0.00     0.299 C 
BRANCH  10  11
HETATM   11  C2  UNL     1       2.652  -0.376   0.674  1.00  0.00    -0.007 C 
HETATM   12  C1  UNL     1       3.788   0.199   0.296  1.00  0.00     0.008 C 
ENDBRANCH  10  11
ENDBRANCH   1  10
TORSDOF 2
