REMARK  2 active torsions:
REMARK  status: ('A' for Active; 'I' for Inactive)
REMARK    1  A    between atoms: O1_1  and  C1_3 
REMARK    2  A    between atoms: C1_3  and  C2_4 
ROOT
HETATM    1  C2  UNL     1      -0.091   0.746   0.019  1.00  0.00     0.141 C 
HETATM    2 BR1  UNL     1       0.265   2.321   1.075  1.00  0.00    -0.052 Br
HETATM    3  C3  UNL     1      -0.778  -0.347   0.807  1.00  0.00     0.078 C 
HETATM    4  C4  UNL     1      -1.530  -0.434  -0.495  1.00  0.00     0.174 C 
HETATM    5  O2  UNL     1      -1.144   0.851  -0.868  1.00  0.00    -0.366 OA
ENDROOT
BRANCH   1   6
HETATM    6  C1  UNL     1       1.202   0.209  -0.564  1.00  0.00     0.214 C 
BRANCH   6   7
HETATM    7  O1  UNL     1       2.105   0.193   0.502  1.00  0.00    -0.397 OA
ATOM      8  H1  UNL     1       2.915  -0.143   0.137  1.00  0.00     0.209 HD
ENDBRANCH   6   7
ENDBRANCH   1   6
TORSDOF 2
