REMARK  9 active torsions:
REMARK  status: ('A' for Active; 'I' for Inactive)
REMARK    1  A    between atoms: C4_4  and  N1_5 
REMARK    2  A    between atoms: N2_7  and  C5_9 
REMARK    3  A    between atoms: C6_10  and  O1_11 
REMARK    4  A    between atoms: C7_13  and  C8_14 
REMARK    5  A    between atoms: C8_14  and  O2_15 
REMARK    6  A    between atoms: C8_14  and  N3_17 
REMARK       I    between atoms: N3_17  and  C9_19 
REMARK       I    between atoms: C9_19  and  N5_23 
REMARK    7  A    between atoms: N5_23  and  C10_25 
REMARK    8  A    between atoms: C16_36  and  O3_37 
REMARK    9  A    between atoms: C25_47  and  S2_48 
ROOT
HETATM    1  C5  UNL     1       1.126   0.138  -1.454  1.00  0.00     0.093 A 
HETATM    2  C6  UNL     1      -0.076  -0.478  -1.042  1.00  0.00     0.112 A 
HETATM    3  C7  UNL     1      -1.185  -0.452  -1.901  1.00  0.00     0.085 A 
HETATM    4  C16 UNL     1      -1.014   0.185  -3.108  1.00  0.00     0.094 A 
HETATM    5  C17 UNL     1       0.172   0.796  -3.520  1.00  0.00     0.011 A 
HETATM    6  C18 UNL     1       0.311   1.427  -4.735  1.00  0.00     0.015 A 
HETATM    7  C19 UNL     1       1.491   2.021  -5.119  1.00  0.00     0.001 A 
HETATM    8  C20 UNL     1       2.572   1.987  -4.262  1.00  0.00     0.001 A 
HETATM    9  C21 UNL     1       2.431   1.361  -3.059  1.00  0.00     0.015 A 
HETATM   10  C22 UNL     1       1.250   0.758  -2.657  1.00  0.00     0.008 A 
ENDROOT
BRANCH   3  11
HETATM   11  C8  UNL     1      -2.429  -1.074  -1.504  1.00  0.00     0.171 C 
BRANCH  11  12
HETATM   12  O2  UNL     1      -2.393  -1.622  -0.325  1.00  0.00    -0.345 OA
ATOM     13  H2  UNL     1      -3.210  -2.031  -0.064  1.00  0.00     0.219 HD
ENDBRANCH  11  12
BRANCH  11  14
HETATM   14  N3  UNL     1      -3.640  -1.159  -2.211  1.00  0.00    -0.170 N 
HETATM   15  C9  UNL     1      -4.752  -1.818  -1.635  1.00  0.00     0.679 C 
HETATM   16  N4  UNL     1      -5.851  -1.887  -2.299  1.00  0.00    -0.234 N 
HETATM   17  N5  UNL     1      -4.688  -2.391  -0.373  1.00  0.00    -0.170 N 
ATOM     18  H42 UNL     1      -5.898  -1.466  -3.227  1.00  0.00     0.174 HD
ATOM     19  H41 UNL     1      -6.653  -2.362  -1.884  1.00  0.00     0.174 HD
ATOM     20  H5  UNL     1      -4.145  -3.240  -0.215  1.00  0.00     0.186 HD
ATOM     21  H3  UNL     1      -3.718  -0.745  -3.140  1.00  0.00     0.186 HD
BRANCH  17  22
HETATM   22  C10 UNL     1      -5.339  -1.821   0.614  1.00  0.00     0.166 A 
HETATM   23  N6  UNL     1      -6.086  -0.724   0.583  1.00  0.00    -0.321 N 
HETATM   24  C11 UNL     1      -6.656  -0.320   1.696  1.00  0.00     0.124 A 
ATOM     25  H6  UNL     1      -6.215  -0.206  -0.286  1.00  0.00     0.169 HD
HETATM   26  N7  UNL     1      -7.458   0.785   1.853  1.00  0.00    -0.351 N 
HETATM   27  C15 UNL     1      -6.444  -1.058   2.824  1.00  0.00     0.052 A 
HETATM   28  C12 UNL     1      -7.999   1.124   3.022  1.00  0.00     0.090 A 
ATOM     29  H7  UNL     1      -7.647   1.371   1.039  1.00  0.00     0.166 HD
HETATM   30  C13 UNL     1      -7.808   0.407   4.178  1.00  0.00     0.018 A 
HETATM   31  C14 UNL     1      -7.012  -0.705   4.063  1.00  0.00     0.024 A 
HETATM   32  S1  UNL     1      -5.433  -2.306   2.247  1.00  0.00    -0.050 SA
ENDBRANCH  17  22
ENDBRANCH  11  14
ENDBRANCH   3  11
BRANCH   2  33
HETATM   33  O1  UNL     1      -0.098  -1.057   0.150  1.00  0.00    -0.357 OA
ATOM     34  H1  UNL     1      -0.907  -1.471   0.427  1.00  0.00     0.217 HD
ENDBRANCH   2  33
BRANCH   4  35
HETATM   35  O3  UNL     1      -2.045   0.249  -3.991  1.00  0.00    -0.359 OA
ATOM     36  H3  UNL     1      -1.927   0.689  -4.825  1.00  0.00     0.217 HD
ENDBRANCH   4  35
BRANCH   1  37
HETATM   37  N2  UNL     1       2.238   0.103  -0.577  1.00  0.00    -0.297 N 
HETATM   38  N1  UNL     1       2.291   0.728   0.532  1.00  0.00    -0.300 N 
ATOM     39  H1  UNL     1       1.517   1.305   0.862  1.00  0.00     0.187 HD
ATOM     40  H2  UNL     1       3.046  -0.457  -0.850  1.00  0.00     0.187 HD
BRANCH  38  41
HETATM   41  C4  UNL     1       3.501   0.575   1.292  1.00  0.00     0.048 A 
HETATM   42  C3  UNL     1       4.673   0.182   0.681  1.00  0.00     0.039 A 
HETATM   43  C2  UNL     1       5.869   0.022   1.386  1.00  0.00    -0.035 A 
HETATM   44  C1  UNL     1       7.097  -0.404   0.670  1.00  0.00     0.050 C 
HETATM   45  C25 UNL     1       5.900   0.260   2.744  1.00  0.00     0.086 A 
HETATM   46  C24 UNL     1       4.723   0.652   3.349  1.00  0.00     0.029 A 
HETATM   47  C23 UNL     1       3.544   0.810   2.650  1.00  0.00     0.032 A 
BRANCH  45  48
HETATM   48  S2  UNL     1       7.368   0.075   3.681  1.00  0.00     0.138 S 
HETATM   49  O4  UNL     1       7.066   0.440   5.117  1.00  0.00    -0.591 OA
HETATM   50  O5  UNL     1       8.453   1.010   3.229  1.00  0.00    -0.591 OA
HETATM   51  O6  UNL     1       7.953  -1.494   3.594  1.00  0.00    -0.591 OA
ENDBRANCH  45  48
ENDBRANCH  38  41
ENDBRANCH   1  37
TORSDOF 9
