REMARK  10 active torsions:
REMARK  status: ('A' for Active; 'I' for Inactive)
REMARK    1  A    between atoms: C4_4  and  C5_5 
REMARK    2  A    between atoms: C7_9  and  N2_10 
REMARK    3  A    between atoms: C8_13  and  N3_14 
REMARK    4  A    between atoms: N3_14  and  C9_15 
REMARK    5  A    between atoms: C9_15  and  O1_16 
REMARK    6  A    between atoms: C9_15  and  N4_18 
REMARK    7  A    between atoms: N4_18  and  C10_19 
REMARK    8  A    between atoms: C12_22  and  O3_23 
REMARK    9  A    between atoms: C20_36  and  C21_37 
REMARK   10  A    between atoms: C24_40  and  N6_41 
ROOT
HETATM    1  C10 UNL     1      -1.698   0.299   0.028  1.00  0.00     0.350 C 
HETATM    2  O2  UNL     1      -0.979   1.128  -0.893  1.00  0.00    -0.304 OA
HETATM    3  C11 UNL     1      -0.655   2.470  -0.898  1.00  0.00     0.146 A 
HETATM    4  C12 UNL     1       0.312   2.843  -1.808  1.00  0.00     0.117 A 
HETATM    5  C13 UNL     1       0.724   4.153  -1.915  1.00  0.00     0.131 A 
HETATM    6  N5  UNL     1       0.166   5.076  -1.114  1.00  0.00    -0.328 N 
ATOM      7  H5  UNL     1       0.465   6.048  -1.188  1.00  0.00     0.168 HD
HETATM    8  C14 UNL     1      -0.776   4.745  -0.219  1.00  0.00     0.282 A 
HETATM    9  O4  UNL     1      -1.303   5.629   0.539  1.00  0.00    -0.265 OA
HETATM   10  C15 UNL     1      -1.209   3.450  -0.086  1.00  0.00     0.180 A 
HETATM   11  O5  UNL     1      -2.209   3.270   0.905  1.00  0.00    -0.301 OA
HETATM   12  C16 UNL     1      -3.227   2.292   0.798  1.00  0.00     0.089 A 
HETATM   13  C17 UNL     1      -4.492   2.767   1.116  1.00  0.00     0.038 A 
HETATM   14  C18 UNL     1      -5.563   1.908   1.041  1.00  0.00     0.004 A 
HETATM   15  C19 UNL     1      -5.324   0.628   0.659  1.00  0.00     0.013 A 
HETATM   16  C20 UNL     1      -4.054   0.121   0.334  1.00  0.00    -0.011 A 
HETATM   17  C27 UNL     1      -2.973   0.993   0.409  1.00  0.00     0.049 A 
ENDROOT
BRANCH   1  18
HETATM   18  N4  UNL     1      -0.896  -0.204   1.032  1.00  0.00    -0.359 NA
BRANCH  18  19
HETATM   19  C9  UNL     1      -0.098  -0.704   2.032  1.00  0.00     0.376 C 
BRANCH  19  20
HETATM   20  N3  UNL     1       1.126  -1.228   1.837  1.00  0.00    -0.331 NA
BRANCH  20  21
HETATM   21  C8  UNL     1       2.211  -1.576   1.614  1.00  0.00     0.229 A 
HETATM   22  C7  UNL     1       2.673  -2.861   2.010  1.00  0.00     0.158 A 
HETATM   23  N1  UNL     1       3.901  -3.304   1.772  1.00  0.00    -0.346 N 
HETATM   24  C6  UNL     1       4.778  -2.519   1.123  1.00  0.00     0.122 A 
ATOM     25  H1  UNL     1       4.178  -4.236   2.080  1.00  0.00     0.167 HD
HETATM   26  C5  UNL     1       4.395  -1.256   0.708  1.00  0.00     0.086 A 
HETATM   27  N7  UNL     1       3.164  -0.830   0.956  1.00  0.00    -0.324 N 
ATOM     28  H7  UNL     1       2.908   0.106   0.641  1.00  0.00     0.169 HD
BRANCH  22  29
HETATM   29  N2  UNL     1       1.818  -3.604   2.623  1.00  0.00    -0.381 N 
ATOM     30  H22 UNL     1       2.149  -4.526   2.907  1.00  0.00     0.157 HD
ATOM     31  H21 UNL     1       0.874  -3.263   2.806  1.00  0.00     0.157 HD
ENDBRANCH  22  29
BRANCH  26  32
HETATM   32  C4  UNL     1       5.382  -0.435  -0.013  1.00  0.00     0.128 A 
HETATM   33  C3  UNL     1       5.147   0.833  -0.526  1.00  0.00     0.068 A 
HETATM   34  C2  UNL     1       6.317   1.241  -1.114  1.00  0.00     0.031 A 
HETATM   35  C1  UNL     1       6.629   2.504  -1.810  1.00  0.00     0.070 C 
HETATM   36  N8  UNL     1       7.205   0.208  -0.933  1.00  0.00    -0.265 N 
HETATM   37  O8  UNL     1       6.602  -0.747  -0.281  1.00  0.00    -0.235 OA
ATOM     38  H8  UNL     1       8.173   0.191  -1.254  1.00  0.00     0.194 HD
ENDBRANCH  26  32
ENDBRANCH  20  21
ENDBRANCH  19  20
BRANCH  19  39
HETATM   39  O1  UNL     1      -0.491  -0.711   3.283  1.00  0.00    -0.310 OA
ATOM     40  H1  UNL     1      -1.355  -0.341   3.421  1.00  0.00     0.223 HD
ENDBRANCH  19  39
ENDBRANCH  18  19
ENDBRANCH   1  18
BRANCH  16  41
HETATM   41  C21 UNL     1      -3.916  -1.275  -0.037  1.00  0.00    -0.025 A 
HETATM   42  C22 UNL     1      -4.264  -1.689  -1.309  1.00  0.00     0.014 A 
HETATM   43  C23 UNL     1      -4.134  -3.033  -1.692  1.00  0.00     0.037 A 
HETATM   44  C24 UNL     1      -3.659  -3.978  -0.816  1.00  0.00     0.102 A 
HETATM   45  C25 UNL     1      -3.314  -3.564   0.457  1.00  0.00     0.037 A 
HETATM   46  C26 UNL     1      -3.445  -2.249   0.817  1.00  0.00     0.014 A 
BRANCH  44  47
HETATM   47  N6  UNL     1      -3.495  -5.355  -1.191  1.00  0.00    -0.116 N 
HETATM   48  O6  UNL     1      -3.061  -6.166  -0.356  1.00  0.00    -0.532 OA
HETATM   49  O7  UNL     1      -3.800  -5.810  -2.443  1.00  0.00    -0.532 OA
ENDBRANCH  44  47
ENDBRANCH  16  41
BRANCH   4  50
HETATM   50  O3  UNL     1       0.898   1.906  -2.644  1.00  0.00    -0.357 OA
ATOM     51  H3  UNL     1       1.564   2.163  -3.271  1.00  0.00     0.218 HD
ENDBRANCH   4  50
TORSDOF 10
