REMARK  2 active torsions:
REMARK  status: ('A' for Active; 'I' for Inactive)
REMARK    1  A    between atoms: N1_2  and  C2_4 
REMARK    2  A    between atoms: C4_10  and  C5_11 
ROOT
HETATM    1  C2  UNL     1      -3.158  -0.476  -0.192  1.00  0.00     0.682 A 
HETATM    2  N2  UNL     1      -2.362  -1.551  -0.520  1.00  0.00    -0.173 N 
ATOM      3  H2  UNL     1      -2.671  -2.476  -0.818  1.00  0.00     0.186 HD
HETATM    4  C3  UNL     1      -1.100  -1.133  -0.367  1.00  0.00     0.168 A 
HETATM    5  N3  UNL     1       0.184  -1.500  -0.463  1.00  0.00    -0.323 N 
ATOM      6  H3  UNL     1       0.491  -2.429  -0.752  1.00  0.00     0.169 HD
HETATM    7  C4  UNL     1       1.027  -0.493  -0.131  1.00  0.00     0.138 A 
HETATM    8  N6  UNL     1       0.228   0.526   0.179  1.00  0.00    -0.323 N 
ATOM      9  H6  UNL     1       0.550   1.447   0.476  1.00  0.00     0.169 HD
HETATM   10  C11 UNL     1      -1.087   0.164   0.043  1.00  0.00     0.169 A 
HETATM   11  N7  UNL     1      -2.364   0.545   0.144  1.00  0.00    -0.169 N 
HETATM   12  C12 UNL     1      -2.763   1.861   0.552  1.00  0.00     0.177 C 
ENDROOT
BRANCH   7  13
HETATM   13  C5  UNL     1       2.494  -0.565  -0.131  1.00  0.00     0.107 A 
HETATM   14  C6  UNL     1       3.145  -1.751  -0.496  1.00  0.00     0.038 A 
HETATM   15  C7  UNL     1       2.498  -3.040  -0.913  1.00  0.00     0.071 C 
HETATM   16  N4  UNL     1       4.455  -1.496  -0.394  1.00  0.00    -0.338 N 
HETATM   17  C8  UNL     1       4.590  -0.214   0.013  1.00  0.00     0.157 A 
ATOM     18  H4  UNL     1       5.213  -2.150  -0.588  1.00  0.00     0.168 HD
HETATM   19  S1  UNL     1       5.729   0.986   0.411  1.00  0.00    -0.044 SA
HETATM   20  N5  UNL     1       3.414   0.391   0.186  1.00  0.00    -0.295 N 
HETATM   21  C9  UNL     1       4.647   2.243   0.791  1.00  0.00     0.070 A 
HETATM   22 BR1  UNL     1       5.035   4.037   1.364  1.00  0.00    -0.041 Br
HETATM   23  C10 UNL     1       3.428   1.643   0.582  1.00  0.00     0.126 A 
ENDBRANCH   7  13
BRANCH   1  24
HETATM   24  N1  UNL     1      -4.440  -0.579  -0.245  1.00  0.00    -0.230 N 
HETATM   25  C1  UNL     1      -5.384   0.432   0.060  1.00  0.00     0.165 C 
ATOM     26  H1  UNL     1      -4.815  -1.482  -0.537  1.00  0.00     0.177 HD
ENDBRANCH   1  24
TORSDOF 2
