REMARK  5 active torsions:
REMARK  status: ('A' for Active; 'I' for Inactive)
REMARK    1  A    between atoms: O1_2  and  C2_3 
REMARK    2  A    between atoms: C2_3  and  O2_4 
REMARK    3  A    between atoms: N4_12  and  C5_13 
REMARK    4  A    between atoms: C6_16  and  N6_17 
REMARK    5  A    between atoms: C7_22  and  N8_23 
ROOT
HETATM    1  C5  UNL     1       1.292   0.158  -0.192  1.00  0.00     0.734 A 
HETATM    2  N5  UNL     1       2.137   0.896   0.576  1.00  0.00    -0.020 N 
ATOM      3  H5  UNL     1       1.907   1.027   1.561  1.00  0.00     0.203 HD
HETATM    4  C6  UNL     1       3.257   1.460   0.104  1.00  0.00     0.705 A 
HETATM    5  N7  UNL     1       3.582   1.301  -1.192  1.00  0.00    -0.022 N 
ATOM      6  H7  UNL     1       4.430   1.724  -1.569  1.00  0.00     0.203 HD
HETATM    7  C7  UNL     1       2.774   0.579  -1.980  1.00  0.00     0.705 A 
HETATM    8  N9  UNL     1       1.653   0.022  -1.481  1.00  0.00    -0.020 N 
ATOM      9  H9  UNL     1       1.056  -0.523  -2.103  1.00  0.00     0.203 HD
ENDROOT
BRANCH   1  10
HETATM   10  N4  UNL     1       0.111  -0.424   0.349  1.00  0.00    -0.037 N 
HETATM   11  C2  UNL     1      -1.238   0.148   0.434  1.00  0.00     0.377 C 
HETATM   12  N1  UNL     1      -1.863  -0.671   1.440  1.00  0.00    -0.287 N 
HETATM   13  C4  UNL     1      -1.100  -1.869   1.549  1.00  0.00     0.209 C 
ATOM     14  H1  UNL     1      -2.698  -0.436   1.976  1.00  0.00     0.169 HD
HETATM   15  N2  UNL     1      -1.545  -3.042   2.253  1.00  0.00    -0.062 NA
HETATM   16  N3  UNL     1      -0.007  -1.686   0.926  1.00  0.00    -0.251 N 
ATOM     17  H3  UNL     1       0.718  -2.400   0.855  1.00  0.00     0.190 HD
BRANCH  11  18
HETATM   18  O1  UNL     1      -1.193   1.456   0.870  1.00  0.00    -0.324 OA
HETATM   19  C1  UNL     1      -2.455   2.014   1.010  1.00  0.00     0.209 C 
ENDBRANCH  11  18
BRANCH  11  20
HETATM   20  O2  UNL     1      -1.873   0.103  -0.798  1.00  0.00    -0.324 OA
HETATM   21  C3  UNL     1      -1.969  -1.171  -1.317  1.00  0.00     0.209 C 
ENDBRANCH  11  20
ENDBRANCH   1  10
BRANCH   4  22
HETATM   22  N6  UNL     1       4.056   2.162   0.843  1.00  0.00    -0.234 N 
ATOM     23  H62 UNL     1       3.810   2.283   1.825  1.00  0.00     0.174 HD
ATOM     24  H61 UNL     1       4.909   2.591   0.484  1.00  0.00     0.174 HD
ENDBRANCH   4  22
BRANCH   7  25
HETATM   25  N8  UNL     1       3.110   0.443  -3.217  1.00  0.00    -0.234 N 
ATOM     26  H82 UNL     1       3.959   0.865  -3.595  1.00  0.00     0.174 HD
ATOM     27  H81 UNL     1       2.495  -0.107  -3.817  1.00  0.00     0.174 HD
ENDBRANCH   7  25
TORSDOF 5
