REMARK  5 active torsions:
REMARK  status: ('A' for Active; 'I' for Inactive)
REMARK    1  A    between atoms: N1_2  and  O1_3 
REMARK    2  A    between atoms: N1_2  and  N2_5 
REMARK    3  A    between atoms: N2_5  and  N3_6 
REMARK    4  A    between atoms: N3_6  and  C2_8 
REMARK       I    between atoms: N4_12  and  C5_13 
REMARK       I    between atoms: C5_13  and  N5_14 
REMARK    5  A    between atoms: N8_19  and  N9_21 
ROOT
HETATM    1  C2  UNL     1      -1.001  -0.161  -1.153  1.00  0.00     0.139 A 
HETATM    2  C3  UNL     1      -0.205   0.106  -2.263  1.00  0.00     0.127 A 
HETATM    3  C4  UNL     1       1.079  -0.338  -2.023  1.00  0.00     0.286 A 
HETATM    4  O2  UNL     1       2.062  -0.263  -2.804  1.00  0.00    -0.266 OA
HETATM    5  N4  UNL     1       1.054  -0.863  -0.790  1.00  0.00    -0.045 N 
HETATM    6  C5  UNL     1       2.152  -1.449  -0.111  1.00  0.00     0.723 C 
HETATM    7  N5  UNL     1       3.164  -0.714   0.515  1.00  0.00    -0.163 N 
ATOM      8  H5  UNL     1       3.967  -1.264   0.821  1.00  0.00     0.186 HD
HETATM    9  C6  UNL     1       3.242   0.516   0.761  1.00  0.00     0.215 C 
HETATM   10  N6  UNL     1       4.399   1.016   1.420  1.00  0.00    -0.066 NA
HETATM   11  N7  UNL     1       2.230   1.440   0.418  1.00  0.00    -0.066 NA
HETATM   12  N8  UNL     1       2.220  -2.742  -0.071  1.00  0.00    -0.137 N 
ATOM     13  H8  UNL     1       1.482  -3.278  -0.528  1.00  0.00     0.205 HD
HETATM   14  N10 UNL     1      -0.167  -0.760  -0.276  1.00  0.00    -0.260 N 
ATOM     15  H10 UNL     1      -0.437  -1.088   0.652  1.00  0.00     0.190 HD
ENDROOT
BRANCH  12  16
HETATM   16  N9  UNL     1       3.243  -3.439   0.561  1.00  0.00    -0.331 N 
ATOM     17  H92 UNL     1       3.972  -2.887   1.013  1.00  0.00     0.177 HD
ATOM     18  H91 UNL     1       3.297  -4.457   0.592  1.00  0.00     0.177 HD
ENDBRANCH  12  16
BRANCH   1  19
HETATM   19  N3  UNL     1      -2.382   0.123  -0.957  1.00  0.00    -0.271 N 
ATOM     20  H3  UNL     1      -3.081  -0.565  -1.236  1.00  0.00     0.185 HD
BRANCH  19  21
HETATM   21  N2  UNL     1      -2.787   1.313  -0.397  1.00  0.00    -0.021 NA
BRANCH  21  22
HETATM   22  N1  UNL     1      -3.496   1.120   0.800  1.00  0.00    -0.096 NA
HETATM   23  C1  UNL     1      -4.862   1.521   0.607  1.00  0.00     0.168 C 
BRANCH  22  24
HETATM   24  O1  UNL     1      -3.378  -0.138   1.270  1.00  0.00    -0.296 OA
ATOM     25  H1  UNL     1      -2.475  -0.403   1.398  1.00  0.00     0.238 HD
ENDBRANCH  22  24
ENDBRANCH  21  22
ENDBRANCH  19  21
ENDBRANCH   1  19
TORSDOF 5
