REMARK  4 active torsions:
REMARK  status: ('A' for Active; 'I' for Inactive)
REMARK    1  A    between atoms: C2_2  and  N8_21 
REMARK    2  A    between atoms: N1_3  and  N2_5 
REMARK    3  A    between atoms: C3_6  and  N3_7 
REMARK    4  A    between atoms: N8_21  and  N9_23 
REMARK       I    between atoms: N9_23  and  C7_25 
REMARK       I    between atoms: C7_25  and  N10_26 
REMARK       I    between atoms: C7_25  and  N11_30 
ROOT
HETATM    1  C1  UNL     1       1.416  -2.461  -1.007  1.00  0.00     0.092 C 
HETATM    2  C2  UNL     1       0.482  -1.414  -0.569  1.00  0.00     0.107 C 
HETATM    3  N1  UNL     1      -0.771  -1.603  -0.621  1.00  0.00    -0.265 N 
ATOM      4  H1  UNL     1      -1.101  -2.501  -0.975  1.00  0.00     0.189 HD
ENDROOT
BRANCH   3   5
HETATM    5  N2  UNL     1      -1.730  -0.667  -0.227  1.00  0.00    -0.065 N 
HETATM    6  C3  UNL     1      -2.161  -0.690   1.047  1.00  0.00     0.702 A 
HETATM    7  N4  UNL     1      -3.096   0.205   1.475  1.00  0.00    -0.152 N 
HETATM    8  C4  UNL     1      -3.619   1.136   0.653  1.00  0.00     0.291 A 
ATOM      9  H4  UNL     1      -3.409   0.169   2.445  1.00  0.00     0.187 HD
HETATM   10  O1  UNL     1      -4.484   1.961   1.058  1.00  0.00    -0.265 OA
HETATM   11  C5  UNL     1      -3.195   1.181  -0.654  1.00  0.00     0.162 A 
HETATM   12  N5  UNL     1      -3.518   1.971  -1.694  1.00  0.00    -0.276 N 
HETATM   13  C6  UNL     1      -2.244   0.254  -1.049  1.00  0.00     0.192 A 
HETATM   14  N6  UNL     1      -2.785   1.544  -2.707  1.00  0.00    -0.020 NA
ATOM     15  H5  UNL     1      -4.189   2.739  -1.699  1.00  0.00     0.184 HD
HETATM   16  N7  UNL     1      -2.021   0.525  -2.348  1.00  0.00    -0.265 N 
ATOM     17  H7  UNL     1      -1.370   0.027  -2.956  1.00  0.00     0.186 HD
BRANCH   6  18
HETATM   18  N3  UNL     1      -1.669  -1.579   1.854  1.00  0.00    -0.233 N 
ATOM     19  H32 UNL     1      -0.969  -2.249   1.534  1.00  0.00     0.174 HD
ATOM     20  H31 UNL     1      -1.996  -1.596   2.820  1.00  0.00     0.174 HD
ENDBRANCH   6  18
ENDBRANCH   3   5
BRANCH   2  21
HETATM   21  N8  UNL     1       0.992  -0.188  -0.085  1.00  0.00    -0.289 N 
ATOM     22  H8  UNL     1       0.541   0.694  -0.328  1.00  0.00     0.188 HD
BRANCH  21  23
HETATM   23  N9  UNL     1       2.109  -0.207   0.721  1.00  0.00    -0.283 N 
HETATM   24  C7  UNL     1       3.076   0.804   0.430  1.00  0.00     0.494 C 
HETATM   25  N10 UNL     1       4.181   0.647   1.360  1.00  0.00    -0.032 N 
HETATM   26  N11 UNL     1       3.567   0.624  -0.913  1.00  0.00    -0.032 N 
ATOM     27 3H10 UNL     1       3.881   0.656   2.335  1.00  0.00     0.279 HD
ATOM     28 2H10 UNL     1       4.577  -0.293   1.348  1.00  0.00     0.279 HD
ATOM     29 1H10 UNL     1       4.871   1.369   1.152  1.00  0.00     0.279 HD
ATOM     30 3H11 UNL     1       3.932  -0.316  -1.068  1.00  0.00     0.279 HD
ATOM     31 2H11 UNL     1       2.813   0.602  -1.600  1.00  0.00     0.279 HD
ATOM     32 1H11 UNL     1       4.257   1.346  -1.121  1.00  0.00     0.279 HD
ATOM     33  H9  UNL     1       2.236  -0.890   1.468  1.00  0.00     0.184 HD
ENDBRANCH  21  23
ENDBRANCH   2  21
TORSDOF 4
