REMARK  10 active torsions:
REMARK  status: ('A' for Active; 'I' for Inactive)
REMARK    1  A    between atoms: S1_2  and  N1_4 
REMARK    2  A    between atoms: S1_2  and  C4_12 
REMARK    3  A    between atoms: N1_4  and  C1_6 
REMARK    4  A    between atoms: C7_15  and  C8_16 
REMARK    5  A    between atoms: C9_17  and  C10_18 
REMARK    6  A    between atoms: C10_18  and  C11_19 
REMARK    7  A    between atoms: C11_19  and  C12_20 
REMARK    8  A    between atoms: C12_20  and  N3_21 
REMARK    9  A    between atoms: C13_22  and  O3_23 
REMARK   10  A    between atoms: C16_27  and  C17_28 
ROOT
HETATM    1  C4  UNL     1       3.606   0.671   1.139  1.00  0.00     0.080 A 
HETATM    2  C5  UNL     1       3.125  -0.208   0.181  1.00  0.00     0.027 A 
HETATM    3  C6  UNL     1       1.780  -0.217  -0.174  1.00  0.00     0.022 A 
HETATM    4  C7  UNL     1       0.882   0.646   0.403  1.00  0.00     0.017 A 
HETATM    5  C18 UNL     1       1.384   1.499   1.349  1.00  0.00     0.022 A 
HETATM    6  C19 UNL     1       2.709   1.516   1.715  1.00  0.00     0.027 A 
ENDROOT
BRANCH   4   7
HETATM    7  C8  UNL     1      -0.498   0.647  -0.008  1.00  0.00    -0.067 C 
HETATM    8  C9  UNL     1      -1.656   0.724  -0.421  1.00  0.00    -0.101 C 
BRANCH   8   9
HETATM    9  C10 UNL     1      -2.976   0.868  -1.009  1.00  0.00     0.096 C 
BRANCH   9  10
HETATM   10  C11 UNL     1      -3.548  -0.287  -1.694  1.00  0.00     0.032 C 
BRANCH  10  11
HETATM   11  C12 UNL     1      -4.141  -1.414  -0.957  1.00  0.00     0.132 C 
BRANCH  11  12
HETATM   12  N3  UNL     1      -5.188  -0.938  -0.020  1.00  0.00    -0.324 N 
HETATM   13  C13 UNL     1      -5.005  -0.902   1.308  1.00  0.00     0.142 A 
HETATM   14  C14 UNL     1      -6.096  -0.298   1.903  1.00  0.00     0.058 A 
HETATM   15  C15 UNL     1      -6.950   0.025   0.907  1.00  0.00     0.039 A 
HETATM   16  C16 UNL     1      -6.367  -0.382  -0.306  1.00  0.00     0.120 A 
BRANCH  13  17
HETATM   17  O3  UNL     1      -3.911  -1.376   2.016  1.00  0.00    -0.346 OA
ATOM     18  H3  UNL     1      -3.781  -1.350   2.957  1.00  0.00     0.219 HD
ENDBRANCH  13  17
BRANCH  16  19
HETATM   19  C17 UNL     1      -7.016  -0.187  -1.610  1.00  0.00     0.432 C 
HETATM   20  F1  UNL     1      -8.380   0.123  -1.385  1.00  0.00    -0.165 F 
HETATM   21  F2  UNL     1      -7.024  -1.257  -2.448  1.00  0.00    -0.165 F 
HETATM   22  F3  UNL     1      -6.592   0.947  -2.289  1.00  0.00    -0.165 F 
ENDBRANCH  16  19
ENDBRANCH  11  12
ENDBRANCH  10  11
ENDBRANCH   9  10
ENDBRANCH   8   9
ENDBRANCH   4   7
BRANCH   1  23
HETATM   23  S1  UNL     1       5.255   0.619   1.684  1.00  0.00     0.264 S 
HETATM   24  O1  UNL     1       5.552  -0.693   2.367  1.00  0.00    -0.200 OA
HETATM   25  O2  UNL     1       5.413   1.675   2.797  1.00  0.00    -0.200 OA
BRANCH  23  26
HETATM   26  N1  UNL     1       6.292   1.043   0.436  1.00  0.00    -0.260 N 
ATOM     27  H1  UNL     1       6.150   1.936  -0.035  1.00  0.00     0.181 HD
BRANCH  26  28
HETATM   28  C1  UNL     1       7.285   0.267   0.038  1.00  0.00     0.158 A 
HETATM   29  N2  UNL     1       8.156   0.549  -0.949  1.00  0.00    -0.345 N 
HETATM   30  C2  UNL     1       9.094  -0.306  -1.233  1.00  0.00     0.097 A 
ATOM     31  H2  UNL     1       8.081   1.424  -1.468  1.00  0.00     0.167 HD
HETATM   32  C3  UNL     1       9.131  -1.479  -0.475  1.00  0.00     0.070 A 
HETATM   33  S2  UNL     1       7.818  -1.250   0.577  1.00  0.00    -0.064 SA
ENDBRANCH  26  28
ENDBRANCH  23  26
ENDBRANCH   1  23
TORSDOF 10
