REMARK  7 active torsions:
REMARK  status: ('A' for Active; 'I' for Inactive)
REMARK       I    between atoms: N1_2  and  C2_4 
REMARK    1  A    between atoms: C2_4  and  C3_6 
REMARK    2  A    between atoms: N2_8  and  C5_9 
REMARK    3  A    between atoms: C8_12  and  N3_13 
REMARK    4  A    between atoms: C11_18  and  O2_19 
REMARK    5  A    between atoms: C12_21  and  C13_22 
REMARK    6  A    between atoms: C13_22  and  C14_23 
REMARK    7  A    between atoms: C14_23  and  C15_24 
ROOT
HETATM    1  C5  UNL     1       0.614  -0.114   0.483  1.00  0.00     0.224 C 
HETATM    2  C6  UNL     1       1.195   1.223   0.729  1.00  0.00     0.041 C 
HETATM    3  C7  UNL     1       2.702   1.309   0.787  1.00  0.00     0.055 C 
HETATM    4  C8  UNL     1       3.218   0.540  -0.440  1.00  0.00     0.002 C 
HETATM    5  C12 UNL     1       2.874  -0.883  -0.344  1.00  0.00     0.034 C 
HETATM    6  C16 UNL     1       1.323  -0.934  -0.561  1.00  0.00     0.046 C 
ENDROOT
BRANCH   1   7
HETATM    7  N2  UNL     1      -0.753   0.077   0.009  1.00  0.00     0.094 N 
HETATM    8  C4  UNL     1      -1.603   0.720   0.985  1.00  0.00     0.287 C 
HETATM    9  C3  UNL     1      -2.883   1.095   0.220  1.00  0.00     0.110 C 
HETATM   10  C23 UNL     1      -3.611  -0.253   0.094  1.00  0.00     0.006 C 
HETATM   11  C18 UNL     1      -2.747  -1.037  -0.864  1.00  0.00     0.019 C 
HETATM   12  C22 UNL     1      -4.981  -0.113  -0.511  1.00  0.00     0.006 C 
HETATM   13  C17 UNL     1      -1.313  -1.148  -0.455  1.00  0.00     0.278 C 
HETATM   14  C19 UNL     1      -3.325  -2.404  -1.129  1.00  0.00     0.007 C 
HETATM   15  C20 UNL     1      -4.598  -2.590  -0.339  1.00  0.00     0.000 C 
HETATM   16  C21 UNL     1      -5.594  -1.504  -0.612  1.00  0.00     0.000 C 
BRANCH   9  17
HETATM   17  C2  UNL     1      -3.636   2.126   0.914  1.00  0.00     0.223 C 
HETATM   18  N1  UNL     1      -4.680   2.822   0.258  1.00  0.00    -0.365 N 
HETATM   19  C1  UNL     1      -5.447   3.860   0.937  1.00  0.00     0.149 C 
ATOM     20  H1  UNL     1      -4.901   2.592  -0.711  1.00  0.00     0.161 HD
HETATM   21  O1  UNL     1      -3.375   2.417   2.102  1.00  0.00    -0.273 OA
ENDBRANCH   9  17
ENDBRANCH   1   7
BRANCH   5  22
HETATM   22  C13 UNL     1       3.104  -1.636   0.893  1.00  0.00     0.019 C 
BRANCH  22  23
HETATM   23  C14 UNL     1       4.504  -1.811   1.354  1.00  0.00     0.118 C 
BRANCH  23  24
HETATM   24  C15 UNL     1       5.380  -2.675   0.504  1.00  0.00     0.387 C 
HETATM   25  F1  UNL     1       5.532  -2.269  -0.756  1.00  0.00    -0.171 F 
HETATM   26  F2  UNL     1       6.633  -2.756   1.112  1.00  0.00    -0.171 F 
HETATM   27  F3  UNL     1       4.926  -3.994   0.470  1.00  0.00    -0.171 F 
ENDBRANCH  23  24
ENDBRANCH  22  23
ENDBRANCH   5  22
BRANCH   4  28
HETATM   28  N3  UNL     1       4.451   1.008  -0.937  1.00  0.00    -0.295 N 
HETATM   29  C9  UNL     1       4.898   0.915  -2.229  1.00  0.00     0.190 A 
HETATM   30  N4  UNL     1       6.100   1.489  -2.359  1.00  0.00    -0.358 N 
HETATM   31  C10 UNL     1       6.438   1.964  -1.123  1.00  0.00     0.145 A 
ATOM     32  H4  UNL     1       6.654   1.558  -3.212  1.00  0.00     0.166 HD
HETATM   33  C11 UNL     1       5.414   1.661  -0.258  1.00  0.00     0.163 A 
BRANCH  33  34
HETATM   34  O2  UNL     1       5.388   1.978   1.078  1.00  0.00    -0.345 OA
ATOM     35  H2  UNL     1       6.067   2.438   1.557  1.00  0.00     0.219 HD
ENDBRANCH  33  34
ENDBRANCH   4  28
TORSDOF 7
