REMARK  8 active torsions:
REMARK  status: ('A' for Active; 'I' for Inactive)
REMARK    1  A    between atoms: C2_2  and  C5_5 
REMARK    2  A    between atoms: C5_5  and  O1_6 
REMARK    3  A    between atoms: O1_6  and  C6_7 
REMARK       I    between atoms: C6_7  and  N1_9 
REMARK    4  A    between atoms: N1_9  and  S1_11 
REMARK    5  A    between atoms: S1_11  and  C7_14 
REMARK    6  A    between atoms: C10_17  and  C11_18 
REMARK       I    between atoms: C11_18  and  N2_20 
REMARK    7  A    between atoms: N2_20  and  C12_22 
REMARK    8  A    between atoms: C15_25  and  C16_26 
ROOT
HETATM    1  C7  UNL     1      -0.303   1.103   1.630  1.00  0.00     0.080 A 
HETATM    2  C8  UNL     1       0.582   0.321   2.386  1.00  0.00     0.026 A 
HETATM    3  C9  UNL     1       1.897   0.153   1.962  1.00  0.00     0.018 A 
HETATM    4  C10 UNL     1       2.395   0.720   0.825  1.00  0.00     0.032 A 
HETATM    5  C19 UNL     1       1.503   1.500   0.068  1.00  0.00     0.018 A 
HETATM    6  C20 UNL     1       0.214   1.672   0.469  1.00  0.00     0.026 A 
ENDROOT
BRANCH   4   7
HETATM    7  C11 UNL     1       3.792   0.610   0.405  1.00  0.00     0.256 C 
HETATM    8  O5  UNL     1       4.345   1.759   0.180  1.00  0.00    -0.267 OA
HETATM    9  N2  UNL     1       4.531  -0.544   0.237  1.00  0.00    -0.323 N 
ATOM     10  H2  UNL     1       4.072  -1.434   0.429  1.00  0.00     0.169 HD
BRANCH   9  11
HETATM   11  C12 UNL     1       5.868  -0.577  -0.179  1.00  0.00     0.035 A 
HETATM   12  C13 UNL     1       6.495   0.448  -0.863  1.00  0.00     0.030 A 
HETATM   13  C14 UNL     1       7.855   0.411  -1.214  1.00  0.00     0.018 A 
HETATM   14  C15 UNL     1       8.647  -0.675  -0.891  1.00  0.00     0.048 A 
HETATM   15  C17 UNL     1       8.023  -1.717  -0.204  1.00  0.00     0.018 A 
HETATM   16  C18 UNL     1       6.711  -1.659   0.125  1.00  0.00     0.030 A 
BRANCH  14  17
HETATM   17  C16 UNL     1      10.092  -0.719  -1.256  1.00  0.00     0.417 C 
HETATM   18  F1  UNL     1      10.307  -0.349  -2.567  1.00  0.00    -0.166 F 
HETATM   19  F2  UNL     1      10.557  -1.997  -1.004  1.00  0.00    -0.166 F 
HETATM   20  F3  UNL     1      10.706   0.220  -0.424  1.00  0.00    -0.166 F 
ENDBRANCH  14  17
ENDBRANCH   9  11
ENDBRANCH   4   7
BRANCH   1  21
HETATM   21  S1  UNL     1      -1.900   1.515   2.170  1.00  0.00     0.267 S 
HETATM   22  O3  UNL     1      -1.907   1.688   3.699  1.00  0.00    -0.200 OA
HETATM   23  O4  UNL     1      -2.203   2.905   1.606  1.00  0.00    -0.200 OA
BRANCH  21  24
HETATM   24  N1  UNL     1      -3.143   0.437   1.779  1.00  0.00    -0.226 N 
HETATM   25  C6  UNL     1      -3.995   0.748   0.701  1.00  0.00     0.374 C 
HETATM   26  O2  UNL     1      -3.798   1.782   0.026  1.00  0.00    -0.237 OA
ATOM     27  H1  UNL     1      -3.273  -0.422   2.313  1.00  0.00     0.184 HD
BRANCH  25  28
HETATM   28  O1  UNL     1      -5.058  -0.066   0.387  1.00  0.00    -0.303 OA
BRANCH  28  29
HETATM   29  C5  UNL     1      -5.876   0.340  -0.718  1.00  0.00     0.189 C 
BRANCH  29  30
HETATM   30  C2  UNL     1      -7.107  -0.529  -0.734  1.00  0.00    -0.029 C 
HETATM   31  C1  UNL     1      -8.024  -0.165  -1.880  1.00  0.00     0.016 C 
HETATM   32  C3  UNL     1      -7.870  -0.279   0.563  1.00  0.00     0.016 C 
HETATM   33  C4  UNL     1      -6.800  -2.001  -0.818  1.00  0.00     0.016 C 
ENDBRANCH  29  30
ENDBRANCH  28  29
ENDBRANCH  25  28
ENDBRANCH  21  24
ENDBRANCH   1  21
TORSDOF 8
