REMARK  6 active torsions:
REMARK  status: ('A' for Active; 'I' for Inactive)
REMARK    1  A    between atoms: C3_3  and  N1_4 
REMARK    2  A    between atoms: N1_4  and  C4_5 
REMARK    3  A    between atoms: C4_5  and  C5_6 
REMARK    4  A    between atoms: C5_6  and  N2_7 
REMARK    5  A    between atoms: N2_7  and  C8_10 
REMARK    6  A    between atoms: C8_10  and  O1_12 
ROOT
HETATM    1  C1  UNL     1      -2.297   3.093   0.072  1.00  0.00     0.013 C 
HETATM    2  C2  UNL     1      -2.098   1.984   0.505  1.00  0.00    -0.089 C 
HETATM    3  C3  UNL     1      -1.876   0.626   1.048  1.00  0.00     0.330 C 
ENDROOT
BRANCH   3   4
HETATM    4  N1  UNL     1      -1.561  -0.319   0.009  1.00  0.00    -0.052 N 
HETATM    5  C10 UNL     1      -2.595  -0.296  -0.998  1.00  0.00     0.264 C 
HETATM    6  C11 UNL     1      -3.928  -0.441  -0.356  1.00  0.00     0.195 C 
HETATM    7  O2  UNL     1      -3.965  -1.552   0.439  1.00  0.00    -0.388 OA
HETATM    8  C12 UNL     1      -2.864  -2.360   0.432  1.00  0.00     0.195 C 
HETATM    9  C13 UNL     1      -1.560  -1.640   0.602  1.00  0.00     0.264 C 
BRANCH   4  10
HETATM   10  C4  UNL     1      -0.320  -0.011  -0.660  1.00  0.00     0.266 C 
BRANCH  10  11
HETATM   11  C5  UNL     1       0.882  -0.263   0.220  1.00  0.00     0.267 C 
BRANCH  11  12
HETATM   12  N2  UNL     1       2.118   0.038  -0.433  1.00  0.00    -0.048 N 
HETATM   13  C6  UNL     1       2.608  -1.133  -1.175  1.00  0.00     0.275 C 
HETATM   14  C7  UNL     1       1.935   1.083  -1.420  1.00  0.00     0.275 C 
BRANCH  12  15
HETATM   15  C8  UNL     1       3.106   0.353   0.549  1.00  0.00     0.318 C 
HETATM   16  C9  UNL     1       3.453   1.820   0.609  1.00  0.00     0.071 C 
BRANCH  15  17
HETATM   17  O1  UNL     1       4.306  -0.336   0.330  1.00  0.00    -0.370 OA
ATOM     18  H1  UNL     1       4.963  -0.126   0.983  1.00  0.00     0.212 HD
ENDBRANCH  15  17
ENDBRANCH  12  15
ENDBRANCH  11  12
ENDBRANCH  10  11
ENDBRANCH   4  10
ENDBRANCH   3   4
TORSDOF 6
