REMARK  6 active torsions:
REMARK  status: ('A' for Active; 'I' for Inactive)
REMARK    1  A    between atoms: C3_3  and  N1_4 
REMARK    2  A    between atoms: N1_4  and  C6_7 
REMARK    3  A    between atoms: C6_7  and  C7_8 
REMARK    4  A    between atoms: C7_8  and  C8_9 
REMARK    5  A    between atoms: C8_9  and  N2_10 
REMARK    6  A    between atoms: C13_15  and  O1_16 
ROOT
HETATM    1  C1  UNL     1       5.202  -0.242   0.260  1.00  0.00     0.013 C 
HETATM    2  C2  UNL     1       4.234  -0.065  -0.435  1.00  0.00    -0.089 C 
HETATM    3  C3  UNL     1       3.086   0.164  -1.286  1.00  0.00     0.329 C 
ENDROOT
BRANCH   3   4
HETATM    4  N1  UNL     1       1.836  -0.352  -0.703  1.00  0.00    -0.062 N 
HETATM    5  C4  UNL     1       1.503  -1.546  -1.497  1.00  0.00     0.273 C 
HETATM    6  C5  UNL     1       2.182  -0.828   0.606  1.00  0.00     0.273 C 
BRANCH   4   7
HETATM    7  C6  UNL     1       0.862   0.647  -0.814  1.00  0.00     0.277 C 
BRANCH   7   8
HETATM    8  C7  UNL     1      -0.281   0.624   0.204  1.00  0.00     0.117 C 
HETATM    9  C12 UNL     1      -0.798   2.043   0.318  1.00  0.00     0.102 C 
HETATM   10  C13 UNL     1       0.129   2.128   1.509  1.00  0.00     0.260 C 
HETATM   11  O2  UNL     1       0.134   0.740   1.521  1.00  0.00    -0.347 OA
BRANCH   8  12
HETATM   12  C8  UNL     1      -1.228  -0.444  -0.139  1.00  0.00     0.275 C 
BRANCH  12  13
HETATM   13  N2  UNL     1      -2.504  -0.529   0.454  1.00  0.00    -0.076 N 
HETATM   14  C9  UNL     1      -3.533   0.267  -0.104  1.00  0.00     0.271 C 
HETATM   15  C10 UNL     1      -2.524  -0.364   1.895  1.00  0.00     0.271 C 
HETATM   16  C11 UNL     1      -2.924  -1.935   0.253  1.00  0.00     0.271 C 
ENDBRANCH  12  13
ENDBRANCH   8  12
BRANCH  10  17
HETATM   17  O1  UNL     1       1.325   2.760   1.321  1.00  0.00    -0.371 OA
ATOM     18  H1  UNL     1       1.908   2.813   2.069  1.00  0.00     0.212 HD
ENDBRANCH  10  17
ENDBRANCH   7   8
ENDBRANCH   4   7
ENDBRANCH   3   4
TORSDOF 6
