REMARK  6 active torsions:
REMARK  status: ('A' for Active; 'I' for Inactive)
REMARK    1  A    between atoms: C2_2  and  C3_3 
REMARK    2  A    between atoms: C3_3  and  C4_4 
REMARK    3  A    between atoms: C4_4  and  C5_5 
REMARK    4  A    between atoms: C5_5  and  O1_6 
REMARK    5  A    between atoms: C5_5  and  C6_8 
REMARK    6  A    between atoms: C6_8  and  N1_9 
ROOT
HETATM    1  N1  UNL     1      -0.720   0.046   0.113  1.00  0.00     0.133 N 
HETATM    2  C7  UNL     1      -0.926   0.922   1.269  1.00  0.00     0.319 C 
HETATM    3  C8  UNL     1      -1.188   0.840  -1.032  1.00  0.00     0.325 C 
HETATM    4  C9  UNL     1      -2.479   1.481  -0.967  1.00  0.00     0.088 C 
HETATM    5  N2  UNL     1      -3.394   1.207   0.071  1.00  0.00    -0.394 N 
HETATM    6  C10 UNL     1      -4.430   2.164   0.249  1.00  0.00     0.148 C 
HETATM    7  C11 UNL     1      -3.766  -0.153   0.255  1.00  0.00     0.160 C 
HETATM    8  C12 UNL     1      -2.784  -1.015  -0.454  1.00  0.00     0.369 C 
HETATM    9  N3  UNL     1      -1.478  -1.108   0.212  1.00  0.00     0.181 N 
HETATM   10  C13 UNL     1      -0.907  -2.317  -0.319  1.00  0.00     0.397 C 
HETATM   11  O2  UNL     1      -1.786  -1.409   1.518  1.00  0.00    -0.037 OA
ENDROOT
BRANCH   1  12
HETATM   12  C6  UNL     1       0.648  -0.254  -0.150  1.00  0.00     0.312 C 
BRANCH  12  13
HETATM   13  C5  UNL     1       1.632  -0.095   0.988  1.00  0.00     0.147 C 
BRANCH  13  14
HETATM   14  C4  UNL     1       3.023  -0.492   0.460  1.00  0.00     0.033 C 
BRANCH  14  15
HETATM   15  C3  UNL     1       3.493   0.341  -0.674  1.00  0.00     0.002 C 
BRANCH  15  16
HETATM   16  C2  UNL     1       4.883  -0.185  -1.064  1.00  0.00    -0.004 C 
HETATM   17  C1  UNL     1       5.804  -0.049   0.146  1.00  0.00     0.005 C 
ENDBRANCH  15  16
ENDBRANCH  14  15
ENDBRANCH  13  14
BRANCH  13  18
HETATM   18  O1  UNL     1       1.383  -0.984   2.031  1.00  0.00    -0.394 OA
ATOM     19  H1  UNL     1       0.525  -0.739   2.357  1.00  0.00     0.210 HD
ENDBRANCH  13  18
ENDBRANCH  12  13
ENDBRANCH   1  12
TORSDOF 6
