REMARK  5 active torsions:
REMARK  status: ('A' for Active; 'I' for Inactive)
REMARK    1  A    between atoms: C2_2  and  N1_3 
REMARK    2  A    between atoms: C7_9  and  C8_10 
REMARK    3  A    between atoms: C8_10  and  N2_11 
REMARK    4  A    between atoms: C12_15  and  C13_16 
REMARK    5  A    between atoms: C13_16  and  O2_17 
ROOT
HETATM    1  N1  UNL     1      -1.919   0.274  -0.103  1.00  0.00    -0.055 N 
HETATM    2  C3  UNL     1      -1.712  -0.277  -1.427  1.00  0.00     0.273 C 
HETATM    3  C4  UNL     1      -1.861   1.712  -0.020  1.00  0.00     0.272 C 
HETATM    4  C5  UNL     1      -1.152   1.541   1.321  1.00  0.00     0.186 C 
HETATM    5  O1  UNL     1       0.007   2.261   1.433  1.00  0.00    -0.381 OA
HETATM    6  C6  UNL     1       1.093   1.375   1.243  1.00  0.00     0.177 C 
HETATM    7  C7  UNL     1       0.548   0.493   0.143  1.00  0.00     0.077 C 
HETATM    8  C12 UNL     1      -0.804   0.173   0.762  1.00  0.00     0.184 C 
ENDROOT
BRANCH   7   9
HETATM    9  C8  UNL     1       1.338  -0.725  -0.145  1.00  0.00     0.245 C 
BRANCH   9  10
HETATM   10  N2  UNL     1       2.683  -0.548  -0.564  1.00  0.00    -0.078 N 
HETATM   11  C9  UNL     1       3.179  -1.765  -1.242  1.00  0.00     0.271 C 
HETATM   12  C10 UNL     1       2.860   0.498  -1.550  1.00  0.00     0.271 C 
HETATM   13  C11 UNL     1       3.591  -0.316   0.541  1.00  0.00     0.271 C 
ENDBRANCH   9  10
ENDBRANCH   7   9
BRANCH   8  14
HETATM   14  C13 UNL     1      -0.755  -0.951   1.730  1.00  0.00     0.207 C 
BRANCH  14  15
HETATM   15  O2  UNL     1      -1.777  -1.011   2.641  1.00  0.00    -0.398 OA
ATOM     16  H2  UNL     1      -1.746  -1.730   3.261  1.00  0.00     0.209 HD
ENDBRANCH  14  15
ENDBRANCH   8  14
BRANCH   1  17
HETATM   17  C2  UNL     1      -3.158  -0.193   0.456  1.00  0.00     0.234 C 
HETATM   18  C1  UNL     1      -4.329   0.124  -0.488  1.00  0.00     0.035 C 
ENDBRANCH   1  17
TORSDOF 5
