REMARK  6 active torsions:
REMARK  status: ('A' for Active; 'I' for Inactive)
REMARK    1  A    between atoms: C2_2  and  C3_3 
REMARK    2  A    between atoms: C3_3  and  C4_4 
REMARK    3  A    between atoms: C4_4  and  N1_5 
REMARK    4  A    between atoms: N2_9  and  C8_10 
REMARK    5  A    between atoms: C8_10  and  C9_11 
REMARK    6  A    between atoms: C9_11  and  O1_12 
ROOT
HETATM    1  N1  UNL     1       0.742   0.305   0.378  1.00  0.00    -0.067 N 
HETATM    2  C5  UNL     1       1.207   1.677   0.478  1.00  0.00     0.272 C 
HETATM    3  C6  UNL     1      -0.275   0.106   1.365  1.00  0.00     0.265 C 
HETATM    4  C7  UNL     1      -1.633   0.603   0.936  1.00  0.00     0.268 C 
HETATM    5  N2  UNL     1      -2.091  -0.013  -0.293  1.00  0.00    -0.035 N 
HETATM    6  C10 UNL     1      -2.524   0.992  -1.201  1.00  0.00     0.405 C 
HETATM    7  O2  UNL     1      -2.271   0.563  -2.494  1.00  0.00    -0.362 OA
HETATM    8  C11 UNL     1      -1.534  -0.590  -2.442  1.00  0.00     0.205 C 
HETATM    9  C12 UNL     1      -1.040  -0.694  -1.001  1.00  0.00     0.242 C 
HETATM   10  C13 UNL     1       0.290  -0.017  -0.944  1.00  0.00     0.272 C 
ENDROOT
BRANCH   1  11
HETATM   11  C4  UNL     1       1.891  -0.528   0.762  1.00  0.00     0.237 C 
BRANCH  11  12
HETATM   12  C3  UNL     1       3.137   0.019   0.092  1.00  0.00     0.027 C 
BRANCH  12  13
HETATM   13  C2  UNL     1       4.309  -0.854   0.501  1.00  0.00    -0.003 C 
HETATM   14  C1  UNL     1       5.536  -0.266  -0.196  1.00  0.00     0.005 C 
ENDBRANCH  12  13
ENDBRANCH  11  12
ENDBRANCH   1  11
BRANCH   5  15
HETATM   15  C8  UNL     1      -3.091  -0.985   0.057  1.00  0.00     0.266 C 
BRANCH  15  16
HETATM   16  C9  UNL     1      -4.489  -0.454   0.066  1.00  0.00     0.192 C 
BRANCH  16  17
HETATM   17  O1  UNL     1      -4.641   0.589   0.980  1.00  0.00    -0.399 OA
ATOM     18  H1  UNL     1      -5.529   0.926   0.986  1.00  0.00     0.209 HD
ENDBRANCH  16  17
ENDBRANCH  15  16
ENDBRANCH   5  15
TORSDOF 6
