REMARK  11 active torsions:
REMARK  status: ('A' for Active; 'I' for Inactive)
REMARK    1  A    between atoms: N1_1  and  C1_4 
REMARK    2  A    between atoms: C3_8  and  C4_9 
REMARK    3  A    between atoms: N5_14  and  C5_15 
REMARK    4  A    between atoms: C6_19  and  C7_20 
REMARK    5  A    between atoms: C7_20  and  O1_21 
REMARK    6  A    between atoms: C8_23  and  O2_24 
REMARK    7  A    between atoms: C9_26  and  N7_27 
REMARK    8  A    between atoms: N7_27  and  N8_29 
REMARK    9  A    between atoms: N8_29  and  N9_31 
REMARK   10  A    between atoms: N9_31  and  C10_32 
REMARK   11  A    between atoms: N10_34  and  N11_35 
ROOT
HETATM    1  C4  UNL     1      -1.423   1.260   1.189  1.00  0.00     0.113 A 
HETATM    2  N3  UNL     1      -1.978   1.191   2.443  1.00  0.00    -0.281 N 
ATOM      3  H3  UNL     1      -2.442   1.955   2.935  1.00  0.00     0.188 HD
HETATM    4  N4  UNL     1      -1.807  -0.034   2.901  1.00  0.00    -0.236 N 
ATOM      5  H4  UNL     1      -2.122  -0.362   3.814  1.00  0.00     0.208 HD
HETATM    6  N5  UNL     1      -1.169  -0.780   2.011  1.00  0.00    -0.224 N 
HETATM    7  C9  UNL     1      -0.914  -0.029   0.959  1.00  0.00     0.172 A 
ENDROOT
BRANCH   7   8
HETATM    8  N7  UNL     1      -0.173  -0.371  -0.242  1.00  0.00    -0.257 N 
ATOM      9  H7  UNL     1      -0.504  -1.021  -0.955  1.00  0.00     0.191 HD
BRANCH   8  10
HETATM   10  N8  UNL     1       1.098   0.329  -0.301  1.00  0.00    -0.173 N 
ATOM     11  H8  UNL     1       1.332   0.842   0.549  1.00  0.00     0.223 HD
BRANCH  10  12
HETATM   12  N9  UNL     1       1.820   0.402  -1.061  1.00  0.00    -0.303 NA
BRANCH  12  13
HETATM   13  C10 UNL     1       2.830   0.527  -2.075  1.00  0.00     0.218 A 
HETATM   14  C11 UNL     1       4.091   0.219  -1.758  1.00  0.00     0.173 A 
HETATM   15  N10 UNL     1       5.121   0.306  -2.553  1.00  0.00    -0.220 N 
HETATM   16  C12 UNL     1       4.892   0.763  -3.855  1.00  0.00     0.347 A 
HETATM   17  O3  UNL     1       5.833   0.856  -4.649  1.00  0.00    -0.245 OA
HETATM   18  N12 UNL     1       3.559   1.089  -4.168  1.00  0.00    -0.271 N 
HETATM   19  C13 UNL     1       2.560   0.997  -3.369  1.00  0.00     0.293 A 
ATOM     20  H12 UNL     1       3.371   1.428  -5.112  1.00  0.00     0.174 HD
HETATM   21  O4  UNL     1       1.329   1.300  -3.629  1.00  0.00    -0.264 OA
BRANCH  15  22
HETATM   22  N11 UNL     1       6.417  -0.067  -2.150  1.00  0.00    -0.335 N 
ATOM     23 2H11 UNL     1       6.584  -0.400  -1.201  1.00  0.00     0.177 HD
ATOM     24 1H11 UNL     1       7.223   0.001  -2.772  1.00  0.00     0.177 HD
ENDBRANCH  15  22
ENDBRANCH  12  13
ENDBRANCH  10  12
ENDBRANCH   8  10
ENDBRANCH   7   8
BRANCH   1  25
HETATM   25  C3  UNL     1      -1.512   2.384   0.275  1.00  0.00     0.080 A 
HETATM   26  C2  UNL     1      -0.504   3.199  -0.082  1.00  0.00     0.125 A 
HETATM   27  N2  UNL     1      -0.638   4.238  -0.943  1.00  0.00    -0.201 N 
HETATM   28  C1  UNL     1      -1.937   4.449  -1.476  1.00  0.00     0.678 A 
ATOM     29  H2  UNL     1       0.150   4.835  -1.194  1.00  0.00     0.183 HD
HETATM   30  N13 UNL     1      -2.922   3.662  -1.130  1.00  0.00    -0.156 N 
HETATM   31  C14 UNL     1      -2.786   2.615  -0.265  1.00  0.00     0.273 A 
ATOM     32  H13 UNL     1      -3.844   3.840  -1.529  1.00  0.00     0.187 HD
HETATM   33  O5  UNL     1      -3.781   1.922  -0.003  1.00  0.00    -0.267 OA
BRANCH  28  34
HETATM   34  N1  UNL     1      -1.981   5.423  -2.272  1.00  0.00    -0.234 N 
ATOM     35  H12 UNL     1      -1.213   6.037  -2.542  1.00  0.00     0.174 HD
ATOM     36  H11 UNL     1      -2.914   5.575  -2.655  1.00  0.00     0.174 HD
ENDBRANCH  28  34
ENDBRANCH   1  25
BRANCH   6  37
HETATM   37  C5  UNL     1      -0.892  -2.228   2.188  1.00  0.00     0.341 A 
HETATM   38  N6  UNL     1      -0.905  -2.591   3.580  1.00  0.00    -0.041 N 
HETATM   39  C6  UNL     1      -2.150  -3.247   3.441  1.00  0.00     0.244 A 
ATOM     40  H62 UNL     1      -0.113  -3.102   3.969  1.00  0.00     0.280 HD
ATOM     41  H61 UNL     1      -0.801  -1.862   4.286  1.00  0.00     0.280 HD
HETATM   42  C8  UNL     1      -2.189  -2.964   1.988  1.00  0.00     0.203 A 
BRANCH  39  43
HETATM   43  C7  UNL     1      -2.201  -4.730   3.780  1.00  0.00     0.200 C 
BRANCH  43  44
HETATM   44  O1  UNL     1      -3.522  -5.190   3.583  1.00  0.00    -0.399 OA
ATOM     45  H1  UNL     1      -3.554  -6.116   3.795  1.00  0.00     0.209 HD
ENDBRANCH  43  44
ENDBRANCH  39  43
BRANCH  42  46
HETATM   46  O2  UNL     1      -2.159  -4.060   1.133  1.00  0.00    -0.389 OA
ATOM     47  H2  UNL     1      -2.978  -4.525   1.007  1.00  0.00     0.210 HD
ENDBRANCH  42  46
ENDBRANCH   6  37
TORSDOF 11
