REMARK  10 active torsions:
REMARK  status: ('A' for Active; 'I' for Inactive)
REMARK       I    between atoms: C1_4  and  N3_6 
REMARK       I    between atoms: N3_6  and  C2_8 
REMARK    1  A    between atoms: C2_8  and  C3_10 
REMARK    2  A    between atoms: C6_17  and  N6_18 
REMARK    3  A    between atoms: C7_23  and  N8_24 
REMARK    4  A    between atoms: N9_27  and  C8_28 
REMARK    5  A    between atoms: C9_30  and  C10_31 
REMARK    6  A    between atoms: C10_31  and  O3_32 
REMARK    7  A    between atoms: C11_34  and  C12_35 
REMARK    8  A    between atoms: C12_35  and  N10_36 
REMARK    9  A    between atoms: C14_38  and  C15_39 
REMARK   10  A    between atoms: C15_39  and  O4_40 
ROOT
HETATM    1  C3  UNL     1       3.711   0.443   0.626  1.00  0.00     0.177 A 
HETATM    2  N4  UNL     1       2.443  -0.002   0.374  1.00  0.00    -0.321 N 
ATOM      3  H4  UNL     1       2.163  -0.973   0.235  1.00  0.00     0.169 HD
HETATM    4  C4  UNL     1       1.632   1.068   0.342  1.00  0.00     0.161 A 
HETATM    5  C5  UNL     1       2.387   2.200   0.575  1.00  0.00     0.124 A 
HETATM    6  N5  UNL     1       3.652   1.777   0.744  1.00  0.00    -0.332 N 
ATOM      7  H5  UNL     1       4.450   2.383   0.934  1.00  0.00     0.168 HD
HETATM    8  C6  UNL     1       1.761   3.430   0.589  1.00  0.00     0.145 A 
HETATM    9  N7  UNL     1       0.454   3.510   0.380  1.00  0.00    -0.175 N 
ATOM     10  H7  UNL     1      -0.011   4.418   0.389  1.00  0.00     0.186 HD
HETATM   11  C7  UNL     1      -0.261   2.383   0.154  1.00  0.00     0.685 A 
HETATM   12  N9  UNL     1       0.287   1.159   0.127  1.00  0.00    -0.115 N 
ENDROOT
BRANCH  12  13
HETATM   13  C8  UNL     1      -0.466  -0.054  -0.113  1.00  0.00     0.397 C 
HETATM   14  O2  UNL     1       0.158  -0.878  -1.045  1.00  0.00    -0.333 OA
HETATM   15  C9  UNL     1      -0.847  -1.604  -1.668  1.00  0.00     0.180 C 
HETATM   16  C11 UNL     1      -2.081  -0.786  -1.453  1.00  0.00     0.177 C 
HETATM   17  O5  UNL     1      -1.708   0.271  -0.638  1.00  0.00    -0.333 OA
BRANCH  15  18
HETATM   18  C10 UNL     1      -0.912  -2.961  -1.015  1.00  0.00     0.199 C 
BRANCH  18  19
HETATM   19  O3  UNL     1       0.348  -3.560  -1.200  1.00  0.00    -0.398 OA
ATOM     20  H3  UNL     1       0.307  -4.415  -0.788  1.00  0.00     0.209 HD
ENDBRANCH  18  19
ENDBRANCH  15  18
BRANCH  16  21
HETATM   21  C12 UNL     1      -3.187  -1.541  -0.760  1.00  0.00     0.184 C 
BRANCH  21  22
HETATM   22  N10 UNL     1      -4.305  -0.632  -0.622  1.00  0.00    -0.285 N 
HETATM   23  C13 UNL     1      -4.590   0.202   0.375  1.00  0.00     0.140 A 
HETATM   24  C14 UNL     1      -5.752   0.852   0.048  1.00  0.00     0.067 A 
HETATM   25  N11 UNL     1      -6.138   0.380  -1.159  1.00  0.00    -0.287 N 
HETATM   26  N12 UNL     1      -5.248  -0.507  -1.529  1.00  0.00    -0.241 N 
ATOM     27  H11 UNL     1      -6.967   0.662  -1.683  1.00  0.00     0.188 HD
ATOM     28  H12 UNL     1      -5.282  -1.031  -2.404  1.00  0.00     0.208 HD
BRANCH  24  29
HETATM   29  C15 UNL     1      -6.507   1.888   0.813  1.00  0.00     0.224 C 
BRANCH  29  30
HETATM   30  O4  UNL     1      -5.897   2.187   2.007  1.00  0.00    -0.395 OA
ATOM     31  H4  UNL     1      -6.377   2.846   2.494  1.00  0.00     0.209 HD
ENDBRANCH  29  30
ENDBRANCH  24  29
ENDBRANCH  21  22
ENDBRANCH  16  21
ENDBRANCH  12  13
BRANCH  11  32
HETATM   32  N8  UNL     1      -1.549   2.450  -0.053  1.00  0.00    -0.234 N 
ATOM     33  H82 UNL     1      -1.966   3.381  -0.032  1.00  0.00     0.174 HD
ATOM     34  H81 UNL     1      -2.088   1.601  -0.223  1.00  0.00     0.174 HD
ENDBRANCH  11  32
BRANCH   1  35
HETATM   35  C2  UNL     1       4.914  -0.348   0.750  1.00  0.00     0.292 C 
HETATM   36  N3  UNL     1       4.917  -1.771   0.615  1.00  0.00    -0.295 N 
HETATM   37  C1  UNL     1       6.096  -2.533   0.737  1.00  0.00     0.188 C 
ATOM     38  H3  UNL     1       4.037  -2.250   0.424  1.00  0.00     0.171 HD
HETATM   39  N1  UNL     1       6.073  -3.811   0.611  1.00  0.00    -0.373 N 
HETATM   40  N2  UNL     1       7.352  -1.915   1.005  1.00  0.00    -0.064 NA
ATOM     41  H12 UNL     1       6.926  -4.363   0.699  1.00  0.00     0.158 HD
ATOM     42  H11 UNL     1       5.174  -4.253   0.419  1.00  0.00     0.158 HD
HETATM   43  O1  UNL     1       6.000   0.230   0.985  1.00  0.00    -0.264 OA
ENDBRANCH   1  35
BRANCH   8  44
HETATM   44  N6  UNL     1       2.486   4.481   0.810  1.00  0.00    -0.383 N 
ATOM     45  H62 UNL     1       3.491   4.419   0.971  1.00  0.00     0.157 HD
ATOM     46  H61 UNL     1       2.023   5.390   0.820  1.00  0.00     0.157 HD
ENDBRANCH   8  44
TORSDOF 10
