REMARK  10 active torsions:
REMARK  status: ('A' for Active; 'I' for Inactive)
REMARK    1  A    between atoms: N1_2  and  N2_3 
REMARK    2  A    between atoms: N2_3  and  C2_4 
REMARK    3  A    between atoms: C4_8  and  O1_9 
REMARK    4  A    between atoms: C5_11  and  N4_12 
REMARK    5  A    between atoms: N4_12  and  N5_13 
REMARK    6  A    between atoms: N4_12  and  N9_29 
REMARK    7  A    between atoms: N6_15  and  C6_17 
REMARK    8  A    between atoms: C8_19  and  O2_20 
REMARK    9  A    between atoms: C9_22  and  O3_23 
REMARK   10  A    between atoms: N9_29  and  N10_31 
ROOT
HETATM    1  N4  UNL     1       0.157  -1.861  -0.517  1.00  0.00    -0.190 N 
ENDROOT
BRANCH   1   2
HETATM    2  C5  UNL     1      -1.258  -1.472  -0.370  1.00  0.00     0.192 C 
HETATM    3  C4  UNL     1      -1.412  -0.100  -0.886  1.00  0.00     0.244 C 
HETATM    4  N3  UNL     1      -2.717   0.358  -1.148  1.00  0.00    -0.372 N 
HETATM    5  C3  UNL     1      -3.799  -0.519  -1.003  1.00  0.00     0.096 C 
ATOM      6  H3  UNL     1      -2.873   1.322  -1.442  1.00  0.00     0.161 HD
HETATM    7  C2  UNL     1      -4.274  -0.573   0.430  1.00  0.00     0.255 C 
HETATM    8  S1  UNL     1      -3.283  -1.534   1.485  1.00  0.00     0.171 S 
HETATM    9  C12 UNL     1      -1.601  -1.664   1.073  1.00  0.00     0.176 C 
HETATM   10  O6  UNL     1      -3.861  -2.947   1.515  1.00  0.00    -0.226 OA
HETATM   11  O7  UNL     1      -3.456  -1.037   2.902  1.00  0.00    -0.226 OA
BRANCH   3  12
HETATM   12  O1  UNL     1      -0.777   0.855  -0.060  1.00  0.00    -0.375 OA
ATOM     13  H1  UNL     1       0.104   0.546   0.117  1.00  0.00     0.212 HD
ENDBRANCH   3  12
BRANCH   7  14
HETATM   14  N2  UNL     1      -4.441   0.794   0.892  1.00  0.00    -0.123 NA
BRANCH  14  15
HETATM   15  N1  UNL     1      -5.381   1.462   0.107  1.00  0.00    -0.152 NA
HETATM   16  C1  UNL     1      -5.358   2.877   0.267  1.00  0.00     0.154 C 
ENDBRANCH  14  15
ENDBRANCH   7  14
ENDBRANCH   1   2
BRANCH   1  17
HETATM   17  N5  UNL     1       1.179  -1.149   0.107  1.00  0.00    -0.224 N 
HETATM   18  N6  UNL     1       2.238  -0.792  -0.489  1.00  0.00    -0.283 N 
ATOM     19  H6  UNL     1       2.334  -1.044  -1.473  1.00  0.00     0.188 HD
ATOM     20  H5  UNL     1       1.069  -0.903   1.091  1.00  0.00     0.210 HD
BRANCH  18  21
HETATM   21  C6  UNL     1       3.285  -0.078   0.102  1.00  0.00     0.078 A 
HETATM   22  C7  UNL     1       3.706  -0.318   1.393  1.00  0.00     0.072 A 
HETATM   23  C8  UNL     1       4.738   0.391   1.965  1.00  0.00     0.103 A 
HETATM   24  C9  UNL     1       5.372   1.370   1.233  1.00  0.00     0.125 A 
HETATM   25  C10 UNL     1       4.978   1.647  -0.078  1.00  0.00     0.108 A 
HETATM   26  N7  UNL     1       5.643   2.658  -0.815  1.00  0.00    -0.097 NA
HETATM   27  C11 UNL     1       3.952   0.916  -0.595  1.00  0.00     0.101 A 
HETATM   28  N8  UNL     1       3.519   1.169  -1.935  1.00  0.00    -0.098 NA
BRANCH  23  29
HETATM   29  O2  UNL     1       5.131   0.122   3.258  1.00  0.00    -0.358 OA
ATOM     30  H2  UNL     1       5.843   0.611   3.653  1.00  0.00     0.217 HD
ENDBRANCH  23  29
BRANCH  24  31
HETATM   31  O3  UNL     1       6.405   2.065   1.835  1.00  0.00    -0.356 OA
ATOM     32  H3  UNL     1       6.842   2.740   1.330  1.00  0.00     0.218 HD
ENDBRANCH  24  31
ENDBRANCH  18  21
ENDBRANCH   1  17
BRANCH   1  33
HETATM   33  N9  UNL     1       0.554  -2.957  -1.285  1.00  0.00    -0.164 N 
ATOM     34  H9  UNL     1       0.338  -2.940  -2.282  1.00  0.00     0.216 HD
BRANCH  33  35
HETATM   35  N10 UNL     1       1.224  -4.072  -0.787  1.00  0.00    -0.022 N 
HETATM   36  O4  UNL     1       0.541  -5.037  -0.396  1.00  0.00    -0.515 OA
HETATM   37  O5  UNL     1       2.589  -4.185  -0.696  1.00  0.00    -0.515 OA
ENDBRANCH  33  35
ENDBRANCH   1  33
TORSDOF 10
