REMARK  1 active torsions:
REMARK  status: ('A' for Active; 'I' for Inactive)
REMARK    1  A    between atoms: C10_13  and  O1_14 
ROOT
HETATM    1  C1  UNL     1      -2.859   1.169   0.568  1.00  0.00     0.274 C 
HETATM    2  N1  UNL     1      -1.641   0.564   0.061  1.00  0.00    -0.044 N 
HETATM    3  C2  UNL     1      -1.915  -0.455  -0.919  1.00  0.00     0.242 C 
HETATM    4  C3  UNL     1      -1.709  -1.851  -0.384  1.00  0.00     0.080 C 
HETATM    5  C4  UNL     1      -0.298  -1.977   0.188  1.00  0.00     0.323 C 
HETATM    6 CL1  UNL     1      -0.417  -3.164   1.512  1.00  0.00    -0.092 Cl
HETATM    7  N2  UNL     1       0.152  -0.749   0.753  1.00  0.00     0.142 N 
HETATM    8  C5  UNL     1      -0.920   0.059   1.215  1.00  0.00     0.510 C 
HETATM    9  C6  UNL     1       1.095  -0.011   0.017  1.00  0.00     0.170 C 
HETATM   10  C7  UNL     1       0.607   1.147  -0.758  1.00  0.00     0.070 C 
HETATM   11  C8  UNL     1      -0.801   1.557  -0.562  1.00  0.00     0.241 C 
HETATM   12  C9  UNL     1       2.148  -0.799  -0.738  1.00  0.00     0.073 C 
HETATM   13  C10 UNL     1       3.155   0.244  -0.249  1.00  0.00     0.123 C 
HETATM   14  C11 UNL     1       2.235   0.434   0.952  1.00  0.00     0.073 C 
ENDROOT
BRANCH  13  15
HETATM   15  O1  UNL     1       4.371  -0.265   0.127  1.00  0.00    -0.395 OA
ATOM     16  H1  UNL     1       4.996   0.383   0.431  1.00  0.00     0.210 HD
ENDBRANCH  13  15
TORSDOF 1
