REMARK  1 active torsions:
REMARK  status: ('A' for Active; 'I' for Inactive)
REMARK    1  A    between atoms: C7_9  and  O1_11 
ROOT
HETATM    1  C1  UNL     1       4.084  -0.400   0.483  1.00  0.00     0.310 C 
HETATM    2  N1  UNL     1       2.778  -0.956   0.370  1.00  0.00     0.088 N 
HETATM    3  C2  UNL     1       1.895  -0.476   1.416  1.00  0.00     0.300 C 
HETATM    4  C3  UNL     1       0.493  -0.966   1.072  1.00  0.00     0.269 C 
HETATM    5  N2  UNL     1      -0.073  -0.184  -0.040  1.00  0.00    -0.046 N 
HETATM    6  C4  UNL     1      -0.707  -1.167  -0.919  1.00  0.00     0.239 C 
HETATM    7  C5  UNL     1      -2.140  -0.788  -1.248  1.00  0.00     0.031 C 
HETATM    8  C6  UNL     1      -2.896  -0.795   0.059  1.00  0.00     0.041 C 
HETATM    9  C7  UNL     1      -2.308   0.312   0.904  1.00  0.00     0.078 C 
HETATM   10  C8  UNL     1      -3.293   1.490   0.778  1.00  0.00     0.047 C 
HETATM   11  C9  UNL     1      -0.989   0.797   0.453  1.00  0.00     0.275 C 
HETATM   12  C10 UNL     1       1.029   0.362  -0.756  1.00  0.00     0.226 A 
HETATM   13  C11 UNL     1       2.119  -0.714  -0.884  1.00  0.00     0.317 C 
HETATM   14  C12 UNL     1       0.727   1.126  -1.984  1.00  0.00     0.129 A 
HETATM   15  C13 UNL     1       1.460   1.733  -0.820  1.00  0.00     0.281 A 
HETATM   16  F1  UNL     1       0.921   2.785  -0.127  1.00  0.00    -0.203 F 
HETATM   17  F2  UNL     1       2.812   1.969  -1.111  1.00  0.00    -0.203 F 
ENDROOT
BRANCH   9  18
HETATM   18  O1  UNL     1      -2.387  -0.068   2.234  1.00  0.00    -0.389 OA
ATOM     19  H1  UNL     1      -2.017   0.628   2.765  1.00  0.00     0.210 HD
ENDBRANCH   9  18
TORSDOF 1
