REMARK  7 active torsions:
REMARK  status: ('A' for Active; 'I' for Inactive)
REMARK    1  A    between atoms: C2_2  and  N1_3 
REMARK    2  A    between atoms: N1_3  and  C3_4 
REMARK    3  A    between atoms: C8_12  and  N3_13 
REMARK    4  A    between atoms: N3_13  and  N4_15 
REMARK    5  A    between atoms: N4_15  and  N5_16 
REMARK    6  A    between atoms: C9_19  and  O1_20 
REMARK    7  A    between atoms: C10_22  and  O2_23 
ROOT
HETATM    1  N1  UNL     1      -1.265  -0.077  -0.282  1.00  0.00    -0.046 N 
HETATM    2  C5  UNL     1      -0.678  -0.154   1.016  1.00  0.00     0.287 A 
HETATM    3  C6  UNL     1       0.161   0.100  -0.205  1.00  0.00     0.221 A 
HETATM    4  C7  UNL     1       1.123  -0.863  -0.707  1.00  0.00     0.049 C 
HETATM    5  N2  UNL     1       1.020  -2.041  -1.186  1.00  0.00    -0.402 N 
ATOM      6  H21 UNL     1       1.696  -2.718  -1.539  1.00  0.00     0.155 HD
ATOM      7  H22 UNL     1       0.099  -2.472  -1.267  1.00  0.00     0.155 HD
HETATM    8  C8  UNL     1       2.470  -0.233  -0.589  1.00  0.00     0.193 C 
HETATM    9  C9  UNL     1       2.279   1.102   0.029  1.00  0.00     0.180 C 
HETATM   10  C10 UNL     1       0.801   1.451  -0.209  1.00  0.00     0.193 C 
ENDROOT
BRANCH   1  11
HETATM   11  C2  UNL     1      -1.865  -1.184  -0.931  1.00  0.00     0.234 C 
HETATM   12  C1  UNL     1      -2.014  -2.447  -0.168  1.00  0.00     0.035 C 
ENDBRANCH   1  11
BRANCH   1  13
HETATM   13  C3  UNL     1      -1.942   1.200  -0.570  1.00  0.00     0.234 C 
HETATM   14  C4  UNL     1      -2.872   1.589   0.555  1.00  0.00     0.035 C 
ENDBRANCH   1  13
BRANCH  10  15
HETATM   15  O2  UNL     1       0.474   2.220   0.929  1.00  0.00    -0.390 OA
ATOM     16  H2  UNL     1       0.881   3.079   0.926  1.00  0.00     0.210 HD
ENDBRANCH  10  15
BRANCH   8  17
HETATM   17  N3  UNL     1       3.395  -1.084   0.150  1.00  0.00    -0.240 N 
ATOM     18  H3  UNL     1       3.244  -1.239   1.147  1.00  0.00     0.198 HD
BRANCH  17  19
HETATM   19  N4  UNL     1       4.365  -1.625  -0.412  1.00  0.00    -0.248 NA
BRANCH  19  20
HETATM   20  N5  UNL     1       5.278  -2.098  -1.080  1.00  0.00    -0.261 N 
ATOM     21  H52 UNL     1       4.827  -1.582  -1.836  1.00  0.00     0.193 HD
ATOM     22  H51 UNL     1       6.073  -2.541  -1.541  1.00  0.00     0.193 HD
ENDBRANCH  19  20
ENDBRANCH  17  19
ENDBRANCH   8  17
BRANCH   9  23
HETATM   23  O1  UNL     1       3.116   2.059  -0.532  1.00  0.00    -0.390 OA
ATOM     24  H1  UNL     1       2.994   2.914  -0.136  1.00  0.00     0.210 HD
ENDBRANCH   9  23
TORSDOF 7
