REMARK  4 active torsions:
REMARK  status: ('A' for Active; 'I' for Inactive)
REMARK    1  A    between atoms: C2_2  and  N1_3 
REMARK    2  A    between atoms: C3_5  and  C4_6 
REMARK    3  A    between atoms: C3_5  and  N6_19 
REMARK    4  A    between atoms: C4_6  and  N2_7 
REMARK       I    between atoms: N3_11  and  C8_12 
ROOT
HETATM    1  N2  UNL     1      -0.188  -0.742   0.129  1.00  0.00     0.097 N 
HETATM    2  C5  UNL     1      -1.026  -1.927   0.153  1.00  0.00     0.274 C 
HETATM    3  C6  UNL     1      -2.208  -1.825   1.037  1.00  0.00     0.050 C 
HETATM    4  C7  UNL     1      -2.662  -0.444   1.356  1.00  0.00     0.127 C 
HETATM    5  N3  UNL     1      -2.975   0.215   0.086  1.00  0.00    -0.354 N 
HETATM    6  C8  UNL     1      -4.156   1.002   0.018  1.00  0.00     0.184 C 
HETATM    7  N4  UNL     1      -5.343   0.522   0.021  1.00  0.00    -0.374 N 
ATOM      8  H41 UNL     1      -6.191   1.087  -0.028  1.00  0.00     0.158 HD
ATOM      9  H42 UNL     1      -5.414  -0.494   0.077  1.00  0.00     0.158 HD
HETATM   10  N5  UNL     1      -4.055   2.440  -0.061  1.00  0.00    -0.064 NA
HETATM   11  C9  UNL     1      -2.151   0.110  -1.101  1.00  0.00     0.156 C 
HETATM   12  C10 UNL     1      -0.712   0.301  -0.699  1.00  0.00     0.292 C 
ENDROOT
BRANCH   1  13
HETATM   13  C4  UNL     1       1.107  -1.172  -0.357  1.00  0.00     0.347 C 
BRANCH  13  14
HETATM   14  C3  UNL     1       2.101  -0.085  -0.438  1.00  0.00     0.101 C 
HETATM   15  N1  UNL     1       1.893   1.142  -0.110  1.00  0.00    -0.379 N 
ATOM     16  H1  UNL     1       0.970   1.402   0.237  1.00  0.00     0.160 HD
BRANCH  15  17
HETATM   17  C2  UNL     1       2.892   2.157  -0.208  1.00  0.00     0.116 C 
HETATM   18  C1  UNL     1       4.130   1.874   0.587  1.00  0.00     0.026 C 
ENDBRANCH  15  17
BRANCH  14  19
HETATM   19  N6  UNL     1       3.396  -0.420  -0.917  1.00  0.00    -0.383 N 
HETATM   20  C11 UNL     1       3.940  -1.715  -0.543  1.00  0.00     0.147 C 
ATOM     21  H6  UNL     1       3.925   0.226  -1.503  1.00  0.00     0.160 HD
ENDBRANCH  14  19
ENDBRANCH  13  14
ENDBRANCH   1  13
TORSDOF 4
