REMARK  4 active torsions:
REMARK  status: ('A' for Active; 'I' for Inactive)
REMARK    1  A    between atoms: C2_2  and  N1_3 
REMARK    2  A    between atoms: C2_2  and  C4_8 
REMARK       I    between atoms: N1_3  and  C3_5 
REMARK       I    between atoms: C4_8  and  N3_10 
REMARK    3  A    between atoms: N3_10  and  C5_12 
REMARK    4  A    between atoms: C5_12  and  C7_14 
REMARK       I    between atoms: C7_14  and  N4_16 
ROOT
HETATM    1  C7  UNL     1      -2.462   0.395  -0.384  1.00  0.00     0.254 C 
HETATM    2  O3  UNL     1      -2.056   1.287  -1.171  1.00  0.00    -0.270 OA
HETATM    3  N4  UNL     1      -3.799  -0.058  -0.461  1.00  0.00    -0.258 N 
HETATM    4  C8  UNL     1      -4.341  -1.081   0.407  1.00  0.00     0.172 C 
HETATM    5  C9  UNL     1      -4.640   0.509  -1.423  1.00  0.00     0.186 C 
HETATM    6  N5  UNL     1      -5.344   0.972  -2.216  1.00  0.00    -0.172 NA
ENDROOT
BRANCH   1   7
HETATM    7  C5  UNL     1      -1.484  -0.138   0.600  1.00  0.00     0.173 C 
HETATM    8  C6  UNL     1      -2.004   0.015   1.990  1.00  0.00     0.042 C 
BRANCH   7   9
HETATM    9  N3  UNL     1      -0.195   0.531   0.414  1.00  0.00    -0.346 N 
HETATM   10  C4  UNL     1       0.965  -0.201   0.031  1.00  0.00     0.240 C 
HETATM   11  O2  UNL     1       0.941  -1.444  -0.164  1.00  0.00    -0.271 OA
ATOM     12  H3  UNL     1      -0.127   1.538   0.561  1.00  0.00     0.163 HD
BRANCH  10  13
HETATM   13  C2  UNL     1       2.251   0.522  -0.146  1.00  0.00     0.174 C 
HETATM   14  C1  UNL     1       2.011   1.541  -1.269  1.00  0.00     0.042 C 
BRANCH  13  15
HETATM   15  N1  UNL     1       3.318  -0.357  -0.527  1.00  0.00    -0.333 N 
HETATM   16  C3  UNL     1       4.516  -0.352   0.228  1.00  0.00     0.329 C 
HETATM   17  N2  UNL     1       5.581  -1.204  -0.122  1.00  0.00    -0.040 NA
HETATM   18  O1  UNL     1       4.594   0.435   1.216  1.00  0.00    -0.251 OA
ATOM     19  H1  UNL     1       3.216  -0.977  -1.330  1.00  0.00     0.164 HD
ENDBRANCH  13  15
ENDBRANCH  10  13
ENDBRANCH   7   9
ENDBRANCH   1   7
TORSDOF 4
