REMARK  8 active torsions:
REMARK  status: ('A' for Active; 'I' for Inactive)
REMARK    1  A    between atoms: N1_1  and  C1_4 
REMARK    2  A    between atoms: C5_15  and  N5_16 
REMARK    3  A    between atoms: N5_16  and  C6_18 
REMARK    4  A    between atoms: C6_18  and  C7_19 
REMARK    5  A    between atoms: C11_25  and  N7_26 
REMARK    6  A    between atoms: N7_26  and  C12_28 
REMARK    7  A    between atoms: C12_28  and  C13_29 
REMARK    8  A    between atoms: N8_31  and  C15_32 
ROOT
HETATM    1  C7  UNL     1      -0.992  -1.065   0.910  1.00  0.00     0.003 A 
HETATM    2  C8  UNL     1      -1.840  -0.638   1.893  1.00  0.00     0.014 A 
HETATM    3  C9  UNL     1      -1.423  -0.735   3.205  1.00  0.00     0.018 A 
HETATM    4  C10 UNL     1      -0.182  -1.250   3.497  1.00  0.00     0.089 A 
HETATM    5  N6  UNL     1       0.668  -1.677   2.544  1.00  0.00    -0.352 N 
ATOM      6  H6  UNL     1       1.584  -2.057   2.783  1.00  0.00     0.166 HD
HETATM    7  C11 UNL     1       0.261  -1.583   1.258  1.00  0.00     0.109 A 
ENDROOT
BRANCH   1   8
HETATM    8  C6  UNL     1      -1.341  -1.001  -0.512  1.00  0.00     0.163 C 
BRANCH   8   9
HETATM    9  N5  UNL     1      -2.628  -0.479  -0.789  1.00  0.00    -0.370 N 
ATOM     10  H5  UNL     1      -3.358  -1.181  -0.913  1.00  0.00     0.161 HD
BRANCH   9  11
HETATM   11  C5  UNL     1      -3.015   0.716  -0.907  1.00  0.00     0.132 A 
HETATM   12  N4  UNL     1      -2.190   1.790  -0.775  1.00  0.00    -0.337 N 
HETATM   13  C4  UNL     1      -2.616   3.043  -0.905  1.00  0.00     0.182 A 
ATOM     14  H4  UNL     1      -1.205   1.627  -0.568  1.00  0.00     0.168 HD
HETATM   15  N3  UNL     1      -3.897   3.295  -1.177  1.00  0.00    -0.346 N 
HETATM   16  C3  UNL     1      -4.758   2.264  -1.318  1.00  0.00     0.133 A 
ATOM     17  H3  UNL     1      -4.223   4.256  -1.277  1.00  0.00     0.167 HD
HETATM   18  C2  UNL     1      -6.070   2.511  -1.598  1.00  0.00     0.288 A 
HETATM   19  C17 UNL     1      -4.339   0.958  -1.186  1.00  0.00     0.125 A 
HETATM   20  N2  UNL     1      -6.968   1.496  -1.750  1.00  0.00    -0.154 N 
HETATM   21  O1  UNL     1      -6.546   3.678  -1.737  1.00  0.00    -0.265 OA
HETATM   22  C1  UNL     1      -6.536   0.226  -1.616  1.00  0.00     0.679 A 
ATOM     23  H2  UNL     1      -7.946   1.694  -1.961  1.00  0.00     0.187 HD
HETATM   24  N14 UNL     1      -5.245  -0.001  -1.340  1.00  0.00    -0.186 N 
ATOM     25  H14 UNL     1      -4.939  -0.969  -1.242  1.00  0.00     0.184 HD
BRANCH  22  26
HETATM   26  N1  UNL     1      -7.406  -0.714  -1.769  1.00  0.00    -0.234 N 
ATOM     27  H12 UNL     1      -8.389  -0.541  -1.979  1.00  0.00     0.174 HD
ATOM     28  H11 UNL     1      -7.079  -1.675  -1.668  1.00  0.00     0.174 HD
ENDBRANCH  22  26
ENDBRANCH   9  11
ENDBRANCH   8   9
ENDBRANCH   1   8
BRANCH   7  29
HETATM   29  N7  UNL     1       1.032  -1.958   0.310  1.00  0.00    -0.370 N 
ATOM     30  H7  UNL     1       0.646  -1.835  -0.626  1.00  0.00     0.161 HD
BRANCH  29  31
HETATM   31  C12 UNL     1       2.330  -2.514   0.344  1.00  0.00     0.181 C 
BRANCH  31  32
HETATM   32  C13 UNL     1       3.401  -1.603  -0.163  1.00  0.00     0.058 A 
HETATM   33  C14 UNL     1       4.413  -1.004   0.539  1.00  0.00     0.144 A 
HETATM   34  N8  UNL     1       5.117  -0.282  -0.342  1.00  0.00    -0.228 N 
HETATM   35  N12 UNL     1       4.545  -0.438  -1.548  1.00  0.00    -0.014 NA
HETATM   36  N13 UNL     1       3.499  -1.242  -1.447  1.00  0.00    -0.285 N 
ATOM     37  H13 UNL     1       2.883  -1.532  -2.206  1.00  0.00     0.184 HD
BRANCH  34  38
HETATM   38  C15 UNL     1       6.266   0.523  -0.125  1.00  0.00     0.193 A 
HETATM   39  N9  UNL     1       6.533   1.368   0.881  1.00  0.00    -0.221 N 
HETATM   40  O2  UNL     1       7.696   1.907   0.702  1.00  0.00    -0.153 OA
ATOM     41  H9  UNL     1       5.913   1.558   1.669  1.00  0.00     0.198 HD
HETATM   42  N10 UNL     1       8.256   1.468  -0.399  1.00  0.00    -0.222 N 
HETATM   43  C16 UNL     1       7.393   0.599  -0.946  1.00  0.00     0.169 A 
ATOM     44  H10 UNL     1       9.169   1.735  -0.767  1.00  0.00     0.198 HD
HETATM   45  N11 UNL     1       7.535  -0.071  -2.037  1.00  0.00    -0.381 N 
ATOM     46 2H11 UNL     1       6.879  -0.732  -2.453  1.00  0.00     0.157 HD
ATOM     47 1H11 UNL     1       8.358  -0.015  -2.637  1.00  0.00     0.157 HD
ENDBRANCH  34  38
ENDBRANCH  31  32
ENDBRANCH  29  31
ENDBRANCH   7  29
TORSDOF 8
