REMARK  6 active torsions:
REMARK  status: ('A' for Active; 'I' for Inactive)
REMARK    1  A    between atoms: C2_2  and  N1_3 
REMARK    2  A    between atoms: C3_4  and  S1_5 
REMARK    3  A    between atoms: S1_5  and  C4_6 
REMARK    4  A    between atoms: C4_6  and  C5_7 
REMARK       I    between atoms: C5_7  and  N2_9 
REMARK    5  A    between atoms: C10_21  and  N6_22 
REMARK    6  A    between atoms: C12_33  and  C13_34 
ROOT
HETATM    1  C5  UNL     1       2.085  -1.235   0.867  1.00  0.00     0.233 C 
HETATM    2  O1  UNL     1       2.161  -1.996   1.863  1.00  0.00    -0.272 OA
HETATM    3  N2  UNL     1       3.320  -0.953   0.203  1.00  0.00    -0.311 N 
ATOM      4  H2  UNL     1       3.712  -1.661  -0.418  1.00  0.00     0.170 HD
HETATM    5  C6  UNL     1       3.955   0.146   0.352  1.00  0.00     0.135 C 
HETATM    6  N3  UNL     1       3.420   1.142   1.214  1.00  0.00    -0.358 N 
ATOM      7  H3  UNL     1       2.656   0.902   1.845  1.00  0.00     0.162 HD
HETATM    8  C7  UNL     1       3.945   2.494   1.209  1.00  0.00     0.245 C 
HETATM    9  N4  UNL     1       5.289   2.548   0.713  1.00  0.00    -0.367 N 
ATOM     10  H4  UNL     1       5.876   3.331   1.001  1.00  0.00     0.161 HD
HETATM   11  C8  UNL     1       5.854   1.570  -0.160  1.00  0.00     0.130 A 
HETATM   12  C9  UNL     1       5.205   0.378  -0.347  1.00  0.00     0.125 A 
HETATM   13  N5  UNL     1       5.739  -0.555  -1.176  1.00  0.00    -0.186 N 
ATOM     14  H5  UNL     1       5.255  -1.442  -1.315  1.00  0.00     0.184 HD
HETATM   15  C10 UNL     1       6.897  -0.324  -1.815  1.00  0.00     0.679 A 
HETATM   16  N7  UNL     1       7.529   0.846  -1.628  1.00  0.00    -0.154 N 
ATOM     17  H7  UNL     1       8.408   1.014  -2.118  1.00  0.00     0.187 HD
HETATM   18  C11 UNL     1       7.048   1.798  -0.824  1.00  0.00     0.288 A 
HETATM   19  O2  UNL     1       7.625   2.909  -0.631  1.00  0.00    -0.265 OA
ENDROOT
BRANCH   1  20
HETATM   20  C4  UNL     1       0.797  -0.679   0.431  1.00  0.00     0.185 C 
BRANCH  20  21
HETATM   21  S1  UNL     1      -0.498  -1.285   1.542  1.00  0.00    -0.083 SA
BRANCH  21  22
HETATM   22  C3  UNL     1      -2.103  -0.682   1.116  1.00  0.00     0.164 A 
HETATM   23  N1  UNL     1      -2.852  -1.385   0.257  1.00  0.00    -0.292 N 
HETATM   24  C16 UNL     1      -4.079  -0.883  -0.040  1.00  0.00     0.281 A 
HETATM   25  C12 UNL     1      -4.517   0.293   0.523  1.00  0.00     0.160 A 
HETATM   26  O3  UNL     1      -4.792  -1.526  -0.840  1.00  0.00    -0.265 OA
HETATM   27  N9  UNL     1      -3.717   0.964   1.385  1.00  0.00    -0.290 N 
HETATM   28  N8  UNL     1      -2.543   0.479   1.667  1.00  0.00    -0.279 N 
ATOM     29  H9  UNL     1      -4.030   1.838   1.808  1.00  0.00     0.187 HD
ATOM     30  H8  UNL     1      -1.939   0.982   2.317  1.00  0.00     0.189 HD
BRANCH  23  31
HETATM   31  C2  UNL     1      -2.338  -2.600  -0.292  1.00  0.00     0.130 C 
HETATM   32  C1  UNL     1      -2.666  -3.822   0.532  1.00  0.00     0.027 C 
ENDBRANCH  23  31
BRANCH  25  33
HETATM   33  C13 UNL     1      -5.845   0.866   0.213  1.00  0.00     0.131 C 
HETATM   34  N10 UNL     1      -6.220   2.051   0.567  1.00  0.00    -0.373 N 
HETATM   35  C14 UNL     1      -7.574   2.334   0.120  1.00  0.00     0.141 C 
ATOM     36  H10 UNL     1      -5.640   2.704   1.093  1.00  0.00     0.161 HD
HETATM   37  C15 UNL     1      -7.753   1.308  -0.987  1.00  0.00     0.141 C 
HETATM   38  N11 UNL     1      -6.908   0.238  -0.487  1.00  0.00    -0.373 N 
ATOM     39  H11 UNL     1      -7.050  -0.764  -0.614  1.00  0.00     0.161 HD
ENDBRANCH  25  33
ENDBRANCH  21  22
ENDBRANCH  20  21
ENDBRANCH   1  20
BRANCH  15  40
HETATM   40  N6  UNL     1       7.404  -1.223  -2.609  1.00  0.00    -0.234 N 
ATOM     41  H62 UNL     1       6.924  -2.112  -2.751  1.00  0.00     0.174 HD
ATOM     42  H61 UNL     1       8.284  -1.048  -3.094  1.00  0.00     0.174 HD
ENDBRANCH  15  40
TORSDOF 6
