REMARK  7 active torsions:
REMARK  status: ('A' for Active; 'I' for Inactive)
REMARK    1  A    between atoms: N3_8  and  C4_10 
REMARK    2  A    between atoms: C4_10  and  C5_11 
REMARK    3  A    between atoms: C5_11  and  C6_12 
REMARK    4  A    between atoms: C6_12  and  S1_13 
REMARK    5  A    between atoms: S1_13  and  C7_14 
REMARK    6  A    between atoms: N6_20  and  N7_21 
REMARK    7  A    between atoms: C11_30  and  N10_31 
ROOT
HETATM    1  C1  UNL     1      -1.944  -6.121  -0.129  1.00  0.00     0.165 C 
HETATM    2  N1  UNL     1      -0.896  -5.170   0.107  1.00  0.00    -0.229 N 
ATOM      3  H1  UNL     1       0.057  -5.509   0.241  1.00  0.00     0.177 HD
HETATM    4  C2  UNL     1      -1.118  -3.902   0.155  1.00  0.00     0.706 A 
HETATM    5  N2  UNL     1      -0.046  -2.991   0.393  1.00  0.00    -0.021 N 
ATOM      6  H2  UNL     1       0.901  -3.346   0.527  1.00  0.00     0.203 HD
HETATM    7  C3  UNL     1      -0.291  -1.589   0.445  1.00  0.00     0.717 A 
HETATM    8  N3  UNL     1       0.651  -0.766   0.655  1.00  0.00    -0.224 N 
ATOM      9  H3  UNL     1       0.386   0.219   0.677  1.00  0.00     0.177 HD
HETATM   10  N8  UNL     1      -1.620  -1.107   0.257  1.00  0.00     0.064 N 
HETATM   11  C9  UNL     1      -1.718   0.314   0.331  1.00  0.00     0.315 C 
HETATM   12  O1  UNL     1      -0.660   0.888   0.669  1.00  0.00    -0.264 OA
HETATM   13  C10 UNL     1      -2.873   1.163   0.069  1.00  0.00     0.164 A 
HETATM   14  N9  UNL     1      -2.862   2.508   0.012  1.00  0.00    -0.182 N 
ATOM     15  H9  UNL     1      -2.043   3.100   0.148  1.00  0.00     0.184 HD
HETATM   16  C11 UNL     1      -4.123   2.950  -0.257  1.00  0.00     0.680 A 
HETATM   17  N11 UNL     1      -4.950   1.906  -0.375  1.00  0.00    -0.173 N 
ATOM     18  H11 UNL     1      -5.950   1.934  -0.574  1.00  0.00     0.186 HD
HETATM   19  C13 UNL     1      -4.181   0.792  -0.174  1.00  0.00     0.169 A 
HETATM   20  N12 UNL     1      -4.654  -0.539  -0.212  1.00  0.00    -0.269 N 
ATOM     21  H12 UNL     1      -5.668  -0.627  -0.276  1.00  0.00     0.189 HD
HETATM   22  N13 UNL     1      -3.973  -1.746  -0.177  1.00  0.00    -0.129 N 
ATOM     23  H13 UNL     1      -4.552  -2.572  -0.327  1.00  0.00     0.205 HD
HETATM   24  C14 UNL     1      -2.715  -1.988   0.017  1.00  0.00     0.735 A 
HETATM   25  N14 UNL     1      -2.434  -3.397  -0.029  1.00  0.00    -0.019 N 
ATOM     26  H14 UNL     1      -3.198  -4.051  -0.198  1.00  0.00     0.203 HD
ENDROOT
BRANCH   8  27
HETATM   27  C4  UNL     1       2.035  -1.043   0.864  1.00  0.00     0.139 C 
BRANCH  27  28
HETATM   28  C5  UNL     1       2.811  -0.691  -0.411  1.00  0.00     0.031 C 
BRANCH  28  29
HETATM   29  C6  UNL     1       4.251  -1.006  -0.143  1.00  0.00     0.084 C 
BRANCH  29  30
HETATM   30  S1  UNL     1       4.921  -0.079   1.189  1.00  0.00    -0.091 SA
BRANCH  30  31
HETATM   31  C7  UNL     1       5.275   1.628   0.908  1.00  0.00     0.181 A 
HETATM   32  N4  UNL     1       5.716   2.400   1.951  1.00  0.00    -0.277 N 
HETATM   33  N5  UNL     1       5.941   3.607   1.497  1.00  0.00    -0.292 N 
ATOM     34  H4  UNL     1       5.846   2.088   2.913  1.00  0.00     0.189 HD
HETATM   35  C8  UNL     1       5.660   3.642   0.194  1.00  0.00     0.225 A 
ATOM     36  H5  UNL     1       6.277   4.395   2.051  1.00  0.00     0.187 HD
HETATM   37  N6  UNL     1       5.250   2.408  -0.152  1.00  0.00    -0.234 N 
BRANCH  37  38
HETATM   38  N7  UNL     1       4.881   2.006  -1.443  1.00  0.00    -0.336 N 
ATOM     39  H72 UNL     1       4.570   1.071  -1.705  1.00  0.00     0.177 HD
ATOM     40  H71 UNL     1       4.862   2.610  -2.264  1.00  0.00     0.177 HD
ENDBRANCH  37  38
ENDBRANCH  30  31
ENDBRANCH  29  30
ENDBRANCH  28  29
ENDBRANCH  27  28
ENDBRANCH   8  27
BRANCH  16  41
HETATM   41  N10 UNL     1      -4.406   4.193  -0.373  1.00  0.00    -0.230 N 
HETATM   42  C12 UNL     1      -3.479   5.288  -0.246  1.00  0.00     0.165 C 
ATOM     43  H10 UNL     1      -5.378   4.430  -0.574  1.00  0.00     0.177 HD
ENDBRANCH  16  41
TORSDOF 7
