REMARK  13 active torsions:
REMARK  status: ('A' for Active; 'I' for Inactive)
REMARK    1  A    between atoms: O1_2  and  C2_3 
REMARK       I    between atoms: N1_5  and  C4_6 
REMARK       I    between atoms: C4_6  and  N2_7 
REMARK    2  A    between atoms: C5_12  and  N5_13 
REMARK    3  A    between atoms: N5_13  and  C6_15 
REMARK    4  A    between atoms: C8_21  and  N8_22 
REMARK       I    between atoms: N8_22  and  C9_24 
REMARK    5  A    between atoms: C9_24  and  C10_26 
REMARK    6  A    between atoms: C10_26  and  S1_27 
REMARK    7  A    between atoms: S1_27  and  C11_28 
REMARK    8  A    between atoms: C11_28  and  C12_29 
REMARK    9  A    between atoms: C13_31  and  N9_32 
REMARK   10  A    between atoms: C17_41  and  O5_42 
REMARK   11  A    between atoms: C20_48  and  N13_49 
REMARK       I    between atoms: N13_49  and  C21_51 
REMARK   12  A    between atoms: C21_51  and  C22_53 
REMARK   13  A    between atoms: C22_53  and  N14_54 
ROOT
HETATM    1  C11 UNL     1       2.127   1.463   0.095  1.00  0.00     0.108 C 
ENDROOT
BRANCH   1   2
HETATM    2  S1  UNL     1       0.997   0.682   1.270  1.00  0.00    -0.157 SA
BRANCH   2   3
HETATM    3  C10 UNL     1       0.127  -0.718   0.558  1.00  0.00     0.177 C 
BRANCH   3   4
HETATM    4  C9  UNL     1      -0.792  -0.244  -0.496  1.00  0.00     0.245 C 
HETATM    5  N8  UNL     1      -2.153  -0.031  -0.191  1.00  0.00    -0.158 N 
ATOM      6  H8  UNL     1      -2.411   0.262   0.751  1.00  0.00     0.187 HD
HETATM    7  O2  UNL     1      -0.372  -0.030  -1.660  1.00  0.00    -0.272 OA
BRANCH   5   8
HETATM    8  C8  UNL     1      -3.085  -0.198  -1.079  1.00  0.00     0.700 A 
HETATM    9  N7  UNL     1      -2.819  -0.579  -2.333  1.00  0.00    -0.186 N 
HETATM   10  C7  UNL     1      -3.860  -0.729  -3.169  1.00  0.00     0.215 A 
ATOM     11  H7  UNL     1      -1.862  -0.749  -2.643  1.00  0.00     0.185 HD
HETATM   12  N6  UNL     1      -5.130  -0.515  -2.797  1.00  0.00    -0.187 N 
HETATM   13  C6  UNL     1      -5.402  -0.127  -1.519  1.00  0.00     0.695 A 
ATOM     14  H6  UNL     1      -5.889  -0.642  -3.467  1.00  0.00     0.185 HD
HETATM   15  N15 UNL     1      -4.353   0.022  -0.685  1.00  0.00    -0.022 N 
ATOM     16  H15 UNL     1      -4.526   0.311   0.278  1.00  0.00     0.203 HD
BRANCH  13  17
HETATM   17  N5  UNL     1      -6.607   0.079  -1.151  1.00  0.00    -0.200 N 
ATOM     18  H5  UNL     1      -7.361  -0.051  -1.826  1.00  0.00     0.180 HD
BRANCH  17  19
HETATM   19  C5  UNL     1      -6.930   0.487   0.181  1.00  0.00     0.272 C 
HETATM   20  C2  UNL     1      -8.364   0.950   0.145  1.00  0.00     0.103 C 
HETATM   21  C3  UNL     1      -9.095  -0.093   0.492  1.00  0.00     0.151 C 
HETATM   22  N1  UNL     1      -8.240  -1.213   0.755  1.00  0.00    -0.238 N 
HETATM   23  C4  UNL     1      -8.604  -2.580   0.661  1.00  0.00     0.204 C 
HETATM   24  N4  UNL     1      -7.015  -0.624   1.114  1.00  0.00    -0.099 NA
HETATM   25  N2  UNL     1      -8.337  -3.261  -0.409  1.00  0.00    -0.372 N 
HETATM   26  N3  UNL     1      -9.270  -3.246   1.724  1.00  0.00    -0.062 NA
ATOM     27  H22 UNL     1      -7.859  -2.783  -1.172  1.00  0.00     0.158 HD
ATOM     28  H21 UNL     1      -8.599  -4.244  -0.477  1.00  0.00     0.158 HD
BRANCH  20  29
HETATM   29  O1  UNL     1      -8.806   2.231  -0.191  1.00  0.00    -0.355 OA
HETATM   30  C1  UNL     1      -7.840   3.252  -0.385  1.00  0.00     0.209 C 
ENDBRANCH  20  29
ENDBRANCH  17  19
ENDBRANCH  13  17
ENDBRANCH   5   8
ENDBRANCH   3   4
ENDBRANCH   2   3
ENDBRANCH   1   2
BRANCH   1  31
HETATM   31  C12 UNL     1       3.252   0.576  -0.304  1.00  0.00     0.156 C 
HETATM   32  O3  UNL     1       4.000   0.213   0.799  1.00  0.00    -0.358 OA
HETATM   33  C13 UNL     1       5.254  -0.162   0.343  1.00  0.00     0.233 C 
HETATM   34  C19 UNL     1       5.461   0.439  -1.027  1.00  0.00     0.082 C 
HETATM   35  C20 UNL     1       4.210   1.300  -1.191  1.00  0.00     0.118 C 
BRANCH  33  36
HETATM   36  N9  UNL     1       5.384  -1.603   0.324  1.00  0.00    -0.300 N 
HETATM   37  C14 UNL     1       4.399  -2.510   0.299  1.00  0.00     0.188 A 
HETATM   38  N10 UNL     1       4.948  -3.750   0.286  1.00  0.00    -0.345 N 
HETATM   39  C15 UNL     1       6.301  -3.639   0.303  1.00  0.00     0.147 A 
ATOM     40  H10 UNL     1       4.427  -4.627   0.267  1.00  0.00     0.167 HD
HETATM   41  C16 UNL     1       7.336  -4.542   0.301  1.00  0.00     0.279 A 
HETATM   42  C18 UNL     1       6.550  -2.267   0.327  1.00  0.00     0.146 A 
HETATM   43  O4  UNL     1       7.096  -5.767   0.279  1.00  0.00    -0.265 OA
HETATM   44  N11 UNL     1       8.593  -4.086   0.322  1.00  0.00    -0.287 N 
HETATM   45  C17 UNL     1       8.880  -2.763   0.346  1.00  0.00     0.225 A 
ATOM     46  H11 UNL     1       9.361  -4.757   0.320  1.00  0.00     0.172 HD
HETATM   47  N12 UNL     1       7.853  -1.903   0.348  1.00  0.00    -0.306 N 
ATOM     48  H12 UNL     1       8.068  -0.906   0.367  1.00  0.00     0.171 HD
BRANCH  45  49
HETATM   49  O5  UNL     1      10.208  -2.369   0.368  1.00  0.00    -0.332 OA
ATOM     50  H5  UNL     1      10.409  -1.441   0.385  1.00  0.00     0.221 HD
ENDBRANCH  45  49
ENDBRANCH  33  36
BRANCH  35  51
HETATM   51  N13 UNL     1       4.535   2.603  -0.653  1.00  0.00    -0.352 N 
HETATM   52  C21 UNL     1       4.435   3.795  -1.396  1.00  0.00     0.243 C 
HETATM   53  O6  UNL     1       4.045   3.753  -2.583  1.00  0.00    -0.272 OA
ATOM     54  H13 UNL     1       4.853   2.661   0.314  1.00  0.00     0.163 HD
BRANCH  52  55
HETATM   55  C22 UNL     1       4.787   5.083  -0.778  1.00  0.00     0.332 C 
BRANCH  55  56
HETATM   56  N14 UNL     1       5.201   4.874   0.575  1.00  0.00    -0.071 N 
ATOM     57 3H14 UNL     1       4.501   4.367   1.117  1.00  0.00     0.274 HD
ATOM     58 2H14 UNL     1       5.960   4.196   0.644  1.00  0.00     0.274 HD
ATOM     59 1H14 UNL     1       5.445   5.767   1.003  1.00  0.00     0.274 HD
ENDBRANCH  55  56
ENDBRANCH  52  55
ENDBRANCH  35  51
ENDBRANCH   1  31
TORSDOF 13
