REMARK  14 active torsions:
REMARK  status: ('A' for Active; 'I' for Inactive)
REMARK    1  A    between atoms: C2_7  and  N3_8 
REMARK    2  A    between atoms: C4_10  and  N4_11 
REMARK    3  A    between atoms: N4_11  and  C5_13 
REMARK    4  A    between atoms: C5_13  and  O1_14 
REMARK    5  A    between atoms: C5_13  and  C6_16 
REMARK    6  A    between atoms: C6_16  and  N5_17 
REMARK    7  A    between atoms: C6_16  and  C7_21 
REMARK    8  A    between atoms: C7_21  and  C8_22 
REMARK    9  A    between atoms: C8_22  and  N6_23 
REMARK       I    between atoms: N6_23  and  C9_25 
REMARK   10  A    between atoms: C9_25  and  C10_27 
REMARK   11  A    between atoms: C10_27  and  N7_28 
REMARK   12  A    between atoms: C10_27  and  C11_32 
REMARK   13  A    between atoms: C18_47  and  C19_48 
REMARK   14  A    between atoms: C20_53  and  N12_54 
ROOT
HETATM    1  N3  UNL     1       1.209  -1.124  -1.533  1.00  0.00    -0.253 N 
HETATM    2  C3  UNL     1      -0.035  -0.543  -1.113  1.00  0.00     0.168 C 
HETATM    3  C4  UNL     1      -0.994  -1.649  -0.775  1.00  0.00     0.103 C 
HETATM    4  C14 UNL     1      -1.377  -2.489  -1.945  1.00  0.00     0.043 C 
HETATM    5  C15 UNL     1      -0.267  -3.292  -2.541  1.00  0.00     0.165 C 
HETATM    6  S1  UNL     1       1.111  -2.207  -2.901  1.00  0.00     0.234 S 
HETATM    7  O3  UNL     1       0.767  -1.448  -4.144  1.00  0.00    -0.205 OA
HETATM    8  O4  UNL     1       2.351  -3.012  -3.053  1.00  0.00    -0.205 OA
ENDROOT
BRANCH   1   9
HETATM    9  C2  UNL     1       2.468  -0.895  -0.943  1.00  0.00     0.164 A 
HETATM   10  N2  UNL     1       2.877  -1.685   0.052  1.00  0.00    -0.321 N 
HETATM   11  C1  UNL     1       4.013  -1.629   0.725  1.00  0.00     0.119 A 
ATOM     12  H2  UNL     1       2.232  -2.425   0.328  1.00  0.00     0.169 HD
HETATM   13  N1  UNL     1       4.220  -2.496   1.661  1.00  0.00    -0.385 N 
HETATM   14  C22 UNL     1       5.041  -0.719   0.535  1.00  0.00     0.112 A 
ATOM     15  H12 UNL     1       3.463  -3.166   1.801  1.00  0.00     0.157 HD
ATOM     16  H11 UNL     1       5.097  -2.453   2.180  1.00  0.00     0.157 HD
HETATM   17  C16 UNL     1       5.030   0.285  -0.405  1.00  0.00     0.113 A 
HETATM   18  C21 UNL     1       6.194  -0.779   1.329  1.00  0.00     0.301 A 
HETATM   19  S2  UNL     1       3.591   0.317  -1.353  1.00  0.00    -0.034 SA
HETATM   20  N8  UNL     1       6.052   1.117  -0.525  1.00  0.00    -0.183 N 
HETATM   21  C17 UNL     1       7.163   1.060   0.239  1.00  0.00     0.709 A 
ATOM     22  H8  UNL     1       5.997   1.845  -1.237  1.00  0.00     0.185 HD
HETATM   23  N9  UNL     1       8.182   1.918   0.094  1.00  0.00    -0.170 N 
HETATM   24  N13 UNL     1       7.206   0.090   1.168  1.00  0.00     0.061 N 
HETATM   25  C18 UNL     1       9.303   1.858   0.867  1.00  0.00     0.201 A 
ATOM     26  H9  UNL     1       8.116   2.642  -0.621  1.00  0.00     0.186 HD
HETATM   27  N11 UNL     1       9.340   0.885   1.795  1.00  0.00    -0.170 N 
HETATM   28  C20 UNL     1       8.319   0.022   1.943  1.00  0.00     0.702 A 
ATOM     29  H11 UNL     1      10.158   0.800   2.398  1.00  0.00     0.186 HD
HETATM   30  O6  UNL     1       6.289  -1.672   2.219  1.00  0.00    -0.265 OA
BRANCH  25  31
HETATM   31  C19 UNL     1      10.397   2.795   0.694  1.00  0.00     0.299 C 
HETATM   32  N10 UNL     1      10.330   3.805  -0.292  1.00  0.00    -0.054 NA
HETATM   33  O5  UNL     1      11.397   2.689   1.435  1.00  0.00    -0.268 OA
ENDBRANCH  25  31
BRANCH  28  34
HETATM   34  N12 UNL     1       8.349  -0.920   2.837  1.00  0.00    -0.233 N 
ATOM     35 2H12 UNL     1       9.185  -0.971   3.419  1.00  0.00     0.174 HD
ATOM     36 1H12 UNL     1       7.575  -1.574   2.949  1.00  0.00     0.174 HD
ENDBRANCH  28  34
ENDBRANCH   1   9
BRANCH   3  37
HETATM   37  N4  UNL     1      -2.248  -0.998  -0.323  1.00  0.00    -0.366 N 
ATOM     38  H4  UNL     1      -2.780  -0.408  -0.962  1.00  0.00     0.161 HD
BRANCH  37  39
HETATM   39  C5  UNL     1      -2.694  -1.200   0.987  1.00  0.00     0.146 C 
BRANCH  39  40
HETATM   40  O1  UNL     1      -1.905  -1.983   1.685  1.00  0.00    -0.348 OA
ATOM     41  H1  UNL     1      -2.208  -2.120   2.575  1.00  0.00     0.219 HD
ENDBRANCH  39  40
BRANCH  39  42
HETATM   42  C6  UNL     1      -3.882  -0.679   1.673  1.00  0.00     0.281 C 
BRANCH  42  43
HETATM   43  N5  UNL     1      -3.897  -1.193   3.079  1.00  0.00    -0.064 N 
ATOM     44  H53 UNL     1      -3.839  -2.210   3.121  1.00  0.00     0.275 HD
ATOM     45  H52 UNL     1      -3.034  -0.980   3.580  1.00  0.00     0.275 HD
ATOM     46  H51 UNL     1      -4.723  -0.831   3.556  1.00  0.00     0.275 HD
ENDBRANCH  42  43
BRANCH  42  47
HETATM   47  C7  UNL     1      -3.947   0.777   1.802  1.00  0.00     0.031 C 
BRANCH  47  48
HETATM   48  C8  UNL     1      -4.033   1.714   0.680  1.00  0.00     0.089 C 
BRANCH  48  49
HETATM   49  N6  UNL     1      -5.178   1.786  -0.125  1.00  0.00    -0.336 N 
HETATM   50  C9  UNL     1      -5.818   0.877  -0.949  1.00  0.00     0.252 C 
HETATM   51  O2  UNL     1      -5.509  -0.310  -1.205  1.00  0.00    -0.271 OA
ATOM     52  H6  UNL     1      -5.634   2.698  -0.098  1.00  0.00     0.168 HD
BRANCH  50  53
HETATM   53  C10 UNL     1      -7.087   1.294  -1.694  1.00  0.00     0.279 C 
BRANCH  53  54
HETATM   54  N7  UNL     1      -7.329   0.363  -2.810  1.00  0.00    -0.066 N 
ATOM     55  H73 UNL     1      -6.524   0.288  -3.432  1.00  0.00     0.275 HD
ATOM     56  H72 UNL     1      -7.365  -0.608  -2.501  1.00  0.00     0.275 HD
ATOM     57  H71 UNL     1      -8.175   0.641  -3.307  1.00  0.00     0.275 HD
ENDBRANCH  53  54
BRANCH  53  58
HETATM   58  C11 UNL     1      -8.300   1.220  -0.828  1.00  0.00     0.025 A 
HETATM   59  C12 UNL     1      -8.514   1.962   0.414  1.00  0.00     0.007 A 
HETATM   60  C13 UNL     1      -8.097   0.512   0.534  1.00  0.00     0.007 A 
ENDBRANCH  53  58
ENDBRANCH  50  53
ENDBRANCH  48  49
ENDBRANCH  47  48
ENDBRANCH  42  47
ENDBRANCH  39  42
ENDBRANCH  37  39
ENDBRANCH   3  37
TORSDOF 14
