REMARK  4 active torsions:
REMARK  status: ('A' for Active; 'I' for Inactive)
REMARK    1  A    between atoms: C3_4  and  N1_5 
REMARK       I    between atoms: N1_5  and  C4_7 
REMARK    2  A    between atoms: C4_7  and  C5_9 
REMARK    3  A    between atoms: C5_9  and  S2_10 
REMARK    4  A    between atoms: S2_10  and  C6_11 
ROOT
HETATM    1  N1  UNL     1       1.097  -0.195  -0.658  1.00  0.00    -0.306 N 
ATOM      2  H1  UNL     1       0.527   0.650  -0.620  1.00  0.00     0.171 HD
HETATM    3  C4  UNL     1       0.498  -1.509  -0.739  1.00  0.00     0.232 C 
HETATM    4  O1  UNL     1       0.395  -2.050  -1.864  1.00  0.00    -0.272 OA
ENDROOT
BRANCH   1   5
HETATM    5  C3  UNL     1       2.407  -0.142  -0.636  1.00  0.00     0.152 A 
HETATM    6  S1  UNL     1       3.562  -1.395  -0.687  1.00  0.00    -0.056 SA
HETATM    7  C2  UNL     1       4.972  -0.436  -0.611  1.00  0.00     0.017 A 
HETATM    8  C1  UNL     1       6.419  -0.851  -0.620  1.00  0.00     0.059 C 
HETATM    9  C12 UNL     1       4.455   0.830  -0.550  1.00  0.00     0.095 A 
HETATM   10  N2  UNL     1       3.158   0.957  -0.564  1.00  0.00    -0.330 N 
HETATM   11  S3  UNL     1       5.591   2.253  -0.455  1.00  0.00    -0.032 SA
ATOM     12  H2  UNL     1       2.726   1.880  -0.521  1.00  0.00     0.168 HD
ENDBRANCH   1   5
BRANCH   3  13
HETATM   13  C5  UNL     1       0.020  -2.203   0.456  1.00  0.00     0.177 C 
BRANCH  13  14
HETATM   14  S2  UNL     1      -1.767  -2.165   0.617  1.00  0.00    -0.155 SA
BRANCH  14  15
HETATM   15  C6  UNL     1      -2.378  -0.503   0.857  1.00  0.00     0.047 C 
HETATM   16  C7  UNL     1      -2.275   0.365  -0.370  1.00  0.00     0.015 C 
HETATM   17  C8  UNL     1      -3.626   0.805  -0.882  1.00  0.00     0.001 C 
HETATM   18  C9  UNL     1      -4.431   1.532   0.169  1.00  0.00     0.000 C 
HETATM   19  C10 UNL     1      -4.194   0.960   1.550  1.00  0.00     0.001 C 
HETATM   20  C11 UNL     1      -3.774  -0.500   1.448  1.00  0.00     0.015 C 
ENDBRANCH  14  15
ENDBRANCH  13  14
ENDBRANCH   3  13
TORSDOF 4
