REMARK  6 active torsions:
REMARK  status: ('A' for Active; 'I' for Inactive)
REMARK    1  A    between atoms: C2_2  and  C3_4 
REMARK    2  A    between atoms: C7_8  and  C8_9 
REMARK    3  A    between atoms: C8_9  and  O3_11 
REMARK    4  A    between atoms: O3_11  and  C9_12 
REMARK    5  A    between atoms: C13_16  and  C15_18 
REMARK    6  A    between atoms: C15_18  and  O4_19 
ROOT
HETATM    1  C8  UNL     1       0.593   0.166   0.071  1.00  0.00     0.263 C 
HETATM    2  O2  UNL     1       0.463   1.368  -0.262  1.00  0.00    -0.265 OA
ENDROOT
BRANCH   1   3
HETATM    3  C7  UNL     1       1.957  -0.285   0.533  1.00  0.00     0.086 C 
HETATM    4  C6  UNL     1       2.375  -1.372  -0.416  1.00  0.00     0.015 C 
HETATM    5  C5  UNL     1       3.028  -0.665  -1.613  1.00  0.00     0.002 C 
HETATM    6  C4  UNL     1       4.373  -0.215  -1.045  1.00  0.00     0.012 C 
HETATM    7  C3  UNL     1       4.197   0.805   0.046  1.00  0.00     0.056 C 
HETATM    8  C17 UNL     1       2.878   0.840   0.692  1.00  0.00     0.027 C 
BRANCH   7   9
HETATM    9  C2  UNL     1       5.290   0.597   1.022  1.00  0.00     0.127 C 
HETATM   10  C1  UNL     1       6.690   0.725   0.582  1.00  0.00     0.091 C 
HETATM   11  O1  UNL     1       5.029   0.324   2.165  1.00  0.00    -0.298 OA
ENDBRANCH   7   9
ENDBRANCH   1   3
BRANCH   1  12
HETATM   12  O3  UNL     1      -0.462  -0.733   0.024  1.00  0.00    -0.316 OA
BRANCH  12  13
HETATM   13  C9  UNL     1      -1.715  -0.259  -0.415  1.00  0.00     0.132 C 
HETATM   14  C10 UNL     1      -2.192  -0.986  -1.645  1.00  0.00     0.032 C 
HETATM   15  C11 UNL     1      -3.639  -0.652  -1.863  1.00  0.00     0.003 C 
HETATM   16  C12 UNL     1      -4.121   0.514  -1.045  1.00  0.00     0.011 C 
HETATM   17  C13 UNL     1      -3.998   0.298   0.426  1.00  0.00    -0.020 C 
HETATM   18  C14 UNL     1      -3.967   1.673   1.098  1.00  0.00     0.017 C 
HETATM   19  C16 UNL     1      -2.696  -0.379   0.736  1.00  0.00     0.044 C 
BRANCH  17  20
HETATM   20  C15 UNL     1      -5.180  -0.434   1.025  1.00  0.00     0.173 C 
BRANCH  20  21
HETATM   21  O4  UNL     1      -5.382  -1.683   0.494  1.00  0.00    -0.400 OA
ATOM     22  H4  UNL     1      -6.124  -2.142   0.870  1.00  0.00     0.209 HD
ENDBRANCH  20  21
ENDBRANCH  17  20
ENDBRANCH  12  13
ENDBRANCH   1  12
TORSDOF 6
