REMARK  4 active torsions:
REMARK  status: ('A' for Active; 'I' for Inactive)
REMARK    1  A    between atoms: C2_2  and  C3_3 
REMARK    2  A    between atoms: C2_2  and  C13_19 
REMARK    3  A    between atoms: C3_3  and  N1_4 
REMARK    4  A    between atoms: C13_19  and  C14_20 
ROOT
HETATM    1  N1  UNL     1       0.659  -0.410   0.040  1.00  0.00    -0.373 N 
HETATM    2  C4  UNL     1       1.000  -1.051   1.237  1.00  0.00     0.066 C 
HETATM    3  C5  UNL     1       2.455  -0.941   1.628  1.00  0.00     0.083 C 
HETATM    4  C6  UNL     1       3.347  -0.726   0.450  1.00  0.00     0.079 C 
HETATM    5  C7  UNL     1       2.746  -1.309  -0.814  1.00  0.00     0.083 C 
HETATM    6  C8  UNL     1       1.463  -0.573  -1.103  1.00  0.00     0.066 C 
HETATM    7  C9  UNL     1       3.651   0.740   0.320  1.00  0.00     0.067 C 
HETATM    8  C10 UNL     1       5.164   0.837   0.499  1.00  0.00     0.169 C 
HETATM    9  C11 UNL     1       5.692   1.890  -0.332  1.00  0.00     0.072 C 
HETATM   10  N2  UNL     1       6.117   2.746  -0.980  1.00  0.00    -0.196 NA
HETATM   11  C12 UNL     1       5.582  -0.512   0.015  1.00  0.00     0.130 C 
HETATM   12  N3  UNL     1       6.567  -0.766  -0.742  1.00  0.00    -0.382 N 
ATOM     13  H31 UNL     1       6.853  -1.688  -1.073  1.00  0.00     0.158 HD
ATOM     14  H32 UNL     1       7.257  -0.148  -1.168  1.00  0.00     0.158 HD
HETATM   15  O1  UNL     1       4.629  -1.366   0.604  1.00  0.00    -0.326 OA
ENDROOT
BRANCH   1  16
HETATM   16  C3  UNL     1      -0.409   0.509   0.008  1.00  0.00     0.131 C 
BRANCH  16  17
HETATM   17  C2  UNL     1      -1.791  -0.138   0.212  1.00  0.00     0.000 C 
HETATM   18  C1  UNL     1      -1.921  -1.125  -0.924  1.00  0.00     0.011 C 
BRANCH  17  19
HETATM   19  C13 UNL     1      -2.770   0.973   0.173  1.00  0.00     0.014 C 
BRANCH  19  20
HETATM   20  C14 UNL     1      -4.212   0.619   0.220  1.00  0.00    -0.051 C 
HETATM   21  C15 UNL     1      -4.630  -0.141   1.458  1.00  0.00     0.014 C 
HETATM   22  C16 UNL     1      -4.758  -0.031  -1.016  1.00  0.00     0.014 C 
HETATM   23  C17 UNL     1      -4.956   1.970   0.325  1.00  0.00     0.014 C 
ENDBRANCH  19  20
ENDBRANCH  17  19
ENDBRANCH  16  17
ENDBRANCH   1  16
TORSDOF 4
