REMARK  5 active torsions:
REMARK  status: ('A' for Active; 'I' for Inactive)
REMARK    1  A    between atoms: C2_2  and  C5_5 
REMARK    2  A    between atoms: C5_5  and  C6_6 
REMARK    3  A    between atoms: C6_6  and  N1_7 
REMARK    4  A    between atoms: N1_7  and  C7_9 
REMARK    5  A    between atoms: C7_9  and  N2_11 
REMARK       I    between atoms: N3_15  and  C11_16 
ROOT
HETATM    1  N2  UNL     1      -1.388  -1.268   0.111  1.00  0.00    -0.357 N 
HETATM    2  C8  UNL     1      -1.661  -0.236  -0.834  1.00  0.00     0.127 C 
HETATM    3  C9  UNL     1      -3.034  -0.284  -1.463  1.00  0.00     0.040 C 
HETATM    4  C10 UNL     1      -4.163  -0.380  -0.492  1.00  0.00     0.129 C 
HETATM    5  N3  UNL     1      -3.778  -0.046   0.858  1.00  0.00    -0.335 N 
HETATM    6  C11 UNL     1      -4.112   1.251   1.382  1.00  0.00     0.330 C 
HETATM    7  N4  UNL     1      -4.794   2.201   0.596  1.00  0.00    -0.040 NA
HETATM    8  O1  UNL     1      -3.785   1.523   2.544  1.00  0.00    -0.251 OA
HETATM    9  C12 UNL     1      -3.061  -0.902   1.773  1.00  0.00     0.147 C 
HETATM   10  C13 UNL     1      -2.320  -2.002   0.981  1.00  0.00     0.145 C 
ENDROOT
BRANCH   1  11
HETATM   11  C7  UNL     1      -0.036  -1.634   0.271  1.00  0.00     0.169 C 
HETATM   12  S1  UNL     1       0.334  -2.846   1.326  1.00  0.00    -0.041 SA
BRANCH  11  13
HETATM   13  N1  UNL     1       1.064  -1.052  -0.405  1.00  0.00    -0.367 N 
ATOM     14  H1  UNL     1       0.891  -0.292  -1.063  1.00  0.00     0.161 HD
BRANCH  13  15
HETATM   15  C6  UNL     1       2.414  -1.493  -0.198  1.00  0.00     0.122 C 
BRANCH  15  16
HETATM   16  C5  UNL     1       3.495  -0.678  -0.782  1.00  0.00     0.028 C 
BRANCH  16  17
HETATM   17  C2  UNL     1       3.688   0.700  -0.300  1.00  0.00    -0.050 C 
HETATM   18  C1  UNL     1       4.002   0.764   1.196  1.00  0.00     0.014 C 
HETATM   19  C3  UNL     1       4.960   1.257  -0.974  1.00  0.00     0.014 C 
HETATM   20  C4  UNL     1       2.600   1.662  -0.641  1.00  0.00     0.014 C 
ENDBRANCH  16  17
ENDBRANCH  15  16
ENDBRANCH  13  15
ENDBRANCH  11  13
ENDBRANCH   1  11
TORSDOF 5
