REMARK  5 active torsions:
REMARK  status: ('A' for Active; 'I' for Inactive)
REMARK    1  A    between atoms: C3_3  and  C4_4 
REMARK    2  A    between atoms: C4_4  and  C5_5 
REMARK    3  A    between atoms: C5_5  and  C6_6 
REMARK    4  A    between atoms: C6_6  and  N1_7 
REMARK    5  A    between atoms: C9_10  and  C10_11 
ROOT
HETATM    1  C10 UNL     1      -2.683   0.343  -0.242  1.00  0.00     0.036 A 
HETATM    2  C11 UNL     1      -3.567  -0.690  -0.091  1.00  0.00     0.019 A 
HETATM    3  C12 UNL     1      -3.285  -2.057   0.438  1.00  0.00     0.069 C 
HETATM    4  N2  UNL     1      -4.810  -0.314  -0.553  1.00  0.00    -0.361 N 
ATOM      5  H2  UNL     1      -5.643  -0.903  -0.551  1.00  0.00     0.165 HD
HETATM    6  C13 UNL     1      -4.753   0.934  -1.000  1.00  0.00     0.027 A 
HETATM    7  C14 UNL     1      -5.857   1.752  -1.590  1.00  0.00     0.070 C 
HETATM    8  C15 UNL     1      -3.427   1.365  -0.813  1.00  0.00     0.081 A 
HETATM    9  C16 UNL     1      -2.986   2.687  -1.145  1.00  0.00     0.102 C 
HETATM   10  N3  UNL     1      -2.652   3.786  -1.411  1.00  0.00    -0.191 NA
ENDROOT
BRANCH   1  11
HETATM   11  C9  UNL     1      -1.288   0.377   0.204  1.00  0.00     0.051 A 
HETATM   12  C8  UNL     1      -0.838  -0.320   1.305  1.00  0.00     0.048 A 
HETATM   13  C7  UNL     1       0.489  -0.192   1.748  1.00  0.00     0.099 A 
HETATM   14  N1  UNL     1       1.373   0.602   1.134  1.00  0.00    -0.299 N 
HETATM   15  C17 UNL     1       0.916   1.270   0.067  1.00  0.00     0.327 A 
HETATM   16  N4  UNL     1      -0.355   1.168  -0.385  1.00  0.00    -0.308 N 
HETATM   17  O1  UNL     1       1.731   2.037  -0.542  1.00  0.00    -0.246 OA
ATOM     18  H4  UNL     1      -0.625   1.710  -1.206  1.00  0.00     0.170 HD
BRANCH  14  19
HETATM   19  C6  UNL     1       2.718   0.711   1.611  1.00  0.00     0.227 C 
BRANCH  19  20
HETATM   20  C5  UNL     1       3.521  -0.312   0.938  1.00  0.00    -0.082 C 
BRANCH  20  21
HETATM   21  C4  UNL     1       4.198  -1.175   0.394  1.00  0.00    -0.077 C 
BRANCH  21  22
HETATM   22  C3  UNL     1       4.995  -2.198  -0.222  1.00  0.00     0.060 C 
HETATM   23  C2  UNL     1       6.247  -2.018  -0.566  1.00  0.00    -0.022 C 
HETATM   24  C1  UNL     1       6.884  -0.705  -0.316  1.00  0.00     0.036 C 
ENDBRANCH  21  22
ENDBRANCH  20  21
ENDBRANCH  19  20
ENDBRANCH  14  19
ENDBRANCH   1  11
TORSDOF 5
