REMARK  4 active torsions:
REMARK  status: ('A' for Active; 'I' for Inactive)
REMARK    1  A    between atoms: C2_2  and  C4_4 
REMARK    2  A    between atoms: C4_4  and  O1_5 
REMARK    3  A    between atoms: O1_5  and  O2_6 
REMARK    4  A    between atoms: O2_6  and  C5_7 
ROOT
HETATM    1  C5  UNL     1      -0.131   1.051  -1.201  1.00  0.00     0.136 C 
HETATM    2  C6  UNL     1      -1.072   1.457  -2.283  1.00  0.00     0.071 C 
HETATM    3  C7  UNL     1      -2.443   0.889  -2.164  1.00  0.00     0.172 C 
HETATM    4  O3  UNL     1      -2.912   0.789  -0.879  1.00  0.00    -0.377 OA
HETATM    5  C8  UNL     1      -2.118  -0.111  -0.150  1.00  0.00     0.101 C 
HETATM    6  C9  UNL     1      -2.179  -1.448  -0.834  1.00  0.00     0.050 C 
HETATM    7  C10 UNL     1      -2.728  -0.210   1.239  1.00  0.00     0.055 C 
HETATM    8  C11 UNL     1      -3.889  -1.175   1.266  1.00  0.00     0.016 C 
HETATM    9  C12 UNL     1      -1.678  -0.584   2.291  1.00  0.00     0.189 C 
HETATM   10  C13 UNL     1      -1.077   0.723   2.765  1.00  0.00     0.005 C 
HETATM   11  C14 UNL     1      -0.765   1.763   1.994  1.00  0.00    -0.020 C 
HETATM   12  C15 UNL     1      -0.927   1.890   0.520  1.00  0.00     0.055 C 
HETATM   13  C16 UNL     1       0.241   2.245  -0.305  1.00  0.00     0.056 C 
HETATM   14  C17 UNL     1      -0.763   0.451  -0.011  1.00  0.00     0.168 C 
HETATM   15  O4  UNL     1      -0.006  -0.314   0.831  1.00  0.00    -0.222 OA
HETATM   16  O5  UNL     1      -0.643  -1.190   1.541  1.00  0.00    -0.230 OA
ENDROOT
BRANCH   1  17
HETATM   17  O2  UNL     1       1.026   0.412  -1.605  1.00  0.00    -0.226 OA
BRANCH  17  18
HETATM   18  O1  UNL     1       1.813   0.082  -0.631  1.00  0.00    -0.240 OA
BRANCH  18  19
HETATM   19  C4  UNL     1       3.081  -0.241  -1.106  1.00  0.00     0.213 C 
BRANCH  19  20
HETATM   20  C2  UNL     1       4.016  -0.630   0.019  1.00  0.00     0.004 C 
HETATM   21  C1  UNL     1       3.524  -1.820   0.785  1.00  0.00     0.012 C 
HETATM   22  C3  UNL     1       5.405  -0.922  -0.497  1.00  0.00     0.012 C 
ENDBRANCH  19  20
ENDBRANCH  18  19
ENDBRANCH  17  18
ENDBRANCH   1  17
TORSDOF 4
