REMARK  5 active torsions:
REMARK  status: ('A' for Active; 'I' for Inactive)
REMARK    1  A    between atoms: C2_2  and  C3_3 
REMARK    2  A    between atoms: C3_3  and  O1_4 
REMARK    3  A    between atoms: O1_4  and  C4_5 
REMARK    4  A    between atoms: C4_5  and  C5_7 
REMARK    5  A    between atoms: C5_7  and  C6_8 
ROOT
HETATM    1  C6  UNL     1       0.035   0.528  -0.881  1.00  0.00     0.143 C 
HETATM    2  O3  UNL     1      -0.814   1.555  -1.386  1.00  0.00    -0.349 OA
HETATM    3  C7  UNL     1      -1.636   1.998  -0.411  1.00  0.00     0.162 C 
HETATM    4  C8  UNL     1      -1.762   3.494  -0.500  1.00  0.00     0.079 C 
HETATM    5  C9  UNL     1      -0.949   1.656   0.886  1.00  0.00     0.080 C 
HETATM    6  C10 UNL     1      -0.496   0.224   0.463  1.00  0.00    -0.006 C 
HETATM    7  C11 UNL     1       0.386  -0.335   1.505  1.00  0.00     0.018 C 
HETATM    8  C12 UNL     1      -1.811  -0.532   0.445  1.00  0.00     0.031 C 
HETATM    9  C13 UNL     1      -1.713  -2.002   0.276  1.00  0.00     0.008 C 
HETATM   10  C14 UNL     1      -3.057  -2.613   0.601  1.00  0.00     0.001 C 
HETATM   11  C15 UNL     1      -4.238  -1.914   0.042  1.00  0.00     0.003 C 
HETATM   12  C16 UNL     1      -4.202  -0.424   0.155  1.00  0.00     0.038 C 
HETATM   13  C17 UNL     1      -2.861   0.052  -0.449  1.00  0.00     0.065 C 
HETATM   14  C18 UNL     1      -2.881  -0.525  -1.842  1.00  0.00     0.046 C 
HETATM   15  O4  UNL     1      -2.905   1.416  -0.484  1.00  0.00    -0.344 OA
ENDROOT
BRANCH   1  16
HETATM   16  C5  UNL     1       1.373   1.192  -0.875  1.00  0.00     0.144 C 
BRANCH  16  17
HETATM   17  C4  UNL     1       2.545   0.411  -0.511  1.00  0.00     0.261 C 
HETATM   18  O2  UNL     1       2.558  -0.826  -0.513  1.00  0.00    -0.265 OA
BRANCH  17  19
HETATM   19  O1  UNL     1       3.691   1.096  -0.147  1.00  0.00    -0.321 OA
BRANCH  19  20
HETATM   20  C3  UNL     1       4.880   0.488   0.220  1.00  0.00     0.178 C 
BRANCH  20  21
HETATM   21  C2  UNL     1       5.524  -0.374  -0.825  1.00  0.00     0.022 C 
HETATM   22  C1  UNL     1       6.809  -0.950  -0.244  1.00  0.00     0.007 C 
ENDBRANCH  20  21
ENDBRANCH  19  20
ENDBRANCH  17  19
ENDBRANCH  16  17
ENDBRANCH   1  16
TORSDOF 5
