REMARK  6 active torsions:
REMARK  status: ('A' for Active; 'I' for Inactive)
REMARK    1  A    between atoms: C4_4  and  C5_5 
REMARK    2  A    between atoms: C5_5  and  C6_6 
REMARK    3  A    between atoms: C7_7  and  C8_8 
REMARK    4  A    between atoms: C9_9  and  O1_10 
REMARK    5  A    between atoms: C10_12  and  O2_13 
REMARK    6  A    between atoms: C13_17  and  O3_18 
ROOT
HETATM    1  C8  UNL     1      -0.086  -0.389   0.293  1.00  0.00     0.033 A 
HETATM    2  C9  UNL     1      -0.669  -1.671   0.159  1.00  0.00     0.112 A 
HETATM    3  C10 UNL     1      -1.965  -1.811  -0.265  1.00  0.00     0.112 A 
HETATM    4  C11 UNL     1      -2.690  -0.675  -0.560  1.00  0.00     0.031 A 
HETATM    5  C12 UNL     1      -2.116   0.574  -0.426  1.00  0.00    -0.009 A 
HETATM    6  C13 UNL     1      -0.811   0.753   0.000  1.00  0.00     0.086 A 
HETATM    7  C14 UNL     1      -2.867   1.825  -0.727  1.00  0.00     0.042 C 
HETATM    8  C15 UNL     1      -3.989   1.927   0.250  1.00  0.00     0.005 C 
HETATM    9  C16 UNL     1      -4.946   0.847   0.387  1.00  0.00     0.006 C 
HETATM   10  C17 UNL     1      -5.217  -0.101  -0.702  1.00  0.00     0.057 C 
HETATM   11  C18 UNL     1      -4.056  -1.029  -1.016  1.00  0.00     0.016 C 
HETATM   12  N1  UNL     1      -4.269  -2.049  -1.680  1.00  0.00    -0.402 N 
ATOM     13  H11 UNL     1      -5.209  -2.292  -1.994  1.00  0.00     0.156 HD
ATOM     14  H12 UNL     1      -3.489  -2.672  -1.891  1.00  0.00     0.156 HD
ENDROOT
BRANCH   1  15
HETATM   15  C7  UNL     1       1.278  -0.360   0.745  1.00  0.00     0.013 C 
HETATM   16  C6  UNL     1       2.037   0.688   0.948  1.00  0.00    -0.022 C 
BRANCH  16  17
HETATM   17  C5  UNL     1       3.451   0.429   1.430  1.00  0.00     0.054 C 
BRANCH  17  18
HETATM   18  C4  UNL     1       4.418   0.988   0.435  1.00  0.00    -0.021 C 
HETATM   19  C2  UNL     1       5.307   0.240  -0.191  1.00  0.00    -0.091 C 
HETATM   20  C1  UNL     1       6.227   0.891  -1.165  1.00  0.00     0.042 C 
HETATM   21  C3  UNL     1       5.446  -1.219   0.017  1.00  0.00     0.042 C 
ENDBRANCH  17  18
ENDBRANCH  16  17
ENDBRANCH   1  15
BRANCH   2  22
HETATM   22  O1  UNL     1       0.085  -2.797   0.461  1.00  0.00    -0.357 OA
ATOM     23  H1  UNL     1      -0.306  -3.658   0.371  1.00  0.00     0.217 HD
ENDBRANCH   2  22
BRANCH   6  24
HETATM   24  O3  UNL     1      -0.270   1.992   0.124  1.00  0.00    -0.359 OA
ATOM     25  H3  UNL     1      -0.768   2.776  -0.077  1.00  0.00     0.217 HD
ENDBRANCH   6  24
BRANCH   3  26
HETATM   26  O2  UNL     1      -2.574  -3.022  -0.406  1.00  0.00    -0.357 OA
ATOM     27  H2  UNL     1      -3.472  -3.119  -0.700  1.00  0.00     0.217 HD
ENDBRANCH   3  26
TORSDOF 6
