REMARK  7 active torsions:
REMARK  status: ('A' for Active; 'I' for Inactive)
REMARK    1  A    between atoms: C2_2  and  C3_3 
REMARK    2  A    between atoms: C3_3  and  C4_4 
REMARK    3  A    between atoms: C4_4  and  C5_5 
REMARK    4  A    between atoms: C6_6  and  O1_7 
REMARK    5  A    between atoms: C7_9  and  N1_10 
REMARK    6  A    between atoms: N2_12  and  C8_14 
REMARK    7  A    between atoms: C13_22  and  O2_23 
ROOT
HETATM    1  C5  UNL     1      -0.967  -0.295   0.924  1.00  0.00    -0.009 A 
HETATM    2  C6  UNL     1       0.240   0.395   0.924  1.00  0.00     0.101 A 
HETATM    3  C7  UNL     1       1.443  -0.141   0.512  1.00  0.00     0.088 A 
HETATM    4  C10 UNL     1       1.447  -1.431   0.079  1.00  0.00    -0.016 A 
HETATM    5  C11 UNL     1       2.724  -2.048  -0.374  1.00  0.00     0.052 C 
HETATM    6  C12 UNL     1       0.269  -2.145   0.068  1.00  0.00     0.036 A 
HETATM    7  C13 UNL     1       0.045  -3.438  -0.320  1.00  0.00     0.152 A 
HETATM    8  N4  UNL     1      -1.237  -3.674  -0.150  1.00  0.00    -0.340 N 
ATOM      9  H4  UNL     1      -1.679  -4.569  -0.362  1.00  0.00     0.168 HD
HETATM   10  C14 UNL     1      -1.912  -2.600   0.338  1.00  0.00     0.019 A 
HETATM   11  C15 UNL     1      -3.336  -2.531   0.639  1.00  0.00     0.069 C 
HETATM   12  C16 UNL     1      -0.947  -1.621   0.478  1.00  0.00     0.010 A 
ENDROOT
BRANCH   3  13
HETATM   13  N1  UNL     1       2.666   0.584   0.519  1.00  0.00    -0.296 N 
HETATM   14  N2  UNL     1       3.041   1.398  -0.355  1.00  0.00    -0.289 N 
ATOM     15  H2  UNL     1       2.465   1.605  -1.171  1.00  0.00     0.188 HD
ATOM     16  H1  UNL     1       3.294   0.427   1.307  1.00  0.00     0.187 HD
BRANCH  14  17
HETATM   17  C8  UNL     1       4.314   2.027  -0.160  1.00  0.00     0.085 C 
HETATM   18  C9  UNL     1       4.727   3.181  -1.001  1.00  0.00     0.090 C 
HETATM   19  N3  UNL     1       5.150   1.626   0.740  1.00  0.00    -0.388 N 
ATOM     20  H32 UNL     1       4.867   0.834   1.317  1.00  0.00     0.157 HD
ATOM     21  H31 UNL     1       6.056   2.074   0.879  1.00  0.00     0.157 HD
ENDBRANCH  14  17
ENDBRANCH   3  13
BRANCH   2  22
HETATM   22  O1  UNL     1       0.270   1.709   1.362  1.00  0.00    -0.358 OA
ATOM     23  H1  UNL     1       1.095   2.180   1.362  1.00  0.00     0.217 HD
ENDBRANCH   2  22
BRANCH   1  24
HETATM   24  C4  UNL     1      -2.249   0.284   1.334  1.00  0.00     0.042 C 
BRANCH  24  25
HETATM   25  C3  UNL     1      -2.985   1.107   0.347  1.00  0.00     0.004 C 
BRANCH  25  26
HETATM   26  C2  UNL     1      -2.331   2.323  -0.187  1.00  0.00    -0.004 C 
HETATM   27  C1  UNL     1      -3.347   2.948  -1.174  1.00  0.00     0.005 C 
ENDBRANCH  25  26
ENDBRANCH  24  25
ENDBRANCH   1  24
BRANCH   7  28
HETATM   28  O2  UNL     1       0.967  -4.375  -0.810  1.00  0.00    -0.345 OA
ATOM     29  H2  UNL     1       0.811  -5.273  -1.079  1.00  0.00     0.219 HD
ENDBRANCH   7  28
TORSDOF 7
