REMARK  3 active torsions:
REMARK  status: ('A' for Active; 'I' for Inactive)
REMARK    1  A    between atoms: N5_21  and  C11_22 
REMARK    2  A    between atoms: C11_22  and  C12_23 
REMARK       I    between atoms: C12_23  and  N6_25 
REMARK    3  A    between atoms: N6_25  and  C13_27 
ROOT
HETATM    1  C1  UNL     1      -3.432  -3.874   1.504  1.00  0.00     0.310 C 
HETATM    2  N1  UNL     1      -3.161  -2.808   0.590  1.00  0.00     0.088 N 
HETATM    3  C2  UNL     1      -3.973  -2.861  -0.599  1.00  0.00     0.274 C 
HETATM    4  C3  UNL     1      -4.565  -1.512  -0.896  1.00  0.00     0.057 C 
HETATM    5  C4  UNL     1      -6.055  -1.551  -0.652  1.00  0.00     0.234 C 
HETATM    6  N2  UNL     1      -6.605  -0.194  -0.708  1.00  0.00    -0.073 N 
ATOM      7  H21 UNL     1      -7.588  -0.205  -0.980  1.00  0.00     0.277 HD
ATOM      8  H22 UNL     1      -6.224   0.326  -1.498  1.00  0.00     0.277 HD
HETATM    9  C5  UNL     1      -6.415   0.521   0.526  1.00  0.00     0.259 C 
HETATM   10  C6  UNL     1      -6.055   1.966   0.322  1.00  0.00     0.259 C 
HETATM   11  N3  UNL     1      -5.192   2.064  -0.840  1.00  0.00    -0.072 N 
ATOM     12  H31 UNL     1      -5.673   1.737  -1.678  1.00  0.00     0.277 HD
ATOM     13  H32 UNL     1      -4.443   1.373  -0.795  1.00  0.00     0.277 HD
HETATM   14  C7  UNL     1      -4.661   3.377  -1.038  1.00  0.00     0.259 C 
HETATM   15  C8  UNL     1      -3.409   3.673  -0.267  1.00  0.00     0.259 C 
HETATM   16  N4  UNL     1      -2.967   2.604   0.586  1.00  0.00    -0.072 N 
ATOM     17  H41 UNL     1      -3.755   2.058   0.933  1.00  0.00     0.277 HD
ATOM     18  H42 UNL     1      -2.615   2.961   1.474  1.00  0.00     0.277 HD
HETATM   19  C9  UNL     1      -1.993   1.763  -0.063  1.00  0.00     0.252 C 
HETATM   20  C10 UNL     1      -1.205   0.906   0.933  1.00  0.00     0.155 C 
HETATM   21  N5  UNL     1      -0.969  -0.344   0.282  1.00  0.00    -0.362 N 
HETATM   22  C22 UNL     1      -1.134  -1.503   1.062  1.00  0.00     0.093 C 
HETATM   23  C23 UNL     1      -1.748  -2.654   0.301  1.00  0.00     0.316 C 
ENDROOT
BRANCH  21  24
HETATM   24  C11 UNL     1      -0.023  -0.344  -0.746  1.00  0.00     0.164 C 
BRANCH  24  25
HETATM   25  C12 UNL     1       1.393  -0.141  -0.370  1.00  0.00     0.257 C 
HETATM   26  O1  UNL     1       1.815   0.021   0.797  1.00  0.00    -0.267 OA
HETATM   27  N6  UNL     1       2.344  -0.128  -1.423  1.00  0.00    -0.348 N 
ATOM     28  H6  UNL     1       2.006  -0.259  -2.377  1.00  0.00     0.163 HD
BRANCH  27  29
HETATM   29  C13 UNL     1       3.768   0.060  -1.223  1.00  0.00     0.031 C 
HETATM   30  C14 UNL     1       4.395  -0.030  -2.625  1.00  0.00     0.038 C 
HETATM   31  C15 UNL     1       4.396  -1.020  -0.420  1.00  0.00     0.032 C 
HETATM   32  C16 UNL     1       5.739  -1.540  -0.832  1.00  0.00     0.022 C 
HETATM   33  C17 UNL     1       6.789  -1.605   0.294  1.00  0.00     0.119 C 
HETATM   34  N7  UNL     1       7.562  -0.353   0.340  1.00  0.00    -0.394 N 
HETATM   35  C18 UNL     1       7.351   0.491   1.444  1.00  0.00     0.157 C 
ATOM     36  H7  UNL     1       8.223  -0.108  -0.398  1.00  0.00     0.159 HD
HETATM   37  C19 UNL     1       7.179   1.949   1.175  1.00  0.00     0.256 C 
HETATM   38  O2  UNL     1       8.075   2.810   1.500  1.00  0.00    -0.267 OA
HETATM   39  N8  UNL     1       5.991   2.493   0.529  1.00  0.00    -0.356 N 
HETATM   40  C20 UNL     1       5.217   1.500  -0.081  1.00  0.00     0.125 C 
ATOM     41  H8  UNL     1       5.751   3.484   0.522  1.00  0.00     0.162 HD
HETATM   42  C21 UNL     1       3.937   1.511  -0.713  1.00  0.00     0.050 C 
ENDBRANCH  27  29
ENDBRANCH  24  25
ENDBRANCH  21  24
TORSDOF 3
