REMARK  5 active torsions:
REMARK  status: ('A' for Active; 'I' for Inactive)
REMARK    1  A    between atoms: C2_3  and  C3_5 
REMARK    2  A    between atoms: C3_5  and  N2_6 
REMARK    3  A    between atoms: C3_5  and  C4_10 
REMARK    4  A    between atoms: C4_10  and  C5_11 
REMARK    5  A    between atoms: C5_11  and  C6_12 
REMARK       I    between atoms: C6_12  and  N3_14 
ROOT
HETATM    1  C1  UNL     1       9.709  -1.343   1.281  1.00  0.00     0.263 C 
HETATM    2  N1  UNL     1       8.598  -0.527   1.208  1.00  0.00    -0.419 NA
HETATM    3  C2  UNL     1       7.513   0.269   1.137  1.00  0.00     0.316 C 
HETATM    4  O1  UNL     1       6.847   0.771   2.083  1.00  0.00    -0.255 OA
ENDROOT
BRANCH   3   5
HETATM    5  C3  UNL     1       6.976   0.647  -0.240  1.00  0.00     0.289 C 
BRANCH   5   6
HETATM    6  N2  UNL     1       7.381  -0.341  -1.205  1.00  0.00    -0.065 N 
ATOM      7  H23 UNL     1       8.391  -0.481  -1.211  1.00  0.00     0.275 HD
ATOM      8  H22 UNL     1       7.104  -1.283  -0.930  1.00  0.00     0.275 HD
ATOM      9  H21 UNL     1       7.022  -0.088  -2.126  1.00  0.00     0.275 HD
ENDBRANCH   5   6
BRANCH   5  10
HETATM   10  C4  UNL     1       5.590   1.105  -0.252  1.00  0.00     0.053 C 
BRANCH  10  11
HETATM   11  C5  UNL     1       4.521   0.181   0.232  1.00  0.00     0.105 C 
BRANCH  11  12
HETATM   12  C6  UNL     1       3.233   0.918   0.112  1.00  0.00     0.220 C 
HETATM   13  O2  UNL     1       3.236   2.169  -0.134  1.00  0.00    -0.273 OA
HETATM   14  N3  UNL     1       1.972   0.270   0.266  1.00  0.00    -0.349 N 
HETATM   15  C7  UNL     1       0.753   1.039   0.144  1.00  0.00     0.153 C 
HETATM   16  C22 UNL     1       1.916  -1.130   0.522  1.00  0.00     0.152 C 
HETATM   17  C8  UNL     1       0.588   1.658  -1.244  1.00  0.00     0.252 C 
HETATM   18  N4  UNL     1       0.079   3.018  -1.075  1.00  0.00    -0.074 N 
HETATM   19  C9  UNL     1      -0.834   3.426  -2.094  1.00  0.00     0.234 C 
ATOM     20  H42 UNL     1      -0.340   3.132  -0.152  1.00  0.00     0.277 HD
ATOM     21  H41 UNL     1       0.849   3.682  -0.997  1.00  0.00     0.277 HD
HETATM   22  C10 UNL     1      -2.279   3.078  -1.798  1.00  0.00     0.055 C 
HETATM   23  C11 UNL     1      -2.712   3.732  -0.502  1.00  0.00     0.233 C 
HETATM   24  N5  UNL     1      -3.719   2.993   0.207  1.00  0.00    -0.075 N 
HETATM   25  C12 UNL     1      -4.321   2.017  -0.647  1.00  0.00     0.232 C 
ATOM     26  H52 UNL     1      -3.350   2.574   1.061  1.00  0.00     0.277 HD
ATOM     27  H51 UNL     1      -4.415   3.609   0.628  1.00  0.00     0.277 HD
HETATM   28  C13 UNL     1      -5.743   1.685  -0.226  1.00  0.00     0.029 C 
HETATM   29  C14 UNL     1      -6.272   0.566  -1.087  1.00  0.00     0.029 C 
HETATM   30  C15 UNL     1      -6.695  -0.582  -0.190  1.00  0.00     0.232 C 
HETATM   31  N6  UNL     1      -5.551  -1.366   0.246  1.00  0.00    -0.075 N 
HETATM   32  C16 UNL     1      -5.899  -2.761   0.088  1.00  0.00     0.233 C 
ATOM     33  H62 UNL     1      -4.688  -1.113  -0.235  1.00  0.00     0.277 HD
ATOM     34  H61 UNL     1      -5.247  -1.136   1.192  1.00  0.00     0.277 HD
HETATM   35  C17 UNL     1      -4.727  -3.679  -0.002  1.00  0.00     0.055 C 
HETATM   36  C18 UNL     1      -3.523  -3.235   0.799  1.00  0.00     0.234 C 
HETATM   37  N7  UNL     1      -2.847  -2.144   0.163  1.00  0.00    -0.073 N 
HETATM   38  C19 UNL     1      -1.411  -2.448   0.092  1.00  0.00     0.258 C 
ATOM     39  H72 UNL     1      -3.243  -1.921  -0.750  1.00  0.00     0.277 HD
ATOM     40  H71 UNL     1      -3.033  -1.252   0.621  1.00  0.00     0.277 HD
HETATM   41  C20 UNL     1      -0.816  -2.519   1.478  1.00  0.00     0.195 C 
HETATM   42  O3  UNL     1      -0.117  -1.382   1.827  1.00  0.00    -0.388 OA
HETATM   43  C21 UNL     1       1.241  -1.524   1.813  1.00  0.00     0.187 C 
ENDBRANCH  11  12
ENDBRANCH  10  11
ENDBRANCH   5  10
ENDBRANCH   3   5
TORSDOF 4
