REMARK  11 active torsions:
REMARK  status: ('A' for Active; 'I' for Inactive)
REMARK    1  A    between atoms: O1_2  and  C2_3 
REMARK    2  A    between atoms: C6_8  and  N2_11 
REMARK    3  A    between atoms: C9_16  and  N4_17 
REMARK    4  A    between atoms: N4_17  and  C10_18 
REMARK    5  A    between atoms: N4_17  and  C12_22 
REMARK    6  A    between atoms: C10_18  and  C11_19 
REMARK    7  A    between atoms: C11_19  and  O3_20 
REMARK    8  A    between atoms: C12_22  and  C13_23 
REMARK    9  A    between atoms: C13_23  and  O4_24 
REMARK   10  A    between atoms: C14_28  and  N6_29 
REMARK   11  A    between atoms: N6_29  and  N7_31 
ROOT
HETATM    1  C2  UNL     1      -4.457   0.360   0.656  1.00  0.00     0.059 C 
HETATM    2  C3  UNL     1      -4.275  -0.802   0.062  1.00  0.00     0.017 C 
HETATM    3  C4  UNL     1      -5.355  -1.844  -0.124  1.00  0.00     0.055 C 
HETATM    4  C5  UNL     1      -2.890  -0.901  -0.359  1.00  0.00     0.201 C 
HETATM    5  O2  UNL     1      -2.318  -2.011  -0.626  1.00  0.00    -0.289 OA
HETATM    6  C6  UNL     1      -2.346   0.480  -0.402  1.00  0.00     0.206 C 
HETATM    7  C7  UNL     1      -2.623   1.124  -1.700  1.00  0.00     0.100 C 
HETATM    8  N1  UNL     1      -2.833   1.644  -2.699  1.00  0.00    -0.194 NA
HETATM    9  C15 UNL     1      -3.217   1.141   0.675  1.00  0.00     0.121 C 
ENDROOT
BRANCH   6  10
HETATM   10  N2  UNL     1      -1.010   0.492   0.006  1.00  0.00    -0.195 N 
HETATM   11  C8  UNL     1       0.093   0.173  -0.504  1.00  0.00     0.709 A 
HETATM   12  N3  UNL     1       1.247   0.333   0.237  1.00  0.00    -0.021 N 
HETATM   13  N8  UNL     1       0.190  -0.318  -1.743  1.00  0.00    -0.020 N 
HETATM   14  C9  UNL     1       2.434   0.011  -0.253  1.00  0.00     0.709 A 
ATOM     15  H3  UNL     1       1.184   0.708   1.184  1.00  0.00     0.203 HD
HETATM   16  N5  UNL     1       2.523  -0.479  -1.489  1.00  0.00    -0.020 N 
HETATM   17  C14 UNL     1       1.423  -0.645  -2.231  1.00  0.00     0.725 A 
ATOM     18  H5  UNL     1       3.435  -0.729  -1.871  1.00  0.00     0.203 HD
ATOM     19  H8  UNL     1      -0.644  -0.447  -2.316  1.00  0.00     0.203 HD
ATOM     20  H2  UNL     1      -0.903   0.849   0.955  1.00  0.00     0.180 HD
BRANCH  14  21
HETATM   21  N4  UNL     1       3.607   0.227   0.509  1.00  0.00    -0.213 N 
BRANCH  21  22
HETATM   22  C10 UNL     1       3.482   1.123   1.675  1.00  0.00     0.167 C 
BRANCH  22  23
HETATM   23  C11 UNL     1       3.589   0.380   2.982  1.00  0.00     0.184 C 
BRANCH  23  24
HETATM   24  O3  UNL     1       3.447   1.368   3.982  1.00  0.00    -0.399 OA
ATOM     25  H3  UNL     1       3.514   0.900   4.806  1.00  0.00     0.209 HD
ENDBRANCH  23  24
ENDBRANCH  22  23
ENDBRANCH  21  22
BRANCH  21  26
HETATM   26  C12 UNL     1       4.901  -0.314   0.312  1.00  0.00     0.167 C 
BRANCH  26  27
HETATM   27  C13 UNL     1       5.122  -1.324  -0.739  1.00  0.00     0.184 C 
BRANCH  27  28
HETATM   28  O4  UNL     1       4.394  -2.505  -0.608  1.00  0.00    -0.399 OA
ATOM     29  H4  UNL     1       4.536  -3.156  -1.285  1.00  0.00     0.209 HD
ENDBRANCH  27  28
ENDBRANCH  26  27
ENDBRANCH  21  26
ENDBRANCH  14  21
BRANCH  17  30
HETATM   30  N6  UNL     1       1.467  -1.116  -3.429  1.00  0.00    -0.138 N 
ATOM     31  H6  UNL     1       2.365  -1.375  -3.836  1.00  0.00     0.205 HD
BRANCH  30  32
HETATM   32  N7  UNL     1       0.317  -1.273  -4.164  1.00  0.00    -0.331 N 
ATOM     33  H72 UNL     1      -0.573  -1.009  -3.742  1.00  0.00     0.177 HD
ATOM     34  H71 UNL     1       0.352  -1.646  -5.113  1.00  0.00     0.177 HD
ENDBRANCH  30  32
ENDBRANCH  17  30
ENDBRANCH   6  10
BRANCH   1  35
HETATM   35  O1  UNL     1      -5.685   0.799   1.204  1.00  0.00    -0.359 OA
HETATM   36  C1  UNL     1      -5.813   2.123   1.639  1.00  0.00     0.209 C 
ENDBRANCH   1  35
TORSDOF 11
