REMARK  11 active torsions:
REMARK  status: ('A' for Active; 'I' for Inactive)
REMARK    1  A    between atoms: C2_2  and  O2_4 
REMARK    2  A    between atoms: O2_4  and  C3_5 
REMARK    3  A    between atoms: C3_5  and  C4_6 
REMARK    4  A    between atoms: C3_5  and  C5_9 
REMARK    5  A    between atoms: C4_6  and  O3_7 
REMARK    6  A    between atoms: C5_9  and  C6_11 
REMARK    7  A    between atoms: C6_11  and  N1_12 
REMARK    8  A    between atoms: C6_11  and  N5_25 
REMARK       I    between atoms: N1_12  and  C7_14 
REMARK    9  A    between atoms: C7_14  and  C8_16 
REMARK       I    between atoms: N5_25  and  C12_27 
REMARK   10  A    between atoms: C12_27  and  C13_29 
REMARK   11  A    between atoms: C13_29  and  N6_32 
ROOT
HETATM    1  C6  UNL     1      -0.324  -0.004  -0.523  1.00  0.00     0.260 C 
ENDROOT
BRANCH   1   2
HETATM    2  C5  UNL     1      -0.951  -1.345  -0.555  1.00  0.00     0.200 C 
HETATM    3  O4  UNL     1      -0.240  -2.324  -0.711  1.00  0.00    -0.291 OA
BRANCH   2   4
HETATM    4  C3  UNL     1      -2.430  -1.474  -0.397  1.00  0.00     0.228 C 
BRANCH   4   5
HETATM    5  O2  UNL     1      -2.814  -2.831  -0.435  1.00  0.00    -0.306 OA
BRANCH   5   6
HETATM    6  C2  UNL     1      -3.508  -3.391   0.615  1.00  0.00     0.255 C 
HETATM    7  C1  UNL     1      -3.925  -4.834   0.590  1.00  0.00     0.126 C 
HETATM    8  O1  UNL     1      -3.800  -2.691   1.610  1.00  0.00    -0.266 OA
ENDBRANCH   5   6
ENDBRANCH   4   5
BRANCH   4   9
HETATM    9  C4  UNL     1      -3.072  -0.762  -1.587  1.00  0.00     0.204 C 
BRANCH   9  10
HETATM   10  O3  UNL     1      -2.566  -1.431  -2.727  1.00  0.00    -0.398 OA
ATOM     11  H3  UNL     1      -2.965  -0.988  -3.467  1.00  0.00     0.209 HD
ENDBRANCH   9  10
ENDBRANCH   4   9
ENDBRANCH   2   4
ENDBRANCH   1   2
BRANCH   1  12
HETATM   12  N1  UNL     1       1.109  -0.148  -0.706  1.00  0.00    -0.328 N 
HETATM   13  C7  UNL     1       1.746   0.475  -1.762  1.00  0.00     0.273 C 
HETATM   14  O5  UNL     1       1.003   1.168  -2.548  1.00  0.00    -0.266 OA
ATOM     15  H1  UNL     1       1.649  -0.713  -0.051  1.00  0.00     0.165 HD
BRANCH  13  16
HETATM   16  C8  UNL     1       3.164   0.441  -2.096  1.00  0.00     0.141 A 
HETATM   17  N2  UNL     1       3.715   1.089  -3.183  1.00  0.00    -0.279 N 
HETATM   18  N3  UNL     1       5.001   0.855  -3.191  1.00  0.00    -0.240 N 
ATOM     19  H2  UNL     1       3.206   1.654  -3.863  1.00  0.00     0.189 HD
HETATM   20  N4  UNL     1       5.347   0.093  -2.180  1.00  0.00    -0.284 N 
ATOM     21  H3  UNL     1       5.650   1.217  -3.890  1.00  0.00     0.208 HD
HETATM   22  C9  UNL     1       6.712  -0.377  -1.867  1.00  0.00     0.179 C 
HETATM   23  C10 UNL     1       4.229  -0.176  -1.488  1.00  0.00     0.059 A 
HETATM   24  C11 UNL     1       4.184  -1.014  -0.261  1.00  0.00     0.072 C 
ENDBRANCH  13  16
ENDBRANCH   1  12
BRANCH   1  25
HETATM   25  N5  UNL     1      -0.559   0.675   0.735  1.00  0.00    -0.331 N 
HETATM   26  C12 UNL     1      -1.201   1.937   0.828  1.00  0.00     0.255 C 
HETATM   27  O6  UNL     1      -1.582   2.490  -0.231  1.00  0.00    -0.271 OA
ATOM     28  H5  UNL     1      -0.248   0.224   1.595  1.00  0.00     0.165 HD
BRANCH  26  29
HETATM   29  C13 UNL     1      -1.448   2.639   2.092  1.00  0.00     0.196 C 
HETATM   30  C14 UNL     1      -0.658   3.949   2.047  1.00  0.00     0.056 C 
HETATM   31  C15 UNL     1      -2.912   2.892   2.293  1.00  0.00     0.056 C 
BRANCH  29  32
HETATM   32  N6  UNL     1      -0.965   1.904   3.245  1.00  0.00    -0.062 N 
ATOM     33  H63 UNL     1      -1.355   0.962   3.268  1.00  0.00     0.275 HD
ATOM     34  H62 UNL     1       0.023   1.671   3.143  1.00  0.00     0.275 HD
ATOM     35  H61 UNL     1      -1.137   2.392   4.124  1.00  0.00     0.275 HD
ENDBRANCH  29  32
ENDBRANCH  26  29
ENDBRANCH   1  25
TORSDOF 11
