REMARK  9 active torsions:
REMARK  status: ('A' for Active; 'I' for Inactive)
REMARK    1  A    between atoms: S1_2  and  C2_4 
REMARK    2  A    between atoms: C2_4  and  C3_5 
REMARK       I    between atoms: C3_5  and  N1_7 
REMARK    3  A    between atoms: N1_7  and  N2_9 
REMARK    4  A    between atoms: N2_9  and  C4_10 
REMARK    5  A    between atoms: C4_10  and  C5_11 
REMARK    6  A    between atoms: C7_13  and  C8_14 
REMARK    7  A    between atoms: C8_14  and  N3_15 
REMARK    8  A    between atoms: N3_15  and  N4_16 
REMARK    9  A    between atoms: C11_26  and  N7_27 
ROOT
HETATM    1  C5  UNL     1       0.609  -0.406   0.866  1.00  0.00     0.051 A 
HETATM    2  C6  UNL     1      -0.456  -1.142   0.606  1.00  0.00     0.070 A 
HETATM    3  C7  UNL     1      -1.435  -0.607   1.500  1.00  0.00     0.131 A 
HETATM    4  O4  UNL     1      -0.921   0.368   2.140  1.00  0.00    -0.235 OA
HETATM    5  N8  UNL     1       0.327   0.545   1.822  1.00  0.00    -0.264 N 
ATOM      6  H8  UNL     1       0.966   1.244   2.202  1.00  0.00     0.194 HD
ENDROOT
BRANCH   3   7
HETATM    7  C8  UNL     1      -2.787  -1.111   1.594  1.00  0.00     0.248 C 
BRANCH   7   8
HETATM    8  N3  UNL     1      -3.451  -1.542   0.828  1.00  0.00    -0.335 NA
BRANCH   8   9
HETATM    9  N4  UNL     1      -4.227  -2.060  -0.128  1.00  0.00    -0.224 N 
HETATM   10  C9  UNL     1      -4.906  -1.085  -0.637  1.00  0.00     0.161 A 
HETATM   11  S2  UNL     1      -4.961   0.589  -0.346  1.00  0.00     0.014 SA
HETATM   12  C11 UNL     1      -6.260  -1.453  -1.013  1.00  0.00     0.141 A 
HETATM   13  N5  UNL     1      -6.327   1.410  -0.493  1.00  0.00    -0.277 N 
HETATM   14  C10 UNL     1      -7.405   0.666  -0.873  1.00  0.00     0.332 A 
ATOM     15  H5  UNL     1      -6.387   2.413  -0.316  1.00  0.00     0.179 HD
HETATM   16  O3  UNL     1      -8.450   1.356  -0.959  1.00  0.00    -0.246 OA
HETATM   17  N6  UNL     1      -7.280  -0.645  -1.077  1.00  0.00    -0.292 N 
ATOM     18  H6  UNL     1      -8.153  -1.106  -1.333  1.00  0.00     0.172 HD
ATOM     19  H4  UNL     1      -4.275  -3.041  -0.404  1.00  0.00     0.202 HD
BRANCH  12  20
HETATM   20  N7  UNL     1      -6.489  -2.787  -1.081  1.00  0.00    -0.383 N 
ATOM     21  H72 UNL     1      -5.690  -3.420  -1.031  1.00  0.00     0.157 HD
ATOM     22  H71 UNL     1      -7.440  -3.045  -1.345  1.00  0.00     0.157 HD
ENDBRANCH  12  20
ENDBRANCH   8   9
ENDBRANCH   7   8
ENDBRANCH   3   7
BRANCH   1  23
HETATM   23  C4  UNL     1       1.993  -0.453   0.323  1.00  0.00     0.194 C 
BRANCH  23  24
HETATM   24  N2  UNL     1       2.110   0.277  -0.929  1.00  0.00    -0.133 NA
BRANCH  24  25
HETATM   25  N1  UNL     1       3.485   0.534  -1.101  1.00  0.00    -0.270 N 
HETATM   26  C3  UNL     1       4.054   1.428  -0.157  1.00  0.00     0.265 C 
HETATM   27  O2  UNL     1       3.210   1.980   0.661  1.00  0.00    -0.267 OA
ATOM     28  H1  UNL     1       4.032   0.108  -1.850  1.00  0.00     0.185 HD
BRANCH  26  29
HETATM   29  C2  UNL     1       5.404   1.805   0.057  1.00  0.00     0.153 C 
BRANCH  29  30
HETATM   30  S1  UNL     1       6.561   0.469  -0.406  1.00  0.00     0.040 S 
HETATM   31  C1  UNL     1       8.190   1.128  -0.067  1.00  0.00     0.132 C 
HETATM   32  O1  UNL     1       6.294  -0.837   0.550  1.00  0.00    -0.254 OA
ENDBRANCH  29  30
ENDBRANCH  26  29
ENDBRANCH  24  25
ENDBRANCH  23  24
ENDBRANCH   1  23
TORSDOF 9
