REMARK  8 active torsions:
REMARK  status: ('A' for Active; 'I' for Inactive)
REMARK    1  A    between atoms: N2_7  and  C4_8 
REMARK    2  A    between atoms: C4_8  and  C5_9 
REMARK    3  A    between atoms: C5_9  and  N3_10 
REMARK    4  A    between atoms: N3_10  and  S1_12 
REMARK    5  A    between atoms: S1_12  and  N4_15 
REMARK       I    between atoms: N4_15  and  C6_17 
REMARK    6  A    between atoms: C6_17  and  C7_19 
REMARK    7  A    between atoms: C8_25  and  N7_26 
REMARK    8  A    between atoms: C9_29  and  N8_30 
ROOT
HETATM    1  S1  UNL     1       1.583  -1.703  -0.376  1.00  0.00     0.321 S 
HETATM    2  O2  UNL     1       2.030  -3.088  -0.779  1.00  0.00    -0.182 OA
HETATM    3  O3  UNL     1       1.167  -1.029  -1.677  1.00  0.00    -0.182 OA
ENDROOT
BRANCH   1   4
HETATM    4  N3  UNL     1       0.300  -1.762   0.744  1.00  0.00    -0.301 N 
ATOM      5  H3  UNL     1       0.252  -2.365   1.565  1.00  0.00     0.173 HD
BRANCH   4   6
HETATM    6  C5  UNL     1      -0.712  -0.809   0.331  1.00  0.00     0.154 C 
BRANCH   6   7
HETATM    7  C4  UNL     1      -1.882  -0.797   1.289  1.00  0.00     0.156 C 
BRANCH   7   8
HETATM    8  N2  UNL     1      -2.865   0.133   0.795  1.00  0.00    -0.277 N 
HETATM    9  C3  UNL     1      -2.909   1.468   1.083  1.00  0.00     0.328 A 
HETATM   10  N1  UNL     1      -3.970   2.024   0.482  1.00  0.00    -0.309 N 
HETATM   11  O1  UNL     1      -2.075   2.050   1.798  1.00  0.00    -0.246 OA
HETATM   12  C2  UNL     1      -4.627   1.073  -0.200  1.00  0.00     0.060 A 
ATOM     13  H1  UNL     1      -4.235   3.008   0.534  1.00  0.00     0.170 HD
HETATM   14  C1  UNL     1      -5.882   1.225  -1.005  1.00  0.00     0.072 C 
HETATM   15  C9  UNL     1      -3.920  -0.097   0.009  1.00  0.00     0.202 A 
BRANCH  15  16
HETATM   16  N8  UNL     1      -4.311  -1.353  -0.557  1.00  0.00    -0.096 N 
HETATM   17  O6  UNL     1      -5.353  -1.453  -1.276  1.00  0.00    -0.530 OA
HETATM   18  O7  UNL     1      -3.637  -2.527  -0.386  1.00  0.00    -0.530 OA
ENDBRANCH  15  16
ENDBRANCH   7   8
ENDBRANCH   6   7
ENDBRANCH   4   6
ENDBRANCH   1   4
BRANCH   1  19
HETATM   19  N4  UNL     1       2.925  -0.850   0.282  1.00  0.00    -0.232 N 
HETATM   20  C6  UNL     1       3.999  -0.428  -0.574  1.00  0.00     0.288 C 
HETATM   21  O4  UNL     1       3.990  -0.654  -1.790  1.00  0.00    -0.265 OA
ATOM     22  H4  UNL     1       2.958  -0.644   1.280  1.00  0.00     0.183 HD
BRANCH  20  23
HETATM   23  C7  UNL     1       5.122   0.285   0.027  1.00  0.00     0.170 A 
HETATM   24  N5  UNL     1       5.259   0.583   1.346  1.00  0.00    -0.232 N 
HETATM   25  O5  UNL     1       6.380   1.218   1.501  1.00  0.00    -0.155 OA
ATOM     26  H5  UNL     1       4.596   0.348   2.085  1.00  0.00     0.197 HD
HETATM   27  N6  UNL     1       7.001   1.365   0.388  1.00  0.00    -0.224 N 
HETATM   28  C8  UNL     1       6.257   0.799  -0.568  1.00  0.00     0.155 A 
ATOM     29  H6  UNL     1       7.899   1.829   0.256  1.00  0.00     0.198 HD
BRANCH  28  30
HETATM   30  N7  UNL     1       6.559   0.756  -1.802  1.00  0.00    -0.382 N 
ATOM     31  H72 UNL     1       5.991   0.324  -2.531  1.00  0.00     0.157 HD
ATOM     32  H71 UNL     1       7.397   1.136  -2.242  1.00  0.00     0.157 HD
ENDBRANCH  28  30
ENDBRANCH  20  23
ENDBRANCH   1  19
TORSDOF 8
