REMARK  7 active torsions:
REMARK  status: ('A' for Active; 'I' for Inactive)
REMARK    1  A    between atoms: C2_2  and  N1_3 
REMARK    2  A    between atoms: C2_2  and  C10_15 
REMARK    3  A    between atoms: N1_3  and  C3_5 
REMARK    4  A    between atoms: C6_8  and  C7_9 
REMARK       I    between atoms: C10_15  and  N2_17 
REMARK    5  A    between atoms: N2_17  and  N3_19 
REMARK    6  A    between atoms: C11_21  and  C12_22 
REMARK    7  A    between atoms: C19_29  and  C20_30 
ROOT
HETATM    1  N3  UNL     1       1.489  -1.191  -0.358  1.00  0.00    -0.310 N 
ATOM      2  H3  UNL     1       1.816  -2.113  -0.648  1.00  0.00     0.185 HD
HETATM    3  C11 UNL     1       0.347  -1.241   0.119  1.00  0.00     0.120 C 
ENDROOT
BRANCH   1   4
HETATM    4  N2  UNL     1       2.421  -0.231  -0.597  1.00  0.00    -0.269 N 
HETATM    5  C10 UNL     1       3.485   0.088   0.296  1.00  0.00     0.258 C 
HETATM    6  O1  UNL     1       3.544  -0.553   1.355  1.00  0.00    -0.269 OA
ATOM      7  H2  UNL     1       2.355   0.294  -1.469  1.00  0.00     0.190 HD
BRANCH   5   8
HETATM    8  C2  UNL     1       4.442   1.130  -0.058  1.00  0.00     0.171 C 
HETATM    9  C1  UNL     1       5.019   0.834  -1.452  1.00  0.00     0.042 C 
BRANCH   8  10
HETATM   10  N1  UNL     1       5.537   1.333   0.844  1.00  0.00    -0.377 N 
ATOM     11  H1  UNL     1       5.497   2.057   1.561  1.00  0.00     0.160 HD
BRANCH  10  12
HETATM   12  C3  UNL     1       6.695   0.488   0.712  1.00  0.00     0.028 A 
HETATM   13  C4  UNL     1       7.720   1.000  -0.091  1.00  0.00     0.030 A 
HETATM   14  C5  UNL     1       8.849   0.249  -0.302  1.00  0.00     0.018 A 
HETATM   15  C6  UNL     1       9.028  -1.011   0.255  1.00  0.00     0.048 A 
HETATM   16  C8  UNL     1       8.000  -1.461   1.033  1.00  0.00     0.018 A 
HETATM   17  C9  UNL     1       6.848  -0.742   1.272  1.00  0.00     0.030 A 
BRANCH  15  18
HETATM   18  C7  UNL     1      10.245  -1.819  -0.003  1.00  0.00     0.417 C 
HETATM   19  F1  UNL     1      11.202  -1.068  -0.617  1.00  0.00    -0.166 F 
HETATM   20  F2  UNL     1      10.666  -2.318   1.193  1.00  0.00    -0.166 F 
HETATM   21  F3  UNL     1       9.846  -2.855  -0.860  1.00  0.00    -0.166 F 
ENDBRANCH  15  18
ENDBRANCH  10  12
ENDBRANCH   8  10
ENDBRANCH   5   8
ENDBRANCH   1   4
BRANCH   3  22
HETATM   22  C12 UNL     1      -0.390  -0.069   0.620  1.00  0.00     0.126 C 
HETATM   23  C13 UNL     1       0.221   0.617   1.803  1.00  0.00     0.055 C 
HETATM   24  C14 UNL     1      -0.652   0.988  -0.423  1.00  0.00     0.050 C 
HETATM   25  C15 UNL     1      -1.802   0.646  -1.354  1.00  0.00     0.044 C 
HETATM   26  C16 UNL     1      -2.832  -0.126  -0.594  1.00  0.00     0.096 C 
HETATM   27  C17 UNL     1      -3.901  -0.661  -1.485  1.00  0.00     0.042 C 
HETATM   28  C25 UNL     1      -3.410   0.738   0.535  1.00  0.00     0.042 C 
HETATM   29  O2  UNL     1      -2.160  -1.188   0.054  1.00  0.00    -0.229 OA
HETATM   30  C18 UNL     1      -5.059  -1.247  -0.687  1.00  0.00     0.008 C 
HETATM   31  C19 UNL     1      -5.606  -0.227   0.291  1.00  0.00    -0.007 C 
HETATM   32  C24 UNL     1      -4.871   1.089   0.234  1.00  0.00     0.008 C 
HETATM   33  O3  UNL     1      -1.618  -0.606   1.115  1.00  0.00    -0.224 OA
BRANCH  31  34
HETATM   34  C20 UNL     1      -7.090  -0.075   0.205  1.00  0.00    -0.048 C 
HETATM   35  C21 UNL     1      -7.681  -1.438   0.538  1.00  0.00     0.015 C 
HETATM   36  C22 UNL     1      -7.549   0.954   1.182  1.00  0.00     0.015 C 
HETATM   37  C23 UNL     1      -7.433   0.326  -1.216  1.00  0.00     0.015 C 
ENDBRANCH  31  34
ENDBRANCH   3  22
TORSDOF 7
