REMARK  7 active torsions:
REMARK  status: ('A' for Active; 'I' for Inactive)
REMARK    1  A    between atoms: C2_2  and  C3_4 
REMARK    2  A    between atoms: C5_6  and  C6_7 
REMARK    3  A    between atoms: C7_11  and  C8_12 
REMARK    4  A    between atoms: N1_15  and  C11_16 
REMARK    5  A    between atoms: C11_16  and  N2_17 
REMARK    6  A    between atoms: C12_18  and  O2_19 
REMARK    7  A    between atoms: C15_23  and  O3_24 
ROOT
HETATM    1  C8  UNL     1       2.389  -0.207   0.878  1.00  0.00     0.023 C 
HETATM    2  C9  UNL     1       1.894  -1.606   0.581  1.00  0.00     0.039 C 
HETATM    3  C10 UNL     1       1.078  -1.794  -0.627  1.00  0.00     0.275 C 
HETATM    4  N1  UNL     1      -0.102  -0.943  -0.693  1.00  0.00     0.106 N 
HETATM    5  C22 UNL     1       0.127   0.252   0.109  1.00  0.00     0.275 C 
HETATM    6  C23 UNL     1       1.594   0.655  -0.142  1.00  0.00     0.039 C 
ENDROOT
BRANCH   4   7
HETATM    7  C11 UNL     1      -1.208  -1.664  -0.141  1.00  0.00     0.406 C 
BRANCH   7   8
HETATM    8  N2  UNL     1      -2.449  -0.930  -0.254  1.00  0.00    -0.280 N 
HETATM    9  C12 UNL     1      -3.243  -0.996  -1.366  1.00  0.00     0.152 A 
HETATM   10  C13 UNL     1      -4.325  -0.208  -1.113  1.00  0.00     0.004 A 
HETATM   11  C14 UNL     1      -4.216   0.346   0.138  1.00  0.00     0.004 A 
HETATM   12  C21 UNL     1      -5.540   0.148  -1.893  1.00  0.00     0.044 C 
HETATM   13  C15 UNL     1      -3.016  -0.132   0.654  1.00  0.00     0.152 A 
HETATM   14  C16 UNL     1      -5.292   1.252   0.640  1.00  0.00     0.052 C 
HETATM   15  C17 UNL     1      -6.659   0.764   0.262  1.00  0.00    -0.043 C 
HETATM   16  C18 UNL     1      -7.532   1.996   0.013  1.00  0.00     0.015 C 
HETATM   17  C19 UNL     1      -7.295  -0.025   1.402  1.00  0.00     0.015 C 
HETATM   18  C20 UNL     1      -6.723  -0.089  -0.956  1.00  0.00     0.014 C 
BRANCH   9  19
HETATM   19  O2  UNL     1      -2.955  -1.747  -2.522  1.00  0.00    -0.345 OA
ATOM     20  H2  UNL     1      -3.506  -1.793  -3.294  1.00  0.00     0.219 HD
ENDBRANCH   9  19
BRANCH  13  21
HETATM   21  O3  UNL     1      -2.593   0.239   1.928  1.00  0.00    -0.345 OA
ATOM     22  H3  UNL     1      -2.996   0.807   2.574  1.00  0.00     0.219 HD
ENDBRANCH  13  21
ENDBRANCH   7   8
ENDBRANCH   4   7
BRANCH   1  23
HETATM   23  C7  UNL     1       3.818  -0.057   0.613  1.00  0.00    -0.038 A 
HETATM   24  C5  UNL     1       4.601   0.883   1.222  1.00  0.00     0.055 A 
HETATM   25  C4  UNL     1       5.951   1.001   0.832  1.00  0.00     0.032 A 
HETATM   26  C3  UNL     1       6.506   0.200  -0.140  1.00  0.00     0.016 A 
HETATM   27  C25 UNL     1       5.724  -0.749  -0.754  1.00  0.00    -0.048 A 
HETATM   28  C24 UNL     1       4.396  -0.856  -0.364  1.00  0.00     0.016 A 
HETATM   29  C26 UNL     1       6.274  -1.644  -1.813  1.00  0.00     0.049 C 
BRANCH  24  30
HETATM   30  C6  UNL     1       4.068   1.717   2.312  1.00  0.00     0.418 C 
HETATM   31  F1  UNL     1       3.603   0.976   3.393  1.00  0.00    -0.166 F 
HETATM   32  F2  UNL     1       5.223   2.347   2.887  1.00  0.00    -0.166 F 
HETATM   33  F3  UNL     1       3.284   2.764   1.963  1.00  0.00    -0.166 F 
ENDBRANCH  24  30
BRANCH  26  34
HETATM   34  C2  UNL     1       7.900   0.401  -0.462  1.00  0.00     0.156 C 
HETATM   35  C1  UNL     1       8.682   1.447   0.222  1.00  0.00     0.097 C 
HETATM   36  O1  UNL     1       8.454  -0.312  -1.322  1.00  0.00    -0.293 OA
ENDBRANCH  26  34
ENDBRANCH   1  23
TORSDOF 7
