REMARK  6 active torsions:
REMARK  status: ('A' for Active; 'I' for Inactive)
REMARK    1  A    between atoms: O1_1  and  C1_3 
REMARK    2  A    between atoms: C3_5  and  C4_6 
REMARK    3  A    between atoms: C5_9  and  C6_10 
REMARK    4  A    between atoms: C13_17  and  N2_18 
REMARK    5  A    between atoms: C24_34  and  O2_35 
REMARK    6  A    between atoms: O2_35  and  C25_36 
ROOT
HETATM    1  C4  UNL     1       1.457   0.528   0.273  1.00  0.00     0.117 A 
HETATM    2  N1  UNL     1       1.960  -0.724   0.310  1.00  0.00    -0.345 N 
ATOM      3  H1  UNL     1       2.965  -0.851   0.187  1.00  0.00     0.167 HD
HETATM    4  C5  UNL     1       1.191  -1.812   0.503  1.00  0.00     0.018 A 
HETATM    5  C12 UNL     1      -0.163  -1.605   0.668  1.00  0.00     0.073 A 
HETATM    6  C13 UNL     1      -0.712  -0.346   0.637  1.00  0.00     0.106 A 
HETATM    7  N4  UNL     1       0.132   0.683   0.438  1.00  0.00    -0.328 N 
ATOM      8  H4  UNL     1      -0.253   1.627   0.411  1.00  0.00     0.169 HD
ENDROOT
BRANCH   1   9
HETATM    9  C3  UNL     1       2.342   1.679   0.059  1.00  0.00     0.011 A 
HETATM   10  C2  UNL     1       1.811   2.926   0.027  1.00  0.00     0.054 A 
HETATM   11  C1  UNL     1       2.626   4.028  -0.174  1.00  0.00     0.100 A 
HETATM   12  C24 UNL     1       3.980   3.871  -0.343  1.00  0.00     0.111 A 
HETATM   13  C23 UNL     1       4.498   2.570  -0.303  1.00  0.00     0.041 A 
HETATM   14  C22 UNL     1       3.681   1.478  -0.103  1.00  0.00     0.018 A 
BRANCH  11  15
HETATM   15  O1  UNL     1       1.999   5.268  -0.188  1.00  0.00    -0.358 OA
ATOM     16  H1  UNL     1       2.558   6.024  -0.326  1.00  0.00     0.217 HD
ENDBRANCH  11  15
BRANCH  12  17
HETATM   17  O2  UNL     1       4.810   4.958  -0.549  1.00  0.00    -0.252 OA
BRANCH  17  18
HETATM   18  C25 UNL     1       5.185   5.470  -1.806  1.00  0.00     0.530 C 
HETATM   19  F1  UNL     1       6.008   6.566  -1.605  1.00  0.00    -0.144 F 
HETATM   20  F2  UNL     1       5.953   4.512  -2.497  1.00  0.00    -0.144 F 
HETATM   21  F3  UNL     1       4.119   5.729  -2.622  1.00  0.00    -0.144 F 
ENDBRANCH  17  18
ENDBRANCH  12  17
ENDBRANCH   1   9
BRANCH   4  22
HETATM   22  C6  UNL     1       1.713  -3.182   0.547  1.00  0.00     0.036 C 
HETATM   23  C7  UNL     1       2.394  -3.548  -0.746  1.00  0.00     0.011 C 
HETATM   24  C8  UNL     1       3.513  -4.511  -0.595  1.00  0.00     0.001 C 
HETATM   25  C9  UNL     1       3.345  -5.501   0.518  1.00  0.00     0.000 C 
HETATM   26  C10 UNL     1       2.917  -4.867   1.817  1.00  0.00     0.001 C 
HETATM   27  C11 UNL     1       2.718  -3.373   1.677  1.00  0.00     0.011 C 
ENDBRANCH   4  22
BRANCH   6  28
HETATM   28  N2  UNL     1      -2.107  -0.146   0.808  1.00  0.00    -0.366 N 
HETATM   29  C14 UNL     1      -3.070  -1.208   1.025  1.00  0.00     0.125 C 
HETATM   30  C15 UNL     1      -4.418  -0.567   1.039  1.00  0.00     0.031 C 
HETATM   31  C16 UNL     1      -4.167   0.722   0.269  1.00  0.00    -0.020 C 
HETATM   32  C17 UNL     1      -5.240   1.745   0.555  1.00  0.00     0.039 C 
HETATM   33  C20 UNL     1      -4.105   0.404  -1.189  1.00  0.00     0.039 C 
HETATM   34  C21 UNL     1      -2.816   1.128   0.798  1.00  0.00     0.134 C 
HETATM   35  C18 UNL     1      -6.446   1.362  -0.288  1.00  0.00     0.233 C 
HETATM   36  N3  UNL     1      -6.145   1.697  -1.660  1.00  0.00    -0.075 N 
HETATM   37  C19 UNL     1      -4.756   1.530  -1.949  1.00  0.00     0.233 C 
ATOM     38  H32 UNL     1      -6.727   1.168  -2.309  1.00  0.00     0.277 HD
ATOM     39  H31 UNL     1      -6.464   2.638  -1.892  1.00  0.00     0.277 HD
ENDBRANCH   6  28
TORSDOF 6
