REMARK  7 active torsions:
REMARK  status: ('A' for Active; 'I' for Inactive)
REMARK    1  A    between atoms: C3_5  and  N2_6 
REMARK    2  A    between atoms: N2_6  and  S1_8 
REMARK    3  A    between atoms: S1_8  and  N3_9 
REMARK    4  A    between atoms: S1_8  and  C4_13 
REMARK    5  A    between atoms: N4_20  and  C8_21 
REMARK    6  A    between atoms: C8_21  and  C10_24 
REMARK    7  A    between atoms: C10_24  and  C11_25 
ROOT
HETATM    1  C1  UNL     1       1.623   4.563   0.972  1.00  0.00     0.091 C 
HETATM    2  C2  UNL     1       1.458   3.200   0.411  1.00  0.00     0.108 A 
HETATM    3  N1  UNL     1       2.420   2.371  -0.011  1.00  0.00    -0.177 N 
ATOM      4  H1  UNL     1       3.418   2.583   0.002  1.00  0.00     0.185 HD
HETATM    5  C3  UNL     1       1.887   1.219  -0.455  1.00  0.00     0.711 A 
HETATM    6  N4  UNL     1       0.558   1.335  -0.305  1.00  0.00    -0.097 N 
HETATM    7  N5  UNL     1       0.303   2.539   0.221  1.00  0.00    -0.270 N 
ATOM      8  H5  UNL     1      -0.625   2.900   0.443  1.00  0.00     0.189 HD
ENDROOT
BRANCH   5   9
HETATM    9  N2  UNL     1       2.471   0.179  -0.937  1.00  0.00    -0.127 N 
ATOM     10  H2  UNL     1       1.910  -0.621  -1.230  1.00  0.00     0.196 HD
BRANCH   9  11
HETATM   11  S1  UNL     1       4.182   0.117  -1.094  1.00  0.00     0.157 S 
HETATM   12  O1  UNL     1       4.795   1.414  -0.614  1.00  0.00    -0.222 OA
BRANCH  11  13
HETATM   13  N3  UNL     1       4.643  -0.166  -2.541  1.00  0.00    -0.340 N 
ATOM     14  H32 UNL     1       3.988  -0.300  -3.312  1.00  0.00     0.167 HD
ATOM     15  H31 UNL     1       5.658  -0.203  -2.634  1.00  0.00     0.167 HD
ENDBRANCH  11  13
BRANCH  11  16
HETATM   16  C4  UNL     1       4.872  -1.144  -0.058  1.00  0.00     0.102 A 
HETATM   17  C5  UNL     1       5.608  -2.234  -0.443  1.00  0.00     0.057 A 
HETATM   18  C6  UNL     1       6.029  -3.063   0.538  1.00  0.00     0.064 A 
HETATM   19 CL1  UNL     1       7.001  -4.530   0.187  1.00  0.00    -0.082 Cl
HETATM   20  C7  UNL     1       5.680  -2.736   1.820  1.00  0.00     0.097 A 
HETATM   21 CL2  UNL     1       6.084  -3.626   3.304  1.00  0.00    -0.074 Cl
HETATM   22  S2  UNL     1       4.788  -1.302   1.632  1.00  0.00    -0.064 SA
ENDBRANCH  11  16
ENDBRANCH   9  11
ENDBRANCH   5   9
BRANCH   6  23
HETATM   23  C8  UNL     1      -0.494   0.348  -0.640  1.00  0.00     0.144 C 
HETATM   24  C9  UNL     1      -1.163   0.956  -1.880  1.00  0.00     0.059 C 
HETATM   25 CL3  UNL     1       0.311  -1.164  -0.992  1.00  0.00    -0.093 Cl
BRANCH  23  26
HETATM   26  C10 UNL     1      -1.499   0.286   0.440  1.00  0.00     0.054 C 
BRANCH  26  27
HETATM   27  C11 UNL     1      -2.632  -0.643   0.333  1.00  0.00    -0.011 C 
HETATM   28  C12 UNL     1      -3.571  -0.498  -0.804  1.00  0.00     0.005 C 
HETATM   29  C13 UNL     1      -4.998  -0.940  -0.421  1.00  0.00     0.000 C 
HETATM   30  C14 UNL     1      -4.951  -2.127   0.487  1.00  0.00     0.000 C 
HETATM   31  C15 UNL     1      -4.382  -1.640   1.823  1.00  0.00     0.000 C 
HETATM   32  C16 UNL     1      -3.463  -0.460   1.618  1.00  0.00     0.005 C 
ENDBRANCH  26  27
ENDBRANCH  23  26
ENDBRANCH   6  23
TORSDOF 7
