REMARK  6 active torsions:
REMARK  status: ('A' for Active; 'I' for Inactive)
REMARK    1  A    between atoms: C2_2  and  C4_4 
REMARK    2  A    between atoms: C7_9  and  C8_10 
REMARK    3  A    between atoms: C10_12  and  N2_13 
REMARK    4  A    between atoms: C13_16  and  N3_17 
REMARK    5  A    between atoms: C21_25  and  C22_26 
REMARK    6  A    between atoms: C23_30  and  O1_31 
ROOT
HETATM    1  C8  UNL     1       1.337  -0.332   2.092  1.00  0.00     0.044 A 
HETATM    2  C9  UNL     1       0.195  -0.703   1.359  1.00  0.00     0.047 A 
HETATM    3  C10 UNL     1      -0.951  -1.139   1.984  1.00  0.00     0.032 A 
HETATM    4  C20 UNL     1      -0.994  -1.217   3.342  1.00  0.00     0.048 A 
HETATM    5  C21 UNL     1       0.076  -0.872   4.083  1.00  0.00     0.084 A 
HETATM    6  C23 UNL     1       1.264  -0.422   3.455  1.00  0.00     0.094 A 
ENDROOT
BRANCH   1   7
HETATM    7  C7  UNL     1       2.519   0.118   1.370  1.00  0.00     0.119 A 
HETATM    8  N1  UNL     1       2.643   0.221   0.013  1.00  0.00    -0.339 N 
HETATM    9  C6  UNL     1       3.899   0.679  -0.301  1.00  0.00     0.069 A 
ATOM     10  H1  UNL     1       1.914  -0.007  -0.663  1.00  0.00     0.167 HD
HETATM   11  C5  UNL     1       4.609   0.978  -1.409  1.00  0.00     0.047 A 
HETATM   12  C24 UNL     1       4.515   0.845   0.903  1.00  0.00     0.103 A 
HETATM   13  C4  UNL     1       5.891   1.423  -1.226  1.00  0.00    -0.010 A 
HETATM   14  S1  UNL     1       6.064   1.412   0.467  1.00  0.00    -0.074 SA
HETATM   15  N4  UNL     1       3.667   0.501   1.912  1.00  0.00    -0.334 N 
ATOM     16  H4  UNL     1       3.878   0.532   2.909  1.00  0.00     0.168 HD
BRANCH  13  17
HETATM   17  C2  UNL     1       6.898   1.822  -2.277  1.00  0.00     0.018 C 
HETATM   18  C1  UNL     1       7.194   0.666  -3.205  1.00  0.00     0.015 C 
HETATM   19  C3  UNL     1       6.334   2.956  -3.069  1.00  0.00     0.015 C 
ENDBRANCH  13  17
ENDBRANCH   1   7
BRANCH   6  20
HETATM   20  O1  UNL     1       2.302  -0.091   4.259  1.00  0.00    -0.359 OA
ATOM     21  H1  UNL     1       2.251  -0.154   5.206  1.00  0.00     0.217 HD
ENDBRANCH   6  20
BRANCH   3  22
HETATM   22  N2  UNL     1      -2.103  -1.513   1.237  1.00  0.00    -0.379 N 
HETATM   23  C11 UNL     1      -3.353  -2.017   1.784  1.00  0.00     0.125 C 
HETATM   24  C12 UNL     1      -4.046  -2.563   0.589  1.00  0.00     0.046 C 
HETATM   25  C13 UNL     1      -3.643  -1.660  -0.549  1.00  0.00     0.103 C 
HETATM   26  C19 UNL     1      -2.182  -1.440  -0.209  1.00  0.00     0.148 C 
BRANCH  25  27
HETATM   27  N3  UNL     1      -4.307  -0.403  -0.555  1.00  0.00    -0.383 N 
HETATM   28  C14 UNL     1      -5.697  -0.404  -0.681  1.00  0.00     0.059 C 
HETATM   29  C15 UNL     1      -6.063   0.482  -1.809  1.00  0.00     0.046 C 
HETATM   30  C16 UNL     1      -4.950   1.542  -1.723  1.00  0.00     0.030 C 
HETATM   31  C17 UNL     1      -3.763   0.618  -1.371  1.00  0.00     0.080 C 
HETATM   32  C18 UNL     1      -3.164   0.196  -2.671  1.00  0.00     0.032 C 
ENDBRANCH  25  27
ENDBRANCH   3  22
BRANCH   5  33
HETATM   33  C22 UNL     1       0.058  -0.949   5.583  1.00  0.00     0.420 C 
HETATM   34  F1  UNL     1       1.023  -1.801   6.055  1.00  0.00    -0.166 F 
HETATM   35  F2  UNL     1       0.189   0.334   6.123  1.00  0.00    -0.166 F 
HETATM   36  F3  UNL     1      -1.182  -1.412   5.962  1.00  0.00    -0.166 F 
ENDBRANCH   5  33
TORSDOF 6
