REMARK  7 active torsions:
REMARK  status: ('A' for Active; 'I' for Inactive)
REMARK    1  A    between atoms: S1_2  and  N1_4 
REMARK    2  A    between atoms: S1_2  and  C7_15 
REMARK    3  A    between atoms: N1_4  and  C1_6 
REMARK    4  A    between atoms: C1_6  and  C2_7 
REMARK    5  A    between atoms: C2_7  and  C3_8 
REMARK    6  A    between atoms: C3_8  and  N2_9 
REMARK    7  A    between atoms: C10_18  and  C11_19 
ROOT
HETATM    1  O1  UNL     1       0.706  -0.278  -4.362  1.00  0.00    -0.200 OA
HETATM    2  S1  UNL     1       0.996   0.202  -2.971  1.00  0.00     0.260 S 
HETATM    3  O2  UNL     1       1.591   1.581  -3.069  1.00  0.00    -0.200 OA
ENDROOT
BRANCH   2   4
HETATM    4  N1  UNL     1       2.084  -0.893  -2.194  1.00  0.00    -0.315 N 
ATOM      5  H1  UNL     1       2.467  -1.728  -2.637  1.00  0.00     0.172 HD
BRANCH   4   6
HETATM    6  C1  UNL     1       2.385  -0.484  -0.846  1.00  0.00     0.134 C 
BRANCH   6   7
HETATM    7  C2  UNL     1       3.338  -1.507  -0.265  1.00  0.00     0.040 C 
BRANCH   7   8
HETATM    8  C3  UNL     1       3.720  -1.165   1.164  1.00  0.00     0.131 C 
BRANCH   8   9
HETATM    9  N2  UNL     1       4.367   0.108   1.283  1.00  0.00    -0.352 N 
HETATM   10  C4  UNL     1       5.676   0.412   1.216  1.00  0.00     0.108 A 
HETATM   11  C5  UNL     1       5.859   1.767   1.385  1.00  0.00     0.106 A 
HETATM   12  N3  UNL     1       4.642   2.294   1.557  1.00  0.00    -0.361 N 
HETATM   13  C6  UNL     1       3.761   1.290   1.494  1.00  0.00     0.182 A 
ATOM     14  H3  UNL     1       4.426   3.279   1.708  1.00  0.00     0.166 HD
ENDBRANCH   8   9
ENDBRANCH   7   8
ENDBRANCH   6   7
ENDBRANCH   4   6
ENDBRANCH   2   4
BRANCH   2  15
HETATM   15  C7  UNL     1      -0.491   0.199  -2.061  1.00  0.00     0.094 A 
HETATM   16  C8  UNL     1      -1.466  -0.708  -2.410  1.00  0.00     0.029 A 
HETATM   17  C9  UNL     1      -2.643  -0.702  -1.681  1.00  0.00     0.032 A 
HETATM   18  C10 UNL     1      -2.900   0.147  -0.637  1.00  0.00     0.042 A 
HETATM   19  N4  UNL     1      -1.900   1.028  -0.330  1.00  0.00    -0.364 N 
HETATM   20  C17 UNL     1      -0.744   1.053  -1.014  1.00  0.00     0.113 A 
ATOM     21  H4  UNL     1      -2.036   1.684   0.439  1.00  0.00     0.165 HD
BRANCH  18  22
HETATM   22  C11 UNL     1      -4.131   0.170   0.143  1.00  0.00    -0.009 A 
HETATM   23  C12 UNL     1      -4.296   1.074   1.187  1.00  0.00     0.013 A 
HETATM   24  C13 UNL     1      -5.450   1.115   1.938  1.00  0.00     0.001 A 
HETATM   25  C14 UNL     1      -6.494   0.255   1.681  1.00  0.00     0.000 A 
HETATM   26  C15 UNL     1      -6.348  -0.644   0.652  1.00  0.00     0.001 A 
HETATM   27  C16 UNL     1      -5.175  -0.684  -0.109  1.00  0.00     0.013 A 
ENDBRANCH  18  22
ENDBRANCH   2  15
TORSDOF 7
