REMARK  6 active torsions:
REMARK  status: ('A' for Active; 'I' for Inactive)
REMARK    1  A    between atoms: C1_4  and  N2_5 
REMARK    2  A    between atoms: C1_4  and  C2_10 
REMARK    3  A    between atoms: N2_5  and  N3_7 
REMARK    4  A    between atoms: C2_10  and  N4_11 
REMARK    5  A    between atoms: C2_10  and  C3_15 
REMARK       I    between atoms: C3_15  and  N5_17 
REMARK    6  A    between atoms: N5_17  and  C4_19 
ROOT
HETATM    1  C2  UNL     1      -1.017  -1.265   0.606  1.00  0.00     0.343 C 
ENDROOT
BRANCH   1   2
HETATM    2  C1  UNL     1      -1.619  -0.646  -0.578  1.00  0.00     0.129 C 
HETATM    3  N1  UNL     1      -1.967  -1.355  -1.615  1.00  0.00    -0.386 N 
ATOM      4  H12 UNL     1      -2.386  -0.924  -2.439  1.00  0.00     0.157 HD
ATOM      5  H11 UNL     1      -1.804  -2.361  -1.571  1.00  0.00     0.157 HD
BRANCH   2   6
HETATM    6  N2  UNL     1      -1.847   0.762  -0.639  1.00  0.00    -0.294 N 
ATOM      7  H2  UNL     1      -1.701   1.247  -1.524  1.00  0.00     0.187 HD
BRANCH   6   8
HETATM    8  N3  UNL     1      -2.264   1.499   0.475  1.00  0.00    -0.344 N 
ATOM      9  H32 UNL     1      -2.405   0.998   1.352  1.00  0.00     0.176 HD
ATOM     10  H31 UNL     1      -2.427   2.505   0.431  1.00  0.00     0.176 HD
ENDBRANCH   6   8
ENDBRANCH   2   6
ENDBRANCH   1   2
BRANCH   1  11
HETATM   11  N4  UNL     1      -1.821  -1.033   1.784  1.00  0.00    -0.059 N 
ATOM     12  H43 UNL     1      -1.995  -0.039   1.929  1.00  0.00     0.275 HD
ATOM     13  H42 UNL     1      -2.783  -1.342   1.648  1.00  0.00     0.275 HD
ATOM     14  H41 UNL     1      -1.402  -1.464   2.608  1.00  0.00     0.275 HD
ENDBRANCH   1  11
BRANCH   1  15
HETATM   15  C3  UNL     1       0.382  -0.774   0.776  1.00  0.00     0.274 C 
HETATM   16  O1  UNL     1       0.756  -0.229   1.847  1.00  0.00    -0.270 OA
HETATM   17  N5  UNL     1       1.260  -0.949  -0.316  1.00  0.00    -0.155 N 
ATOM     18  H5  UNL     1       1.136  -1.782  -0.891  1.00  0.00     0.187 HD
BRANCH  17  19
HETATM   19  C4  UNL     1       2.196  -0.146  -0.639  1.00  0.00     0.716 A 
HETATM   20  N6  UNL     1       3.014  -0.346  -1.687  1.00  0.00    -0.115 N 
HETATM   21  N7  UNL     1       3.872   0.632  -1.778  1.00  0.00    -0.213 N 
ATOM     22  H6  UNL     1       2.970  -1.146  -2.319  1.00  0.00     0.207 HD
HETATM   23  N8  UNL     1       3.612   1.466  -0.790  1.00  0.00    -0.213 N 
ATOM     24  H7  UNL     1       4.605   0.733  -2.480  1.00  0.00     0.210 HD
HETATM   25  N9  UNL     1       2.594   1.009  -0.085  1.00  0.00    -0.115 N 
ATOM     26  H8  UNL     1       4.119   2.330  -0.600  1.00  0.00     0.210 HD
ATOM     27  H9  UNL     1       2.183   1.455   0.735  1.00  0.00     0.207 HD
ENDBRANCH  17  19
ENDBRANCH   1  15
TORSDOF 6
