REMARK  1 active torsions:
REMARK  status: ('A' for Active; 'I' for Inactive)
REMARK       I    between atoms: N1_1  and  C1_5 
REMARK       I    between atoms: C1_5  and  N2_6 
REMARK       I    between atoms: C1_5  and  N3_10 
REMARK    1  A    between atoms: N3_10  and  C2_12 
ROOT
HETATM    1  C2  UNL     1       0.030   0.460  -0.064  1.00  0.00     0.688 C 
HETATM    2  N4  UNL     1       0.834   1.560   0.027  1.00  0.00    -0.141 N 
ATOM      3  H4  UNL     1       0.346   2.454   0.074  1.00  0.00     0.189 HD
HETATM    4  C3  UNL     1       2.186   1.636   0.064  1.00  0.00     0.341 C 
HETATM    5  O1  UNL     1       2.684   2.774  -0.061  1.00  0.00    -0.246 OA
HETATM    6  N5  UNL     1       3.098   0.653   0.219  1.00  0.00    -0.270 N 
ATOM      7  H5  UNL     1       4.055   0.936   0.430  1.00  0.00     0.174 HD
HETATM    8  C4  UNL     1       2.857  -0.667   0.120  1.00  0.00     0.318 C 
HETATM    9  O2  UNL     1       3.840  -1.418   0.371  1.00  0.00    -0.262 OA
HETATM   10  C5  UNL     1       1.692  -1.335  -0.217  1.00  0.00     0.328 C 
HETATM   11  O3  UNL     1       1.759  -2.580  -0.336  1.00  0.00    -0.261 OA
HETATM   12  N6  UNL     1       0.473  -0.755  -0.433  1.00  0.00    -0.151 N 
ATOM     13  H6  UNL     1      -0.197  -1.326  -0.948  1.00  0.00     0.188 HD
ENDROOT
BRANCH   1  14
HETATM   14  N3  UNL     1      -1.209   0.618   0.220  1.00  0.00    -0.173 N 
HETATM   15  C1  UNL     1      -2.120  -0.496   0.148  1.00  0.00     0.494 C 
HETATM   16  N1  UNL     1      -3.231  -0.288   1.085  1.00  0.00    -0.032 N 
HETATM   17  N2  UNL     1      -2.645  -0.534  -1.212  1.00  0.00    -0.032 N 
ATOM     18  H13 UNL     1      -3.780   0.541   0.858  1.00  0.00     0.278 HD
ATOM     19  H12 UNL     1      -3.969  -0.984   0.973  1.00  0.00     0.278 HD
ATOM     20  H11 UNL     1      -2.864  -0.261   2.036  1.00  0.00     0.278 HD
ATOM     21  H23 UNL     1      -3.383  -1.230  -1.324  1.00  0.00     0.278 HD
ATOM     22  H22 UNL     1      -3.194   0.295  -1.439  1.00  0.00     0.278 HD
ATOM     23  H21 UNL     1      -1.873  -0.679  -1.863  1.00  0.00     0.278 HD
ATOM     24  H3  UNL     1      -1.552   1.537   0.499  1.00  0.00     0.181 HD
ENDBRANCH   1  14
TORSDOF 1
