REMARK  5 active torsions:
REMARK  status: ('A' for Active; 'I' for Inactive)
REMARK    1  A    between atoms: C2_2  and  N1_3 
REMARK    2  A    between atoms: C2_2  and  N2_7 
REMARK    3  A    between atoms: N2_7  and  N3_9 
REMARK       I    between atoms: C3_11  and  N5_13 
REMARK       I    between atoms: C4_15  and  N7_17 
REMARK    4  A    between atoms: N7_17  and  N8_19 
REMARK    5  A    between atoms: N8_19  and  O1_20 
ROOT
HETATM    1  N3  UNL     1      -0.651  -1.158   0.098  1.00  0.00    -0.276 N 
ATOM      2  H3  UNL     1      -0.478  -1.256   1.098  1.00  0.00     0.189 HD
HETATM    3  C3  UNL     1       0.327  -1.208  -0.725  1.00  0.00     0.209 C 
HETATM    4  N4  UNL     1       0.094  -1.074  -2.111  1.00  0.00    -0.062 NA
HETATM    5  N5  UNL     1       1.625  -1.397  -0.248  1.00  0.00    -0.303 N 
ATOM      6  H5  UNL     1       2.040  -2.319  -0.381  1.00  0.00     0.171 HD
HETATM    7  C4  UNL     1       2.346  -0.509   0.346  1.00  0.00     0.208 C 
HETATM    8  N6  UNL     1       3.636  -0.897   0.754  1.00  0.00    -0.062 NA
HETATM    9  N7  UNL     1       1.920   0.819   0.610  1.00  0.00    -0.251 N 
ATOM     10  H7  UNL     1       1.069   0.966   1.152  1.00  0.00     0.187 HD
ENDROOT
BRANCH   1  11
HETATM   11  N2  UNL     1      -1.940  -0.972  -0.361  1.00  0.00    -0.304 N 
ATOM     12  H2  UNL     1      -2.302  -1.564  -1.109  1.00  0.00     0.182 HD
BRANCH  11  13
HETATM   13  C2  UNL     1      -2.783   0.059   0.213  1.00  0.00     0.292 C 
HETATM   14  C1  UNL     1      -2.168   1.433   0.036  1.00  0.00     0.064 C 
BRANCH  13  15
HETATM   15  N1  UNL     1      -2.885  -0.191   1.645  1.00  0.00    -0.058 N 
ATOM     16  H13 UNL     1      -1.995  -0.087   2.132  1.00  0.00     0.276 HD
ATOM     17  H12 UNL     1      -3.394   0.540   2.142  1.00  0.00     0.276 HD
ATOM     18  H11 UNL     1      -3.299  -1.116   1.764  1.00  0.00     0.276 HD
ENDBRANCH  13  15
ENDBRANCH  11  13
ENDBRANCH   1  11
BRANCH   9  19
HETATM   19  N8  UNL     1       2.640   1.946   0.144  1.00  0.00     0.021 NA
BRANCH  19  20
HETATM   20  O1  UNL     1       3.955   1.842   0.437  1.00  0.00    -0.277 OA
ATOM     21  H1  UNL     1       4.438   2.598   0.124  1.00  0.00     0.240 HD
ENDBRANCH  19  20
ENDBRANCH   9  19
TORSDOF 5
