REMARK  10 active torsions:
REMARK  status: ('A' for Active; 'I' for Inactive)
REMARK    1  A    between atoms: N1_1  and  C1_5 
REMARK    2  A    between atoms: C1_5  and  C2_6 
REMARK    3  A    between atoms: C2_6  and  S1_7 
REMARK    4  A    between atoms: S1_7  and  C3_8 
REMARK    5  A    between atoms: N4_17  and  C7_19 
REMARK    6  A    between atoms: C7_19  and  O2_20 
REMARK    7  A    between atoms: C7_19  and  C8_22 
REMARK    8  A    between atoms: N6_25  and  N7_26 
REMARK    9  A    between atoms: C9_29  and  N8_30 
REMARK   10  A    between atoms: N8_30  and  N9_32 
ROOT
HETATM    1  C3  UNL     1      -2.773  -0.906   1.645  1.00  0.00     0.190 A 
HETATM    2  N2  UNL     1      -2.064  -0.920   2.794  1.00  0.00    -0.296 N 
ATOM      3  H2  UNL     1      -2.566  -1.032   3.675  1.00  0.00     0.171 HD
HETATM    4  C4  UNL     1      -0.726  -0.793   2.830  1.00  0.00     0.278 A 
HETATM    5  O1  UNL     1      -0.043  -0.804   3.886  1.00  0.00    -0.266 OA
HETATM    6  C5  UNL     1      -0.072  -0.641   1.601  1.00  0.00     0.155 A 
HETATM    7  N3  UNL     1       1.243  -0.509   1.522  1.00  0.00    -0.182 N 
ATOM      8  H3  UNL     1       1.792  -0.519   2.382  1.00  0.00     0.184 HD
HETATM    9  C6  UNL     1       1.903  -0.357   0.305  1.00  0.00     0.704 A 
HETATM   10  N4  UNL     1       3.140  -0.243   0.332  1.00  0.00    -0.189 N 
ATOM     11  H4  UNL     1       3.514  -0.278   1.280  1.00  0.00     0.181 HD
HETATM   12  N6  UNL     1       1.130  -0.352  -0.800  1.00  0.00    -0.072 N 
HETATM   13  C9  UNL     1      -0.213  -0.483  -0.783  1.00  0.00     0.195 A 
HETATM   14  C10 UNL     1      -0.835  -0.633   0.462  1.00  0.00     0.159 A 
HETATM   15  O4  UNL     1      -2.138  -0.761   0.485  1.00  0.00    -0.281 OA
ENDROOT
BRANCH  10  16
HETATM   16  C7  UNL     1       4.133  -0.079  -0.626  1.00  0.00     0.325 C 
BRANCH  16  17
HETATM   17  O2  UNL     1       4.214   1.239  -1.142  1.00  0.00    -0.368 OA
ATOM     18  H2  UNL     1       4.893   1.351  -1.797  1.00  0.00     0.212 HD
ENDBRANCH  16  17
BRANCH  16  19
HETATM   19  C8  UNL     1       5.514  -0.350  -0.055  1.00  0.00     0.280 C 
HETATM   20  N5  UNL     1       6.480   0.666  -0.152  1.00  0.00    -0.058 NA
HETATM   21  O3  UNL     1       5.770  -1.459   0.486  1.00  0.00    -0.272 OA
ENDBRANCH  16  19
ENDBRANCH  10  16
BRANCH  12  22
HETATM   22  N7  UNL     1       1.706  -0.196  -2.081  1.00  0.00    -0.322 N 
ATOM     23  H72 UNL     1       2.721  -0.097  -2.094  1.00  0.00     0.178 HD
ATOM     24  H71 UNL     1       1.121  -0.192  -2.917  1.00  0.00     0.178 HD
ENDBRANCH  12  22
BRANCH  13  25
HETATM   25  N8  UNL     1      -0.922  -0.482  -1.837  1.00  0.00    -0.288 N 
ATOM     26  H8  UNL     1      -1.932  -0.585  -1.737  1.00  0.00     0.188 HD
BRANCH  25  27
HETATM   27  N9  UNL     1      -0.407  -0.350  -3.101  1.00  0.00    -0.343 N 
ATOM     28  H92 UNL     1       0.605  -0.248  -3.182  1.00  0.00     0.176 HD
ATOM     29  H91 UNL     1      -0.976  -0.349  -3.947  1.00  0.00     0.176 HD
ENDBRANCH  25  27
ENDBRANCH  13  25
BRANCH   1  30
HETATM   30  S1  UNL     1      -4.548  -1.082   1.702  1.00  0.00    -0.085 SA
BRANCH  30  31
HETATM   31  C2  UNL     1      -5.350   0.540   1.855  1.00  0.00     0.110 C 
BRANCH  31  32
HETATM   32  C1  UNL     1      -5.134   1.380   0.614  1.00  0.00     0.240 C 
BRANCH  32  33
HETATM   33  N1  UNL     1      -5.691   0.699  -0.537  1.00  0.00    -0.079 N 
ATOM     34  H13 UNL     1      -5.320  -0.245  -0.642  1.00  0.00     0.274 HD
ATOM     35  H12 UNL     1      -6.673   0.456  -0.403  1.00  0.00     0.274 HD
ATOM     36  H11 UNL     1      -5.545   1.265  -1.373  1.00  0.00     0.274 HD
ENDBRANCH  32  33
ENDBRANCH  31  32
ENDBRANCH  30  31
ENDBRANCH   1  30
TORSDOF 10
