REMARK  9 active torsions:
REMARK  status: ('A' for Active; 'I' for Inactive)
REMARK    1  A    between atoms: C3_4  and  O2_5 
REMARK    2  A    between atoms: C6_12  and  O4_13 
REMARK    3  A    between atoms: C6_12  and  N2_15 
REMARK    4  A    between atoms: N2_15  and  S1_17 
REMARK    5  A    between atoms: S1_17  and  O7_20 
REMARK    6  A    between atoms: O7_20  and  C7_21 
REMARK    7  A    between atoms: C7_21  and  C8_22 
REMARK    8  A    between atoms: C8_22  and  C9_23 
REMARK    9  A    between atoms: C9_23  and  O8_24 
ROOT
HETATM    1  O1  UNL     1      -3.134  -1.863   0.829  1.00  0.00    -0.287 OA
HETATM    2  C1  UNL     1      -3.550  -0.787   0.330  1.00  0.00     0.196 A 
HETATM    3  C2  UNL     1      -4.879  -0.271   0.628  1.00  0.00     0.112 A 
HETATM    4  C3  UNL     1      -5.353   0.859   0.122  1.00  0.00     0.146 A 
HETATM    5  N1  UNL     1      -4.576   1.664  -0.770  1.00  0.00    -0.303 N 
ATOM      6  H1  UNL     1      -4.962   2.529  -1.148  1.00  0.00     0.171 HD
HETATM    7  C4  UNL     1      -3.263   1.252  -1.127  1.00  0.00     0.266 A 
HETATM    8  O3  UNL     1      -2.565   1.961  -1.918  1.00  0.00    -0.267 OA
HETATM    9  C5  UNL     1      -2.718   0.015  -0.585  1.00  0.00     0.133 A 
HETATM   10  C6  UNL     1      -1.490  -0.421  -0.886  1.00  0.00     0.171 C 
ENDROOT
BRANCH  10  11
HETATM   11  O4  UNL     1      -0.754   0.381  -1.756  1.00  0.00    -0.345 OA
ATOM     12  H4  UNL     1       0.118   0.071  -1.970  1.00  0.00     0.219 HD
ENDBRANCH  10  11
BRANCH  10  13
HETATM   13  N2  UNL     1      -0.976  -1.628  -0.348  1.00  0.00    -0.240 N 
ATOM     14  H2  UNL     1      -1.272  -2.525  -0.732  1.00  0.00     0.183 HD
BRANCH  13  15
HETATM   15  S1  UNL     1       0.138  -1.579   0.942  1.00  0.00     0.363 S 
HETATM   16  O5  UNL     1      -0.157  -0.347   1.752  1.00  0.00    -0.175 OA
HETATM   17  O6  UNL     1      -0.029  -2.761   1.875  1.00  0.00    -0.175 OA
BRANCH  15  18
HETATM   18  O7  UNL     1       1.724  -1.512   0.433  1.00  0.00    -0.256 OA
BRANCH  18  19
HETATM   19  C7  UNL     1       2.179  -0.205   0.576  1.00  0.00     0.241 C 
BRANCH  19  20
HETATM   20  C8  UNL     1       3.602  -0.036   0.144  1.00  0.00     0.178 C 
HETATM   21  N3  UNL     1       4.028   1.341   0.313  1.00  0.00    -0.096 NA
HETATM   22  N4  UNL     1       3.475   1.589  -0.970  1.00  0.00    -0.035 NA
HETATM   23  N5  UNL     1       3.794   0.239  -1.265  1.00  0.00    -0.096 NA
BRANCH  20  24
HETATM   24  C9  UNL     1       4.575  -1.028   0.741  1.00  0.00     0.214 C 
BRANCH  24  25
HETATM   25  O8  UNL     1       5.831  -0.930   0.159  1.00  0.00    -0.397 OA
ATOM     26  H8  UNL     1       6.442  -1.553   0.534  1.00  0.00     0.209 HD
ENDBRANCH  24  25
ENDBRANCH  20  24
ENDBRANCH  19  20
ENDBRANCH  18  19
ENDBRANCH  15  18
ENDBRANCH  13  15
ENDBRANCH  10  13
BRANCH   4  27
HETATM   27  O2  UNL     1      -6.636   1.255   0.475  1.00  0.00    -0.346 OA
ATOM     28  H2  UNL     1      -6.976   2.065   0.112  1.00  0.00     0.219 HD
ENDBRANCH   4  27
TORSDOF 9
