REMARK  12 active torsions:
REMARK  status: ('A' for Active; 'I' for Inactive)
REMARK    1  A    between atoms: N1_1  and  N2_4 
REMARK    2  A    between atoms: C1_6  and  N3_7 
REMARK    3  A    between atoms: C1_6  and  S1_12 
REMARK    4  A    between atoms: N3_7  and  N4_9 
REMARK    5  A    between atoms: S1_12  and  N5_13 
REMARK    6  A    between atoms: S1_12  and  C2_17 
REMARK    7  A    between atoms: N7_20  and  C3_21 
REMARK    8  A    between atoms: C3_21  and  O2_22 
REMARK    9  A    between atoms: O2_22  and  C4_23 
REMARK   10  A    between atoms: C4_23  and  O3_24 
REMARK   11  A    between atoms: C4_23  and  C5_26 
REMARK   12  A    between atoms: C5_26  and  O4_27 
ROOT
HETATM    1  C2  UNL     1       0.854  -0.530   0.485  1.00  0.00     0.160 A 
HETATM    2  N6  UNL     1       0.222  -0.193  -0.604  1.00  0.00    -0.281 N 
ATOM      3  H6  UNL     1       0.489   0.584  -1.209  1.00  0.00     0.188 HD
HETATM    4  N7  UNL     1      -0.831  -1.006  -0.826  1.00  0.00    -0.237 N 
HETATM    5  C6  UNL     1      -0.872  -1.892   0.150  1.00  0.00     0.155 A 
HETATM    6  C7  UNL     1      -1.646  -2.967   0.503  1.00  0.00     0.277 A 
HETATM    7  O5  UNL     1      -2.617  -3.260  -0.248  1.00  0.00    -0.266 OA
HETATM    8  N8  UNL     1      -1.376  -3.686   1.607  1.00  0.00    -0.318 N 
ATOM      9  H8  UNL     1      -1.978  -4.478   1.832  1.00  0.00     0.169 HD
HETATM   10  C8  UNL     1      -0.350  -3.407   2.425  1.00  0.00     0.184 A 
HETATM   11  N9  UNL     1       0.414  -2.360   2.089  1.00  0.00    -0.348 N 
ATOM     12  H9  UNL     1       1.201  -2.127   2.694  1.00  0.00     0.167 HD
HETATM   13  C9  UNL     1       0.206  -1.599   1.004  1.00  0.00     0.106 A 
ENDROOT
BRANCH   1  14
HETATM   14  S1  UNL     1       2.471   0.285   1.336  1.00  0.00     0.136 S 
HETATM   15  O1  UNL     1       3.132  -0.394   2.693  1.00  0.00    -0.235 OA
BRANCH  14  16
HETATM   16  C1  UNL     1       3.028   1.896   0.352  1.00  0.00     0.216 C 
HETATM   17  N2  UNL     1       3.931   2.684   0.698  1.00  0.00    -0.282 N 
ATOM     18  H2  UNL     1       4.447   2.510   1.560  1.00  0.00     0.188 HD
BRANCH  17  19
HETATM   19  N1  UNL     1       4.244   3.796  -0.075  1.00  0.00    -0.343 N 
ATOM     20  H12 UNL     1       3.718   3.955  -0.934  1.00  0.00     0.176 HD
ATOM     21  H11 UNL     1       4.982   4.440   0.208  1.00  0.00     0.176 HD
ENDBRANCH  17  19
BRANCH  16  22
HETATM   22  N3  UNL     1       2.310   2.130  -0.843  1.00  0.00    -0.282 N 
ATOM     23  H3  UNL     1       1.319   2.368  -0.802  1.00  0.00     0.188 HD
BRANCH  22  24
HETATM   24  N4  UNL     1       2.947   2.038  -2.069  1.00  0.00    -0.343 N 
ATOM     25  H42 UNL     1       3.938   1.800  -2.092  1.00  0.00     0.176 HD
ATOM     26  H41 UNL     1       2.429   2.207  -2.931  1.00  0.00     0.176 HD
ENDBRANCH  22  24
ENDBRANCH  16  22
ENDBRANCH  14  16
BRANCH  14  27
HETATM   27  N5  UNL     1       3.557  -0.710   0.251  1.00  0.00    -0.349 N 
ATOM     28  H52 UNL     1       4.181  -0.504  -0.529  1.00  0.00     0.166 HD
ATOM     29  H51 UNL     1       3.268  -1.545   0.761  1.00  0.00     0.166 HD
ENDBRANCH  14  27
ENDBRANCH   1  14
BRANCH   4  30
HETATM   30  C3  UNL     1      -1.752  -0.858  -1.929  1.00  0.00     0.255 C 
BRANCH  30  31
HETATM   31  O2  UNL     1      -2.727   0.049  -1.845  1.00  0.00    -0.312 OA
BRANCH  31  32
HETATM   32  C4  UNL     1      -3.677   0.102  -0.912  1.00  0.00     0.287 C 
BRANCH  32  33
HETATM   33  O3  UNL     1      -4.982  -0.100  -1.458  1.00  0.00    -0.369 OA
ATOM     34  H3  UNL     1      -5.659  -0.062  -0.793  1.00  0.00     0.212 HD
ENDBRANCH  32  33
BRANCH  32  35
HETATM   35  C5  UNL     1      -3.753   1.461  -0.194  1.00  0.00     0.225 C 
BRANCH  35  36
HETATM   36  O4  UNL     1      -2.542   1.695   0.423  1.00  0.00    -0.396 OA
ATOM     37  H4  UNL     1      -2.589   2.534   0.866  1.00  0.00     0.209 HD
ENDBRANCH  35  36
ENDBRANCH  32  35
ENDBRANCH  31  32
ENDBRANCH  30  31
ENDBRANCH   4  30
TORSDOF 12
