REMARK  10 active torsions:
REMARK  status: ('A' for Active; 'I' for Inactive)
REMARK       I    between atoms: N3_7  and  C4_8 
REMARK    1  A    between atoms: C4_8  and  C5_10 
REMARK    2  A    between atoms: C5_10  and  O2_11 
REMARK    3  A    between atoms: C5_10  and  C6_13 
REMARK    4  A    between atoms: C6_13  and  O3_14 
REMARK    5  A    between atoms: C6_13  and  N4_16 
REMARK    6  A    between atoms: N4_16  and  N5_18 
REMARK    7  A    between atoms: C10_24  and  O5_25 
REMARK    8  A    between atoms: C11_27  and  C12_28 
REMARK    9  A    between atoms: C12_28  and  N6_29 
REMARK   10  A    between atoms: C12_28  and  O6_33 
ROOT
HETATM    1  N5  UNL     1      -0.722  -0.653   0.899  1.00  0.00    -0.310 N 
ATOM      2  H5  UNL     1      -0.742  -1.642   1.146  1.00  0.00     0.186 HD
HETATM    3  C7  UNL     1      -1.612  -0.173   0.126  1.00  0.00     0.011 C 
HETATM    4  C8  UNL     1      -1.594   1.254  -0.240  1.00  0.00     0.135 C 
HETATM    5  C9  UNL     1      -2.978   1.766  -0.425  1.00  0.00     0.161 C 
HETATM    6  O4  UNL     1      -3.101   2.997  -0.461  1.00  0.00    -0.295 OA
HETATM    7  C10 UNL     1      -4.181   0.936  -0.565  1.00  0.00     0.196 C 
HETATM    8  C11 UNL     1      -4.000  -0.453  -0.020  1.00  0.00     0.083 C 
HETATM    9  C13 UNL     1      -2.675  -1.065  -0.411  1.00  0.00     0.066 C 
ENDROOT
BRANCH   1  10
HETATM   10  N4  UNL     1       0.280   0.172   1.408  1.00  0.00    -0.305 N 
ATOM     11  H4  UNL     1       0.050   1.011   1.940  1.00  0.00     0.183 HD
BRANCH  10  12
HETATM   12  C6  UNL     1       1.659  -0.199   1.159  1.00  0.00     0.270 C 
BRANCH  12  13
HETATM   13  C5  UNL     1       1.952  -0.258  -0.347  1.00  0.00     0.260 C 
BRANCH  13  14
HETATM   14  C4  UNL     1       3.372  -0.645  -0.495  1.00  0.00     0.259 C 
HETATM   15  N3  UNL     1       4.444   0.169  -0.112  1.00  0.00    -0.288 N 
HETATM   16  C1  UNL     1       5.840  -0.176  -0.237  1.00  0.00     0.193 C 
HETATM   17  C3  UNL     1       4.428   1.505   0.466  1.00  0.00     0.154 C 
HETATM   18  N1  UNL     1       6.374  -1.487  -0.353  1.00  0.00    -0.063 NA
HETATM   19  N2  UNL     1       6.543   0.902  -0.226  1.00  0.00    -0.363 N 
HETATM   20  C2  UNL     1       5.716   2.080  -0.097  1.00  0.00     0.142 C 
ATOM     21  H2  UNL     1       7.560   0.922  -0.299  1.00  0.00     0.162 HD
HETATM   22  O1  UNL     1       3.617  -1.771  -0.996  1.00  0.00    -0.270 OA
ENDBRANCH  13  14
BRANCH  13  23
HETATM   23  O2  UNL     1       1.105  -1.211  -0.937  1.00  0.00    -0.382 OA
ATOM     24  H2  UNL     1       0.193  -0.962  -0.842  1.00  0.00     0.210 HD
ENDBRANCH  13  23
ENDBRANCH  12  13
BRANCH  12  25
HETATM   25  O3  UNL     1       1.895  -1.496   1.638  1.00  0.00    -0.372 OA
ATOM     26  H3  UNL     1       1.714  -1.459   2.570  1.00  0.00     0.212 HD
ENDBRANCH  12  25
ENDBRANCH  10  12
ENDBRANCH   1  10
BRANCH   8  27
HETATM   27  C12 UNL     1      -5.156  -1.328  -0.477  1.00  0.00     0.323 C 
BRANCH  27  28
HETATM   28  N6  UNL     1      -6.372  -0.713   0.049  1.00  0.00    -0.053 N 
ATOM     29  H63 UNL     1      -6.348  -0.569   1.059  1.00  0.00     0.277 HD
ATOM     30  H62 UNL     1      -6.477   0.266  -0.216  1.00  0.00     0.277 HD
ATOM     31  H61 UNL     1      -7.148  -1.300  -0.258  1.00  0.00     0.277 HD
ENDBRANCH  27  28
BRANCH  27  32
HETATM   32  O6  UNL     1      -5.207  -1.408  -1.864  1.00  0.00    -0.369 OA
ATOM     33  H6  UNL     1      -5.929  -1.955  -2.150  1.00  0.00     0.212 HD
ENDBRANCH  27  32
ENDBRANCH   8  27
BRANCH   7  34
HETATM   34  O5  UNL     1      -5.203   1.538   0.203  1.00  0.00    -0.388 OA
ATOM     35  H5  UNL     1      -5.981   1.001   0.112  1.00  0.00     0.210 HD
ENDBRANCH   7  34
TORSDOF 10
