REMARK  8 active torsions:
REMARK  status: ('A' for Active; 'I' for Inactive)
REMARK    1  A    between atoms: C4_6  and  N2_7 
REMARK       I    between atoms: N2_7  and  C5_9 
REMARK    2  A    between atoms: C5_9  and  C6_11 
REMARK    3  A    between atoms: C6_11  and  C7_12 
REMARK    4  A    between atoms: C7_12  and  C8_13 
REMARK    5  A    between atoms: C7_12  and  C15_20 
REMARK    6  A    between atoms: C8_13  and  C9_14 
REMARK       I    between atoms: C15_20  and  N3_22 
REMARK       I    between atoms: N4_25  and  C18_26 
REMARK       I    between atoms: C18_26  and  N5_28 
REMARK    7  A    between atoms: N5_28  and  C19_30 
REMARK    8  A    between atoms: C19_30  and  C20_31 
ROOT
HETATM    1  C7  UNL     1      -0.826  -1.264   0.140  1.00  0.00     0.019 C 
ENDROOT
BRANCH   1   2
HETATM    2  C6  UNL     1      -1.710  -0.985   1.308  1.00  0.00     0.147 C 
BRANCH   2   3
HETATM    3  C5  UNL     1      -2.856  -0.121   1.008  1.00  0.00     0.227 C 
HETATM    4  N2  UNL     1      -2.974   0.613  -0.190  1.00  0.00    -0.312 N 
ATOM      5  H2  UNL     1      -2.977   0.081  -1.060  1.00  0.00     0.170 HD
HETATM    6  O1  UNL     1      -3.821   0.014   1.834  1.00  0.00    -0.273 OA
BRANCH   4   7
HETATM    7  C4  UNL     1      -3.078   1.885  -0.287  1.00  0.00     0.123 A 
HETATM    8  N1  UNL     1      -3.085   2.687   0.786  1.00  0.00    -0.349 N 
HETATM    9  C3  UNL     1      -3.200   4.035   0.654  1.00  0.00     0.114 A 
ATOM     10  H1  UNL     1      -3.003   2.279   1.717  1.00  0.00     0.167 HD
HETATM   11  C2  UNL     1      -3.309   4.584  -0.603  1.00  0.00     0.020 A 
HETATM   12  C1  UNL     1      -3.436   6.060  -0.775  1.00  0.00     0.069 C 
HETATM   13  N6  UNL     1      -3.303   3.789  -1.695  1.00  0.00    -0.365 N 
HETATM   14  C23 UNL     1      -3.187   2.437  -1.540  1.00  0.00     0.136 A 
ATOM     15  H6  UNL     1      -3.384   4.195  -2.627  1.00  0.00     0.165 HD
ENDBRANCH   4   7
ENDBRANCH   2   3
ENDBRANCH   1   2
BRANCH   1  16
HETATM   16  C8  UNL     1      -1.353  -1.956  -1.021  1.00  0.00     0.016 C 
BRANCH  16  17
HETATM   17  C9  UNL     1      -1.939  -3.286  -1.026  1.00  0.00    -0.079 C 
HETATM   18  C10 UNL     1      -1.178  -4.474  -0.601  1.00  0.00     0.034 C 
HETATM   19  C11 UNL     1      -1.902  -5.738  -1.066  1.00  0.00     0.004 C 
HETATM   20  C12 UNL     1      -3.195  -5.465  -1.764  1.00  0.00     0.001 C 
HETATM   21  C13 UNL     1      -4.105  -4.546  -1.023  1.00  0.00     0.004 C 
HETATM   22  C14 UNL     1      -3.348  -3.365  -0.418  1.00  0.00     0.034 C 
ENDBRANCH  16  17
ENDBRANCH   1  16
BRANCH   1  23
HETATM   23  C15 UNL     1       0.548  -1.520   0.588  1.00  0.00     0.250 C 
HETATM   24  O2  UNL     1       0.985  -2.689   0.750  1.00  0.00    -0.268 OA
HETATM   25  N3  UNL     1       1.495  -0.486   0.881  1.00  0.00    -0.345 N 
HETATM   26  C16 UNL     1       2.832  -0.787   1.369  1.00  0.00     0.146 C 
HETATM   27  C22 UNL     1       1.129   0.896   0.663  1.00  0.00     0.146 C 
HETATM   28  C17 UNL     1       3.833   0.120   0.730  1.00  0.00     0.147 C 
HETATM   29  N4  UNL     1       3.469   1.513   0.863  1.00  0.00    -0.331 N 
HETATM   30  C18 UNL     1       4.361   2.558   0.557  1.00  0.00     0.318 C 
HETATM   31  C21 UNL     1       2.145   1.812   1.325  1.00  0.00     0.147 C 
HETATM   32  O3  UNL     1       3.989   3.761   0.690  1.00  0.00    -0.247 OA
HETATM   33  N5  UNL     1       5.680   2.291   0.099  1.00  0.00    -0.338 N 
ATOM     34  H5  UNL     1       5.993   1.327  -0.012  1.00  0.00     0.164 HD
BRANCH  33  35
HETATM   35  C19 UNL     1       6.572   3.369  -0.208  1.00  0.00     0.195 C 
BRANCH  35  36
HETATM   36  C20 UNL     1       7.886   2.821  -0.664  1.00  0.00     0.370 C 
HETATM   37  F1  UNL     1       7.664   2.052  -1.794  1.00  0.00    -0.213 F 
HETATM   38  F2  UNL     1       8.753   3.855  -0.960  1.00  0.00    -0.213 F 
ENDBRANCH  35  36
ENDBRANCH  33  35
ENDBRANCH   1  23
TORSDOF 8
