REMARK  7 active torsions:
REMARK  status: ('A' for Active; 'I' for Inactive)
REMARK    1  A    between atoms: C2_2  and  N1_3 
REMARK    2  A    between atoms: N1_3  and  C3_4 
REMARK    3  A    between atoms: N1_3  and  C12_19 
REMARK    4  A    between atoms: C3_4  and  C4_5 
REMARK    5  A    between atoms: C4_5  and  C5_6 
REMARK    6  A    between atoms: C5_6  and  N2_7 
REMARK       I    between atoms: N2_7  and  C6_9 
REMARK       I    between atoms: C6_9  and  N3_10 
REMARK       I    between atoms: C6_9  and  N5_13 
REMARK    7  A    between atoms: C12_19  and  C13_20 
ROOT
HETATM    1  N2  UNL     1       1.845  -0.204  -1.238  1.00  0.00    -0.350 N 
ATOM      2  H2  UNL     1       1.920   0.629  -1.822  1.00  0.00     0.163 HD
HETATM    3  C6  UNL     1       3.051  -0.721  -0.623  1.00  0.00     0.265 C 
HETATM    4  N3  UNL     1       3.176  -1.817  -0.172  1.00  0.00    -0.294 NA
HETATM    5  C7  UNL     1       3.476  -2.954   0.356  1.00  0.00     0.271 C 
HETATM    6  N4  UNL     1       3.765  -3.961   0.832  1.00  0.00    -0.156 NA
HETATM    7  N5  UNL     1       4.175   0.222  -0.586  1.00  0.00    -0.337 N 
HETATM    8  C8  UNL     1       3.919   1.612  -0.336  1.00  0.00     0.153 C 
HETATM    9  C9  UNL     1       4.949   2.143   0.623  1.00  0.00     0.187 C 
HETATM   10  O1  UNL     1       6.215   1.773   0.175  1.00  0.00    -0.388 OA
HETATM   11  C10 UNL     1       6.387   0.378   0.286  1.00  0.00     0.187 C 
HETATM   12  C11 UNL     1       5.528  -0.216  -0.804  1.00  0.00     0.153 C 
ENDROOT
BRANCH   1  13
HETATM   13  C5  UNL     1       0.546  -0.802  -1.070  1.00  0.00     0.125 C 
BRANCH  13  14
HETATM   14  C4  UNL     1       0.120  -0.616   0.367  1.00  0.00     0.050 C 
BRANCH  14  15
HETATM   15  C3  UNL     1      -1.225  -1.140   0.687  1.00  0.00     0.274 C 
BRANCH  15  16
HETATM   16  N1  UNL     1      -2.306  -0.503  -0.091  1.00  0.00     0.093 N 
BRANCH  16  17
HETATM   17  C2  UNL     1      -2.429   0.881   0.296  1.00  0.00     0.268 C 
HETATM   18  C1  UNL     1      -3.163   1.710  -0.724  1.00  0.00     0.037 C 
ENDBRANCH  16  17
BRANCH  16  19
HETATM   19  C12 UNL     1      -3.478  -1.235   0.437  1.00  0.00     0.329 C 
BRANCH  19  20
HETATM   20  C13 UNL     1      -4.780  -0.744   0.089  1.00  0.00     0.039 A 
HETATM   21  C14 UNL     1      -5.462  -0.791  -1.087  1.00  0.00     0.048 A 
HETATM   22  C15 UNL     1      -6.717  -0.184  -0.951  1.00  0.00     0.046 A 
HETATM   23 BR1  UNL     1      -8.076   0.049  -2.265  1.00  0.00    -0.048 Br
HETATM   24  C16 UNL     1      -6.746   0.226   0.369  1.00  0.00     0.097 A 
HETATM   25 BR2  UNL     1      -8.236   1.137   1.152  1.00  0.00    -0.030 Br
HETATM   26  N6  UNL     1      -5.599  -0.107   0.983  1.00  0.00    -0.351 N 
ATOM     27  H6  UNL     1      -5.374   0.084   1.959  1.00  0.00     0.166 HD
ENDBRANCH  19  20
ENDBRANCH  16  19
ENDBRANCH  15  16
ENDBRANCH  14  15
ENDBRANCH  13  14
ENDBRANCH   1  13
TORSDOF 7
