REMARK  9 active torsions:
REMARK  status: ('A' for Active; 'I' for Inactive)
REMARK    1  A    between atoms: N1_2  and  C2_4 
REMARK    2  A    between atoms: C2_4  and  C6_12 
REMARK       I    between atoms: N2_5  and  C3_7 
REMARK       I    between atoms: C3_7  and  N3_9 
REMARK    3  A    between atoms: C8_14  and  O2_15 
REMARK    4  A    between atoms: O2_15  and  C9_16 
REMARK    5  A    between atoms: C9_16  and  C10_17 
REMARK    6  A    between atoms: C10_17  and  O3_18 
REMARK    7  A    between atoms: O3_18  and  C11_19 
REMARK    8  A    between atoms: C11_19  and  C12_20 
REMARK    9  A    between atoms: C12_20  and  O4_21 
ROOT
HETATM    1  C6  UNL     1      -1.098   0.594  -1.483  1.00  0.00     0.028 A 
HETATM    2  C7  UNL     1       0.269   0.643  -1.196  1.00  0.00     0.054 A 
HETATM    3  C8  UNL     1       1.164   1.347  -1.971  1.00  0.00     0.087 A 
HETATM    4  C13 UNL     1       0.711   2.053  -3.100  1.00  0.00     0.045 A 
HETATM    5 BR1  UNL     1       1.924   3.037  -4.193  1.00  0.00    -0.048 Br
HETATM    6  C14 UNL     1      -0.627   2.006  -3.384  1.00  0.00     0.042 A 
HETATM    7  C15 UNL     1      -1.516   1.292  -2.593  1.00  0.00     0.026 A 
HETATM    8 BR2  UNL     1      -3.379   1.250  -3.021  1.00  0.00    -0.050 Br
ENDROOT
BRANCH   1   9
HETATM    9  C2  UNL     1      -2.053  -0.144  -0.678  1.00  0.00     0.116 C 
HETATM   10  N2  UNL     1      -3.264   0.225  -0.568  1.00  0.00    -0.294 N 
HETATM   11  C3  UNL     1      -4.224  -0.498   0.230  1.00  0.00     0.323 C 
ATOM     12  H2  UNL     1      -3.569   1.064  -1.062  1.00  0.00     0.172 HD
HETATM   13  O1  UNL     1      -4.259  -1.746   0.108  1.00  0.00    -0.247 OA
HETATM   14  N3  UNL     1      -5.102   0.133   1.118  1.00  0.00    -0.343 N 
HETATM   15  C4  UNL     1      -5.130   1.568   1.319  1.00  0.00     0.154 C 
HETATM   16  C5  UNL     1      -6.034  -0.669   1.880  1.00  0.00     0.154 C 
BRANCH   9  17
HETATM   17  N1  UNL     1      -1.628  -1.309   0.009  1.00  0.00    -0.380 N 
HETATM   18  C1  UNL     1      -1.239  -1.308   1.404  1.00  0.00     0.147 C 
ATOM     19  H1  UNL     1      -1.595  -2.190  -0.504  1.00  0.00     0.160 HD
ENDBRANCH   9  17
ENDBRANCH   1   9
BRANCH   3  20
HETATM   20  O2  UNL     1       2.491   1.418  -1.721  1.00  0.00    -0.348 OA
BRANCH  20  21
HETATM   21  C9  UNL     1       3.217   0.824  -0.721  1.00  0.00     0.201 C 
BRANCH  21  22
HETATM   22  C10 UNL     1       3.274  -0.682  -0.735  1.00  0.00     0.194 C 
BRANCH  22  23
HETATM   23  O3  UNL     1       4.011  -1.219   0.308  1.00  0.00    -0.387 OA
BRANCH  23  24
HETATM   24  C11 UNL     1       5.325  -0.842   0.339  1.00  0.00     0.193 C 
BRANCH  24  25
HETATM   25  C12 UNL     1       6.007  -1.539   1.516  1.00  0.00     0.190 C 
BRANCH  25  26
HETATM   26  O4  UNL     1       7.354  -1.173   1.574  1.00  0.00    -0.399 OA
ATOM     27  H4  UNL     1       7.778  -1.606   2.306  1.00  0.00     0.209 HD
ENDBRANCH  25  26
ENDBRANCH  24  25
ENDBRANCH  23  24
ENDBRANCH  22  23
ENDBRANCH  21  22
ENDBRANCH  20  21
ENDBRANCH   3  20
TORSDOF 9
