REMARK  10 active torsions:
REMARK  status: ('A' for Active; 'I' for Inactive)
REMARK    1  A    between atoms: N1_8  and  C7_9 
REMARK    2  A    between atoms: C7_9  and  O1_10 
REMARK    3  A    between atoms: C7_9  and  C8_12 
REMARK       I    between atoms: C8_12  and  N2_14 
REMARK    4  A    between atoms: N2_14  and  C9_16 
REMARK    5  A    between atoms: C9_16  and  C10_17 
REMARK    6  A    between atoms: C10_17  and  C11_18 
REMARK    7  A    between atoms: C11_18  and  N3_19 
REMARK    8  A    between atoms: N3_19  and  C13_21 
REMARK    9  A    between atoms: C13_21  and  C14_22 
REMARK       I    between atoms: C14_22  and  N4_24 
REMARK   10  A    between atoms: N4_24  and  C15_26 
ROOT
HETATM    1  C11 UNL     1      -0.336  -1.289   1.158  1.00  0.00     0.065 C 
ENDROOT
BRANCH   1   2
HETATM    2  C10 UNL     1       0.730  -1.864   2.007  1.00  0.00     0.064 C 
BRANCH   2   3
HETATM    3  C9  UNL     1       2.070  -1.951   1.389  1.00  0.00     0.128 C 
BRANCH   3   4
HETATM    4  N2  UNL     1       2.697  -0.737   0.997  1.00  0.00    -0.354 N 
HETATM    5  C8  UNL     1       4.023  -0.875   0.382  1.00  0.00     0.292 C 
HETATM    6  O2  UNL     1       4.450  -2.017   0.262  1.00  0.00    -0.264 OA
ATOM      7  H2  UNL     1       2.254   0.172   1.134  1.00  0.00     0.162 HD
BRANCH   5   8
HETATM    8  C7  UNL     1       4.717   0.303  -0.028  1.00  0.00     0.208 C 
BRANCH   8   9
HETATM    9  N1  UNL     1       5.929   0.391  -0.681  1.00  0.00    -0.352 N 
HETATM   10  C2  UNL     1       6.799  -0.575  -1.261  1.00  0.00     0.082 C 
HETATM   11  C1  UNL     1       6.264  -1.661  -2.077  1.00  0.00     0.032 C 
HETATM   12  C3  UNL     1       7.762  -0.998  -0.157  1.00  0.00     0.026 C 
HETATM   13  C4  UNL     1       7.957   0.252   0.711  1.00  0.00     0.024 C 
HETATM   14  C5  UNL     1       7.918   1.526  -0.115  1.00  0.00     0.100 C 
HETATM   15 CL1  UNL     1       8.344   2.869   0.952  1.00  0.00    -0.123 Cl
HETATM   16  C6  UNL     1       6.536   1.773  -0.707  1.00  0.00     0.145 C 
ENDBRANCH   8   9
BRANCH   8  17
HETATM   17  O1  UNL     1       4.154   1.456   0.246  1.00  0.00    -0.342 OA
ATOM     18  H1  UNL     1       3.319   1.395   0.696  1.00  0.00     0.219 HD
ENDBRANCH   8  17
ENDBRANCH   5   8
ENDBRANCH   3   4
ENDBRANCH   2   3
ENDBRANCH   1   2
BRANCH   1  19
HETATM   19  N3  UNL     1      -0.185   0.058   0.779  1.00  0.00    -0.370 N 
HETATM   20  C12 UNL     1      -0.389   1.012   1.849  1.00  0.00     0.154 C 
BRANCH  19  21
HETATM   21  C13 UNL     1      -0.604   0.456  -0.501  1.00  0.00     0.164 C 
BRANCH  21  22
HETATM   22  C14 UNL     1      -2.024   0.536  -0.804  1.00  0.00     0.257 C 
HETATM   23  O3  UNL     1      -2.364   0.845  -2.005  1.00  0.00    -0.267 OA
HETATM   24  N4  UNL     1      -3.083   0.312   0.084  1.00  0.00    -0.347 N 
ATOM     25  H4  UNL     1      -2.819   0.070   1.039  1.00  0.00     0.163 HD
BRANCH  24  26
HETATM   26  C15 UNL     1      -4.485   0.379  -0.177  1.00  0.00     0.034 C 
HETATM   27  C16 UNL     1      -5.241   0.039   1.120  1.00  0.00     0.035 C 
HETATM   28  C17 UNL     1      -6.717   0.149   0.961  1.00  0.00    -0.012 C 
HETATM   29  C18 UNL     1      -7.164  -0.886  -0.039  1.00  0.00     0.009 C 
HETATM   30  C22 UNL     1      -7.036   1.567   0.534  1.00  0.00     0.009 C 
HETATM   31  C19 UNL     1      -6.434  -0.616  -1.332  1.00  0.00    -0.012 C 
HETATM   32  C20 UNL     1      -6.898   0.729  -1.829  1.00  0.00     0.009 C 
HETATM   33  C24 UNL     1      -4.945  -0.702  -1.164  1.00  0.00     0.035 C 
HETATM   34  C21 UNL     1      -6.447   1.765  -0.825  1.00  0.00    -0.012 C 
HETATM   35  C23 UNL     1      -4.932   1.711  -0.692  1.00  0.00     0.035 C 
ENDBRANCH  24  26
ENDBRANCH  21  22
ENDBRANCH  19  21
ENDBRANCH   1  19
TORSDOF 10
