REMARK  7 active torsions:
REMARK  status: ('A' for Active; 'I' for Inactive)
REMARK       I    between atoms: C2_2  and  N1_4 
REMARK    1  A    between atoms: C4_6  and  N2_7 
REMARK       I    between atoms: N2_7  and  C5_9 
REMARK    2  A    between atoms: C5_9  and  C6_11 
REMARK    3  A    between atoms: C6_11  and  N3_12 
REMARK    4  A    between atoms: N3_12  and  C7_15 
REMARK    5  A    between atoms: C7_15  and  C8_16 
REMARK    6  A    between atoms: C7_15  and  C15_23 
REMARK    7  A    between atoms: C8_16  and  C9_17 
REMARK       I    between atoms: C15_23  and  N4_25 
ROOT
HETATM    1  N3  UNL     1      -0.647   0.571   0.375  1.00  0.00    -0.054 N 
ATOM      2  H31 UNL     1      -0.459  -0.423   0.243  1.00  0.00     0.278 HD
ATOM      3  H32 UNL     1      -0.220   0.940  -0.474  1.00  0.00     0.278 HD
ENDROOT
BRANCH   1   4
HETATM    4  C6  UNL     1       0.028   1.060   1.529  1.00  0.00     0.335 C 
BRANCH   4   5
HETATM    5  C5  UNL     1       1.509   0.873   1.315  1.00  0.00     0.243 C 
HETATM    6  N2  UNL     1       1.970   0.298   0.116  1.00  0.00    -0.353 N 
ATOM      7  H2  UNL     1       1.294   0.013  -0.593  1.00  0.00     0.163 HD
HETATM    8  O2  UNL     1       2.258   1.255   2.248  1.00  0.00    -0.272 OA
BRANCH   6   9
HETATM    9  C4  UNL     1       3.370   0.104  -0.131  1.00  0.00     0.103 C 
HETATM   10  C3  UNL     1       3.674  -1.379  -0.147  1.00  0.00     0.150 C 
HETATM   11  N1  UNL     1       5.026  -1.642  -0.587  1.00  0.00    -0.350 N 
HETATM   12  C2  UNL     1       5.867  -2.406   0.259  1.00  0.00     0.215 C 
HETATM   13  C24 UNL     1       5.419  -1.107  -1.859  1.00  0.00     0.134 C 
HETATM   14  C1  UNL     1       7.267  -2.666  -0.226  1.00  0.00     0.117 C 
HETATM   15  O1  UNL     1       5.475  -2.853   1.366  1.00  0.00    -0.274 OA
HETATM   16  C21 UNL     1       5.173   0.361  -1.885  1.00  0.00    -0.029 C 
HETATM   17  C20 UNL     1       3.871   0.818  -1.334  1.00  0.00     0.037 C 
HETATM   18  C22 UNL     1       6.277   1.037  -1.063  1.00  0.00     0.016 C 
HETATM   19  C23 UNL     1       5.348   0.840  -3.327  1.00  0.00     0.016 C 
ENDBRANCH   6   9
ENDBRANCH   4   5
ENDBRANCH   1   4
BRANCH   1  20
HETATM   20  C7  UNL     1      -2.111   0.831   0.380  1.00  0.00     0.278 C 
BRANCH  20  21
HETATM   21  C8  UNL     1      -2.659   0.098   1.523  1.00  0.00     0.047 C 
BRANCH  21  22
HETATM   22  C9  UNL     1      -4.104   0.101   1.831  1.00  0.00    -0.012 C 
HETATM   23  C10 UNL     1      -4.264  -0.697   3.156  1.00  0.00     0.005 C 
HETATM   24  C11 UNL     1      -3.904  -2.129   3.013  1.00  0.00     0.000 C 
HETATM   25  C12 UNL     1      -4.594  -2.858   1.903  1.00  0.00     0.000 C 
HETATM   26  C13 UNL     1      -4.619  -2.048   0.623  1.00  0.00     0.000 C 
HETATM   27  C14 UNL     1      -5.020  -0.623   0.890  1.00  0.00     0.005 C 
ENDBRANCH  21  22
ENDBRANCH  20  21
BRANCH  20  28
HETATM   28  C15 UNL     1      -2.577   0.568  -0.976  1.00  0.00     0.250 C 
HETATM   29  O3  UNL     1      -2.101  -0.442  -1.571  1.00  0.00    -0.271 OA
HETATM   30  N4  UNL     1      -3.514   1.360  -1.677  1.00  0.00    -0.344 N 
HETATM   31  C16 UNL     1      -3.992   1.124  -3.016  1.00  0.00     0.132 C 
HETATM   32  C19 UNL     1      -4.147   2.556  -1.162  1.00  0.00     0.204 C 
HETATM   33  C17 UNL     1      -4.151   2.565  -3.519  1.00  0.00     0.100 C 
HETATM   34  C18 UNL     1      -4.896   3.169  -2.326  1.00  0.00     0.261 C 
HETATM   35  F1  UNL     1      -4.866   4.533  -2.333  1.00  0.00    -0.204 F 
HETATM   36  F2  UNL     1      -6.196   2.728  -2.402  1.00  0.00    -0.204 F 
ENDBRANCH  20  28
ENDBRANCH   1  20
TORSDOF 7
