REMARK  8 active torsions:
REMARK  status: ('A' for Active; 'I' for Inactive)
REMARK    1  A    between atoms: O1_2  and  C2_3 
REMARK    2  A    between atoms: C2_3  and  O2_4 
REMARK    3  A    between atoms: C2_3  and  C12_39 
REMARK    4  A    between atoms: O2_4  and  C3_5 
REMARK    5  A    between atoms: C7_17  and  N5_18 
REMARK    6  A    between atoms: C8_23  and  N7_24 
REMARK       I    between atoms: N7_24  and  C9_26 
REMARK       I    between atoms: C9_26  and  N8_27 
REMARK       I    between atoms: C9_26  and  N9_31 
REMARK    7  A    between atoms: N9_31  and  N10_32 
REMARK       I    between atoms: C12_39  and  N12_41 
REMARK    8  A    between atoms: N12_41  and  C13_43 
ROOT
HETATM    1  C13 UNL     1       4.453   0.826   2.856  1.00  0.00     0.247 C 
HETATM    2  C14 UNL     1       4.512   2.278   2.953  1.00  0.00     0.078 C 
HETATM    3  N13 UNL     1       4.574   3.440   3.018  1.00  0.00    -0.196 NA
ENDROOT
BRANCH   1   4
HETATM    4  N12 UNL     1       3.953   0.435   1.568  1.00  0.00    -0.345 N 
HETATM    5  C12 UNL     1       3.786  -0.923   1.186  1.00  0.00     0.274 C 
HETATM    6  O3  UNL     1       4.096  -1.805   2.029  1.00  0.00    -0.268 OA
ATOM      7  H12 UNL     1       3.707   1.164   0.898  1.00  0.00     0.163 HD
BRANCH   5   8
HETATM    8  C2  UNL     1       3.268  -1.311  -0.151  1.00  0.00     0.360 C 
BRANCH   8   9
HETATM    9  O1  UNL     1       3.185  -2.671  -0.311  1.00  0.00    -0.357 OA
HETATM   10  C1  UNL     1       3.988  -3.174  -1.323  1.00  0.00     0.205 C 
ENDBRANCH   8   9
BRANCH   8  11
HETATM   11  O2  UNL     1       2.004  -0.754  -0.415  1.00  0.00    -0.293 OA
BRANCH  11  12
HETATM   12  C3  UNL     1       1.806   0.149  -1.458  1.00  0.00     0.177 A 
HETATM   13  N1  UNL     1       2.864   0.487  -2.224  1.00  0.00    -0.331 N 
HETATM   14  C4  UNL     1       2.658   1.362  -3.229  1.00  0.00     0.184 A 
ATOM     15  H1  UNL     1       3.789   0.094  -2.049  1.00  0.00     0.168 HD
HETATM   16  N2  UNL     1       1.434   1.869  -3.447  1.00  0.00    -0.337 N 
HETATM   17  C5  UNL     1       0.357   1.551  -2.699  1.00  0.00     0.139 A 
ATOM     18  H2  UNL     1       1.312   2.527  -4.216  1.00  0.00     0.168 HD
HETATM   19  N3  UNL     1      -0.862   2.102  -2.971  1.00  0.00    -0.324 N 
HETATM   20  C11 UNL     1       0.542   0.662  -1.668  1.00  0.00     0.129 A 
HETATM   21  C6  UNL     1      -1.902   1.743  -2.185  1.00  0.00     0.153 A 
ATOM     22  H3  UNL     1      -0.984   2.761  -3.740  1.00  0.00     0.169 HD
HETATM   23  N4  UNL     1      -3.140   2.242  -2.388  1.00  0.00    -0.174 N 
HETATM   24  C10 UNL     1      -1.718   0.847  -1.147  1.00  0.00     0.123 A 
HETATM   25  C7  UNL     1      -4.159   1.873  -1.596  1.00  0.00     0.679 A 
ATOM     26  H4  UNL     1      -3.302   2.903  -3.148  1.00  0.00     0.186 HD
HETATM   27  N6  UNL     1      -3.997   1.004  -0.583  1.00  0.00    -0.175 N 
HETATM   28  C8  UNL     1      -2.792   0.477  -0.337  1.00  0.00     0.150 A 
ATOM     29  H6  UNL     1      -4.794   0.746  -0.001  1.00  0.00     0.186 HD
HETATM   30  N11 UNL     1      -0.509   0.305  -0.882  1.00  0.00    -0.344 N 
ATOM     31  H11 UNL     1      -0.388  -0.354  -0.113  1.00  0.00     0.166 HD
BRANCH  25  32
HETATM   32  N5  UNL     1      -5.328   2.362  -1.809  1.00  0.00    -0.234 N 
ATOM     33  H52 UNL     1      -5.451   3.021  -2.578  1.00  0.00     0.174 HD
ATOM     34  H51 UNL     1      -6.102   2.082  -1.207  1.00  0.00     0.174 HD
ENDBRANCH  25  32
BRANCH  28  35
HETATM   35  N7  UNL     1      -2.565  -0.360   0.617  1.00  0.00    -0.333 N 
HETATM   36  C9  UNL     1      -3.617  -0.792   1.496  1.00  0.00     0.397 C 
HETATM   37  N8  UNL     1      -4.545  -1.705   0.898  1.00  0.00    -0.042 N 
HETATM   38  N9  UNL     1      -3.077  -1.425   2.703  1.00  0.00    -0.093 NA
ATOM     39  H83 UNL     1      -4.935  -1.308   0.043  1.00  0.00     0.278 HD
ATOM     40  H82 UNL     1      -4.053  -2.509   0.508  1.00  0.00     0.278 HD
ATOM     41  H81 UNL     1      -5.292  -2.012   1.522  1.00  0.00     0.278 HD
ATOM     42  H7  UNL     1      -1.621  -0.722   0.751  1.00  0.00     0.164 HD
BRANCH  38  43
HETATM   43  N10 UNL     1      -4.104  -1.841   3.550  1.00  0.00    -0.345 N 
ATOM     44 2H10 UNL     1      -5.095  -1.714   3.343  1.00  0.00     0.172 HD
ATOM     45 1H10 UNL     1      -3.728  -2.281   4.390  1.00  0.00     0.172 HD
ENDBRANCH  38  43
ENDBRANCH  28  35
ENDBRANCH  11  12
ENDBRANCH   8  11
ENDBRANCH   5   8
ENDBRANCH   1   4
TORSDOF 8
