REMARK  9 active torsions:
REMARK  status: ('A' for Active; 'I' for Inactive)
REMARK    1  A    between atoms: N1_1  and  C1_4 
REMARK    2  A    between atoms: N7_18  and  N8_19 
REMARK       I    between atoms: N8_19  and  C8_21 
REMARK       I    between atoms: C8_21  and  N9_23 
REMARK    3  A    between atoms: N9_23  and  S1_25 
REMARK    4  A    between atoms: S1_25  and  O4_28 
REMARK    5  A    between atoms: O4_28  and  C9_29 
REMARK    6  A    between atoms: C9_29  and  C10_30 
REMARK    7  A    between atoms: C10_30  and  O5_31 
REMARK    8  A    between atoms: C10_30  and  C11_33 
REMARK    9  A    between atoms: C11_33  and  N10_34 
ROOT
HETATM    1  N8  UNL     1       0.024   0.248  -0.548  1.00  0.00    -0.242 N 
ATOM      2  H8  UNL     1      -0.439  -0.595  -0.210  1.00  0.00     0.192 HD
HETATM    3  C8  UNL     1      -0.795   1.249  -1.072  1.00  0.00     0.350 C 
HETATM    4  O1  UNL     1      -0.426   2.348  -1.535  1.00  0.00    -0.244 OA
HETATM    5  N9  UNL     1      -2.239   1.054  -1.113  1.00  0.00    -0.212 N 
ATOM      6  H9  UNL     1      -2.646   0.188  -0.759  1.00  0.00     0.185 HD
ENDROOT
BRANCH   1   7
HETATM    7  N7  UNL     1       1.394   0.287  -0.443  1.00  0.00    -0.230 N 
HETATM    8  C1  UNL     1       2.011  -0.825   0.104  1.00  0.00     0.151 A 
HETATM    9  C2  UNL     1       3.363  -0.922   0.267  1.00  0.00     0.108 A 
HETATM   10  N2  UNL     1       3.947  -2.025   0.805  1.00  0.00    -0.338 N 
HETATM   11  C6  UNL     1       4.141   0.144  -0.135  1.00  0.00     0.090 A 
HETATM   12  C3  UNL     1       5.272  -2.152   0.978  1.00  0.00     0.143 A 
ATOM     13  H2  UNL     1       3.346  -2.798   1.093  1.00  0.00     0.167 HD
HETATM   14  N3  UNL     1       5.858  -3.320   1.543  1.00  0.00    -0.081 NA
HETATM   15  C4  UNL     1       6.086  -1.098   0.584  1.00  0.00     0.114 A 
HETATM   16  N4  UNL     1       7.503  -1.211   0.757  1.00  0.00    -0.097 NA
HETATM   17  C5  UNL     1       5.504   0.037   0.031  1.00  0.00     0.103 A 
HETATM   18  N5  UNL     1       6.310   1.112  -0.372  1.00  0.00    -0.098 NA
HETATM   19  N6  UNL     1       3.530   1.205  -0.659  1.00  0.00    -0.347 N 
HETATM   20  C7  UNL     1       2.175   1.296  -0.820  1.00  0.00     0.209 A 
ATOM     21  H6  UNL     1       4.105   1.993  -0.957  1.00  0.00     0.167 HD
BRANCH   8  22
HETATM   22  N1  UNL     1       1.290  -1.837   0.488  1.00  0.00    -0.382 N 
ATOM     23  H12 UNL     1       1.745  -2.656   0.891  1.00  0.00     0.157 HD
ATOM     24  H11 UNL     1       0.280  -1.765   0.366  1.00  0.00     0.157 HD
ENDBRANCH   8  22
ENDBRANCH   1   7
BRANCH   5  25
HETATM   25  S1  UNL     1      -3.245   2.264  -1.748  1.00  0.00     0.365 S 
HETATM   26  O2  UNL     1      -3.526   1.983  -3.219  1.00  0.00    -0.175 OA
HETATM   27  O3  UNL     1      -2.607   3.600  -1.660  1.00  0.00    -0.175 OA
BRANCH  25  28
HETATM   28  O4  UNL     1      -4.748   2.312  -0.996  1.00  0.00    -0.257 OA
BRANCH  28  29
HETATM   29  C9  UNL     1      -5.093   1.055  -0.495  1.00  0.00     0.225 C 
BRANCH  29  30
HETATM   30  C10 UNL     1      -6.439   1.058   0.193  1.00  0.00     0.168 C 
BRANCH  30  31
HETATM   31  O5  UNL     1      -6.477   1.928   1.263  1.00  0.00    -0.392 OA
ATOM     32  H5  UNL     1      -7.323   1.930   1.695  1.00  0.00     0.210 HD
ENDBRANCH  30  31
BRANCH  30  33
HETATM   33  C11 UNL     1      -6.714  -0.375   0.661  1.00  0.00     0.263 C 
BRANCH  33  34
HETATM   34  N10 UNL     1      -6.673  -1.293  -0.457  1.00  0.00    -0.077 N 
ATOM     35 3H10 UNL     1      -7.309  -1.010  -1.203  1.00  0.00     0.274 HD
ATOM     36 2H10 UNL     1      -5.795  -1.225  -0.971  1.00  0.00     0.274 HD
ATOM     37 1H10 UNL     1      -6.856  -2.247  -0.145  1.00  0.00     0.274 HD
ENDBRANCH  33  34
ENDBRANCH  30  33
ENDBRANCH  29  30
ENDBRANCH  28  29
ENDBRANCH  25  28
ENDBRANCH   5  25
TORSDOF 9
