REMARK  9 active torsions:
REMARK  status: ('A' for Active; 'I' for Inactive)
REMARK    1  A    between atoms: N1_2  and  C3_4 
REMARK    2  A    between atoms: N3_9  and  C6_10 
REMARK    3  A    between atoms: C6_10  and  O1_11 
REMARK    4  A    between atoms: C6_10  and  C7_13 
REMARK    5  A    between atoms: C7_13  and  N4_14 
REMARK    6  A    between atoms: C7_13  and  C9_21 
REMARK    7  A    between atoms: N4_14  and  C8_16 
REMARK    8  A    between atoms: C8_16  and  O2_17 
REMARK    9  A    between atoms: C8_16  and  O3_19 
ROOT
HETATM    1  C6  UNL     1      -1.513  -1.254   0.624  1.00  0.00     0.266 C 
ENDROOT
BRANCH   1   2
HETATM    2  N3  UNL     1      -0.089  -1.032   0.488  1.00  0.00    -0.256 N 
HETATM    3  C5  UNL     1       0.815  -2.052   0.890  1.00  0.00     0.204 A 
HETATM    4  N2  UNL     1       2.112  -1.890   0.782  1.00  0.00    -0.346 N 
HETATM    5  C4  UNL     1       2.654  -0.684   0.257  1.00  0.00     0.108 A 
ATOM      6  H2  UNL     1       2.740  -2.638   1.078  1.00  0.00     0.167 HD
HETATM    7  C3  UNL     1       3.962  -0.468   0.125  1.00  0.00     0.133 A 
HETATM    8  C13 UNL     1       1.710   0.350  -0.150  1.00  0.00     0.106 A 
HETATM    9  N10 UNL     1       4.493   0.742  -0.401  1.00  0.00    -0.328 N 
HETATM   10  C15 UNL     1       3.571   1.748  -0.797  1.00  0.00     0.144 A 
ATOM     11  H10 UNL     1       5.499   0.883  -0.491  1.00  0.00     0.168 HD
HETATM   12  C14 UNL     1       2.242   1.594  -0.691  1.00  0.00     0.117 A 
HETATM   13  N9  UNL     1       4.093   2.952  -1.321  1.00  0.00    -0.081 NA
HETATM   14  N8  UNL     1       1.326   2.606  -1.089  1.00  0.00    -0.096 NA
HETATM   15  N7  UNL     1       0.440   0.151  -0.027  1.00  0.00    -0.291 N 
ATOM     16  H7  UNL     1      -0.202   0.888  -0.318  1.00  0.00     0.187 HD
BRANCH   7  17
HETATM   17  N1  UNL     1       4.862  -1.483   0.525  1.00  0.00    -0.374 N 
HETATM   18  C1  UNL     1       5.795  -2.135  -0.373  1.00  0.00     0.150 C 
HETATM   19  C2  UNL     1       4.894  -1.943   1.920  1.00  0.00     0.150 C 
ENDBRANCH   7  17
ENDBRANCH   1   2
BRANCH   1  20
HETATM   20  O1  UNL     1      -1.824  -2.342  -0.168  1.00  0.00    -0.373 OA
ATOM     21  H1  UNL     1      -2.759  -2.488  -0.079  1.00  0.00     0.212 HD
ENDBRANCH   1  20
BRANCH   1  22
HETATM   22  C7  UNL     1      -2.246  -0.048   0.157  1.00  0.00     0.171 C 
BRANCH  22  23
HETATM   23  N4  UNL     1      -1.928   1.129   0.928  1.00  0.00    -0.365 N 
ATOM     24  H4  UNL     1      -1.485   1.933   0.484  1.00  0.00     0.158 HD
BRANCH  23  25
HETATM   25  C8  UNL     1      -2.234   1.152   2.286  1.00  0.00     0.361 C 
BRANCH  25  26
HETATM   26  O2  UNL     1      -3.532   1.045   2.685  1.00  0.00    -0.355 OA
ATOM     27  H2  UNL     1      -3.741   1.061   3.612  1.00  0.00     0.214 HD
ENDBRANCH  25  26
BRANCH  25  28
HETATM   28  O3  UNL     1      -1.729   2.342   2.862  1.00  0.00    -0.355 OA
ATOM     29  H3  UNL     1      -1.938   2.358   3.789  1.00  0.00     0.214 HD
ENDBRANCH  25  28
ENDBRANCH  23  25
ENDBRANCH  22  23
BRANCH  22  30
HETATM   30  C9  UNL     1      -3.731  -0.221  -0.024  1.00  0.00     0.303 C 
HETATM   31  N5  UNL     1      -4.268   1.080  -0.488  1.00  0.00    -0.059 N 
HETATM   32  C10 UNL     1      -5.327   0.906  -1.464  1.00  0.00     0.253 C 
ATOM     33  H52 UNL     1      -4.575   1.656   0.296  1.00  0.00     0.278 HD
ATOM     34  H51 UNL     1      -3.527   1.682  -0.847  1.00  0.00     0.278 HD
HETATM   35  C11 UNL     1      -4.619   0.488  -2.775  1.00  0.00     0.150 C 
HETATM   36  N6  UNL     1      -4.082  -0.843  -2.414  1.00  0.00    -0.358 N 
HETATM   37  C12 UNL     1      -4.132  -1.225  -1.018  1.00  0.00     0.250 C 
ATOM     38  H6  UNL     1      -3.692  -1.467  -3.121  1.00  0.00     0.162 HD
HETATM   39  O4  UNL     1      -4.520  -2.394  -0.738  1.00  0.00    -0.271 OA
ENDBRANCH  22  30
ENDBRANCH   1  22
TORSDOF 9
