REMARK  17 active torsions:
REMARK  status: ('A' for Active; 'I' for Inactive)
REMARK    1  A    between atoms: C2_2  and  C3_3 
REMARK    2  A    between atoms: C2_2  and  C16_40 
REMARK    3  A    between atoms: C3_3  and  O2_5 
REMARK    4  A    between atoms: O2_5  and  C4_6 
REMARK    5  A    between atoms: C4_6  and  C5_7 
REMARK    6  A    between atoms: C5_7  and  O3_8 
REMARK    7  A    between atoms: C5_7  and  C6_10 
REMARK    8  A    between atoms: C6_10  and  O4_11 
REMARK    9  A    between atoms: C6_10  and  O5_13 
REMARK   10  A    between atoms: O5_13  and  C7_14 
REMARK   11  A    between atoms: C7_14  and  N1_15 
REMARK   12  A    between atoms: C9_17  and  C10_18 
REMARK   13  A    between atoms: C10_18  and  O6_19 
REMARK   14  A    between atoms: C10_18  and  N2_21 
REMARK   15  A    between atoms: C13_31  and  N7_32 
REMARK   16  A    between atoms: C20_51  and  O8_52 
REMARK   17  A    between atoms: C20_51  and  O9_54 
ROOT
HETATM    1  C6  UNL     1      -2.517  -0.038  -1.368  1.00  0.00     0.294 C 
ENDROOT
BRANCH   1   2
HETATM    2  C5  UNL     1      -1.119   0.404  -1.763  1.00  0.00     0.197 C 
BRANCH   2   3
HETATM    3  C4  UNL     1      -0.115   0.199  -0.689  1.00  0.00     0.215 C 
BRANCH   3   4
HETATM    4  O2  UNL     1       1.106   0.762  -1.061  1.00  0.00    -0.318 OA
BRANCH   4   5
HETATM    5  C3  UNL     1       1.922   0.448  -2.115  1.00  0.00     0.268 C 
HETATM    6  O1  UNL     1       1.513  -0.502  -2.869  1.00  0.00    -0.264 OA
BRANCH   5   7
HETATM    7  C2  UNL     1       3.212   1.147  -2.396  1.00  0.00     0.135 C 
HETATM    8  C1  UNL     1       3.797   0.427  -3.624  1.00  0.00     0.027 C 
BRANCH   7   9
HETATM    9  C16 UNL     1       4.209   1.016  -1.326  1.00  0.00     0.066 A 
HETATM   10  N9  UNL     1       5.275   0.166  -1.448  1.00  0.00    -0.339 N 
HETATM   11  C17 UNL     1       6.186   0.025  -0.474  1.00  0.00     0.147 A 
ATOM     12  H9  UNL     1       5.380  -0.376  -2.305  1.00  0.00     0.167 HD
HETATM   13  C18 UNL     1       6.093   0.735   0.706  1.00  0.00     0.166 A 
HETATM   14  N14 UNL     1       7.291  -0.858  -0.612  1.00  0.00    -0.371 N 
HETATM   15  N10 UNL     1       5.070   1.568   0.853  1.00  0.00    -0.325 N 
HETATM   16  N12 UNL     1       7.086   0.558   1.728  1.00  0.00    -0.259 N 
HETATM   17  C19 UNL     1       4.144   1.709  -0.141  1.00  0.00     0.141 A 
ATOM     18  H10 UNL     1       4.975   2.106   1.714  1.00  0.00     0.169 HD
HETATM   19  N11 UNL     1       3.084   2.634   0.086  1.00  0.00    -0.081 NA
HETATM   20  N13 UNL     1       7.718   1.081   2.845  1.00  0.00    -0.067 NA
HETATM   21  C21 UNL     1       7.839  -0.678   1.702  1.00  0.00     0.206 C 
HETATM   22  C20 UNL     1       8.737   0.042   2.684  1.00  0.00     0.282 C 
HETATM   23  C22 UNL     1       8.412  -0.839   0.318  1.00  0.00     0.155 C 
ATOM     24  H14 UNL     1       7.299  -1.524  -1.384  1.00  0.00     0.161 HD
BRANCH  22  25
HETATM   25  O8  UNL     1       8.939  -0.671   3.849  1.00  0.00    -0.349 OA
ATOM     26  H8  UNL     1       9.600  -1.345   3.745  1.00  0.00     0.214 HD
ENDBRANCH  22  25
BRANCH  22  27
HETATM   27  O9  UNL     1       9.889   0.495   2.045  1.00  0.00    -0.349 OA
ATOM     28  H9  UNL     1      10.550  -0.179   1.941  1.00  0.00     0.214 HD
ENDBRANCH  22  27
ENDBRANCH   7   9
ENDBRANCH   5   7
ENDBRANCH   4   5
ENDBRANCH   3   4
ENDBRANCH   2   3
BRANCH   2  29
HETATM   29  O3  UNL     1      -1.242   1.797  -1.973  1.00  0.00    -0.388 OA
ATOM     30  H3  UNL     1      -1.885   1.928  -2.660  1.00  0.00     0.210 HD
ENDBRANCH   2  29
ENDBRANCH   1   2
BRANCH   1  31
HETATM   31  O4  UNL     1      -3.324   0.299  -2.486  1.00  0.00    -0.368 OA
ATOM     32  H4  UNL     1      -4.199   0.022  -2.239  1.00  0.00     0.212 HD
ENDBRANCH   1  31
BRANCH   1  33
HETATM   33  O5  UNL     1      -2.630  -1.361  -1.104  1.00  0.00    -0.313 OA
BRANCH  33  34
HETATM   34  C7  UNL     1      -3.096  -1.751   0.114  1.00  0.00     0.237 C 
BRANCH  34  35
HETATM   35  N1  UNL     1      -4.438  -1.330   0.449  1.00  0.00    -0.305 N 
HETATM   36  C8  UNL     1      -4.720  -0.218   1.135  1.00  0.00     0.113 A 
HETATM   37  C9  UNL     1      -6.114  -0.193   1.262  1.00  0.00     0.037 A 
HETATM   38  C12 UNL     1      -6.670  -1.295   0.651  1.00  0.00     0.094 A 
HETATM   39  N6  UNL     1      -7.929  -1.741   0.491  1.00  0.00    -0.189 N 
HETATM   40  C15 UNL     1      -5.570  -2.004   0.139  1.00  0.00     0.137 A 
HETATM   41  C13 UNL     1      -8.124  -2.890  -0.176  1.00  0.00     0.679 A 
ATOM     42  H6  UNL     1      -8.719  -1.217   0.868  1.00  0.00     0.184 HD
HETATM   43  N8  UNL     1      -7.114  -3.591  -0.676  1.00  0.00    -0.154 N 
HETATM   44  C14 UNL     1      -5.852  -3.170  -0.530  1.00  0.00     0.289 A 
ATOM     45  H8  UNL     1      -7.302  -4.460  -1.177  1.00  0.00     0.187 HD
HETATM   46  O7  UNL     1      -4.895  -3.839  -1.008  1.00  0.00    -0.265 OA
BRANCH  37  47
HETATM   47  C10 UNL     1      -6.834   0.917   1.961  1.00  0.00     0.281 C 
BRANCH  47  48
HETATM   48  O6  UNL     1      -8.134   0.975   1.474  1.00  0.00    -0.370 OA
ATOM     49  H6  UNL     1      -8.591   1.680   1.918  1.00  0.00     0.212 HD
ENDBRANCH  47  48
BRANCH  47  50
HETATM   50  N2  UNL     1      -6.157   2.184   1.654  1.00  0.00    -0.240 N 
HETATM   51  C11 UNL     1      -5.646   2.552   0.474  1.00  0.00     0.219 A 
HETATM   52  N3  UNL     1      -5.107   3.780   0.579  1.00  0.00    -0.277 N 
HETATM   53  N4  UNL     1      -5.305   4.139   1.843  1.00  0.00    -0.006 NA
ATOM     54  H3  UNL     1      -4.646   4.319  -0.154  1.00  0.00     0.185 HD
HETATM   55  N5  UNL     1      -5.943   3.170   2.498  1.00  0.00    -0.221 N 
ATOM     56  H5  UNL     1      -6.217   3.189   3.480  1.00  0.00     0.206 HD
ENDBRANCH  47  50
ENDBRANCH  37  47
BRANCH  41  57
HETATM   57  N7  UNL     1      -9.326  -3.335  -0.340  1.00  0.00    -0.234 N 
ATOM     58  H72 UNL     1     -10.102  -2.796   0.044  1.00  0.00     0.174 HD
ATOM     59  H71 UNL     1      -9.474  -4.208  -0.847  1.00  0.00     0.174 HD
ENDBRANCH  41  57
ENDBRANCH  34  35
ENDBRANCH  33  34
ENDBRANCH   1  33
TORSDOF 17
