REMARK  19 active torsions:
REMARK  status: ('A' for Active; 'I' for Inactive)
REMARK    1  A    between atoms: O1_2  and  C2_3 
REMARK    2  A    between atoms: C2_3  and  O2_4 
REMARK    3  A    between atoms: C2_3  and  C3_6 
REMARK    4  A    between atoms: C3_6  and  C4_7 
REMARK    5  A    between atoms: C4_7  and  C5_8 
REMARK    6  A    between atoms: C4_7  and  N14_53 
REMARK    7  A    between atoms: C5_8  and  C6_9 
REMARK    8  A    between atoms: C6_9  and  O3_10 
REMARK    9  A    between atoms: C6_9  and  C7_12 
REMARK   10  A    between atoms: N3_16  and  C8_17 
REMARK   11  A    between atoms: C10_24  and  N7_25 
REMARK   12  A    between atoms: C12_27  and  C13_28 
REMARK   13  A    between atoms: C13_28  and  O4_29 
REMARK   14  A    between atoms: O4_29  and  C14_30 
REMARK   15  A    between atoms: C18_35  and  N8_36 
REMARK   16  A    between atoms: C19_41  and  N10_42 
REMARK   17  A    between atoms: N10_42  and  N11_44 
REMARK   18  A    between atoms: N11_44  and  N12_45 
REMARK   19  A    between atoms: C20_50  and  O6_51 
REMARK       I    between atoms: N14_53  and  C21_55 
ROOT
HETATM    1  C8  UNL     1      -0.984   0.307   0.764  1.00  0.00     0.251 C 
HETATM    2  N4  UNL     1      -0.971  -0.414   2.048  1.00  0.00    -0.339 N 
ATOM      3  H4  UNL     1      -0.947   0.022   2.970  1.00  0.00     0.164 HD
HETATM    4  C9  UNL     1      -0.996  -1.711   1.817  1.00  0.00     0.187 C 
HETATM    5  N5  UNL     1      -0.983  -2.646   2.863  1.00  0.00    -0.064 NA
HETATM    6  N6  UNL     1      -1.068  -1.921   0.422  1.00  0.00    -0.340 N 
ATOM      7  H6  UNL     1      -0.805  -2.767  -0.084  1.00  0.00     0.164 HD
HETATM    8  C10 UNL     1      -1.600  -0.673  -0.156  1.00  0.00     0.235 C 
ENDROOT
BRANCH   8   9
HETATM    9  N7  UNL     1      -3.018  -0.704  -0.293  1.00  0.00    -0.325 N 
HETATM   10  C11 UNL     1      -3.818  -1.758   0.098  1.00  0.00     0.105 A 
HETATM   11  C12 UNL     1      -5.131  -1.496  -0.210  1.00  0.00     0.013 A 
HETATM   12  C16 UNL     1      -5.097  -0.205  -0.809  1.00  0.00     0.105 A 
HETATM   13  C17 UNL     1      -3.804   0.257  -0.850  1.00  0.00     0.110 A 
HETATM   14  N13 UNL     1      -6.145   0.583  -1.134  1.00  0.00    -0.104 N 
HETATM   15  C18 UNL     1      -3.595   1.560  -1.257  1.00  0.00     0.144 A 
HETATM   16  N9  UNL     1      -4.646   2.320  -1.568  1.00  0.00    -0.173 N 
HETATM   17  C19 UNL     1      -5.894   1.870  -1.509  1.00  0.00     0.710 A 
ATOM     18  H9  UNL     1      -4.485   3.283  -1.862  1.00  0.00     0.186 HD
HETATM   19  S1  UNL     1      -7.798   0.005  -1.041  1.00  0.00     0.067 SA
BRANCH  11  20
HETATM   20  C13 UNL     1      -6.324  -2.343  -0.332  1.00  0.00     0.221 C 
BRANCH  20  21
HETATM   21  O4  UNL     1      -6.886  -2.938   0.807  1.00  0.00    -0.317 OA
BRANCH  21  22
HETATM   22  C14 UNL     1      -8.074  -3.712   0.482  1.00  0.00     0.255 C 
HETATM   23  C15 UNL     1      -8.914  -4.292   1.516  1.00  0.00     0.126 C 
HETATM   24  O5  UNL     1      -8.340  -3.837  -0.728  1.00  0.00    -0.266 OA
ENDBRANCH  21  22
ENDBRANCH  20  21
ENDBRANCH  11  20
BRANCH  15  25
HETATM   25  N8  UNL     1      -2.397   2.022  -1.422  1.00  0.00    -0.383 N 
ATOM     26  H82 UNL     1      -1.593   1.441  -1.184  1.00  0.00     0.157 HD
ATOM     27  H81 UNL     1      -2.243   2.984  -1.723  1.00  0.00     0.157 HD
ENDBRANCH  15  25
BRANCH  17  28
HETATM   28  N10 UNL     1      -6.941   2.590  -1.557  1.00  0.00    -0.115 N 
ATOM     29  H10 UNL     1      -7.820   2.074  -1.511  1.00  0.00     0.203 HD
BRANCH  28  30
HETATM   30  N11 UNL     1      -7.075   3.947  -1.661  1.00  0.00    -0.015 NA
BRANCH  30  31
HETATM   31  N12 UNL     1      -7.370   4.517  -0.396  1.00  0.00    -0.328 N 
ATOM     32 2H12 UNL     1      -7.466   3.976   0.463  1.00  0.00     0.174 HD
ATOM     33 1H12 UNL     1      -7.470   5.529  -0.474  1.00  0.00     0.174 HD
ENDBRANCH  30  31
ENDBRANCH  28  30
ENDBRANCH  17  28
ENDBRANCH   8   9
BRANCH   1  34
HETATM   34  N3  UNL     1       0.468   0.269   0.351  1.00  0.00    -0.226 N 
HETATM   35  N2  UNL     1       0.945   0.443  -0.885  1.00  0.00    -0.016 NA
HETATM   36  N1  UNL     1       2.278   0.332  -0.823  1.00  0.00    -0.281 N 
HETATM   37  C7  UNL     1       2.651   0.088   0.407  1.00  0.00     0.104 A 
ATOM     38  H1  UNL     1       2.910   0.424  -1.618  1.00  0.00     0.184 HD
HETATM   39  C20 UNL     1       1.465   0.052   1.155  1.00  0.00     0.184 A 
BRANCH  37  40
HETATM   40  C6  UNL     1       3.982  -0.202   0.962  1.00  0.00     0.175 C 
BRANCH  40  41
HETATM   41  C5  UNL     1       4.985   0.717   0.388  1.00  0.00     0.063 C 
BRANCH  41  42
HETATM   42  C4  UNL     1       5.497   0.608  -0.987  1.00  0.00     0.091 C 
BRANCH  42  43
HETATM   43  C3  UNL     1       6.398   1.826  -1.190  1.00  0.00     0.085 C 
BRANCH  43  44
HETATM   44  C2  UNL     1       7.427   2.092  -0.205  1.00  0.00     0.258 C 
BRANCH  44  45
HETATM   45  O1  UNL     1       8.210   3.257  -0.482  1.00  0.00    -0.366 OA
HETATM   46  C1  UNL     1       9.331   3.156   0.390  1.00  0.00     0.204 C 
ENDBRANCH  44  45
BRANCH  44  47
HETATM   47  O2  UNL     1       6.643   2.761   0.918  1.00  0.00    -0.371 OA
ATOM     48  H2  UNL     1       6.123   1.987   1.102  1.00  0.00     0.212 HD
ENDBRANCH  44  47
ENDBRANCH  43  44
ENDBRANCH  42  43
BRANCH  42  49
HETATM   49  N14 UNL     1       6.068  -0.582  -1.450  1.00  0.00    -0.357 N 
HETATM   50  C21 UNL     1       6.959  -1.491  -0.882  1.00  0.00     0.213 C 
HETATM   51  C22 UNL     1       7.382  -2.707  -1.638  1.00  0.00     0.117 C 
HETATM   52  O7  UNL     1       7.428  -1.324   0.264  1.00  0.00    -0.274 OA
ATOM     53  H14 UNL     1       5.773  -0.836  -2.393  1.00  0.00     0.162 HD
ENDBRANCH  42  49
ENDBRANCH  41  42
ENDBRANCH  40  41
BRANCH  40  54
HETATM   54  O3  UNL     1       4.293  -1.552   0.980  1.00  0.00    -0.389 OA
ATOM     55  H3  UNL     1       3.648  -2.143   1.349  1.00  0.00     0.210 HD
ENDBRANCH  40  54
ENDBRANCH  37  40
BRANCH  39  56
HETATM   56  O6  UNL     1       1.463  -0.181   2.531  1.00  0.00    -0.344 OA
ATOM     57  H6  UNL     1       0.660  -0.205   3.038  1.00  0.00     0.219 HD
ENDBRANCH  39  56
ENDBRANCH   1  34
TORSDOF 19
