REMARK  19 active torsions:
REMARK  status: ('A' for Active; 'I' for Inactive)
REMARK    1  A    between atoms: C2_2  and  N1_3 
REMARK    2  A    between atoms: C2_2  and  C3_7 
REMARK    3  A    between atoms: C3_7  and  N2_8 
REMARK    4  A    between atoms: C3_7  and  C19_58 
REMARK    5  A    between atoms: N2_8  and  N3_10 
REMARK    6  A    between atoms: C4_13  and  C5_14 
REMARK    7  A    between atoms: C5_14  and  N5_15 
REMARK    8  A    between atoms: C5_14  and  N7_24 
REMARK    9  A    between atoms: N5_15  and  C6_17 
REMARK   10  A    between atoms: C6_17  and  C7_18 
REMARK   11  A    between atoms: C7_18  and  C8_20 
REMARK   12  A    between atoms: C8_20  and  N6_21 
REMARK   13  A    between atoms: C11_25  and  C12_26 
REMARK   14  A    between atoms: C13_32  and  N10_33 
REMARK   15  A    between atoms: N10_33  and  N11_35 
REMARK   16  A    between atoms: C14_41  and  N14_42 
REMARK   17  A    between atoms: C15_47  and  N16_48 
REMARK   18  A    between atoms: C18_55  and  O3_56 
REMARK   19  A    between atoms: C21_61  and  N18_62 
ROOT
HETATM    1  C5  UNL     1      -1.014  -0.027  -0.454  1.00  0.00     0.261 C 
ENDROOT
BRANCH   1   2
HETATM    2  C4  UNL     1       0.492  -0.004  -0.349  1.00  0.00     0.075 A 
HETATM    3  N4  UNL     1       1.327   1.029  -0.245  1.00  0.00    -0.278 N 
HETATM    4  N3  UNL     1       2.597   0.648  -0.176  1.00  0.00    -0.176 N 
ATOM      5  H4  UNL     1       1.025   2.003  -0.221  1.00  0.00     0.189 HD
HETATM    6  C18 UNL     1       2.597  -0.683  -0.238  1.00  0.00     0.180 A 
HETATM    7  C17 UNL     1       1.290  -1.124  -0.347  1.00  0.00     0.090 A 
BRANCH   4   8
HETATM    8  N2  UNL     1       3.669   1.506  -0.090  1.00  0.00    -0.300 N 
ATOM      9  H2  UNL     1       3.450   2.501  -0.133  1.00  0.00     0.183 HD
BRANCH   8  10
HETATM   10  C3  UNL     1       5.044   1.175   0.051  1.00  0.00     0.181 C 
BRANCH  10  11
HETATM   11  C2  UNL     1       5.916   2.421  -0.225  1.00  0.00     0.209 C 
HETATM   12  C1  UNL     1       7.381   2.051  -0.067  1.00  0.00     0.042 C 
BRANCH  11  13
HETATM   13  N1  UNL     1       5.719   2.837  -1.599  1.00  0.00    -0.073 N 
ATOM     14  H13 UNL     1       6.351   3.585  -1.883  1.00  0.00     0.274 HD
ATOM     15  H12 UNL     1       6.028   2.138  -2.275  1.00  0.00     0.274 HD
ATOM     16  H11 UNL     1       4.735   3.085  -1.705  1.00  0.00     0.274 HD
ENDBRANCH  11  13
ENDBRANCH  10  11
BRANCH  10  17
HETATM   17  C19 UNL     1       5.333   0.780   1.509  1.00  0.00     0.044 A 
HETATM   18  C20 UNL     1       6.249  -0.199   1.787  1.00  0.00     0.080 A 
HETATM   19  S1  UNL     1       6.208  -0.262   3.489  1.00  0.00    -0.064 SA
HETATM   20  C21 UNL     1       5.040   0.948   3.757  1.00  0.00     0.142 A 
HETATM   21  N19 UNL     1       4.730   1.349   2.529  1.00  0.00    -0.338 N 
ATOM     22  H19 UNL     1       4.038   2.084   2.381  1.00  0.00     0.168 HD
BRANCH  20  23
HETATM   23  N18 UNL     1       4.540   1.402   4.888  1.00  0.00    -0.380 N 
ATOM     24 2H18 UNL     1       4.778   1.094   5.831  1.00  0.00     0.158 HD
ATOM     25 1H18 UNL     1       3.840   2.127   5.049  1.00  0.00     0.158 HD
ENDBRANCH  20  23
ENDBRANCH  10  17
ENDBRANCH   8  10
ENDBRANCH   4   8
BRANCH   6  26
HETATM   26  O3  UNL     1       3.676  -1.570  -0.209  1.00  0.00    -0.344 OA
ATOM     27  H3  UNL     1       3.676  -2.519  -0.253  1.00  0.00     0.219 HD
ENDBRANCH   6  26
ENDBRANCH   1   2
BRANCH   1  28
HETATM   28  N5  UNL     1      -1.505   0.862   0.550  1.00  0.00    -0.369 N 
ATOM     29  H5  UNL     1      -0.859   1.316   1.196  1.00  0.00     0.161 HD
BRANCH  28  30
HETATM   30  C6  UNL     1      -2.879   1.104   0.639  1.00  0.00     0.137 C 
BRANCH  30  31
HETATM   31  C7  UNL     1      -3.513   1.850  -0.435  1.00  0.00     0.192 C 
HETATM   32  O1  UNL     1      -2.879   2.254  -1.380  1.00  0.00    -0.290 OA
BRANCH  31  33
HETATM   33  C8  UNL     1      -4.967   2.124  -0.382  1.00  0.00     0.355 C 
BRANCH  33  34
HETATM   34  N6  UNL     1      -5.462   2.858  -1.520  1.00  0.00     0.087 N 
HETATM   35  C9  UNL     1      -4.970   4.221  -1.567  1.00  0.00     0.309 C 
HETATM   36  C10 UNL     1      -6.913   2.902  -1.387  1.00  0.00     0.309 C 
ENDBRANCH  33  34
ENDBRANCH  31  33
ENDBRANCH  30  31
ENDBRANCH  28  30
ENDBRANCH   1  28
BRANCH   1  37
HETATM   37  N7  UNL     1      -1.485  -1.369  -0.112  1.00  0.00    -0.134 N 
HETATM   38  C11 UNL     1      -1.919  -2.305  -0.951  1.00  0.00     0.175 A 
HETATM   39  N12 UNL     1      -2.236  -3.361  -0.157  1.00  0.00    -0.246 N 
HETATM   40  N13 UNL     1      -2.008  -3.087   1.100  1.00  0.00     0.093 N 
ATOM     41  H12 UNL     1      -2.603  -4.250  -0.497  1.00  0.00     0.190 HD
HETATM   42  C14 UNL     1      -2.155  -3.791   2.246  1.00  0.00     0.727 A 
HETATM   43  C16 UNL     1      -1.538  -1.852   1.171  1.00  0.00     0.739 A 
HETATM   44  N15 UNL     1      -1.815  -3.198   3.407  1.00  0.00    -0.020 N 
HETATM   45  C15 UNL     1      -1.339  -1.942   3.470  1.00  0.00     0.705 A 
ATOM     46  H15 UNL     1      -1.923  -3.724   4.274  1.00  0.00     0.203 HD
HETATM   47  N17 UNL     1      -1.197  -1.256   2.330  1.00  0.00    -0.019 N 
ATOM     48  H17 UNL     1      -0.838  -0.301   2.338  1.00  0.00     0.203 HD
BRANCH  38  49
HETATM   49  C12 UNL     1      -2.035  -2.248  -2.380  1.00  0.00     0.149 A 
HETATM   50  N8  UNL     1      -1.774  -1.311  -3.285  1.00  0.00    -0.234 N 
HETATM   51  O2  UNL     1      -2.041  -1.744  -4.468  1.00  0.00    -0.155 OA
ATOM     52  H8  UNL     1      -1.413  -0.381  -3.073  1.00  0.00     0.197 HD
HETATM   53  N9  UNL     1      -2.481  -2.949  -4.432  1.00  0.00    -0.222 N 
HETATM   54  C13 UNL     1      -2.499  -3.317  -3.158  1.00  0.00     0.174 A 
ATOM     55  H9  UNL     1      -2.763  -3.516  -5.231  1.00  0.00     0.198 HD
BRANCH  54  56
HETATM   56  N10 UNL     1      -2.885  -4.478  -2.697  1.00  0.00    -0.289 N 
ATOM     57  H10 UNL     1      -2.854  -4.642  -1.691  1.00  0.00     0.188 HD
BRANCH  56  58
HETATM   58  N11 UNL     1      -3.331  -5.487  -3.520  1.00  0.00    -0.344 N 
ATOM     59 2H11 UNL     1      -3.355  -5.306  -4.524  1.00  0.00     0.176 HD
ATOM     60 1H11 UNL     1      -3.632  -6.393  -3.160  1.00  0.00     0.176 HD
ENDBRANCH  56  58
ENDBRANCH  54  56
ENDBRANCH  38  49
BRANCH  42  61
HETATM   61  N14 UNL     1      -2.606  -4.986   2.193  1.00  0.00    -0.232 N 
ATOM     62 2H14 UNL     1      -2.863  -5.435   1.314  1.00  0.00     0.174 HD
ATOM     63 1H14 UNL     1      -2.717  -5.517   3.057  1.00  0.00     0.174 HD
ENDBRANCH  42  61
BRANCH  45  64
HETATM   64  N16 UNL     1      -1.023  -1.412   4.631  1.00  0.00    -0.234 N 
ATOM     65 2H16 UNL     1      -1.131  -1.935   5.500  1.00  0.00     0.174 HD
ATOM     66 1H16 UNL     1      -0.662  -0.459   4.679  1.00  0.00     0.174 HD
ENDBRANCH  45  64
ENDBRANCH   1  37
TORSDOF 19
