REMARK  14 active torsions:
REMARK  status: ('A' for Active; 'I' for Inactive)
REMARK    1  A    between atoms: N1_1  and  C1_4 
REMARK    2  A    between atoms: N4_13  and  C6_14 
REMARK    3  A    between atoms: C6_14  and  C7_15 
REMARK    4  A    between atoms: C7_15  and  O1_16 
REMARK    5  A    between atoms: C7_15  and  C8_18 
REMARK    6  A    between atoms: C8_18  and  N5_19 
REMARK    7  A    between atoms: C10_21  and  C11_22 
REMARK    8  A    between atoms: C12_27  and  C13_28 
REMARK    9  A    between atoms: C13_28  and  O2_29 
REMARK   10  A    between atoms: C13_28  and  N8_31 
REMARK       I    between atoms: N8_31  and  C14_33 
REMARK       I    between atoms: C14_33  and  N9_34 
REMARK       I    between atoms: C14_33  and  N10_38 
REMARK   11  A    between atoms: N10_38  and  C15_40 
REMARK   12  A    between atoms: C16_43  and  O3_44 
REMARK   13  A    between atoms: C17_46  and  C18_47 
REMARK   14  A    between atoms: C18_47  and  C19_48 
ROOT
HETATM    1  C11 UNL     1       0.411   1.756  -1.818  1.00  0.00     0.194 A 
HETATM    2  N6  UNL     1      -0.425   2.788  -1.647  1.00  0.00    -0.276 N 
ATOM      3  H6  UNL     1      -0.164   3.686  -1.240  1.00  0.00     0.189 HD
HETATM    4  N7  UNL     1      -1.632   2.483  -2.078  1.00  0.00    -0.278 N 
ATOM      5  H7  UNL     1      -2.454   3.087  -2.065  1.00  0.00     0.189 HD
HETATM    6  C12 UNL     1      -1.571   1.221  -2.539  1.00  0.00     0.189 A 
HETATM    7  O5  UNL     1      -0.331   0.826  -2.363  1.00  0.00    -0.271 OA
ENDROOT
BRANCH   6   8
HETATM    8  C13 UNL     1      -2.689   0.434  -3.131  1.00  0.00     0.294 C 
BRANCH   8   9
HETATM    9  O2  UNL     1      -3.383   1.239  -4.068  1.00  0.00    -0.369 OA
ATOM     10  H2  UNL     1      -4.096   0.737  -4.445  1.00  0.00     0.212 HD
ENDBRANCH   8   9
BRANCH   8  11
HETATM   11  N8  UNL     1      -3.651  -0.046  -2.212  1.00  0.00    -0.347 N 
HETATM   12  C14 UNL     1      -3.203  -0.947  -1.202  1.00  0.00     0.399 C 
HETATM   13  N9  UNL     1      -2.248  -0.408  -0.269  1.00  0.00    -0.040 N 
HETATM   14  N10 UNL     1      -4.288  -1.634  -0.598  1.00  0.00    -0.180 N 
ATOM     15  H93 UNL     1      -1.449  -0.022  -0.772  1.00  0.00     0.279 HD
ATOM     16  H92 UNL     1      -2.619   0.440   0.159  1.00  0.00     0.279 HD
ATOM     17  H91 UNL     1      -1.927  -1.053   0.454  1.00  0.00     0.279 HD
ATOM     18  H10 UNL     1      -4.275  -2.644  -0.736  1.00  0.00     0.181 HD
ATOM     19  H8  UNL     1      -4.628   0.241  -2.270  1.00  0.00     0.160 HD
BRANCH  14  20
HETATM   20  C15 UNL     1      -5.261  -1.216   0.077  1.00  0.00     0.686 A 
HETATM   21  N11 UNL     1      -6.180  -2.113   0.547  1.00  0.00    -0.170 N 
HETATM   22  C16 UNL     1      -7.225  -1.677   1.272  1.00  0.00     0.167 A 
ATOM     23  H11 UNL     1      -6.073  -3.108   0.349  1.00  0.00     0.186 HD
HETATM   24  C17 UNL     1      -7.393  -0.316   1.556  1.00  0.00     0.069 A 
HETATM   25  C20 UNL     1      -6.464   0.554   1.075  1.00  0.00     0.270 A 
HETATM   26  O4  UNL     1      -6.570   1.784   1.304  1.00  0.00    -0.267 OA
HETATM   27  N16 UNL     1      -5.415   0.084   0.345  1.00  0.00    -0.155 N 
ATOM     28  H16 UNL     1      -4.724   0.746  -0.009  1.00  0.00     0.187 HD
BRANCH  22  29
HETATM   29  O3  UNL     1      -8.179  -2.548   1.768  1.00  0.00    -0.345 OA
ATOM     30  H3  UNL     1      -8.917  -2.240   2.280  1.00  0.00     0.219 HD
ENDBRANCH  22  29
BRANCH  24  31
HETATM   31  C18 UNL     1      -8.527   0.181   2.345  1.00  0.00     0.127 C 
BRANCH  31  32
HETATM   32  C19 UNL     1      -9.790   0.221   1.611  1.00  0.00     0.111 A 
HETATM   33  N12 UNL     1     -10.265   1.249   0.899  1.00  0.00    -0.274 N 
HETATM   34  N13 UNL     1     -11.441   0.877   0.392  1.00  0.00    -0.007 NA
ATOM     35  H12 UNL     1      -9.811   2.153   0.768  1.00  0.00     0.185 HD
HETATM   36  N14 UNL     1     -11.717  -0.366   0.768  1.00  0.00    -0.007 NA
HETATM   37  N15 UNL     1     -10.693  -0.764   1.521  1.00  0.00    -0.274 N 
ATOM     38  H15 UNL     1     -10.609  -1.680   1.962  1.00  0.00     0.185 HD
ENDBRANCH  31  32
ENDBRANCH  24  31
ENDBRANCH  14  20
ENDBRANCH   8  11
ENDBRANCH   6   8
BRANCH   1  39
HETATM   39  C10 UNL     1       1.821   1.692  -1.474  1.00  0.00     0.119 A 
HETATM   40  C9  UNL     1       2.680   0.607  -1.657  1.00  0.00     0.147 A 
HETATM   41  N5  UNL     1       3.903   0.935  -1.214  1.00  0.00    -0.284 N 
HETATM   42  N18 UNL     1       3.838   2.155  -0.772  1.00  0.00    -0.240 N 
HETATM   43  N17 UNL     1       2.593   2.637  -0.916  1.00  0.00    -0.281 N 
ATOM     44  H18 UNL     1       4.621   2.673  -0.373  1.00  0.00     0.208 HD
ATOM     45  H17 UNL     1       2.284   3.571  -0.645  1.00  0.00     0.188 HD
BRANCH  41  46
HETATM   46  C8  UNL     1       5.102   0.104  -1.212  1.00  0.00     0.183 C 
BRANCH  46  47
HETATM   47  C7  UNL     1       5.211  -0.675   0.056  1.00  0.00     0.156 C 
BRANCH  47  48
HETATM   48  C6  UNL     1       6.446  -1.530   0.026  1.00  0.00     0.163 C 
BRANCH  48  49
HETATM   49  N4  UNL     1       7.668  -0.804  -0.153  1.00  0.00    -0.336 N 
HETATM   50  C3  UNL     1       8.417  -0.320   0.859  1.00  0.00     0.096 A 
HETATM   51  C2  UNL     1       8.272  -0.359   2.235  1.00  0.00     0.139 A 
HETATM   52  C4  UNL     1       9.521   0.318   0.349  1.00  0.00     0.150 A 
HETATM   53  N2  UNL     1       9.215   0.227   2.992  1.00  0.00    -0.200 N 
HETATM   54  C1  UNL     1      10.285   0.846   2.470  1.00  0.00     0.677 A 
ATOM     55  H2  UNL     1       9.113   0.200   4.007  1.00  0.00     0.183 HD
HETATM   56  N19 UNL     1      10.465   0.906   1.140  1.00  0.00    -0.175 N 
ATOM     57  H19 UNL     1      11.277   1.374   0.737  1.00  0.00     0.186 HD
HETATM   58  N3  UNL     1       9.428   0.212  -0.997  1.00  0.00    -0.336 N 
HETATM   59  C5  UNL     1       8.311  -0.464  -1.286  1.00  0.00     0.185 A 
ATOM     60  H3  UNL     1      10.095   0.583  -1.674  1.00  0.00     0.168 HD
BRANCH  54  61
HETATM   61  N1  UNL     1      11.166   1.396   3.265  1.00  0.00    -0.234 N 
ATOM     62  H12 UNL     1      11.029   1.350   4.275  1.00  0.00     0.174 HD
ATOM     63  H11 UNL     1      11.979   1.867   2.868  1.00  0.00     0.174 HD
ENDBRANCH  54  61
ENDBRANCH  48  49
ENDBRANCH  47  48
BRANCH  47  64
HETATM   64  O1  UNL     1       5.289   0.248   1.106  1.00  0.00    -0.392 OA
ATOM     65  H1  UNL     1       4.508   0.789   1.125  1.00  0.00     0.210 HD
ENDBRANCH  47  64
ENDBRANCH  46  47
ENDBRANCH  41  46
ENDBRANCH   1  39
TORSDOF 14
