REMARK  16 active torsions:
REMARK  status: ('A' for Active; 'I' for Inactive)
REMARK    1  A    between atoms: C2_2  and  O2_4 
REMARK    2  A    between atoms: O2_4  and  C3_5 
REMARK    3  A    between atoms: C3_5  and  C4_6 
REMARK    4  A    between atoms: N1_8  and  C6_9 
REMARK    5  A    between atoms: C6_9  and  N2_10 
REMARK    6  A    between atoms: N2_10  and  C7_13 
REMARK    7  A    between atoms: C7_13  and  C8_14 
REMARK    8  A    between atoms: C8_14  and  C9_15 
REMARK    9  A    between atoms: C9_15  and  C10_16 
REMARK   10  A    between atoms: C10_16  and  N3_17 
REMARK   11  A    between atoms: C10_16  and  C20_52 
REMARK   12  A    between atoms: N3_17  and  C11_19 
REMARK   13  A    between atoms: N10_33  and  N11_34 
REMARK   14  A    between atoms: N11_34  and  C15_36 
REMARK   15  A    between atoms: N14_45  and  N15_46 
REMARK   16  A    between atoms: C19_49  and  O4_50 
ROOT
HETATM    1  C11 UNL     1       0.890  -0.269   0.280  1.00  0.00     0.680 A 
HETATM    2  N4  UNL     1       1.984  -0.310  -0.419  1.00  0.00    -0.176 N 
ATOM      3  H4  UNL     1       1.920  -0.213  -1.432  1.00  0.00     0.182 HD
HETATM    4  C12 UNL     1       3.268  -0.485   0.168  1.00  0.00     0.249 A 
HETATM    5  N5  UNL     1       3.255  -0.637   1.608  1.00  0.00    -0.316 N 
ATOM      6  H5  UNL     1       4.146  -0.782   2.082  1.00  0.00     0.166 HD
HETATM    7  C13 UNL     1       2.219  -0.601   2.306  1.00  0.00     0.206 A 
HETATM    8  N6  UNL     1       2.248  -0.751   3.722  1.00  0.00    -0.063 NA
HETATM    9  N7  UNL     1       0.931  -0.411   1.688  1.00  0.00    -0.164 N 
ATOM     10  H7  UNL     1       0.078  -0.380   2.246  1.00  0.00     0.187 HD
HETATM   11  N8  UNL     1       4.080  -1.523  -0.413  1.00  0.00    -0.315 N 
ATOM     12  H8  UNL     1       3.726  -2.441  -0.681  1.00  0.00     0.166 HD
HETATM   13  C14 UNL     1       5.305  -1.155  -0.554  1.00  0.00     0.211 C 
HETATM   14  N9  UNL     1       6.307  -2.029  -1.113  1.00  0.00    -0.062 NA
HETATM   15  N10 UNL     1       5.495   0.180  -0.108  1.00  0.00    -0.227 N 
HETATM   16  C19 UNL     1       4.145   0.765  -0.122  1.00  0.00     0.316 C 
ENDROOT
BRANCH   1  17
HETATM   17  N3  UNL     1      -0.362  -0.088  -0.361  1.00  0.00    -0.212 N 
ATOM     18  H3  UNL     1      -0.479   0.806  -0.837  1.00  0.00     0.178 HD
BRANCH  17  19
HETATM   19  C10 UNL     1      -1.470  -0.957  -0.440  1.00  0.00     0.200 C 
BRANCH  19  20
HETATM   20  C9  UNL     1      -2.246  -1.224   0.805  1.00  0.00     0.038 C 
BRANCH  20  21
HETATM   21  C8  UNL     1      -2.831   0.007   1.425  1.00  0.00     0.030 C 
BRANCH  21  22
HETATM   22  C7  UNL     1      -3.774   0.778   0.572  1.00  0.00     0.234 C 
BRANCH  22  23
HETATM   23  N2  UNL     1      -4.940   0.090   0.136  1.00  0.00    -0.058 N 
ATOM     24  H22 UNL     1      -4.692  -0.759  -0.372  1.00  0.00     0.279 HD
ATOM     25  H21 UNL     1      -5.406   0.603  -0.613  1.00  0.00     0.279 HD
BRANCH  23  26
HETATM   26  C6  UNL     1      -5.865  -0.204   1.215  1.00  0.00     0.377 C 
BRANCH  26  27
HETATM   27  N1  UNL     1      -7.040  -0.875   0.742  1.00  0.00    -0.259 N 
HETATM   28  C5  UNL     1      -8.170  -0.263   0.329  1.00  0.00     0.138 A 
HETATM   29  C4  UNL     1      -9.072  -1.226  -0.058  1.00  0.00     0.065 A 
HETATM   30  N17 UNL     1      -8.451  -2.407   0.136  1.00  0.00    -0.285 N 
HETATM   31  N16 UNL     1      -7.241  -2.177   0.613  1.00  0.00    -0.019 NA
ATOM     32  H17 UNL     1      -8.850  -3.326  -0.054  1.00  0.00     0.184 HD
BRANCH  29  33
HETATM   33  C3  UNL     1     -10.436  -0.975  -0.577  1.00  0.00     0.238 C 
BRANCH  33  34
HETATM   34  O2  UNL     1     -10.658   0.376  -0.887  1.00  0.00    -0.316 OA
BRANCH  34  35
HETATM   35  C2  UNL     1      -9.965   1.095  -1.821  1.00  0.00     0.255 C 
HETATM   36  C1  UNL     1     -10.248   2.539  -2.102  1.00  0.00     0.126 C 
HETATM   37  O1  UNL     1      -9.055   0.546  -2.480  1.00  0.00    -0.266 OA
ENDBRANCH  34  35
ENDBRANCH  33  34
ENDBRANCH  29  33
ENDBRANCH  26  27
ENDBRANCH  23  26
ENDBRANCH  22  23
ENDBRANCH  21  22
ENDBRANCH  20  21
ENDBRANCH  19  20
BRANCH  19  38
HETATM   38  C20 UNL     1      -1.062  -2.299  -0.988  1.00  0.00     0.197 C 
HETATM   39  O5  UNL     1       0.120  -2.549  -1.309  1.00  0.00    -0.646 OA
HETATM   40  O6  UNL     1      -2.022  -3.276  -1.140  1.00  0.00    -0.646 OA
ENDBRANCH  19  38
ENDBRANCH  17  19
ENDBRANCH   1  17
BRANCH  16  41
HETATM   41  O4  UNL     1       3.950   1.614   0.947  1.00  0.00    -0.369 OA
ATOM     42  H4  UNL     1       4.486   2.378   0.770  1.00  0.00     0.212 HD
ENDBRANCH  16  41
BRANCH  15  43
HETATM   43  N11 UNL     1       6.671   0.819   0.258  1.00  0.00    -0.275 N 
ATOM     44  H11 UNL     1       6.721   1.150   1.222  1.00  0.00     0.189 HD
BRANCH  43  45
HETATM   45  C15 UNL     1       7.795   1.064  -0.535  1.00  0.00     0.174 A 
HETATM   46  C16 UNL     1       7.680   2.004  -1.565  1.00  0.00     0.161 A 
HETATM   47  N12 UNL     1       6.467   2.688  -1.846  1.00  0.00    -0.092 NA
HETATM   48  C17 UNL     1       8.763   2.303  -2.363  1.00  0.00     0.275 A 
HETATM   49  O3  UNL     1       8.672   3.148  -3.296  1.00  0.00    -0.266 OA
HETATM   50  N13 UNL     1       9.935   1.653  -2.110  1.00  0.00    -0.297 N 
HETATM   51  C18 UNL     1      10.017   0.754  -1.114  1.00  0.00     0.201 A 
ATOM     52  H13 UNL     1      10.756   1.851  -2.681  1.00  0.00     0.171 HD
HETATM   53  S1  UNL     1      11.454   0.008  -0.858  1.00  0.00    -0.038 SA
HETATM   54  N14 UNL     1       8.972   0.440  -0.315  1.00  0.00    -0.216 N 
BRANCH  54  55
HETATM   55  N15 UNL     1       9.136  -0.503   0.704  1.00  0.00    -0.335 N 
ATOM     56 2H15 UNL     1       8.348  -0.740   1.307  1.00  0.00     0.177 HD
ATOM     57 1H15 UNL     1      10.025  -0.974   0.870  1.00  0.00     0.177 HD
ENDBRANCH  54  55
ENDBRANCH  43  45
ENDBRANCH  15  43
TORSDOF 16
