REMARK  3 active torsions:
REMARK  status: ('A' for Active; 'I' for Inactive)
REMARK    1  A    between atoms: N1_2  and  C2_4 
REMARK    2  A    between atoms: C4_9  and  N4_10 
REMARK    3  A    between atoms: N5_14  and  N6_16 
ROOT
HETATM    1  C2  UNL     1       0.857  -0.900  -0.984  1.00  0.00     0.680 A 
HETATM    2  N2  UNL     1      -0.172  -1.670  -0.531  1.00  0.00    -0.176 N 
ATOM      3  H2  UNL     1      -0.278  -2.638  -0.835  1.00  0.00     0.185 HD
HETATM    4  C3  UNL     1      -1.050  -1.110   0.335  1.00  0.00     0.168 A 
HETATM    5  N3  UNL     1      -2.144  -1.891   0.832  1.00  0.00    -0.079 NA
HETATM    6  C4  UNL     1      -0.926   0.190   0.757  1.00  0.00     0.190 A 
HETATM    7  C5  UNL     1       0.111   0.950   0.297  1.00  0.00     0.172 A 
HETATM    8  N5  UNL     1       0.388   2.152   0.600  1.00  0.00    -0.289 N 
ATOM      9  H5  UNL     1       1.208   2.566   0.157  1.00  0.00     0.188 HD
HETATM   10  N7  UNL     1       0.984   0.348  -0.584  1.00  0.00    -0.173 N 
ATOM     11  H7  UNL     1       1.766   0.896  -0.943  1.00  0.00     0.186 HD
ENDROOT
BRANCH   6  12
HETATM   12  N4  UNL     1      -1.874   0.736   1.643  1.00  0.00    -0.108 N 
HETATM   13  O1  UNL     1      -1.831   0.504   2.890  1.00  0.00    -0.532 OA
HETATM   14  O2  UNL     1      -2.897   1.548   1.233  1.00  0.00    -0.532 OA
ENDBRANCH   6  12
BRANCH   8  15
HETATM   15  N6  UNL     1      -0.319   2.942   1.470  1.00  0.00    -0.344 N 
ATOM     16  H62 UNL     1      -1.136   2.511   1.903  1.00  0.00     0.176 HD
ATOM     17  H61 UNL     1      -0.097   3.907   1.713  1.00  0.00     0.176 HD
ENDBRANCH   8  15
BRANCH   1  18
HETATM   18  N1  UNL     1       1.655  -1.499  -1.804  1.00  0.00    -0.230 N 
HETATM   19  C1  UNL     1       2.791  -0.821  -2.373  1.00  0.00     0.165 C 
ATOM     20  H1  UNL     1       1.477  -2.472  -2.054  1.00  0.00     0.177 HD
ENDBRANCH   1  18
TORSDOF 3
