REMARK  4 active torsions:
REMARK  status: ('A' for Active; 'I' for Inactive)
REMARK    1  A    between atoms: N1_2  and  N2_3 
REMARK    2  A    between atoms: N1_2  and  C2_6 
REMARK    3  A    between atoms: C3_9  and  N4_10 
REMARK    4  A    between atoms: C5_17  and  N6_18 
ROOT
HETATM    1  C2  UNL     1       0.113   0.081   0.121  1.00  0.00     0.176 A 
HETATM    2  N3  UNL     1      -0.405   1.310   0.333  1.00  0.00    -0.173 N 
ATOM      3  H3  UNL     1       0.233   2.086   0.510  1.00  0.00     0.186 HD
HETATM    4  C3  UNL     1      -1.730   1.554   0.321  1.00  0.00     0.680 A 
HETATM    5  N5  UNL     1      -2.629   0.578   0.095  1.00  0.00    -0.154 N 
ATOM      6  H5  UNL     1      -3.629   0.777   0.089  1.00  0.00     0.187 HD
HETATM    7  C4  UNL     1      -2.170  -0.667  -0.122  1.00  0.00     0.296 A 
HETATM    8  O1  UNL     1      -3.013  -1.587  -0.337  1.00  0.00    -0.265 OA
HETATM    9  C5  UNL     1      -0.803  -0.923  -0.110  1.00  0.00     0.216 A 
ENDROOT
BRANCH   1  10
HETATM   10  N1  UNL     1       1.506  -0.182   0.132  1.00  0.00    -0.285 N 
HETATM   11  C1  UNL     1       2.297   0.399  -0.956  1.00  0.00     0.179 C 
BRANCH  10  12
HETATM   12  N2  UNL     1       2.108  -0.957   1.115  1.00  0.00    -0.342 N 
ATOM     13  H22 UNL     1       3.110  -1.146   1.123  1.00  0.00     0.177 HD
ATOM     14  H21 UNL     1       1.557  -1.361   1.872  1.00  0.00     0.177 HD
ENDBRANCH  10  12
ENDBRANCH   1  10
BRANCH   9  15
HETATM   15  N6  UNL     1      -0.380  -2.254  -0.338  1.00  0.00    -0.106 N 
HETATM   16  O2  UNL     1       0.174  -2.655  -1.377  1.00  0.00    -0.531 OA
HETATM   17  O3  UNL     1      -0.586  -3.206   0.652  1.00  0.00    -0.531 OA
ENDBRANCH   9  15
BRANCH   4  18
HETATM   18  N4  UNL     1      -2.189   2.734   0.528  1.00  0.00    -0.234 N 
ATOM     19  H42 UNL     1      -1.508   3.474   0.699  1.00  0.00     0.174 HD
ATOM     20  H41 UNL     1      -3.192   2.919   0.519  1.00  0.00     0.174 HD
ENDBRANCH   4  18
TORSDOF 4
