REMARK  4 active torsions:
REMARK  status: ('A' for Active; 'I' for Inactive)
REMARK    1  A    between atoms: N2_22  and  C18_23 
REMARK    2  A    between atoms: C18_23  and  N3_25 
REMARK    3  A    between atoms: N3_25  and  C19_27 
REMARK    4  A    between atoms: C22_33  and  C23_34 
ROOT
HETATM    1  C1  UNL     1      -1.570   0.961   4.872  1.00  0.00     0.068 C 
HETATM    2  C2  UNL     1      -0.910   0.861   3.542  1.00  0.00     0.007 A 
HETATM    3  C3  UNL     1       0.416   1.168   3.433  1.00  0.00     0.025 A 
HETATM    4  C4  UNL     1       1.069   1.090   2.221  1.00  0.00     0.016 A 
HETATM    5  C5  UNL     1       0.409   0.698   1.060  1.00  0.00     0.021 A 
HETATM    6  C6  UNL     1      -0.944   0.396   1.231  1.00  0.00     0.157 A 
HETATM    7  N1  UNL     1      -1.556   0.481   2.426  1.00  0.00    -0.340 N 
ATOM      8  H1  UNL     1      -2.547   0.248   2.488  1.00  0.00     0.167 HD
HETATM    9  O1  UNL     1      -1.921  -0.028   0.308  1.00  0.00    -0.291 OA
HETATM   10  C7  UNL     1      -1.875  -0.801  -0.844  1.00  0.00     0.104 A 
HETATM   11  C8  UNL     1      -0.848  -1.348  -1.598  1.00  0.00     0.067 A 
HETATM   12  C9  UNL     1      -1.168  -2.085  -2.719  1.00  0.00     0.021 A 
HETATM   13  C10 UNL     1      -2.457  -2.318  -3.144  1.00  0.00     0.013 A 
HETATM   14  C11 UNL     1      -3.477  -1.766  -2.380  1.00  0.00    -0.023 A 
HETATM   15  C12 UNL     1      -4.767  -1.971  -2.765  1.00  0.00     0.012 A 
HETATM   16  C13 UNL     1      -5.787  -1.432  -2.021  1.00  0.00     0.001 A 
HETATM   17  C14 UNL     1      -5.489  -0.692  -0.898  1.00  0.00     0.001 A 
HETATM   18  C15 UNL     1      -4.195  -0.466  -0.482  1.00  0.00     0.015 A 
HETATM   19  C16 UNL     1      -3.185  -1.024  -1.256  1.00  0.00     0.009 A 
HETATM   20  C17 UNL     1       0.594  -1.327  -1.480  1.00  0.00     0.263 C 
HETATM   21  O2  UNL     1       1.112  -2.219  -2.181  1.00  0.00    -0.267 OA
HETATM   22  N2  UNL     1       1.533  -0.512  -0.741  1.00  0.00    -0.276 N 
HETATM   23  C22 UNL     1       1.411   0.734  -0.014  1.00  0.00     0.166 C 
ENDROOT
BRANCH  22  24
HETATM   24  C18 UNL     1       2.812  -1.091  -0.765  1.00  0.00     0.183 C 
HETATM   25  S1  UNL     1       3.064  -2.483  -1.549  1.00  0.00    -0.040 SA
BRANCH  24  26
HETATM   26  N3  UNL     1       3.871  -0.446  -0.100  1.00  0.00    -0.313 N 
ATOM     27  H3  UNL     1       4.240   0.426  -0.478  1.00  0.00     0.170 HD
BRANCH  26  28
HETATM   28  C19 UNL     1       4.397  -0.945   1.002  1.00  0.00     0.150 A 
HETATM   29  N4  UNL     1       4.043  -2.066   1.634  1.00  0.00    -0.346 N 
HETATM   30  C20 UNL     1       4.683  -2.399   2.716  1.00  0.00     0.097 A 
ATOM     31  H4  UNL     1       3.287  -2.649   1.276  1.00  0.00     0.167 HD
HETATM   32  C21 UNL     1       5.687  -1.576   3.148  1.00  0.00     0.070 A 
HETATM   33  S2  UNL     1       5.669  -0.345   1.966  1.00  0.00    -0.064 SA
ENDBRANCH  26  28
ENDBRANCH  24  26
ENDBRANCH  22  24
BRANCH  23  34
HETATM   34  C23 UNL     1       1.154   1.869  -0.970  1.00  0.00    -0.030 A 
HETATM   35  C24 UNL     1       0.209   2.818  -0.741  1.00  0.00     0.009 A 
HETATM   36  C25 UNL     1       0.011   3.845  -1.655  1.00  0.00     0.001 A 
HETATM   37  C26 UNL     1       0.771   3.920  -2.816  1.00  0.00     0.000 A 
HETATM   38  C27 UNL     1       1.728   2.960  -3.050  1.00  0.00     0.001 A 
HETATM   39  C28 UNL     1       1.916   1.932  -2.119  1.00  0.00     0.009 A 
ENDBRANCH  23  34
TORSDOF 4
