REMARK  5 active torsions:
REMARK  status: ('A' for Active; 'I' for Inactive)
REMARK    1  A    between atoms: O1_2  and  C2_3 
REMARK    2  A    between atoms: C10_11  and  C11_12 
REMARK    3  A    between atoms: C11_12  and  N1_13 
REMARK    4  A    between atoms: C21_25  and  S1_26 
REMARK    5  A    between atoms: S1_26  and  N2_27 
ROOT
HETATM    1  C2  UNL     1       3.539  -1.482   3.474  1.00  0.00     0.079 A 
HETATM    2  C3  UNL     1       4.671  -1.845   2.742  1.00  0.00     0.037 A 
HETATM    3  C4  UNL     1       4.670  -1.595   1.402  1.00  0.00     0.004 A 
HETATM    4  C5  UNL     1       3.578  -0.993   0.775  1.00  0.00     0.013 A 
HETATM    5  C6  UNL     1       2.475  -0.626   1.495  1.00  0.00    -0.011 A 
HETATM    6  C7  UNL     1       2.479  -0.899   2.873  1.00  0.00     0.016 A 
HETATM    7  C8  UNL     1       1.312  -0.758   3.604  1.00  0.00    -0.028 A 
HETATM    8  C9  UNL     1       1.238  -1.059   5.042  1.00  0.00     0.050 C 
HETATM    9  C10 UNL     1       0.159  -0.350   2.941  1.00  0.00     0.045 A 
HETATM   10  C12 UNL     1       0.114  -0.088   1.627  1.00  0.00     0.007 A 
HETATM   11  C13 UNL     1      -1.035   0.269   1.012  1.00  0.00    -0.011 A 
HETATM   12  C14 UNL     1      -2.230   0.220   1.665  1.00  0.00     0.016 A 
HETATM   13  C15 UNL     1      -3.421   0.470   1.006  1.00  0.00     0.038 A 
HETATM   14  C16 UNL     1      -3.440   0.758  -0.336  1.00  0.00     0.081 A 
HETATM   15  C17 UNL     1      -2.218   0.790  -1.028  1.00  0.00     0.009 A 
HETATM   16  C18 UNL     1      -1.043   0.574  -0.388  1.00  0.00    -0.001 A 
HETATM   17  C19 UNL     1       0.143   0.552  -1.081  1.00  0.00    -0.011 A 
HETATM   18  C20 UNL     1       0.167   1.264  -2.257  1.00  0.00     0.038 A 
HETATM   19  C21 UNL     1       1.383   1.583  -2.850  1.00  0.00     0.080 A 
HETATM   20  C22 UNL     1       2.547   1.202  -2.258  1.00  0.00     0.026 A 
HETATM   21  C23 UNL     1       2.541   0.493  -1.061  1.00  0.00     0.015 A 
HETATM   22  C24 UNL     1       1.349   0.153  -0.461  1.00  0.00    -0.013 A 
HETATM   23  C25 UNL     1       1.342  -0.208   0.866  1.00  0.00    -0.001 A 
HETATM   24  C26 UNL     1      -2.318   0.599  -2.482  1.00  0.00     0.014 C 
HETATM   25  C27 UNL     1      -3.514   0.438  -3.037  1.00  0.00     0.012 C 
HETATM   26  C28 UNL     1      -4.783   0.435  -2.313  1.00  0.00     0.078 C 
HETATM   27  C29 UNL     1      -5.841   1.225  -3.076  1.00  0.00     0.051 C 
HETATM   28  C30 UNL     1      -5.292  -0.969  -2.086  1.00  0.00     0.051 C 
HETATM   29  O4  UNL     1      -4.602   1.015  -1.014  1.00  0.00    -0.336 OA
ENDROOT
BRANCH  19  30
HETATM   30  S1  UNL     1       1.402   2.470  -4.359  1.00  0.00     0.256 S 
HETATM   31  O2  UNL     1       2.626   3.339  -4.398  1.00  0.00    -0.201 OA
HETATM   32  O3  UNL     1       0.202   3.372  -4.389  1.00  0.00    -0.201 OA
BRANCH  30  33
HETATM   33  N2  UNL     1       1.375   1.411  -5.718  1.00  0.00    -0.324 N 
ATOM     34  H22 UNL     1       1.351   0.395  -5.637  1.00  0.00     0.169 HD
ATOM     35  H21 UNL     1       1.386   1.928  -6.597  1.00  0.00     0.169 HD
ENDBRANCH  30  33
ENDBRANCH  19  30
BRANCH   9  36
HETATM   36  C11 UNL     1      -0.862   0.177   3.869  1.00  0.00    -0.036 C 
BRANCH  36  37
HETATM   37  N1  UNL     1      -1.629   0.657   4.667  1.00  0.00    -0.365 N 
ATOM     38  H12 UNL     1      -0.743   1.090   4.929  1.00  0.00     0.165 HD
ATOM     39  H11 UNL     1      -2.334   1.021   5.308  1.00  0.00     0.165 HD
ENDBRANCH  36  37
ENDBRANCH   9  36
BRANCH   1  40
HETATM   40  O1  UNL     1       3.513  -1.729   4.848  1.00  0.00    -0.355 OA
HETATM   41  C1  UNL     1       4.642  -2.339   5.433  1.00  0.00     0.210 C 
ENDBRANCH   1  40
TORSDOF 5
