REMARK  0 active torsions:
REMARK  status: ('A' for Active; 'I' for Inactive)
ROOT
HETATM    1  O1  UNL     1       3.230  -1.590  -0.167  1.00  0.00    -0.262 OA
HETATM    2  C1  UNL     1       2.222  -0.853  -0.072  1.00  0.00     0.311 A 
HETATM    3  N1  UNL     1       2.385   0.455   0.166  1.00  0.00    -0.262 N 
ATOM      4  H1  UNL     1       3.321   0.847   0.269  1.00  0.00     0.190 HD
HETATM    5  N2  UNL     1       1.320   1.235   0.266  1.00  0.00    -0.282 N 
ATOM      6  H2  UNL     1       1.476   2.227   0.447  1.00  0.00     0.188 HD
HETATM    7  C2  UNL     1       0.053   0.819   0.147  1.00  0.00     0.141 A 
HETATM    8  N3  UNL     1      -1.010   1.644   0.256  1.00  0.00    -0.337 N 
ATOM      9  H3  UNL     1      -0.833   2.632   0.438  1.00  0.00     0.168 HD
HETATM   10  C3  UNL     1      -2.286   1.243   0.139  1.00  0.00     0.185 A 
HETATM   11  N4  UNL     1      -2.508  -0.060  -0.100  1.00  0.00    -0.319 N 
ATOM     12  H4  UNL     1      -3.466  -0.397  -0.193  1.00  0.00     0.169 HD
HETATM   13  C4  UNL     1      -1.471  -0.942  -0.220  1.00  0.00     0.264 A 
HETATM   14  O2  UNL     1      -1.667  -2.164  -0.444  1.00  0.00    -0.267 OA
HETATM   15  C5  UNL     1      -0.174  -0.523  -0.099  1.00  0.00     0.133 A 
HETATM   16  C6  UNL     1       0.941  -1.332  -0.203  1.00  0.00     0.260 A 
HETATM   17  O3  UNL     1       0.753  -2.555  -0.426  1.00  0.00    -0.281 OA
ENDROOT
TORSDOF 0
