REMARK  1 active torsions:
REMARK  status: ('A' for Active; 'I' for Inactive)
REMARK    1  A    between atoms: N1_1  and  C1_4 
ROOT
HETATM    1  C1  UNL     1       0.979   1.147  -0.070  1.00  0.00     0.134 A 
HETATM    2  N2  UNL     1       2.185   0.548   0.004  1.00  0.00    -0.293 N 
ATOM      3  H2  UNL     1       3.020   1.133  -0.023  1.00  0.00     0.172 HD
HETATM    4  C2  UNL     1       2.341  -0.784   0.112  1.00  0.00     0.327 A 
HETATM    5  O1  UNL     1       3.505  -1.289   0.177  1.00  0.00    -0.247 OA
HETATM    6  N3  UNL     1       1.232  -1.536   0.148  1.00  0.00    -0.292 N 
ATOM      7  H3  UNL     1       1.321  -2.549   0.231  1.00  0.00     0.172 HD
HETATM    8  C3  UNL     1      -0.000  -0.989   0.078  1.00  0.00     0.140 A 
HETATM    9  N4  UNL     1      -1.091  -1.790   0.118  1.00  0.00    -0.345 N 
ATOM     10  H4  UNL     1      -0.968  -2.799   0.200  1.00  0.00     0.167 HD
HETATM   11  C4  UNL     1      -2.330  -1.283   0.052  1.00  0.00     0.164 A 
HETATM   12  C5  UNL     1      -2.467   0.085  -0.060  1.00  0.00     0.261 A 
HETATM   13  O2  UNL     1      -3.627   0.617  -0.127  1.00  0.00    -0.267 OA
HETATM   14  N5  UNL     1      -1.393   0.895  -0.101  1.00  0.00    -0.316 N 
ATOM     15  H5  UNL     1      -1.522   1.903  -0.184  1.00  0.00     0.169 HD
HETATM   16  C6  UNL     1      -0.142   0.379  -0.033  1.00  0.00     0.124 A 
ENDROOT
BRANCH   1  17
HETATM   17  N1  UNL     1       0.938   2.403  -0.170  1.00  0.00    -0.383 N 
ATOM     18  H12 UNL     1       1.779   2.979  -0.198  1.00  0.00     0.157 HD
ATOM     19  H11 UNL     1       0.026   2.856  -0.226  1.00  0.00     0.157 HD
ENDBRANCH   1  17
TORSDOF 1
