REMARK  1 active torsions:
REMARK  status: ('A' for Active; 'I' for Inactive)
REMARK    1  A    between atoms: N1_1  and  C1_4 
ROOT
HETATM    1  C1  UNL     1      -2.117  -0.579  -0.022  1.00  0.00     0.680 A 
HETATM    2  N2  UNL     1      -1.950   0.752  -0.104  1.00  0.00    -0.155 N 
ATOM      3  H2  UNL     1      -2.781   1.340  -0.166  1.00  0.00     0.187 HD
HETATM    4  C2  UNL     1      -0.745   1.351  -0.109  1.00  0.00     0.273 A 
HETATM    5  O1  UNL     1      -0.611   2.595  -0.187  1.00  0.00    -0.267 OA
HETATM    6  C3  UNL     1       0.391   0.563  -0.026  1.00  0.00     0.084 A 
HETATM    7  C4  UNL     1       1.647   1.143  -0.029  1.00  0.00     0.096 A 
HETATM    8  C5  UNL     1       2.727   0.281   0.058  1.00  0.00     0.260 A 
HETATM    9  O2  UNL     1       3.904   0.740   0.061  1.00  0.00    -0.267 OA
HETATM   10  N3  UNL     1       2.516  -1.051   0.139  1.00  0.00    -0.265 N 
ATOM     11  H3  UNL     1       3.319  -1.676   0.202  1.00  0.00     0.190 HD
HETATM   12  N4  UNL     1       1.298  -1.569   0.139  1.00  0.00    -0.281 N 
ATOM     13  H4  UNL     1       1.192  -2.581   0.203  1.00  0.00     0.188 HD
HETATM   14  C6  UNL     1       0.199  -0.805   0.058  1.00  0.00     0.151 A 
HETATM   15  N5  UNL     1      -1.026  -1.366   0.061  1.00  0.00    -0.174 N 
ATOM     16  H5  UNL     1      -1.127  -2.379   0.126  1.00  0.00     0.186 HD
ENDROOT
BRANCH   1  17
HETATM   17  N1  UNL     1      -3.309  -1.125  -0.019  1.00  0.00    -0.234 N 
ATOM     18  H12 UNL     1      -4.135  -0.529  -0.082  1.00  0.00     0.174 HD
ATOM     19  H11 UNL     1      -3.436  -2.135   0.043  1.00  0.00     0.174 HD
ENDBRANCH   1  17
TORSDOF 1
