REMARK  0 active torsions:
REMARK  status: ('A' for Active; 'I' for Inactive)
ROOT
HETATM    1  O1  UNL     1      -2.865  -1.355  -0.011  1.00  0.00    -0.262 OA
HETATM    2  C1  UNL     1      -1.782  -0.717  -0.018  1.00  0.00     0.315 A 
HETATM    3  N1  UNL     1      -0.601  -1.345   0.086  1.00  0.00    -0.302 N 
ATOM      4  H1  UNL     1      -0.595  -2.361   0.171  1.00  0.00     0.171 HD
HETATM    5  C2  UNL     1       0.605  -0.678   0.083  1.00  0.00     0.146 A 
HETATM    6  N2  UNL     1       1.790  -1.278   0.184  1.00  0.00    -0.307 N 
ATOM      7  H2  UNL     1       1.979  -2.276   0.275  1.00  0.00     0.176 HD
HETATM    8  S1  UNL     1       2.902  -0.021   0.128  1.00  0.00     0.033 SA
HETATM    9  C3  UNL     1       1.824   1.288  -0.028  1.00  0.00     0.259 A 
HETATM   10  O2  UNL     1       2.078   2.547  -0.122  1.00  0.00    -0.276 OA
HETATM   11  C4  UNL     1       0.597   0.670  -0.030  1.00  0.00     0.139 A 
HETATM   12  N3  UNL     1      -0.603   1.342  -0.138  1.00  0.00    -0.312 N 
ATOM     13  H3  UNL     1      -0.616   2.358  -0.223  1.00  0.00     0.169 HD
HETATM   14  C5  UNL     1      -1.752   0.652  -0.130  1.00  0.00     0.314 A 
HETATM   15  O3  UNL     1      -2.882   1.232  -0.227  1.00  0.00    -0.262 OA
ENDROOT
TORSDOF 0
