REMARK  0 active torsions:
REMARK  status: ('A' for Active; 'I' for Inactive)
ROOT
HETATM    1  N1  UNL     1      -0.274   2.383   0.402  1.00  0.00    -0.385 N 
ATOM      2  H11 UNL     1      -1.235   2.512   0.718  1.00  0.00     0.157 HD
ATOM      3  H12 UNL     1       0.306   3.218   0.317  1.00  0.00     0.157 HD
HETATM    4  C1  UNL     1       0.114   1.179   0.140  1.00  0.00     0.136 C 
HETATM    5  N2  UNL     1       1.459   0.999  -0.302  1.00  0.00    -0.295 N 
ATOM      6  H2  UNL     1       1.940   1.771  -0.764  1.00  0.00     0.172 HD
HETATM    7  C2  UNL     1       2.145  -0.235  -0.113  1.00  0.00     0.328 C 
HETATM    8  O1  UNL     1       3.342  -0.408  -0.503  1.00  0.00    -0.247 OA
HETATM    9  N3  UNL     1       1.412  -1.267   0.539  1.00  0.00    -0.275 N 
ATOM     10  H3  UNL     1       1.855  -2.172   0.700  1.00  0.00     0.173 HD
HETATM   11  C3  UNL     1       0.071  -1.058   0.970  1.00  0.00     0.281 C 
HETATM   12  O2  UNL     1      -0.448  -1.714   1.909  1.00  0.00    -0.268 OA
HETATM   13  C4  UNL     1      -0.717  -0.018   0.262  1.00  0.00     0.307 A 
HETATM   14  O3  UNL     1      -2.011   0.150   0.697  1.00  0.00    -0.238 OA
HETATM   15  N4  UNL     1      -2.445  -0.288  -0.525  1.00  0.00    -0.229 N 
ATOM     16  H4  UNL     1      -3.379  -0.396  -0.920  1.00  0.00     0.197 HD
HETATM   17  C5  UNL     1      -1.157  -0.541  -1.054  1.00  0.00     0.296 A 
HETATM   18  O4  UNL     1      -0.694  -0.990  -2.126  1.00  0.00    -0.267 OA
ENDROOT
TORSDOF 0
