REMARK  4 active torsions:
REMARK  status: ('A' for Active; 'I' for Inactive)
REMARK    1  A    between atoms: N3_4  and  N4_6 
REMARK    2  A    between atoms: N4_6  and  C2_8 
REMARK    3  A    between atoms: C2_8  and  N5_10 
REMARK    4  A    between atoms: C3_12  and  O1_14 
ROOT
HETATM    1  C2  UNL     1       0.952   0.434  -1.249  1.00  0.00     0.193 C 
HETATM    2  S1  UNL     1       0.736   1.609  -2.364  1.00  0.00    -0.039 SA
ENDROOT
BRANCH   1   3
HETATM    3  N4  UNL     1      -0.185  -0.088  -0.599  1.00  0.00    -0.274 N 
ATOM      4  H4  UNL     1      -0.048  -0.822   0.096  1.00  0.00     0.189 HD
BRANCH   3   5
HETATM    5  N3  UNL     1      -1.476   0.341  -0.852  1.00  0.00    -0.274 N 
HETATM    6  C1  UNL     1      -2.472  -0.190  -0.258  1.00  0.00     0.215 C 
HETATM    7  N1  UNL     1      -2.241  -1.230   0.668  1.00  0.00    -0.065 NA
HETATM    8  N2  UNL     1      -3.773   0.283  -0.550  1.00  0.00    -0.065 NA
ATOM      9  H3  UNL     1      -1.633   1.093  -1.523  1.00  0.00     0.189 HD
ENDBRANCH   3   5
ENDBRANCH   1   3
BRANCH   1  10
HETATM   10  N5  UNL     1       2.246  -0.055  -0.938  1.00  0.00    -0.300 N 
HETATM   11  C3  UNL     1       2.957   0.567  -0.032  1.00  0.00     0.231 C 
HETATM   12  N6  UNL     1       4.245   0.041   0.245  1.00  0.00    -0.056 NA
ATOM     13  H5  UNL     1       2.617  -0.878  -1.413  1.00  0.00     0.171 HD
BRANCH  11  14
HETATM   14  O1  UNL     1       2.450   1.686   0.612  1.00  0.00    -0.335 OA
ATOM     15  H1  UNL     1       2.966   2.137   1.270  1.00  0.00     0.220 HD
ENDBRANCH  11  14
ENDBRANCH   1  10
TORSDOF 4
