REMARK  4 active torsions:
REMARK  status: ('A' for Active; 'I' for Inactive)
REMARK    1  A    between atoms: C1_2  and  C2_4 
REMARK       I    between atoms: C2_4  and  N2_6 
REMARK    2  A    between atoms: N2_6  and  N3_8 
REMARK    3  A    between atoms: N3_8  and  C3_10 
REMARK    4  A    between atoms: C3_10  and  N4_12 
ROOT
HETATM    1  N3  UNL     1       0.024  -1.108   0.927  1.00  0.00    -0.273 N 
ATOM      2  H3  UNL     1       0.308  -1.101   1.907  1.00  0.00     0.189 HD
ENDROOT
BRANCH   1   3
HETATM    3  N2  UNL     1      -1.331  -1.202   0.666  1.00  0.00    -0.260 N 
HETATM    4  C2  UNL     1      -2.156  -0.086   0.370  1.00  0.00     0.325 C 
HETATM    5  O2  UNL     1      -1.634   1.055   0.336  1.00  0.00    -0.261 OA
ATOM      6  H2  UNL     1      -1.762  -2.126   0.688  1.00  0.00     0.190 HD
BRANCH   4   7
HETATM    7  C1  UNL     1      -3.583  -0.210   0.104  1.00  0.00     0.324 C 
HETATM    8  N1  UNL     1      -4.406   0.893  -0.193  1.00  0.00    -0.053 NA
HETATM    9  O1  UNL     1      -4.148  -1.358   0.132  1.00  0.00    -0.266 OA
ENDBRANCH   4   7
ENDBRANCH   1   3
BRANCH   1  10
HETATM   10  C3  UNL     1       1.051  -1.021  -0.040  1.00  0.00     0.192 C 
HETATM   11  S1  UNL     1       0.647  -1.036  -1.618  1.00  0.00    -0.039 SA
BRANCH  10  12
HETATM   12  N4  UNL     1       2.419  -0.922   0.324  1.00  0.00    -0.309 N 
HETATM   13  C4  UNL     1       3.079   0.163   0.119  1.00  0.00     0.203 C 
HETATM   14  N5  UNL     1       4.443   0.263   0.482  1.00  0.00    -0.066 NA
HETATM   15  N6  UNL     1       2.383   1.250  -0.487  1.00  0.00    -0.066 NA
ATOM     16  H4  UNL     1       2.885  -1.721   0.754  1.00  0.00     0.170 HD
ENDBRANCH  10  12
ENDBRANCH   1  10
TORSDOF 4
