REMARK  5 active torsions:
REMARK  status: ('A' for Active; 'I' for Inactive)
REMARK    1  A    between atoms: C2_10  and  N5_11 
REMARK    2  A    between atoms: N5_11  and  N6_13 
REMARK    3  A    between atoms: N7_15  and  O1_17 
REMARK    4  A    between atoms: O1_17  and  C3_18 
REMARK    5  A    between atoms: C5_20  and  O2_21 
ROOT
HETATM    1  N5  UNL     1       1.918  -0.554   0.650  1.00  0.00    -0.099 N 
ATOM      2  H5  UNL     1       1.134  -1.202   0.580  1.00  0.00     0.208 HD
ENDROOT
BRANCH   1   3
HETATM    3  C2  UNL     1       3.110  -0.821  -0.084  1.00  0.00     0.735 A 
HETATM    4  N2  UNL     1       3.744   0.078  -0.989  1.00  0.00    -0.084 N 
HETATM    5  N1  UNL     1       3.363   1.262  -1.297  1.00  0.00    -0.323 N 
HETATM    6  C1  UNL     1       4.907  -0.573  -1.512  1.00  0.00     0.241 A 
ATOM      7  H12 UNL     1       3.817   1.906  -1.945  1.00  0.00     0.178 HD
ATOM      8  H11 UNL     1       2.534   1.726  -0.924  1.00  0.00     0.178 HD
HETATM    9  N3  UNL     1       4.916  -1.731  -0.946  1.00  0.00    -0.279 N 
HETATM   10  N4  UNL     1       3.838  -1.883  -0.088  1.00  0.00    -0.128 N 
ATOM     11  H3  UNL     1       5.626  -2.445  -1.109  1.00  0.00     0.188 HD
ATOM     12  H4  UNL     1       3.648  -2.720   0.463  1.00  0.00     0.205 HD
ENDBRANCH   1   3
BRANCH   1  13
HETATM   13  N6  UNL     1       1.800   0.573   1.461  1.00  0.00    -0.121 N 
HETATM   14  S1  UNL     1       3.244   1.468   1.973  1.00  0.00     0.091 SA
HETATM   15  N7  UNL     1       0.675   0.990   1.854  1.00  0.00    -0.176 N 
ATOM     16  H7  UNL     1       0.600   1.817   2.447  1.00  0.00     0.218 HD
BRANCH  15  17
HETATM   17  O1  UNL     1      -0.443   0.300   1.461  1.00  0.00    -0.230 OA
BRANCH  17  18
HETATM   18  C3  UNL     1      -1.397   0.811   0.552  1.00  0.00     0.292 C 
HETATM   19  C4  UNL     1      -2.721   0.889   1.245  1.00  0.00     0.097 C 
HETATM   20  C5  UNL     1      -3.585  -0.124   0.567  1.00  0.00     0.146 C 
HETATM   21  C6  UNL     1      -2.568  -0.924  -0.228  1.00  0.00     0.203 C 
HETATM   22  O3  UNL     1      -1.537  -0.045  -0.529  1.00  0.00    -0.356 OA
BRANCH  20  23
HETATM   23  O2  UNL     1      -4.445   0.479  -0.334  1.00  0.00    -0.393 OA
ATOM     24  H2  UNL     1      -4.994  -0.165  -0.765  1.00  0.00     0.210 HD
ENDBRANCH  20  23
ENDBRANCH  17  18
ENDBRANCH  15  17
ENDBRANCH   1  13
TORSDOF 5
