REMARK  4 active torsions:
REMARK  status: ('A' for Active; 'I' for Inactive)
REMARK       I    between atoms: C1_2  and  N1_3 
REMARK       I    between atoms: C1_2  and  N3_13 
REMARK    1  A    between atoms: N1_3  and  C2_5 
REMARK    2  A    between atoms: C4_8  and  O3_9 
REMARK    3  A    between atoms: O3_9  and  N2_10 
REMARK    4  A    between atoms: N3_13  and  S1_15 
ROOT
HETATM    1  O1  UNL     1       1.692  -1.391  -0.081  1.00  0.00    -0.246 OA
HETATM    2  C1  UNL     1       1.550  -0.169   0.127  1.00  0.00     0.332 C 
HETATM    3  N1  UNL     1       0.284   0.411  -0.084  1.00  0.00    -0.328 N 
ATOM      4  H1  UNL     1       0.179   1.411   0.089  1.00  0.00     0.165 HD
HETATM    5  N3  UNL     1       2.650   0.595   0.565  1.00  0.00    -0.217 N 
ATOM      6  H3  UNL     1       2.534   1.594   0.735  1.00  0.00     0.186 HD
ENDROOT
BRANCH   3   7
HETATM    7  C2  UNL     1      -0.878  -0.328  -0.532  1.00  0.00     0.198 A 
HETATM    8  C3  UNL     1      -1.765   0.336  -1.492  1.00  0.00     0.186 A 
HETATM    9  O2  UNL     1      -2.160   0.814  -2.559  1.00  0.00    -0.293 OA
HETATM   10  C4  UNL     1      -2.181   0.102  -0.039  1.00  0.00     0.260 A 
BRANCH  10  11
HETATM   11  O3  UNL     1      -3.295  -0.726   0.048  1.00  0.00    -0.205 OA
BRANCH  11  12
HETATM   12  N2  UNL     1      -4.325  -0.401   0.881  1.00  0.00     0.005 N 
HETATM   13  O4  UNL     1      -4.969   0.642   0.712  1.00  0.00    -0.511 OA
HETATM   14  O5  UNL     1      -4.643  -1.240   1.911  1.00  0.00    -0.511 OA
ENDBRANCH  11  12
ENDBRANCH  10  11
ENDBRANCH   3   7
BRANCH   5  15
HETATM   15  S1  UNL     1       4.198  -0.142   0.818  1.00  0.00     0.212 S 
HETATM   16  O6  UNL     1       4.283  -0.617   2.245  1.00  0.00    -0.578 OA
HETATM   17  O7  UNL     1       5.312   0.870   0.632  1.00  0.00    -0.578 OA
HETATM   18  O8  UNL     1       4.417  -1.402  -0.271  1.00  0.00    -0.578 OA
ENDBRANCH   5  15
TORSDOF 4
