REMARK  4 active torsions:
REMARK  status: ('A' for Active; 'I' for Inactive)
REMARK    1  A    between atoms: C5_5  and  N1_6 
REMARK    2  A    between atoms: N1_6  and  C6_8 
REMARK    3  A    between atoms: C6_8  and  N2_10 
REMARK    4  A    between atoms: N2_10  and  C7_12 
ROOT
HETATM    1  N1  UNL     1      -0.145   1.005   0.002  1.00  0.00    -0.363 N 
ATOM      2  H1  UNL     1      -0.258   1.930  -0.413  1.00  0.00     0.162 HD
ENDROOT
BRANCH   1   3
HETATM    3  C5  UNL     1       1.169   0.599   0.470  1.00  0.00     0.083 C 
HETATM    4  C4  UNL     1       2.141   1.768   0.252  1.00  0.00     0.025 C 
HETATM    5  C3  UNL     1       3.438   1.274   0.865  1.00  0.00     0.006 C 
HETATM    6  C2  UNL     1       4.007   0.292  -0.111  1.00  0.00    -0.019 C 
HETATM    7  C1  UNL     1       5.073  -0.566   0.587  1.00  0.00     0.010 C 
HETATM    8  C12 UNL     1       3.013  -0.548  -0.812  1.00  0.00     0.006 C 
HETATM    9  C11 UNL     1       1.664  -0.653  -0.185  1.00  0.00     0.025 C 
ENDBRANCH   1   3
BRANCH   1  10
HETATM   10  C6  UNL     1      -1.277   0.155   0.104  1.00  0.00     0.168 C 
HETATM   11  S1  UNL     1      -1.065  -1.318   0.781  1.00  0.00    -0.041 SA
BRANCH  10  12
HETATM   12  N2  UNL     1      -2.554   0.577  -0.365  1.00  0.00    -0.359 N 
ATOM     13  H2  UNL     1      -2.659   1.503  -0.780  1.00  0.00     0.162 HD
BRANCH  12  14
HETATM   14  C7  UNL     1      -3.710  -0.299  -0.258  1.00  0.00     0.021 C 
HETATM   15  C8  UNL     1      -3.502  -1.587  -1.012  1.00  0.00     0.037 C 
HETATM   16  C9  UNL     1      -4.904   0.431  -0.840  1.00  0.00     0.037 C 
HETATM   17  C10 UNL     1      -4.014  -0.647   1.174  1.00  0.00     0.037 C 
ENDBRANCH  12  14
ENDBRANCH  10  12
ENDBRANCH   1  10
TORSDOF 4
