REMARK  8 active torsions:
REMARK  status: ('A' for Active; 'I' for Inactive)
REMARK    1  A    between atoms: C1_2  and  C2_3 
REMARK       I    between atoms: C1_2  and  N3_14 
REMARK    2  A    between atoms: C2_3  and  C3_4 
REMARK    3  A    between atoms: C3_4  and  C4_5 
REMARK    4  A    between atoms: C4_5  and  N1_6 
REMARK    5  A    between atoms: N3_14  and  C9_16 
REMARK    6  A    between atoms: C9_16  and  C10_17 
REMARK    7  A    between atoms: C10_17  and  C11_18 
REMARK    8  A    between atoms: C11_18  and  C12_19 
ROOT
HETATM    1  O1  UNL     1      -1.439  -2.365  -0.772  1.00  0.00    -0.274 OA
HETATM    2  C1  UNL     1      -1.225  -1.327  -1.470  1.00  0.00     0.217 C 
HETATM    3  N3  UNL     1       0.036  -1.077  -2.068  1.00  0.00    -0.361 N 
ATOM      4  H3  UNL     1       0.197  -0.239  -2.627  1.00  0.00     0.162 HD
ENDROOT
BRANCH   3   5
HETATM    5  C9  UNL     1       1.089  -2.052  -1.859  1.00  0.00     0.122 C 
BRANCH   5   6
HETATM    6  C10 UNL     1       2.329  -1.602  -2.570  1.00  0.00     0.020 C 
BRANCH   6   7
HETATM    7  C11 UNL     1       2.812  -0.290  -2.155  1.00  0.00     0.011 C 
BRANCH   7   8
HETATM    8  C12 UNL     1       3.222   0.004  -0.770  1.00  0.00    -0.039 C 
HETATM    9  C13 UNL     1       4.333  -0.948  -0.362  1.00  0.00     0.014 C 
HETATM   10  C14 UNL     1       4.965  -0.528   0.924  1.00  0.00    -0.013 C 
HETATM   11  C15 UNL     1       3.904  -0.449   1.978  1.00  0.00     0.009 C 
HETATM   12  C19 UNL     1       5.655   0.805   0.711  1.00  0.00     0.009 C 
HETATM   13  C16 UNL     1       2.893   0.577   1.590  1.00  0.00    -0.013 C 
HETATM   14  C17 UNL     1       3.530   1.915   1.424  1.00  0.00     0.009 C 
HETATM   15  C21 UNL     1       2.200   0.231   0.264  1.00  0.00     0.014 C 
HETATM   16  C18 UNL     1       4.593   1.792   0.351  1.00  0.00    -0.013 C 
HETATM   17  C20 UNL     1       3.936   1.404  -0.916  1.00  0.00     0.014 C 
ENDBRANCH   7   8
ENDBRANCH   6   7
ENDBRANCH   5   6
ENDBRANCH   3   5
BRANCH   2  18
HETATM   18  C2  UNL     1      -2.307  -0.327  -1.685  1.00  0.00     0.104 C 
BRANCH  18  19
HETATM   19  C3  UNL     1      -3.532  -0.794  -0.969  1.00  0.00     0.029 C 
BRANCH  19  20
HETATM   20  C4  UNL     1      -4.626   0.246  -1.203  1.00  0.00     0.121 C 
BRANCH  20  21
HETATM   21  N1  UNL     1      -5.804  -0.226  -0.502  1.00  0.00    -0.380 N 
HETATM   22  C5  UNL     1      -5.994   0.010   0.738  1.00  0.00     0.072 C 
HETATM   23  C6  UNL     1      -7.210  -0.472   1.480  1.00  0.00     0.077 C 
HETATM   24  N2  UNL     1      -5.216   0.714   1.692  1.00  0.00    -0.380 N 
HETATM   25  C7  UNL     1      -7.257   0.357   2.724  1.00  0.00     0.027 C 
HETATM   26  C8  UNL     1      -6.069   1.266   2.730  1.00  0.00     0.121 C 
ATOM     27  H2  UNL     1      -4.202   0.818   1.655  1.00  0.00     0.160 HD
ATOM     28  H1  UNL     1      -6.503  -0.763  -1.016  1.00  0.00     0.160 HD
ENDBRANCH  20  21
ENDBRANCH  19  20
ENDBRANCH  18  19
ENDBRANCH   2  18
TORSDOF 8
