REMARK  11 active torsions:
REMARK  status: ('A' for Active; 'I' for Inactive)
REMARK    1  A    between atoms: C2_2  and  C3_3 
REMARK    2  A    between atoms: C3_3  and  O1_4 
REMARK    3  A    between atoms: C7_9  and  C8_10 
REMARK    4  A    between atoms: C9_11  and  C10_12 
REMARK    5  A    between atoms: C10_12  and  O2_13 
REMARK    6  A    between atoms: C15_19  and  C17_21 
REMARK    7  A    between atoms: C17_21  and  C18_22 
REMARK    8  A    between atoms: C23_27  and  O3_28 
REMARK    9  A    between atoms: C23_27  and  C24_30 
REMARK   10  A    between atoms: C24_30  and  O5_32 
REMARK   11  A    between atoms: C26_34  and  O6_35 
ROOT
HETATM    1  C10 UNL     1      -0.184  -1.012  -0.744  1.00  0.00     0.105 C 
HETATM    2  C11 UNL     1      -0.123  -1.994  -1.844  1.00  0.00     0.022 C 
HETATM    3  C12 UNL     1      -1.011  -1.717  -3.023  1.00  0.00     0.013 C 
HETATM    4  C13 UNL     1       1.263  -2.299  -2.364  1.00  0.00     0.008 C 
HETATM    5  C14 UNL     1       2.325  -1.796  -1.383  1.00  0.00     0.012 C 
HETATM    6  C15 UNL     1       2.211  -0.325  -1.220  1.00  0.00    -0.014 C 
HETATM    7  C16 UNL     1       2.337   0.327  -2.618  1.00  0.00     0.018 C 
HETATM    8  C26 UNL     1       0.841   0.074  -0.723  1.00  0.00     0.165 C 
ENDROOT
BRANCH   1   9
HETATM    9  C9  UNL     1      -1.552  -0.398  -0.741  1.00  0.00     0.010 C 
HETATM   10  C8  UNL     1      -2.285  -0.296   0.363  1.00  0.00    -0.020 C 
BRANCH  10  11
HETATM   11  C7  UNL     1      -3.624   0.300   0.392  1.00  0.00     0.047 C 
HETATM   12  C3  UNL     1      -4.717  -0.663   0.778  1.00  0.00     0.065 C 
HETATM   13  C4  UNL     1      -5.777   0.156   1.453  1.00  0.00     0.044 C 
HETATM   14  C5  UNL     1      -5.129   1.438   1.900  1.00  0.00     0.002 A 
HETATM   15  C6  UNL     1      -3.754   1.493   1.293  1.00  0.00     0.009 A 
HETATM   16  C27 UNL     1      -4.790   2.522   0.981  1.00  0.00    -0.039 A 
HETATM   17  C28 UNL     1      -4.619   3.902   1.593  1.00  0.00     0.015 C 
HETATM   18  C29 UNL     1      -5.404   2.555  -0.410  1.00  0.00     0.015 C 
BRANCH  12  19
HETATM   19  C2  UNL     1      -5.267  -1.375  -0.453  1.00  0.00     0.034 C 
HETATM   20  C1  UNL     1      -6.346  -2.350  -0.092  1.00  0.00     0.008 C 
ENDBRANCH  12  19
BRANCH  12  21
HETATM   21  O1  UNL     1      -4.185  -1.589   1.660  1.00  0.00    -0.389 OA
ATOM     22  H1  UNL     1      -3.842  -1.145   2.427  1.00  0.00     0.210 HD
ENDBRANCH  12  21
ENDBRANCH  10  11
ENDBRANCH   1   9
BRANCH   1  23
HETATM   23  O2  UNL     1      -0.089  -1.714   0.483  1.00  0.00    -0.383 OA
ATOM     24  H2  UNL     1       0.778  -2.103   0.481  1.00  0.00     0.211 HD
ENDBRANCH   1  23
BRANCH   8  25
HETATM   25  O6  UNL     1       0.417   1.240  -1.359  1.00  0.00    -0.391 OA
ATOM     26  H6  UNL     1       1.069   1.931  -1.346  1.00  0.00     0.210 HD
ENDBRANCH   8  25
BRANCH   6  27
HETATM   27  C17 UNL     1       3.327   0.309  -0.467  1.00  0.00     0.020 C 
BRANCH  27  28
HETATM   28  C18 UNL     1       3.607  -0.073   0.921  1.00  0.00     0.032 C 
HETATM   29  C19 UNL     1       3.985  -1.490   1.174  1.00  0.00     0.013 C 
HETATM   30  C20 UNL     1       5.125  -1.484   2.168  1.00  0.00    -0.006 A 
HETATM   31  C21 UNL     1       6.458  -1.067   1.659  1.00  0.00     0.013 A 
HETATM   32  C22 UNL     1       5.579  -0.108   2.350  1.00  0.00     0.035 A 
HETATM   33  C23 UNL     1       4.646   0.801   1.583  1.00  0.00     0.153 C 
BRANCH  33  34
HETATM   34  O3  UNL     1       4.031   1.652   2.535  1.00  0.00    -0.379 OA
ATOM     35  H3  UNL     1       4.684   2.202   2.951  1.00  0.00     0.211 HD
ENDBRANCH  33  34
BRANCH  33  36
HETATM   36  C24 UNL     1       5.448   1.623   0.690  1.00  0.00     0.294 C 
HETATM   37  O4  UNL     1       5.418   2.895   0.830  1.00  0.00    -0.262 OA
BRANCH  36  38
HETATM   38  O5  UNL     1       6.274   1.165  -0.336  1.00  0.00    -0.324 OA
HETATM   39  C25 UNL     1       7.008   2.062  -1.139  1.00  0.00     0.213 C 
ENDBRANCH  36  38
ENDBRANCH  33  36
ENDBRANCH  27  28
ENDBRANCH   6  27
TORSDOF 11
