REMARK  6 active torsions:
REMARK  status: ('A' for Active; 'I' for Inactive)
REMARK    1  A    between atoms: C4_9  and  C5_10 
REMARK    2  A    between atoms: C5_10  and  C6_11 
REMARK    3  A    between atoms: C5_10  and  C12_17 
REMARK    4  A    between atoms: N3_20  and  C14_21 
REMARK    5  A    between atoms: C14_21  and  C15_22 
REMARK    6  A    between atoms: N4_35  and  O5_36 
ROOT
HETATM    1  C12 UNL     1      -0.200  -0.098   0.499  1.00  0.00     0.143 C 
HETATM    2  C13 UNL     1       0.974  -0.563  -0.121  1.00  0.00     0.281 C 
HETATM    3  O2  UNL     1       0.767  -1.075  -1.266  1.00  0.00    -0.265 OA
HETATM    4  N3  UNL     1       2.262  -0.581   0.235  1.00  0.00    -0.272 N 
HETATM    5  C19 UNL     1       2.830   0.272   1.102  1.00  0.00     0.263 C 
HETATM    6  O4  UNL     1       4.072   0.194   1.163  1.00  0.00    -0.267 OA
HETATM    7  C20 UNL     1       2.225   1.220   1.934  1.00  0.00     0.061 A 
HETATM    8  C21 UNL     1       3.185   1.988   2.549  1.00  0.00     0.019 A 
HETATM    9  C22 UNL     1       2.739   2.978   3.414  1.00  0.00     0.001 A 
HETATM   10  C23 UNL     1       1.401   3.194   3.658  1.00  0.00     0.002 A 
HETATM   11  C24 UNL     1       0.492   2.385   3.006  1.00  0.00     0.033 A 
HETATM   12  C25 UNL     1       0.877   1.390   2.138  1.00  0.00     0.079 A 
HETATM   13  N4  UNL     1      -0.145   0.688   1.586  1.00  0.00    -0.218 N 
ENDROOT
BRANCH   1  14
HETATM   14  C5  UNL     1      -1.465  -0.508  -0.112  1.00  0.00     0.027 C 
BRANCH  14  15
HETATM   15  C4  UNL     1      -1.771   0.180  -1.381  1.00  0.00     0.070 A 
HETATM   16  C2  UNL     1      -2.452  -0.333  -2.440  1.00  0.00     0.038 A 
HETATM   17  C1  UNL     1      -3.060  -1.679  -2.640  1.00  0.00     0.071 C 
HETATM   18  N1  UNL     1      -2.508   0.631  -3.382  1.00  0.00    -0.301 N 
HETATM   19  N2  UNL     1      -1.880   1.721  -2.931  1.00  0.00    -0.266 N 
ATOM     20  H1  UNL     1      -2.958   0.542  -4.293  1.00  0.00     0.186 HD
HETATM   21  C3  UNL     1      -1.415   1.468  -1.694  1.00  0.00     0.273 A 
ATOM     22  H2  UNL     1      -1.771   2.598  -3.440  1.00  0.00     0.190 HD
HETATM   23  O1  UNL     1      -0.772   2.316  -1.004  1.00  0.00    -0.266 OA
ENDBRANCH  14  15
BRANCH  14  24
HETATM   24  C6  UNL     1      -2.621  -0.725   0.750  1.00  0.00    -0.022 A 
HETATM   25  C7  UNL     1      -2.685  -1.822   1.605  1.00  0.00     0.012 A 
HETATM   26  C8  UNL     1      -3.777  -2.072   2.408  1.00  0.00     0.001 A 
HETATM   27  C9  UNL     1      -4.869  -1.217   2.388  1.00  0.00     0.000 A 
HETATM   28  C10 UNL     1      -4.846  -0.126   1.560  1.00  0.00     0.001 A 
HETATM   29  C11 UNL     1      -3.759   0.094   0.782  1.00  0.00     0.012 A 
ENDBRANCH  14  24
ENDBRANCH   1  14
BRANCH  13  30
HETATM   30  O5  UNL     1      -1.296   0.832   2.282  1.00  0.00    -0.282 OA
ATOM     31  H5  UNL     1      -1.257   1.388   3.051  1.00  0.00     0.245 HD
ENDBRANCH  13  30
BRANCH   4  32
HETATM   32  C14 UNL     1       3.092  -1.597  -0.345  1.00  0.00     0.200 C 
BRANCH  32  33
HETATM   33  C15 UNL     1       3.733  -1.273  -1.607  1.00  0.00     0.070 A 
HETATM   34  C16 UNL     1       4.986  -0.772  -1.809  1.00  0.00     0.036 A 
HETATM   35  C17 UNL     1       5.156  -0.626  -3.166  1.00  0.00     0.027 A 
HETATM   36  C18 UNL     1       3.996  -1.044  -3.744  1.00  0.00     0.142 A 
HETATM   37  O3  UNL     1       3.188  -1.416  -2.799  1.00  0.00    -0.325 OA
ENDBRANCH  32  33
ENDBRANCH   4  32
TORSDOF 6
