REMARK  6 active torsions:
REMARK  status: ('A' for Active; 'I' for Inactive)
REMARK    1  A    between atoms: C3_4  and  N1_5 
REMARK       I    between atoms: N1_5  and  C4_7 
REMARK    2  A    between atoms: C4_7  and  C5_9 
REMARK    3  A    between atoms: C5_9  and  C6_10 
REMARK    4  A    between atoms: C12_18  and  C13_19 
REMARK    5  A    between atoms: C13_19  and  C14_20 
REMARK    6  A    between atoms: C14_20  and  C15_21 
REMARK       I    between atoms: C15_21  and  N3_23 
ROOT
HETATM    1  C1  UNL     1       0.829  -4.976   0.004  1.00  0.00     0.058 C 
HETATM    2  C2  UNL     1       1.561  -3.682   0.250  1.00  0.00     0.005 A 
HETATM    3  S1  UNL     1       2.711  -3.289   1.449  1.00  0.00    -0.057 SA
HETATM    4  C3  UNL     1       3.022  -1.678   0.985  1.00  0.00     0.151 A 
HETATM    5  N2  UNL     1       2.229  -1.507  -0.069  1.00  0.00    -0.339 N 
ATOM      6  H2  UNL     1       2.204  -0.615  -0.563  1.00  0.00     0.168 HD
HETATM    7  C12 UNL     1       1.476  -2.516  -0.461  1.00  0.00     0.024 A 
ENDROOT
BRANCH   7   8
HETATM    8  C13 UNL     1       0.579  -2.420  -1.666  1.00  0.00     0.067 C 
BRANCH   8   9
HETATM    9  C14 UNL     1      -0.854  -2.361  -1.410  1.00  0.00     0.109 C 
BRANCH   9  10
HETATM   10  C15 UNL     1      -1.377  -1.214  -0.609  1.00  0.00     0.224 C 
HETATM   11  O2  UNL     1      -0.641  -0.407   0.012  1.00  0.00    -0.273 OA
HETATM   12  N3  UNL     1      -2.753  -1.087  -0.587  1.00  0.00    -0.306 N 
HETATM   13  C16 UNL     1      -3.640  -0.297  -0.266  1.00  0.00     0.168 C 
ATOM     14  H3  UNL     1      -3.176  -1.935  -0.964  1.00  0.00     0.171 HD
HETATM   15  N4  UNL     1      -3.424   0.982   0.294  1.00  0.00    -0.277 N 
HETATM   16  S2  UNL     1      -5.381  -0.761  -0.558  1.00  0.00    -0.032 SA
HETATM   17  N5  UNL     1      -4.377   1.943   0.559  1.00  0.00    -0.292 N 
ATOM     18  H4  UNL     1      -2.460   1.220   0.527  1.00  0.00     0.189 HD
HETATM   19  C17 UNL     1      -3.885   3.204   1.155  1.00  0.00     0.178 C 
HETATM   20  C18 UNL     1      -5.751   1.787   0.305  1.00  0.00     0.085 A 
HETATM   21  C19 UNL     1      -6.757   2.712   0.479  1.00  0.00     0.051 A 
HETATM   22  C22 UNL     1      -6.356   0.681  -0.227  1.00  0.00     0.107 A 
HETATM   23  C20 UNL     1      -7.929   2.140   0.048  1.00  0.00     0.093 A 
HETATM   24  N6  UNL     1      -7.680   0.902  -0.383  1.00  0.00    -0.354 N 
HETATM   25  C21 UNL     1      -8.659  -0.025  -0.921  1.00  0.00     0.156 C 
ENDBRANCH   9  10
ENDBRANCH   8   9
ENDBRANCH   7   8
BRANCH   4  26
HETATM   26  N1  UNL     1       3.866  -0.917   1.594  1.00  0.00    -0.307 N 
HETATM   27  C4  UNL     1       4.205   0.399   1.311  1.00  0.00     0.227 C 
HETATM   28  O1  UNL     1       4.139   1.274   2.211  1.00  0.00    -0.273 OA
ATOM     29  H1  UNL     1       4.348  -1.337   2.388  1.00  0.00     0.171 HD
BRANCH  27  30
HETATM   30  C5  UNL     1       4.665   0.856  -0.043  1.00  0.00     0.141 C 
BRANCH  30  31
HETATM   31  C6  UNL     1       6.070   1.261  -0.066  1.00  0.00    -0.050 A 
HETATM   32  C7  UNL     1       6.476   2.552   0.107  1.00  0.00     0.007 A 
HETATM   33  C8  UNL     1       7.829   2.913   0.081  1.00  0.00     0.001 A 
HETATM   34  C9  UNL     1       8.786   1.932  -0.126  1.00  0.00     0.000 A 
HETATM   35  C10 UNL     1       8.391   0.629  -0.301  1.00  0.00     0.001 A 
HETATM   36  C11 UNL     1       7.039   0.283  -0.273  1.00  0.00     0.007 A 
ENDBRANCH  30  31
ENDBRANCH  27  30
ENDBRANCH   4  26
TORSDOF 6
