REMARK  9 active torsions:
REMARK  status: ('A' for Active; 'I' for Inactive)
REMARK    1  A    between atoms: C3_3  and  C4_4 
REMARK    2  A    between atoms: C4_4  and  C5_5 
REMARK    3  A    between atoms: C10_10  and  C11_11 
REMARK    4  A    between atoms: C11_11  and  N1_12 
REMARK    5  A    between atoms: C11_11  and  O1_15 
REMARK    6  A    between atoms: O1_15  and  C13_16 
REMARK    7  A    between atoms: C13_16  and  C14_17 
REMARK    8  A    between atoms: N3_26  and  C20_27 
REMARK    9  A    between atoms: C23_30  and  N4_31 
REMARK       I    between atoms: N4_31  and  C24_33 
ROOT
HETATM    1  C1  UNL     1       4.522  -5.741   0.588  1.00  0.00     0.112 C 
HETATM    2  C2  UNL     1       3.744  -4.515   0.471  1.00  0.00    -0.106 C 
HETATM    3  C3  UNL     1       3.073  -3.501   0.371  1.00  0.00    -0.077 C 
ENDROOT
BRANCH   3   4
HETATM    4  C4  UNL     1       2.353  -2.309   0.239  1.00  0.00     0.095 C 
BRANCH   4   5
HETATM    5  C5  UNL     1       1.085  -2.056   0.147  1.00  0.00     0.057 A 
HETATM    6  C6  UNL     1       0.084  -3.017   0.169  1.00  0.00    -0.027 A 
HETATM    7  C7  UNL     1       0.368  -4.429   0.524  1.00  0.00     0.051 C 
HETATM    8  C8  UNL     1      -1.278  -2.725  -0.025  1.00  0.00    -0.034 A 
HETATM    9  C9  UNL     1      -2.268  -3.794  -0.088  1.00  0.00     0.050 C 
HETATM   10  C10 UNL     1      -1.646  -1.426  -0.237  1.00  0.00     0.089 A 
HETATM   11  C19 UNL     1      -0.602  -0.494  -0.247  1.00  0.00     0.268 A 
HETATM   12  O2  UNL     1      -0.890   0.735  -0.442  1.00  0.00    -0.267 OA
HETATM   13  N3  UNL     1       0.670  -0.760  -0.072  1.00  0.00    -0.277 N 
BRANCH  10  14
HETATM   14  C11 UNL     1      -2.853  -1.001  -0.366  1.00  0.00     0.154 C 
BRANCH  14  15
HETATM   15  N1  UNL     1      -4.091  -1.641  -0.338  1.00  0.00    -0.374 N 
HETATM   16  C12 UNL     1      -5.117  -1.464  -1.377  1.00  0.00     0.148 C 
ATOM     17  H1  UNL     1      -4.296  -2.264   0.443  1.00  0.00     0.161 HD
ENDBRANCH  14  15
BRANCH  14  18
HETATM   18  O1  UNL     1      -3.040   0.409  -0.589  1.00  0.00    -0.331 OA
BRANCH  18  19
HETATM   19  C13 UNL     1      -3.865   1.046   0.368  1.00  0.00     0.217 C 
BRANCH  19  20
HETATM   20  C14 UNL     1      -4.035   2.482   0.106  1.00  0.00    -0.019 A 
HETATM   21  C15 UNL     1      -5.064   2.958  -0.685  1.00  0.00     0.012 A 
HETATM   22  C16 UNL     1      -5.219   4.319  -0.930  1.00  0.00     0.018 A 
HETATM   23  C17 UNL     1      -4.331   5.222  -0.376  1.00  0.00     0.087 A 
HETATM   24  N2  UNL     1      -3.331   4.748   0.393  1.00  0.00    -0.375 N 
HETATM   25  C18 UNL     1      -3.174   3.422   0.636  1.00  0.00     0.096 A 
ATOM     26  H2  UNL     1      -2.671   5.407   0.806  1.00  0.00     0.164 HD
ENDBRANCH  19  20
ENDBRANCH  18  19
ENDBRANCH  14  18
ENDBRANCH  10  14
BRANCH  13  27
HETATM   27  C20 UNL     1       1.663   0.247  -0.096  1.00  0.00     0.043 A 
HETATM   28  C21 UNL     1       2.255   0.613  -1.291  1.00  0.00     0.032 A 
HETATM   29  C22 UNL     1       3.213   1.591  -1.367  1.00  0.00     0.032 A 
HETATM   30  C23 UNL     1       3.645   2.275  -0.219  1.00  0.00     0.034 A 
HETATM   31  C26 UNL     1       3.068   1.922   0.967  1.00  0.00     0.032 A 
HETATM   32  C27 UNL     1       2.088   0.918   1.022  1.00  0.00     0.032 A 
BRANCH  30  33
HETATM   33  N4  UNL     1       4.634   3.261  -0.321  1.00  0.00    -0.328 N 
HETATM   34  C24 UNL     1       5.026   4.143   0.669  1.00  0.00     0.218 C 
HETATM   35  C25 UNL     1       6.136   5.133   0.326  1.00  0.00     0.117 C 
HETATM   36  O3  UNL     1       4.614   4.278   1.841  1.00  0.00    -0.274 OA
ATOM     37  H4  UNL     1       5.115   3.336  -1.218  1.00  0.00     0.169 HD
ENDBRANCH  30  33
ENDBRANCH  13  27
ENDBRANCH   4   5
ENDBRANCH   3   4
TORSDOF 9
