REMARK  3 active torsions:
REMARK  status: ('A' for Active; 'I' for Inactive)
REMARK    1  A    between atoms: C3_3  and  C4_4 
REMARK    2  A    between atoms: C10_10  and  C11_11 
REMARK    3  A    between atoms: C17_21  and  C18_22 
ROOT
HETATM    1  C1  UNL     1      -0.249  -3.031   0.614  1.00  0.00     0.026 C 
HETATM    2  C2  UNL     1      -0.014  -1.805   0.203  1.00  0.00    -0.005 A 
HETATM    3  C3  UNL     1      -0.973  -0.789   0.084  1.00  0.00     0.013 A 
HETATM    4  C10 UNL     1      -0.292   0.299  -0.371  1.00  0.00     0.056 A 
HETATM    5  N2  UNL     1       1.023  -0.022  -0.526  1.00  0.00    -0.354 N 
ATOM      6  H2  UNL     1       1.750   0.613  -0.854  1.00  0.00     0.166 HD
HETATM    7  C16 UNL     1       1.212  -1.307  -0.179  1.00  0.00     0.045 A 
HETATM    8  C17 UNL     1       2.388  -1.906  -0.226  1.00  0.00     0.063 C 
ENDROOT
BRANCH   8   9
HETATM    9  C18 UNL     1       3.604  -1.241  -0.656  1.00  0.00     0.076 A 
HETATM   10  C19 UNL     1       4.277  -1.569  -1.812  1.00  0.00     0.122 A 
HETATM   11  N3  UNL     1       5.355  -0.785  -1.936  1.00  0.00    -0.343 N 
HETATM   12  C20 UNL     1       5.337   0.032  -0.838  1.00  0.00     0.175 A 
ATOM     13  H3  UNL     1       6.043  -0.794  -2.689  1.00  0.00     0.167 HD
HETATM   14  S1  UNL     1       6.133   1.300  -0.021  1.00  0.00     0.011 SA
HETATM   15  N5  UNL     1       4.300  -0.214  -0.048  1.00  0.00    -0.229 N 
HETATM   16  C21 UNL     1       5.065   1.431   1.302  1.00  0.00     0.306 A 
HETATM   17  O1  UNL     1       5.096   2.223   2.313  1.00  0.00    -0.258 OA
HETATM   18  N4  UNL     1       4.161   0.489   1.029  1.00  0.00    -0.251 N 
ATOM     19  H4  UNL     1       3.375   0.326   1.658  1.00  0.00     0.191 HD
ENDBRANCH   8   9
BRANCH   3  20
HETATM   20  C4  UNL     1      -2.389  -0.912   0.391  1.00  0.00    -0.023 A 
HETATM   21  C5  UNL     1      -3.312  -0.746  -0.608  1.00  0.00     0.012 A 
HETATM   22  C6  UNL     1      -4.673  -0.861  -0.327  1.00  0.00     0.001 A 
HETATM   23  C7  UNL     1      -5.091  -1.138   0.938  1.00  0.00     0.000 A 
HETATM   24  C8  UNL     1      -4.187  -1.311   1.969  1.00  0.00     0.001 A 
HETATM   25  C9  UNL     1      -2.844  -1.193   1.670  1.00  0.00     0.012 A 
ENDBRANCH   3  20
BRANCH   4  26
HETATM   26  C11 UNL     1      -0.830   1.619  -0.661  1.00  0.00     0.007 A 
HETATM   27  C12 UNL     1      -0.786   2.185  -1.910  1.00  0.00     0.016 A 
HETATM   28  C13 UNL     1      -1.316   3.433  -2.099  1.00  0.00     0.018 A 
HETATM   29  C14 UNL     1      -1.885   4.117  -1.059  1.00  0.00     0.087 A 
HETATM   30  N1  UNL     1      -1.921   3.552   0.156  1.00  0.00    -0.374 N 
HETATM   31  C15 UNL     1      -1.404   2.328   0.354  1.00  0.00     0.101 A 
ATOM     32  H1  UNL     1      -2.344   4.055   0.936  1.00  0.00     0.164 HD
ENDBRANCH   4  26
TORSDOF 3
