REMARK  5 active torsions:
REMARK  status: ('A' for Active; 'I' for Inactive)
REMARK    1  A    between atoms: C4_4  and  N1_5 
REMARK    2  A    between atoms: N1_5  and  C5_7 
REMARK    3  A    between atoms: C8_12  and  N3_13 
REMARK    4  A    between atoms: N3_13  and  C9_15 
REMARK    5  A    between atoms: C11_17  and  C12_18 
ROOT
HETATM    1  C1  UNL     1       4.404  -2.133   3.054  1.00  0.00     0.104 C 
HETATM    2  C2  UNL     1       4.549  -1.803   1.883  1.00  0.00    -0.127 C 
HETATM    3  C3  UNL     1       4.735  -1.434   0.518  1.00  0.00     0.119 A 
HETATM    4  C4  UNL     1       3.720  -1.292  -0.397  1.00  0.00     0.087 A 
HETATM    5  C21 UNL     1       4.292  -0.933  -1.583  1.00  0.00     0.139 A 
HETATM    6  N6  UNL     1       5.621  -0.865  -1.372  1.00  0.00    -0.307 N 
ATOM      7  H6  UNL     1       6.315  -0.619  -2.078  1.00  0.00     0.186 HD
HETATM    8  N7  UNL     1       5.893  -1.166  -0.105  1.00  0.00    -0.287 N 
HETATM    9  C22 UNL     1       7.200  -1.204   0.511  1.00  0.00     0.178 C 
ENDROOT
BRANCH   4  10
HETATM   10  N1  UNL     1       2.347  -1.493  -0.109  1.00  0.00    -0.339 N 
ATOM     11  H1  UNL     1       1.958  -2.435  -0.064  1.00  0.00     0.167 HD
BRANCH  10  12
HETATM   12  C5  UNL     1       1.587  -0.446   0.099  1.00  0.00     0.107 C 
HETATM   13  C6  UNL     1       2.186   0.794   0.022  1.00  0.00     0.065 C 
HETATM   14  C7  UNL     1       1.598   2.033  -0.237  1.00  0.00     0.093 C 
HETATM   15  N2  UNL     1       0.278   2.282  -0.340  1.00  0.00    -0.350 N 
HETATM   16  C8  UNL     1      -0.782   1.450  -0.363  1.00  0.00     0.133 C 
ATOM     17  H2  UNL     1       0.040   3.271  -0.413  1.00  0.00     0.166 HD
HETATM   18  C11 UNL     1      -0.772   0.146   0.109  1.00  0.00     0.091 C 
HETATM   19  N5  UNL     1       0.293  -0.670   0.369  1.00  0.00    -0.339 N 
ATOM     20  H5  UNL     1       0.077  -1.557   0.824  1.00  0.00     0.167 HD
BRANCH  16  21
HETATM   21  N3  UNL     1      -1.886   1.831  -0.835  1.00  0.00    -0.354 N 
ATOM     22  H3  UNL     1      -2.630   1.133  -0.810  1.00  0.00     0.166 HD
BRANCH  21  23
HETATM   23  C9  UNL     1      -2.252   3.072  -1.392  1.00  0.00     0.058 C 
HETATM   24  C10 UNL     1      -2.942   4.020  -0.448  1.00  0.00     0.054 C 
ENDBRANCH  21  23
ENDBRANCH  16  21
BRANCH  18  25
HETATM   25  C12 UNL     1      -2.094  -0.431   0.364  1.00  0.00     0.029 A 
HETATM   26  C13 UNL     1      -2.765  -0.357   1.557  1.00  0.00     0.019 A 
HETATM   27  C14 UNL     1      -2.359   0.287   2.832  1.00  0.00     0.069 C 
HETATM   28  N4  UNL     1      -3.932  -1.001   1.391  1.00  0.00    -0.358 N 
HETATM   29  C15 UNL     1      -4.047  -1.488   0.147  1.00  0.00     0.043 A 
ATOM     30  H4  UNL     1      -4.640  -1.106   2.118  1.00  0.00     0.166 HD
HETATM   31  C16 UNL     1      -5.014  -2.211  -0.537  1.00  0.00     0.030 A 
HETATM   32  C20 UNL     1      -2.889  -1.135  -0.515  1.00  0.00     0.005 A 
HETATM   33  C17 UNL     1      -4.848  -2.582  -1.854  1.00  0.00     0.002 A 
HETATM   34  C18 UNL     1      -3.675  -2.217  -2.506  1.00  0.00     0.001 A 
HETATM   35  C19 UNL     1      -2.701  -1.500  -1.848  1.00  0.00     0.014 A 
ENDBRANCH  18  25
ENDBRANCH  10  12
ENDBRANCH   4  10
TORSDOF 5
