REMARK  4 active torsions:
REMARK  status: ('A' for Active; 'I' for Inactive)
REMARK    1  A    between atoms: N2_13  and  N3_14 
REMARK    2  A    between atoms: N3_14  and  C9_16 
REMARK    3  A    between atoms: N5_19  and  C10_20 
REMARK    4  A    between atoms: C10_20  and  C11_21 
ROOT
HETATM    1  C9  UNL     1      -0.001  -1.419   0.535  1.00  0.00     0.148 A 
HETATM    2  N4  UNL     1      -0.573  -0.238   0.784  1.00  0.00    -0.281 N 
ATOM      3  H4  UNL     1      -0.063   0.640   0.887  1.00  0.00     0.189 HD
HETATM    4  N5  UNL     1      -1.899  -0.357   0.881  1.00  0.00    -0.286 N 
HETATM    5  C16 UNL     1      -2.246  -1.647   0.696  1.00  0.00     0.065 A 
HETATM    6  C17 UNL     1      -3.490  -2.284   0.702  1.00  0.00     0.032 A 
HETATM    7  C18 UNL     1      -3.489  -3.641   0.477  1.00  0.00     0.002 A 
HETATM    8  C19 UNL     1      -2.312  -4.347   0.255  1.00  0.00     0.001 A 
HETATM    9  C20 UNL     1      -1.108  -3.689   0.256  1.00  0.00     0.018 A 
HETATM   10  C21 UNL     1      -1.068  -2.327   0.478  1.00  0.00     0.039 A 
ENDROOT
BRANCH   1  11
HETATM   11  N3  UNL     1       1.224  -1.760   0.370  1.00  0.00    -0.270 N 
ATOM     12  H3  UNL     1       1.415  -2.746   0.189  1.00  0.00     0.189 HD
BRANCH  11  13
HETATM   13  N2  UNL     1       2.301  -0.909   0.417  1.00  0.00    -0.166 N 
HETATM   14  C1  UNL     1       2.955  -0.604   1.551  1.00  0.00     0.349 A 
HETATM   15  O1  UNL     1       2.569  -1.116   2.611  1.00  0.00    -0.245 OA
HETATM   16  N1  UNL     1       4.009   0.231   1.583  1.00  0.00    -0.306 N 
HETATM   17  C2  UNL     1       4.484   0.825   0.464  1.00  0.00     0.052 A 
ATOM     18  H1  UNL     1       4.463   0.422   2.476  1.00  0.00     0.171 HD
HETATM   19  C3  UNL     1       5.570   1.687   0.497  1.00  0.00     0.030 A 
HETATM   20  C7  UNL     1       3.825   0.525  -0.714  1.00  0.00     0.061 A 
HETATM   21  C4  UNL     1       5.972   2.237  -0.701  1.00  0.00     0.002 A 
HETATM   22  C5  UNL     1       5.338   1.961  -1.901  1.00  0.00     0.001 A 
HETATM   23  C6  UNL     1       4.266   1.102  -1.885  1.00  0.00     0.019 A 
HETATM   24  C8  UNL     1       2.735  -0.344  -0.724  1.00  0.00     0.283 A 
HETATM   25  O2  UNL     1       2.188  -0.566  -1.843  1.00  0.00    -0.265 OA
ENDBRANCH  11  13
ENDBRANCH   1  11
BRANCH   4  26
HETATM   26  C10 UNL     1      -2.852   0.711   1.136  1.00  0.00     0.187 C 
BRANCH  26  27
HETATM   27  C11 UNL     1      -3.328   1.383  -0.090  1.00  0.00    -0.036 A 
HETATM   28  C12 UNL     1      -2.617   2.445  -0.637  1.00  0.00     0.026 A 
HETATM   29  C13 UNL     1      -3.034   3.099  -1.778  1.00  0.00     0.088 A 
HETATM   30  N6  UNL     1      -4.164   2.689  -2.371  1.00  0.00    -0.375 N 
HETATM   31  C14 UNL     1      -4.888   1.652  -1.863  1.00  0.00     0.088 A 
ATOM     32  H6  UNL     1      -4.487   3.161  -3.216  1.00  0.00     0.164 HD
HETATM   33  C15 UNL     1      -4.484   0.988  -0.723  1.00  0.00     0.026 A 
ENDBRANCH  26  27
ENDBRANCH   4  26
TORSDOF 4
