REMARK  5 active torsions:
REMARK  status: ('A' for Active; 'I' for Inactive)
REMARK    1  A    between atoms: N1_1  and  C1_5 
REMARK    2  A    between atoms: C1_5  and  C2_6 
REMARK    3  A    between atoms: C2_6  and  O1_7 
REMARK    4  A    between atoms: O1_7  and  C3_8 
REMARK    5  A    between atoms: C5_10  and  S1_11 
ROOT
HETATM    1  C3  UNL     1       0.516   0.100  -0.050  1.00  0.00     0.071 A 
HETATM    2  C4  UNL     1      -0.295   1.031   0.567  1.00  0.00     0.059 A 
HETATM    3  C5  UNL     1      -1.650   0.814   0.555  1.00  0.00     0.055 A 
HETATM    4  C6  UNL     1      -2.200  -0.299  -0.054  1.00  0.00     0.061 A 
HETATM    5  N4  UNL     1      -3.466  -0.720  -0.194  1.00  0.00    -0.364 N 
ATOM      6  H4  UNL     1      -4.295  -0.242   0.159  1.00  0.00     0.165 HD
HETATM    7  C7  UNL     1      -3.457  -1.877  -0.877  1.00  0.00     0.089 A 
HETATM    8  C8  UNL     1      -2.156  -2.219  -1.188  1.00  0.00     0.031 A 
HETATM    9  C9  UNL     1      -1.352  -1.206  -0.661  1.00  0.00    -0.004 A 
HETATM   10  C10 UNL     1       0.013  -1.024  -0.669  1.00  0.00     0.050 A 
ENDROOT
BRANCH   1  11
HETATM   11  O1  UNL     1       1.897   0.339  -0.027  1.00  0.00    -0.349 OA
BRANCH  11  12
HETATM   12  C2  UNL     1       2.746  -0.584  -0.643  1.00  0.00     0.203 C 
BRANCH  12  13
HETATM   13  C1  UNL     1       4.174  -0.100  -0.479  1.00  0.00     0.256 C 
BRANCH  13  14
HETATM   14  N1  UNL     1       4.558   0.026   0.889  1.00  0.00    -0.077 N 
ATOM     15  H13 UNL     1       3.908   0.625   1.398  1.00  0.00     0.274 HD
ATOM     16  H12 UNL     1       4.407  -0.848   1.394  1.00  0.00     0.274 HD
ATOM     17  H11 UNL     1       5.518   0.351   0.999  1.00  0.00     0.274 HD
ENDBRANCH  13  14
ENDBRANCH  12  13
ENDBRANCH  11  12
ENDBRANCH   1  11
BRANCH   3  18
HETATM   18  S1  UNL     1      -2.726   2.027   1.360  1.00  0.00     0.034 SA
HETATM   19  N2  UNL     1      -3.460   2.805   2.634  1.00  0.00    -0.050 NA
HETATM   20  N3  UNL     1      -3.133   3.623   1.519  1.00  0.00    -0.050 NA
ENDBRANCH   3  18
TORSDOF 5
