REMARK  13 active torsions:
REMARK  status: ('A' for Active; 'I' for Inactive)
REMARK    1  A    between atoms: C2_2  and  C3_3 
REMARK    2  A    between atoms: C3_3  and  C4_4 
REMARK    3  A    between atoms: C4_4  and  C5_5 
REMARK    4  A    between atoms: C5_5  and  C6_6 
REMARK    5  A    between atoms: C6_6  and  C7_7 
REMARK    6  A    between atoms: N2_14  and  C10_15 
REMARK    7  A    between atoms: C10_15  and  C11_16 
REMARK    8  A    between atoms: C11_16  and  C12_17 
REMARK    9  A    between atoms: C12_17  and  C13_18 
REMARK   10  A    between atoms: C16_25  and  C17_26 
REMARK   11  A    between atoms: C17_26  and  C18_27 
REMARK   12  A    between atoms: C18_27  and  C19_28 
REMARK   13  A    between atoms: C19_28  and  C20_29 
ROOT
HETATM    1  C11 UNL     1       0.165   0.026  -1.167  1.00  0.00     0.051 C 
ENDROOT
BRANCH   1   2
HETATM    2  C10 UNL     1       0.992  -1.015  -0.418  1.00  0.00     0.132 C 
BRANCH   2   3
HETATM    3  N2  UNL     1       2.220  -1.287  -1.140  1.00  0.00    -0.322 N 
HETATM    4  C7  UNL     1       3.512  -0.638  -1.027  1.00  0.00     0.190 C 
HETATM    5  N1  UNL     1       4.037  -0.725  -2.373  1.00  0.00    -0.332 N 
HETATM    6  C8  UNL     1       3.567  -1.955  -2.964  1.00  0.00     0.311 C 
ATOM      7  H1  UNL     1       4.636  -0.035  -2.826  1.00  0.00     0.165 HD
HETATM    8  O1  UNL     1       4.022  -2.593  -3.927  1.00  0.00    -0.262 OA
HETATM    9  C9  UNL     1       2.390  -2.301  -2.152  1.00  0.00     0.313 C 
HETATM   10  O2  UNL     1       1.634  -3.302  -2.283  1.00  0.00    -0.262 OA
BRANCH   4  11
HETATM   11  C6  UNL     1       4.416  -1.367  -0.057  1.00  0.00     0.047 C 
BRANCH  11  12
HETATM   12  C5  UNL     1       5.798  -0.816  -0.025  1.00  0.00     0.004 C 
BRANCH  12  13
HETATM   13  C4  UNL     1       5.862   0.630   0.381  1.00  0.00     0.004 C 
BRANCH  13  14
HETATM   14  C3  UNL     1       7.339   1.029   0.362  1.00  0.00     0.026 C 
BRANCH  14  15
HETATM   15  C2  UNL     1       7.535   2.440   0.746  1.00  0.00    -0.037 C 
HETATM   16  C1  UNL     1       8.271   2.785   1.800  1.00  0.00     0.007 C 
ENDBRANCH  14  15
ENDBRANCH  13  14
ENDBRANCH  12  13
ENDBRANCH  11  12
ENDBRANCH   4  11
ENDBRANCH   2   3
ENDBRANCH   1   2
BRANCH   1  17
HETATM   17  C12 UNL     1      -1.080   0.321  -0.463  1.00  0.00     0.023 C 
BRANCH  17  18
HETATM   18  C13 UNL     1      -2.173  -0.383  -0.528  1.00  0.00     0.104 A 
HETATM   19  N3  UNL     1      -2.232  -1.490  -1.290  1.00  0.00    -0.306 N 
HETATM   20  C14 UNL     1      -3.371  -2.226  -1.360  1.00  0.00     0.299 A 
ATOM     21  H3  UNL     1      -1.411  -1.780  -1.822  1.00  0.00     0.170 HD
HETATM   22  O3  UNL     1      -3.398  -3.259  -2.083  1.00  0.00    -0.264 OA
HETATM   23  C15 UNL     1      -4.480  -1.832  -0.641  1.00  0.00     0.265 A 
HETATM   24  O4  UNL     1      -5.537  -2.498  -0.694  1.00  0.00    -0.280 OA
HETATM   25  C16 UNL     1      -4.427  -0.696   0.144  1.00  0.00     0.086 A 
HETATM   26  N4  UNL     1      -3.278  -0.008   0.177  1.00  0.00    -0.340 N 
ATOM     27  H4  UNL     1      -3.228   0.832   0.754  1.00  0.00     0.167 HD
BRANCH  25  28
HETATM   28  C17 UNL     1      -5.502  -0.335   0.827  1.00  0.00     0.007 C 
BRANCH  28  29
HETATM   29  C18 UNL     1      -5.475   0.861   1.665  1.00  0.00     0.029 C 
BRANCH  29  30
HETATM   30  C19 UNL     1      -6.835   1.316   2.115  1.00  0.00     0.003 C 
BRANCH  30  31
HETATM   31  C20 UNL     1      -7.742   1.654   0.959  1.00  0.00    -0.004 C 
HETATM   32  C21 UNL     1      -9.104   2.110   1.431  1.00  0.00     0.005 C 
ENDBRANCH  30  31
ENDBRANCH  29  30
ENDBRANCH  28  29
ENDBRANCH  25  28
ENDBRANCH  17  18
ENDBRANCH   1  17
TORSDOF 13
