REMARK  11 active torsions:
REMARK  status: ('A' for Active; 'I' for Inactive)
REMARK    1  A    between atoms: C2_2  and  C3_4 
REMARK    2  A    between atoms: C3_4  and  C4_5 
REMARK    3  A    between atoms: C4_5  and  N1_6 
REMARK    4  A    between atoms: N1_6  and  C5_8 
REMARK    5  A    between atoms: C5_8  and  N4_21 
REMARK    6  A    between atoms: C6_9  and  C7_10 
REMARK    7  A    between atoms: C7_10  and  C8_11 
REMARK    8  A    between atoms: C7_10  and  C12_16 
REMARK    9  A    between atoms: C8_11  and  N2_12 
REMARK   10  A    between atoms: C12_16  and  N3_17 
REMARK       I    between atoms: N4_21  and  C16_23 
REMARK   11  A    between atoms: C16_23  and  C17_25 
ROOT
HETATM    1  C5  UNL     1       0.621   0.114  -0.340  1.00  0.00     0.103 C 
HETATM    2  C6  UNL     1      -0.654  -0.117   0.101  1.00  0.00     0.030 C 
ENDROOT
BRANCH   1   3
HETATM    3  N1  UNL     1       1.001   1.255  -0.906  1.00  0.00    -0.356 N 
ATOM      4  H1  UNL     1       0.364   1.541  -1.649  1.00  0.00     0.166 HD
BRANCH   3   5
HETATM    5  C4  UNL     1       2.035   2.148  -0.745  1.00  0.00     0.063 C 
BRANCH   5   6
HETATM    6  C3  UNL     1       1.995   3.022   0.474  1.00  0.00     0.060 C 
BRANCH   6   7
HETATM    7  C2  UNL     1       3.137   4.004   0.561  1.00  0.00     0.059 C 
HETATM    8  C1  UNL     1       3.166   4.970  -0.577  1.00  0.00     0.022 C 
HETATM    9  S1  UNL     1       3.010   4.893   2.134  1.00  0.00    -0.092 SA
ENDBRANCH   6   7
ENDBRANCH   5   6
ENDBRANCH   3   5
ENDBRANCH   1   3
BRANCH   1  10
HETATM   10  N4  UNL     1       1.431  -1.027  -0.243  1.00  0.00    -0.312 N 
HETATM   11  C16 UNL     1       2.691  -1.440   0.148  1.00  0.00     0.254 C 
HETATM   12  O1  UNL     1       3.657  -0.777   0.570  1.00  0.00    -0.271 OA
ATOM     13  H4  UNL     1       0.907  -1.835  -0.578  1.00  0.00     0.170 HD
BRANCH  11  14
HETATM   14  C17 UNL     1       2.934  -2.946   0.031  1.00  0.00     0.282 C 
HETATM   15  N5  UNL     1       3.136  -3.246  -1.427  1.00  0.00    -0.061 N 
HETATM   16  C18 UNL     1       4.178  -4.202  -1.108  1.00  0.00     0.240 C 
ATOM     17  H52 UNL     1       2.342  -3.537  -1.997  1.00  0.00     0.278 HD
ATOM     18  H51 UNL     1       3.332  -2.484  -2.076  1.00  0.00     0.278 HD
HETATM   19  C19 UNL     1       4.415  -3.328   0.167  1.00  0.00     0.047 C 
HETATM   20  C20 UNL     1       4.775  -4.258   1.275  1.00  0.00     0.014 C 
ENDBRANCH  11  14
ENDBRANCH   1  10
BRANCH   2  21
HETATM   21  C7  UNL     1      -1.775   0.794   0.032  1.00  0.00     0.064 C 
BRANCH  21  22
HETATM   22  C8  UNL     1      -2.889   0.174  -0.843  1.00  0.00     0.246 C 
BRANCH  22  23
HETATM   23  N2  UNL     1      -2.587  -0.138  -2.185  1.00  0.00    -0.078 N 
HETATM   24  C9  UNL     1      -1.719  -1.246  -2.434  1.00  0.00     0.271 C 
HETATM   25  C10 UNL     1      -2.311   1.001  -3.045  1.00  0.00     0.271 C 
HETATM   26  C11 UNL     1      -3.916  -0.619  -2.709  1.00  0.00     0.271 C 
ENDBRANCH  22  23
ENDBRANCH  21  22
BRANCH  21  27
HETATM   27  C12 UNL     1      -2.358   1.061   1.382  1.00  0.00     0.246 C 
BRANCH  27  28
HETATM   28  N3  UNL     1      -3.053   0.143   2.159  1.00  0.00    -0.078 N 
HETATM   29  C13 UNL     1      -2.798   0.561   3.573  1.00  0.00     0.271 C 
HETATM   30  C14 UNL     1      -4.536   0.481   2.083  1.00  0.00     0.271 C 
HETATM   31  C15 UNL     1      -2.922  -1.241   2.182  1.00  0.00     0.271 C 
ENDBRANCH  27  28
ENDBRANCH  21  27
ENDBRANCH   2  21
TORSDOF 11
