REMARK  13 active torsions:
REMARK  status: ('A' for Active; 'I' for Inactive)
REMARK    1  A    between atoms: C3_3  and  N1_4 
REMARK    2  A    between atoms: N3_12  and  C7_13 
REMARK    3  A    between atoms: C7_13  and  C8_14 
REMARK    4  A    between atoms: C8_14  and  C9_15 
REMARK    5  A    between atoms: C9_15  and  C10_16 
REMARK    6  A    between atoms: C10_16  and  C11_17 
REMARK    7  A    between atoms: C11_17  and  C12_18 
REMARK    8  A    between atoms: C12_18  and  C13_19 
REMARK    9  A    between atoms: C13_19  and  C14_20 
REMARK   10  A    between atoms: C14_20  and  C15_21 
REMARK   11  A    between atoms: C15_21  and  C16_22 
REMARK   12  A    between atoms: C19_27  and  N5_28 
REMARK   13  A    between atoms: N5_28  and  C20_30 
ROOT
HETATM    1  C1  UNL     1       7.041   2.791  -0.161  1.00  0.00     0.014 C 
HETATM    2  C2  UNL     1       6.991   1.794   0.506  1.00  0.00    -0.096 C 
HETATM    3  C3  UNL     1       6.950   0.593   1.287  1.00  0.00     0.247 C 
ENDROOT
BRANCH   3   4
HETATM    4  N1  UNL     1       6.637  -0.576   0.551  1.00  0.00    -0.227 N 
HETATM    5  C4  UNL     1       7.666  -1.371  -0.080  1.00  0.00     0.338 C 
HETATM    6  O1  UNL     1       8.827  -0.927   0.032  1.00  0.00    -0.245 OA
HETATM    7  N2  UNL     1       7.386  -2.558  -0.771  1.00  0.00    -0.333 N 
HETATM    8  C5  UNL     1       6.183  -3.294  -0.440  1.00  0.00     0.229 C 
ATOM      9  H2  UNL     1       8.019  -2.898  -1.495  1.00  0.00     0.164 HD
HETATM   10  C6  UNL     1       5.102  -2.297  -0.286  1.00  0.00     0.256 C 
HETATM   11  O2  UNL     1       3.971  -2.474  -0.758  1.00  0.00    -0.270 OA
HETATM   12  N3  UNL     1       5.335  -1.056   0.438  1.00  0.00    -0.253 N 
BRANCH  12  13
HETATM   13  C7  UNL     1       4.188  -0.409   1.029  1.00  0.00     0.152 C 
BRANCH  13  14
HETATM   14  C8  UNL     1       3.549   0.505   0.022  1.00  0.00     0.022 C 
BRANCH  14  15
HETATM   15  C9  UNL     1       2.341   1.253   0.572  1.00  0.00     0.002 C 
BRANCH  15  16
HETATM   16  C10 UNL     1       1.309   0.252   1.006  1.00  0.00     0.000 C 
BRANCH  16  17
HETATM   17  C11 UNL     1       0.063   0.921   1.551  1.00  0.00     0.000 C 
BRANCH  17  18
HETATM   18  C12 UNL     1      -0.611   1.814   0.544  1.00  0.00     0.000 C 
BRANCH  18  19
HETATM   19  C13 UNL     1      -1.043   1.089  -0.685  1.00  0.00     0.004 C 
BRANCH  19  20
HETATM   20  C14 UNL     1      -2.017  -0.024  -0.468  1.00  0.00     0.031 C 
BRANCH  20  21
HETATM   21  C15 UNL     1      -3.256   0.492   0.145  1.00  0.00     0.022 C 
BRANCH  21  22
HETATM   22  C16 UNL     1      -4.470   0.091  -0.246  1.00  0.00     0.103 A 
HETATM   23  N4  UNL     1      -4.751  -0.807  -1.217  1.00  0.00    -0.340 N 
HETATM   24  C17 UNL     1      -6.069  -0.972  -1.347  1.00  0.00     0.068 A 
ATOM     25  H4  UNL     1      -4.050  -1.293  -1.775  1.00  0.00     0.167 HD
HETATM   26  C18 UNL     1      -6.757  -1.743  -2.164  1.00  0.00     0.047 C 
HETATM   27  C19 UNL     1      -6.632  -0.135  -0.411  1.00  0.00     0.129 A 
HETATM   28  N6  UNL     1      -5.650   0.493   0.238  1.00  0.00    -0.327 N 
ATOM     29  H6  UNL     1      -5.779   1.174   0.987  1.00  0.00     0.169 HD
BRANCH  27  30
HETATM   30  N5  UNL     1      -7.902  -0.014  -0.230  1.00  0.00    -0.375 N 
ATOM     31  H5  UNL     1      -8.549  -0.559  -0.800  1.00  0.00     0.161 HD
BRANCH  30  32
HETATM   32  C20 UNL     1      -8.410   0.878   0.764  1.00  0.00     0.116 C 
HETATM   33  C21 UNL     1      -9.725   0.356   1.318  1.00  0.00     0.026 C 
ENDBRANCH  30  32
ENDBRANCH  27  30
ENDBRANCH  21  22
ENDBRANCH  20  21
ENDBRANCH  19  20
ENDBRANCH  18  19
ENDBRANCH  17  18
ENDBRANCH  16  17
ENDBRANCH  15  16
ENDBRANCH  14  15
ENDBRANCH  13  14
ENDBRANCH  12  13
ENDBRANCH   3   4
TORSDOF 13
