REMARK  16 active torsions:
REMARK  status: ('A' for Active; 'I' for Inactive)
REMARK    1  A    between atoms: C2_2  and  C3_3 
REMARK    2  A    between atoms: C2_2  and  C18_30 
REMARK    3  A    between atoms: C3_3  and  C4_4 
REMARK    4  A    between atoms: C4_4  and  C5_5 
REMARK    5  A    between atoms: C5_5  and  O1_6 
REMARK    6  A    between atoms: C5_5  and  C6_8 
REMARK       I    between atoms: C6_8  and  N1_10 
REMARK    7  A    between atoms: N1_10  and  C7_12 
REMARK    8  A    between atoms: C7_12  and  C8_13 
REMARK    9  A    between atoms: C8_13  and  C9_14 
REMARK   10  A    between atoms: C9_14  and  C10_15 
REMARK   11  A    between atoms: C10_15  and  C11_16 
REMARK   12  A    between atoms: C16_24  and  C17_25 
REMARK   13  A    between atoms: C17_25  and  O3_26 
REMARK   14  A    between atoms: C23_35  and  O4_36 
REMARK   15  A    between atoms: C28_42  and  C29_43 
REMARK   16  A    between atoms: C29_43  and  C30_44 
ROOT
HETATM    1  C1  UNL     1      -1.245   2.623   0.977  1.00  0.00     0.010 C 
HETATM    2  C2  UNL     1      -1.464   1.129   0.853  1.00  0.00    -0.013 C 
ENDROOT
BRANCH   2   3
HETATM    3  C3  UNL     1      -0.093   0.617   0.320  1.00  0.00     0.011 C 
BRANCH   3   4
HETATM    4  C4  UNL     1      -0.043  -0.837   0.123  1.00  0.00     0.070 C 
BRANCH   4   5
HETATM    5  C5  UNL     1       1.266  -1.309  -0.357  1.00  0.00     0.111 C 
BRANCH   5   6
HETATM    6  O1  UNL     1       1.377  -2.600  -0.570  1.00  0.00    -0.359 OA
ATOM      7  H1  UNL     1       2.222  -2.905  -0.880  1.00  0.00     0.217 HD
ENDBRANCH   5   6
BRANCH   5   8
HETATM    8  C6  UNL     1       2.411  -0.475  -0.607  1.00  0.00     0.270 C 
HETATM    9  O2  UNL     1       2.424   0.747  -0.431  1.00  0.00    -0.266 OA
HETATM   10  N1  UNL     1       3.613  -1.080  -1.088  1.00  0.00    -0.355 N 
ATOM     11  H1  UNL     1       3.612  -2.089  -1.240  1.00  0.00     0.162 HD
BRANCH  10  12
HETATM   12  C7  UNL     1       4.818  -0.360  -1.370  1.00  0.00     0.123 C 
BRANCH  12  13
HETATM   13  C8  UNL     1       5.387   0.311  -0.172  1.00  0.00     0.020 C 
BRANCH  13  14
HETATM   14  C9  UNL     1       6.665   1.066  -0.481  1.00  0.00     0.005 C 
BRANCH  14  15
HETATM   15  C10 UNL     1       7.763   0.203  -1.016  1.00  0.00     0.054 C 
BRANCH  15  16
HETATM   16  C11 UNL     1       8.160  -0.896  -0.031  1.00  0.00     0.280 C 
HETATM   17  N2  UNL     1       9.217  -1.693  -0.599  1.00  0.00    -0.050 N 
HETATM   18  C12 UNL     1      10.434  -0.959  -0.748  1.00  0.00     0.190 C 
ATOM     19  H22 UNL     1       9.366  -2.545  -0.058  1.00  0.00     0.280 HD
ATOM     20  H21 UNL     1       8.928  -2.109  -1.484  1.00  0.00     0.280 HD
HETATM   21  C13 UNL     1      11.526  -1.946  -1.170  1.00  0.00     0.040 C 
HETATM   22  C14 UNL     1      10.859  -0.298   0.512  1.00  0.00     0.036 C 
HETATM   23  C15 UNL     1      11.435   1.072   0.132  1.00  0.00     0.014 C 
HETATM   24  C16 UNL     1       9.834  -0.179   1.583  1.00  0.00     0.107 C 
HETATM   25  N3  UNL     1       8.474  -0.274   1.197  1.00  0.00    -0.389 N 
ATOM     26  H3  UNL     1       7.736   0.100   1.794  1.00  0.00     0.155 HD
BRANCH  24  27
HETATM   27  C17 UNL     1      10.160  -1.084   2.783  1.00  0.00     0.189 C 
BRANCH  27  28
HETATM   28  O3  UNL     1       9.922  -2.407   2.520  1.00  0.00    -0.399 OA
ATOM     29  H3  UNL     1      10.123  -2.966   3.261  1.00  0.00     0.209 HD
ENDBRANCH  27  28
ENDBRANCH  24  27
ENDBRANCH  15  16
ENDBRANCH  14  15
ENDBRANCH  13  14
ENDBRANCH  12  13
ENDBRANCH  10  12
ENDBRANCH   5   8
ENDBRANCH   4   5
ENDBRANCH   3   4
ENDBRANCH   2   3
BRANCH   2  30
HETATM   30  C18 UNL     1      -2.553   0.725  -0.062  1.00  0.00    -0.002 C 
HETATM   31  C19 UNL     1      -2.346   1.176  -1.482  1.00  0.00     0.006 C 
HETATM   32  C20 UNL     1      -3.725   0.877  -2.072  1.00  0.00     0.011 C 
HETATM   33  C21 UNL     1      -4.623   1.386  -0.967  1.00  0.00    -0.023 C 
HETATM   34  C22 UNL     1      -4.695   2.909  -1.158  1.00  0.00     0.042 C 
HETATM   35  C26 UNL     1      -6.041   0.921  -1.120  1.00  0.00     0.024 C 
HETATM   36  C36 UNL     1      -3.955   1.044   0.317  1.00  0.00    -0.031 C 
HETATM   37  C23 UNL     1      -5.306   3.350  -2.420  1.00  0.00     0.119 C 
HETATM   38  C24 UNL     1      -6.282   2.460  -3.071  1.00  0.00     0.032 C 
HETATM   39  C25 UNL     1      -6.310   1.046  -2.626  1.00  0.00     0.012 C 
HETATM   40  C27 UNL     1      -6.314  -0.424  -0.598  1.00  0.00    -0.079 C 
HETATM   41  C28 UNL     1      -7.503  -0.956  -0.787  1.00  0.00    -0.022 C 
HETATM   42  C34 UNL     1      -5.263  -1.132   0.126  1.00  0.00     0.035 C 
HETATM   43  C35 UNL     1      -4.547  -0.153   1.019  1.00  0.00     0.014 C 
HETATM   44  C37 UNL     1      -4.125   2.169   1.317  1.00  0.00     0.016 C 
BRANCH  37  45
HETATM   45  O4  UNL     1      -4.270   3.764  -3.298  1.00  0.00    -0.396 OA
ATOM     46  H4  UNL     1      -4.665   4.049  -4.114  1.00  0.00     0.210 HD
ENDBRANCH  37  45
BRANCH  41  47
HETATM   47  C29 UNL     1      -7.980  -2.278  -0.354  1.00  0.00     0.060 C 
BRANCH  47  48
HETATM   48  C30 UNL     1      -9.161  -2.193   0.579  1.00  0.00     0.189 C 
HETATM   49  C31 UNL     1      -9.656  -3.528   1.031  1.00  0.00     0.035 C 
HETATM   50  C32 UNL     1     -10.528  -3.144   2.231  1.00  0.00     0.029 C 
HETATM   51  C33 UNL     1     -10.142  -1.703   2.540  1.00  0.00     0.233 C 
HETATM   52  N4  UNL     1      -8.911  -1.487   1.797  1.00  0.00    -0.071 N 
ATOM     53  H42 UNL     1      -8.060  -1.763   2.286  1.00  0.00     0.277 HD
ATOM     54  H41 UNL     1      -8.645  -0.509   1.680  1.00  0.00     0.277 HD
ENDBRANCH  47  48
ENDBRANCH  41  47
ENDBRANCH   2  30
TORSDOF 16
