REMARK  16 active torsions:
REMARK  status: ('A' for Active; 'I' for Inactive)
REMARK    1  A    between atoms: C2_2  and  C4_4 
REMARK       I    between atoms: C4_4  and  N1_6 
REMARK    2  A    between atoms: N1_6  and  C5_8 
REMARK    3  A    between atoms: C5_8  and  C6_9 
REMARK    4  A    between atoms: C6_9  and  C7_10 
REMARK    5  A    between atoms: C7_10  and  C8_11 
REMARK    6  A    between atoms: C8_11  and  C9_12 
REMARK    7  A    between atoms: C9_12  and  C10_13 
REMARK    8  A    between atoms: C9_12  and  C29_37 
REMARK       I    between atoms: C10_13  and  N2_15 
REMARK    9  A    between atoms: N2_15  and  C11_17 
REMARK   10  A    between atoms: C20_26  and  O3_27 
REMARK   11  A    between atoms: C29_37  and  O4_38 
REMARK   12  A    between atoms: C29_37  and  C30_40 
REMARK   13  A    between atoms: C30_40  and  O5_41 
REMARK   14  A    between atoms: C30_40  and  C31_43 
REMARK   15  A    between atoms: C31_43  and  O6_44 
REMARK   16  A    between atoms: C31_43  and  C32_46 
ROOT
HETATM    1  C9  UNL     1      -2.164  -2.388  -1.113  1.00  0.00     0.109 C 
ENDROOT
BRANCH   1   2
HETATM    2  C8  UNL     1      -2.901  -1.122  -1.356  1.00  0.00     0.017 C 
BRANCH   2   3
HETATM    3  C7  UNL     1      -2.924  -0.106  -0.283  1.00  0.00     0.002 C 
BRANCH   3   4
HETATM    4  C6  UNL     1      -3.786   1.078  -0.748  1.00  0.00     0.020 C 
BRANCH   4   5
HETATM    5  C5  UNL     1      -3.232   1.755  -1.955  1.00  0.00     0.122 C 
BRANCH   5   6
HETATM    6  N1  UNL     1      -1.889   2.277  -1.694  1.00  0.00    -0.361 N 
HETATM    7  C4  UNL     1      -1.738   3.258  -0.674  1.00  0.00     0.221 C 
HETATM    8  O1  UNL     1      -2.692   3.700   0.006  1.00  0.00    -0.273 OA
ATOM      9  H1  UNL     1      -1.085   1.947  -2.228  1.00  0.00     0.162 HD
BRANCH   7  10
HETATM   10  C2  UNL     1      -0.390   3.808  -0.372  1.00  0.00     0.070 C 
HETATM   11  C1  UNL     1       0.162   4.455  -1.619  1.00  0.00     0.019 C 
HETATM   12  C3  UNL     1      -0.445   4.824   0.753  1.00  0.00     0.019 C 
ENDBRANCH   7  10
ENDBRANCH   5   6
ENDBRANCH   4   5
ENDBRANCH   3   4
ENDBRANCH   2   3
ENDBRANCH   1   2
BRANCH   1  13
HETATM   13  C10 UNL     1      -0.737  -2.286  -0.830  1.00  0.00     0.224 C 
HETATM   14  O2  UNL     1       0.101  -2.782  -1.678  1.00  0.00    -0.273 OA
HETATM   15  N2  UNL     1      -0.127  -1.691   0.298  1.00  0.00    -0.356 N 
ATOM     16  H2  UNL     1      -0.728  -1.277   1.011  1.00  0.00     0.162 HD
BRANCH  15  17
HETATM   17  C11 UNL     1       1.302  -1.639   0.493  1.00  0.00     0.089 C 
HETATM   18  C12 UNL     1       1.602  -1.928   1.943  1.00  0.00     0.026 C 
HETATM   19  C13 UNL     1       2.559  -0.813   2.408  1.00  0.00     0.011 C 
HETATM   20  C14 UNL     1       3.105  -0.340   1.137  1.00  0.00     0.021 C 
HETATM   21  C15 UNL     1       3.715   0.975   1.067  1.00  0.00    -0.074 C 
HETATM   22  C28 UNL     1       1.839  -0.243   0.260  1.00  0.00     0.016 C 
HETATM   23  C16 UNL     1       3.843   1.745   2.114  1.00  0.00    -0.023 C 
HETATM   24  C25 UNL     1       4.185   1.391  -0.262  1.00  0.00     0.023 C 
HETATM   25  C17 UNL     1       4.468   3.108   2.076  1.00  0.00     0.033 C 
HETATM   26  C18 UNL     1       5.520   3.048   0.977  1.00  0.00     0.000 C 
HETATM   27  C19 UNL     1       6.330   4.304   0.885  1.00  0.00     0.037 C 
HETATM   28  C23 UNL     1       4.908   2.676  -0.339  1.00  0.00    -0.033 C 
HETATM   29  C20 UNL     1       7.548   4.012   0.035  1.00  0.00     0.118 C 
HETATM   30  C21 UNL     1       7.396   2.712  -0.725  1.00  0.00     0.032 C 
HETATM   31  C22 UNL     1       6.034   2.588  -1.361  1.00  0.00     0.012 C 
HETATM   32  C24 UNL     1       3.972   3.782  -0.849  1.00  0.00     0.016 C 
HETATM   33  C26 UNL     1       2.999   1.315  -1.209  1.00  0.00     0.010 C 
HETATM   34  C27 UNL     1       2.348  -0.031  -1.132  1.00  0.00     0.008 C 
BRANCH  29  35
HETATM   35  O3  UNL     1       8.637   3.871   0.892  1.00  0.00    -0.396 OA
ATOM     36  H3  UNL     1       9.401   3.688   0.359  1.00  0.00     0.210 HD
ENDBRANCH  29  35
ENDBRANCH  15  17
ENDBRANCH   1  13
BRANCH   1  37
HETATM   37  C29 UNL     1      -2.894  -3.300  -0.159  1.00  0.00     0.162 C 
BRANCH  37  38
HETATM   38  O4  UNL     1      -3.138  -2.817   1.077  1.00  0.00    -0.392 OA
ATOM     39  H4  UNL     1      -3.598  -3.391   1.678  1.00  0.00     0.210 HD
ENDBRANCH  37  38
BRANCH  37  40
HETATM   40  C30 UNL     1      -4.182  -3.757  -0.840  1.00  0.00     0.176 C 
BRANCH  40  41
HETATM   41  O5  UNL     1      -3.823  -4.206  -2.149  1.00  0.00    -0.390 OA
ATOM     42  H5  UNL     1      -4.624  -4.490  -2.573  1.00  0.00     0.210 HD
ENDBRANCH  40  41
BRANCH  40  43
HETATM   43  C31 UNL     1      -4.780  -4.977  -0.159  1.00  0.00     0.154 C 
BRANCH  43  44
HETATM   44  O6  UNL     1      -3.839  -5.985  -0.019  1.00  0.00    -0.393 OA
ATOM     45  H6  UNL     1      -4.213  -6.748   0.407  1.00  0.00     0.210 HD
ENDBRANCH  43  44
BRANCH  43  46
HETATM   46  C32 UNL     1      -5.531  -4.722   1.088  1.00  0.00     0.025 A 
HETATM   47  C33 UNL     1      -6.746  -3.859   1.119  1.00  0.00     0.017 A 
HETATM   48  C34 UNL     1      -6.929  -5.351   1.183  1.00  0.00    -0.041 A 
HETATM   49  C35 UNL     1      -7.296  -5.974   2.504  1.00  0.00     0.015 C 
HETATM   50  C36 UNL     1      -7.445  -6.086  -0.045  1.00  0.00     0.015 C 
ENDBRANCH  43  46
ENDBRANCH  40  43
ENDBRANCH  37  40
ENDBRANCH   1  37
TORSDOF 16
