REMARK  13 active torsions:
REMARK  status: ('A' for Active; 'I' for Inactive)
REMARK    1  A    between atoms: C2_2  and  C3_3 
REMARK    2  A    between atoms: C3_3  and  C4_4 
REMARK    3  A    between atoms: C4_4  and  C5_5 
REMARK    4  A    between atoms: C5_5  and  C6_6 
REMARK    5  A    between atoms: C6_6  and  C7_7 
REMARK    6  A    between atoms: C7_7  and  C8_8 
REMARK    7  A    between atoms: C8_8  and  N1_9 
REMARK       I    between atoms: N1_9  and  C9_11 
REMARK       I    between atoms: C9_11  and  N2_13 
REMARK    8  A    between atoms: N2_13  and  N3_15 
REMARK    9  A    between atoms: C14_21  and  C15_22 
REMARK   10  A    between atoms: C15_22  and  C16_23 
REMARK   11  A    between atoms: C16_23  and  C17_24 
REMARK   12  A    between atoms: C17_24  and  N4_25 
REMARK       I    between atoms: N4_25  and  C18_27 
REMARK   13  A    between atoms: C32_48  and  N8_49 
ROOT
HETATM    1  N3  UNL     1      -0.291  -1.649  -0.189  1.00  0.00    -0.304 N 
ATOM      2  H3  UNL     1      -0.269  -2.595  -0.569  1.00  0.00     0.186 HD
HETATM    3  C10 UNL     1      -1.215  -1.366   0.625  1.00  0.00     0.018 C 
HETATM    4  C11 UNL     1      -1.271   0.016   1.197  1.00  0.00     0.065 C 
HETATM    5  C12 UNL     1      -2.665   0.555   1.127  1.00  0.00    -0.031 C 
HETATM    6  C13 UNL     1      -3.209   0.945   2.504  1.00  0.00     0.016 C 
HETATM    7  C14 UNL     1      -2.776   1.836   0.302  1.00  0.00    -0.006 C 
HETATM    8  C19 UNL     1      -2.528   1.351  -1.077  1.00  0.00     0.006 C 
HETATM    9  C20 UNL     1      -3.339   0.049  -1.107  1.00  0.00     0.006 C 
HETATM   10  C21 UNL     1      -3.603  -0.310   0.349  1.00  0.00     0.000 C 
HETATM   11  C22 UNL     1      -3.566  -1.776   0.606  1.00  0.00     0.016 C 
HETATM   12  C23 UNL     1      -4.124  -2.407  -0.681  1.00  0.00     0.086 C 
HETATM   13  C24 UNL     1      -4.730  -3.677  -0.280  1.00  0.00     0.139 C 
HETATM   14  O2  UNL     1      -5.918  -3.668  -0.098  1.00  0.00    -0.297 OA
HETATM   15  C25 UNL     1      -4.014  -4.984  -0.076  1.00  0.00     0.041 C 
HETATM   16  C26 UNL     1      -4.481  -5.477   1.304  1.00  0.00     0.028 C 
HETATM   17  C27 UNL     1      -4.565  -5.909  -1.068  1.00  0.00     0.028 C 
HETATM   18  C28 UNL     1      -2.578  -4.763   0.003  1.00  0.00    -0.033 C 
HETATM   19  C29 UNL     1      -1.998  -5.768  -0.697  1.00  0.00     0.033 C 
HETATM   20  C30 UNL     1      -0.658  -6.120  -0.839  1.00  0.00     0.007 C 
HETATM   21  C31 UNL     1      -0.403  -7.051  -1.938  1.00  0.00     0.068 C 
HETATM   22  N7  UNL     1       0.332  -5.666  -0.057  1.00  0.00    -0.347 N 
ATOM     23  H7  UNL     1       1.242  -6.093  -0.232  1.00  0.00     0.167 HD
HETATM   24  C32 UNL     1       0.324  -4.741   0.920  1.00  0.00     0.099 C 
HETATM   25  C33 UNL     1      -0.666  -3.825   1.204  1.00  0.00     0.057 C 
HETATM   26  C34 UNL     1      -1.952  -3.713   0.675  1.00  0.00    -0.033 C 
HETATM   27  C35 UNL     1      -2.280  -2.347   1.050  1.00  0.00     0.028 C 
HETATM   28  C36 UNL     1      -2.289  -2.320   2.587  1.00  0.00     0.027 C 
ENDROOT
BRANCH   1  29
HETATM   29  N2  UNL     1       0.684  -0.776  -0.599  1.00  0.00    -0.252 N 
HETATM   30  C9  UNL     1       1.912  -0.543   0.041  1.00  0.00     0.334 C 
HETATM   31  N1  UNL     1       2.865   0.381  -0.468  1.00  0.00    -0.342 N 
HETATM   32  O1  UNL     1       2.200  -1.159   1.098  1.00  0.00    -0.246 OA
ATOM     33  H1  UNL     1       2.644   0.888  -1.325  1.00  0.00     0.164 HD
ATOM     34  H2  UNL     1       0.500  -0.245  -1.450  1.00  0.00     0.191 HD
BRANCH  31  35
HETATM   35  C8  UNL     1       4.133   0.633   0.178  1.00  0.00     0.124 C 
BRANCH  35  36
HETATM   36  C7  UNL     1       4.921   1.666  -0.621  1.00  0.00     0.020 C 
BRANCH  36  37
HETATM   37  C6  UNL     1       6.249   1.907   0.080  1.00  0.00     0.002 C 
BRANCH  37  38
HETATM   38  C5  UNL     1       7.046   2.923  -0.701  1.00  0.00     0.000 C 
BRANCH  38  39
HETATM   39  C4  UNL     1       8.360   3.168  -0.016  1.00  0.00     0.004 C 
BRANCH  39  40
HETATM   40  C3  UNL     1       9.192   4.181  -0.773  1.00  0.00     0.026 C 
BRANCH  40  41
HETATM   41  C2  UNL     1       9.489   3.714  -2.161  1.00  0.00    -0.037 C 
HETATM   42  C1  UNL     1      10.730   3.534  -2.592  1.00  0.00     0.007 C 
ENDBRANCH  40  41
ENDBRANCH  39  40
ENDBRANCH  38  39
ENDBRANCH  37  38
ENDBRANCH  36  37
ENDBRANCH  35  36
ENDBRANCH  31  35
ENDBRANCH   1  29
BRANCH   7  43
HETATM   43  C15 UNL     1      -1.923   2.951   0.766  1.00  0.00     0.007 C 
BRANCH  43  44
HETATM   44  C16 UNL     1      -2.188   4.125  -0.187  1.00  0.00     0.020 C 
BRANCH  44  45
HETATM   45  C17 UNL     1      -1.350   5.324   0.218  1.00  0.00     0.122 C 
BRANCH  45  46
HETATM   46  N4  UNL     1      -1.590   6.439  -0.676  1.00  0.00    -0.365 N 
HETATM   47  C18 UNL     1      -2.836   7.123  -0.708  1.00  0.00     0.181 C 
HETATM   48  N5  UNL     1      -3.071   8.123   0.070  1.00  0.00    -0.374 N 
HETATM   49  N6  UNL     1      -3.867   6.728  -1.602  1.00  0.00    -0.064 NA
ATOM     50  H52 UNL     1      -2.331   8.407   0.712  1.00  0.00     0.158 HD
ATOM     51  H51 UNL     1      -3.965   8.614   0.047  1.00  0.00     0.158 HD
ATOM     52  H4  UNL     1      -0.843   6.742  -1.301  1.00  0.00     0.162 HD
ENDBRANCH  45  46
ENDBRANCH  44  45
ENDBRANCH  43  44
ENDBRANCH   7  43
BRANCH  24  53
HETATM   53  N8  UNL     1       1.379  -4.747   1.652  1.00  0.00    -0.385 N 
ATOM     54  H82 UNL     1       2.112  -5.425   1.442  1.00  0.00     0.157 HD
ATOM     55  H81 UNL     1       1.373  -4.046   2.393  1.00  0.00     0.157 HD
ENDBRANCH  24  53
TORSDOF 13
