REMARK  12 active torsions:
REMARK  status: ('A' for Active; 'I' for Inactive)
REMARK    1  A    between atoms: C9_12  and  C10_13 
REMARK    2  A    between atoms: C10_13  and  C11_15 
REMARK       I    between atoms: C11_15  and  N3_17 
REMARK    3  A    between atoms: N3_17  and  C12_19 
REMARK    4  A    between atoms: C12_19  and  C13_20 
REMARK    5  A    between atoms: C12_19  and  C16_27 
REMARK    6  A    between atoms: C13_20  and  C14_21 
REMARK    7  A    between atoms: C14_21  and  C15_22 
REMARK    8  A    between atoms: C15_22  and  N4_23 
REMARK       I    between atoms: C16_27  and  N5_29 
REMARK    9  A    between atoms: N5_29  and  C17_31 
REMARK   10  A    between atoms: C20_34  and  C21_35 
REMARK   11  A    between atoms: C21_35  and  C22_36 
REMARK   12  A    between atoms: N6_37  and  C23_39 
ROOT
HETATM    1  C12 UNL     1      -1.785   0.559  -1.376  1.00  0.00     0.080 C 
ENDROOT
BRANCH   1   2
HETATM    2  N3  UNL     1      -2.520   0.067  -0.311  1.00  0.00    -0.321 N 
HETATM    3  C11 UNL     1      -3.212  -1.108   0.020  1.00  0.00     0.268 C 
HETATM    4  O1  UNL     1      -3.193  -2.094  -0.725  1.00  0.00    -0.266 OA
ATOM      5  H3  UNL     1      -2.574   0.750   0.445  1.00  0.00     0.169 HD
BRANCH   3   6
HETATM    6  C10 UNL     1      -3.964  -1.096   1.276  1.00  0.00     0.122 C 
HETATM    7  N2  UNL     1      -3.302  -1.344   2.486  1.00  0.00    -0.099 NA
BRANCH   6   8
HETATM    8  C9  UNL     1      -5.407  -1.532   1.186  1.00  0.00     0.239 C 
HETATM    9  N1  UNL     1      -5.859  -1.286  -0.183  1.00  0.00    -0.057 N 
HETATM   10  C7  UNL     1      -7.285  -1.617  -0.282  1.00  0.00     0.127 C 
ATOM     11  H12 UNL     1      -5.296  -1.783  -0.873  1.00  0.00     0.279 HD
ATOM     12  H11 UNL     1      -5.658  -0.335  -0.493  1.00  0.00     0.279 HD
HETATM   13  C6  UNL     1      -7.632  -1.715  -1.750  1.00  0.00     0.039 C 
HETATM   14  C8  UNL     1      -7.536  -2.917   0.362  1.00  0.00     0.046 C 
HETATM   15  C37 UNL     1      -7.979  -0.417   0.288  1.00  0.00     0.029 C 
HETATM   16  C5  UNL     1      -8.952  -1.077  -2.068  1.00  0.00     0.003 C 
HETATM   17  C4  UNL     1      -9.952  -1.184  -0.955  1.00  0.00     0.009 C 
HETATM   18  C2  UNL     1      -9.477  -0.577   0.346  1.00  0.00    -0.042 C 
HETATM   19  C1  UNL     1      -9.942  -1.353   1.544  1.00  0.00     0.015 C 
HETATM   20  C3  UNL     1     -10.071   0.816   0.440  1.00  0.00     0.015 C 
HETATM   21  C36 UNL     1      -7.332   0.103   1.520  1.00  0.00     0.010 C 
HETATM   22  C35 UNL     1      -6.255  -0.708   2.145  1.00  0.00     0.040 C 
ENDBRANCH   6   8
ENDBRANCH   3   6
ENDBRANCH   1   2
BRANCH   1  23
HETATM   23  C13 UNL     1      -2.281   1.934  -1.831  1.00  0.00     0.064 C 
BRANCH  23  24
HETATM   24  C14 UNL     1      -2.224   2.932  -0.723  1.00  0.00     0.033 C 
BRANCH  24  25
HETATM   25  C15 UNL     1      -2.751   4.309  -1.113  1.00  0.00     0.230 C 
BRANCH  25  26
HETATM   26  N4  UNL     1      -2.592   5.122   0.097  1.00  0.00    -0.079 N 
ATOM     27  H43 UNL     1      -3.037   4.726   0.925  1.00  0.00     0.274 HD
ATOM     28  H42 UNL     1      -1.643   5.131   0.470  1.00  0.00     0.274 HD
ATOM     29  H41 UNL     1      -2.944   6.043  -0.164  1.00  0.00     0.274 HD
ENDBRANCH  25  26
ENDBRANCH  24  25
ENDBRANCH  23  24
ENDBRANCH   1  23
BRANCH   1  30
HETATM   30  C16 UNL     1      -0.355   0.374  -1.439  1.00  0.00     0.264 C 
HETATM   31  O2  UNL     1       0.216  -0.341  -2.271  1.00  0.00    -0.266 OA
HETATM   32  N5  UNL     1       0.512   1.057  -0.483  1.00  0.00    -0.351 N 
ATOM     33  H5  UNL     1       0.099   1.614   0.265  1.00  0.00     0.163 HD
BRANCH  32  34
HETATM   34  C17 UNL     1       1.963   0.950  -0.588  1.00  0.00     0.084 C 
HETATM   35  C18 UNL     1       2.493  -0.289   0.104  1.00  0.00     0.025 C 
HETATM   36  C19 UNL     1       3.344  -0.039   1.262  1.00  0.00     0.007 C 
HETATM   37  C20 UNL     1       4.323   1.090   1.264  1.00  0.00    -0.010 C 
HETATM   38  C33 UNL     1       4.030   2.072   0.149  1.00  0.00     0.007 C 
HETATM   39  C34 UNL     1       2.521   2.212   0.031  1.00  0.00     0.025 C 
BRANCH  37  40
HETATM   40  C21 UNL     1       5.731   0.480   1.140  1.00  0.00     0.049 C 
BRANCH  40  41
HETATM   41  C22 UNL     1       5.988  -0.127  -0.159  1.00  0.00     0.056 C 
HETATM   42  N6  UNL     1       7.049  -0.927  -0.423  1.00  0.00    -0.393 N 
ATOM     43  H6  UNL     1       6.783  -1.867  -0.715  1.00  0.00     0.159 HD
BRANCH  42  44
HETATM   44  C23 UNL     1       8.408  -0.736  -0.380  1.00  0.00     0.030 C 
HETATM   45  C24 UNL     1       8.947  -1.246   0.971  1.00  0.00     0.035 C 
HETATM   46  C25 UNL     1      10.442  -1.257   1.031  1.00  0.00    -0.012 C 
HETATM   47  C26 UNL     1      10.877   0.198   0.937  1.00  0.00     0.009 C 
HETATM   48  C30 UNL     1      11.025  -2.071  -0.071  1.00  0.00     0.009 C 
HETATM   49  C27 UNL     1      10.384   0.721  -0.371  1.00  0.00    -0.012 C 
HETATM   50  C28 UNL     1      11.035  -0.077  -1.485  1.00  0.00     0.009 C 
HETATM   51  C32 UNL     1       8.877   0.712  -0.530  1.00  0.00     0.035 C 
HETATM   52  C29 UNL     1      10.567  -1.496  -1.398  1.00  0.00    -0.012 C 
HETATM   53  C31 UNL     1       9.078  -1.516  -1.483  1.00  0.00     0.035 C 
ENDBRANCH  42  44
ENDBRANCH  40  41
ENDBRANCH  37  40
ENDBRANCH  32  34
ENDBRANCH   1  30
TORSDOF 12
