REMARK  3 active torsions:
REMARK  status: ('A' for Active; 'I' for Inactive)
REMARK    1  A    between atoms: C2_2  and  C3_3 
REMARK    2  A    between atoms: C5_5  and  O1_6 
REMARK    3  A    between atoms: C10_13  and  O2_14 
ROOT
HETATM    1  C3  UNL     1       2.540   0.229  -0.016  1.00  0.00     0.026 C 
HETATM    2  C4  UNL     1       2.731   1.566  -0.816  1.00  0.00     0.052 C 
HETATM    3  C5  UNL     1       2.728   2.723   0.150  1.00  0.00     0.185 C 
HETATM    4  S1  UNL     1       1.930   2.191   1.745  1.00  0.00    -0.098 SA
HETATM    5  C6  UNL     1       0.646   1.103   1.106  1.00  0.00     0.013 A 
HETATM    6  C7  UNL     1      -0.640   1.279   1.446  1.00  0.00     0.028 A 
HETATM    7  C8  UNL     1      -1.591   0.500   0.820  1.00  0.00    -0.027 A 
HETATM    8  C9  UNL     1      -1.183  -0.420  -0.122  1.00  0.00     0.068 A 
HETATM    9  C10 UNL     1       0.187  -0.590  -0.465  1.00  0.00     0.103 A 
HETATM   10  C12 UNL     1       1.114   0.156   0.137  1.00  0.00    -0.001 A 
HETATM   11  N1  UNL     1      -2.191  -1.192  -0.748  1.00  0.00    -0.387 N 
ATOM     12  H1  UNL     1      -1.969  -2.103  -1.149  1.00  0.00     0.159 HD
HETATM   13  C13 UNL     1      -3.543  -0.673  -0.812  1.00  0.00     0.124 C 
HETATM   14  C14 UNL     1      -3.998  -0.111   0.499  1.00  0.00     0.003 C 
HETATM   15  C15 UNL     1      -5.192   0.804   0.188  1.00  0.00     0.012 C 
HETATM   16  C16 UNL     1      -2.988   0.708   1.210  1.00  0.00     0.046 C 
ENDROOT
BRANCH   1  17
HETATM   17  C2  UNL     1       3.435  -0.740  -0.586  1.00  0.00     0.005 C 
HETATM   18  C1  UNL     1       3.550  -2.085   0.096  1.00  0.00     0.006 C 
ENDBRANCH   1  17
BRANCH   3  19
HETATM   19  O1  UNL     1       3.947   3.306   0.369  1.00  0.00    -0.385 OA
ATOM     20  H1  UNL     1       3.945   4.035   0.978  1.00  0.00     0.211 HD
ENDBRANCH   3  19
BRANCH   9  21
HETATM   21  O2  UNL     1       0.419  -1.516  -1.415  1.00  0.00    -0.353 OA
HETATM   22  C11 UNL     1       0.557  -2.874  -1.479  1.00  0.00     0.210 C 
ENDBRANCH   9  21
TORSDOF 3
