REMARK  2 active torsions:
REMARK  status: ('A' for Active; 'I' for Inactive)
REMARK    1  A    between atoms: C5_6  and  C6_7 
REMARK    2  A    between atoms: N4_14  and  N5_15 
ROOT
HETATM    1  C1  UNL     1       3.855  -1.166  -4.197  1.00  0.00     0.231 C 
HETATM    2  N1  UNL     1       3.737  -1.047  -3.055  1.00  0.00    -0.411 NA
HETATM    3  C2  UNL     1       3.599  -0.920  -1.668  1.00  0.00     0.177 A 
HETATM    4  C3  UNL     1       4.406  -1.490  -0.716  1.00  0.00     0.066 A 
HETATM    5  C4  UNL     1       3.906  -1.104   0.505  1.00  0.00     0.038 A 
HETATM    6  C5  UNL     1       2.801  -0.304   0.310  1.00  0.00     0.082 A 
HETATM    7  N6  UNL     1       2.656  -0.223  -1.012  1.00  0.00    -0.328 N 
ATOM      8  H6  UNL     1       1.916   0.306  -1.472  1.00  0.00     0.168 HD
ENDROOT
BRANCH   6   9
HETATM    9  C6  UNL     1       2.020   0.278   1.397  1.00  0.00     0.171 A 
HETATM   10  N2  UNL     1       2.285   0.117   2.731  1.00  0.00    -0.280 N 
HETATM   11  N3  UNL     1       1.397   0.772   3.442  1.00  0.00    -0.273 N 
ATOM     12  H2  UNL     1       3.056  -0.430   3.114  1.00  0.00     0.188 HD
HETATM   13  C7  UNL     1       0.522   1.383   2.630  1.00  0.00     0.214 A 
ATOM     14  H3  UNL     1       1.376   0.811   4.461  1.00  0.00     0.189 HD
HETATM   15  S1  UNL     1      -0.753   2.319   3.060  1.00  0.00    -0.037 SA
HETATM   16  N4  UNL     1       0.929   1.062   1.363  1.00  0.00    -0.209 N 
BRANCH  16  17
HETATM   17  N5  UNL     1       0.272   1.505   0.227  1.00  0.00    -0.298 N 
HETATM   18  C8  UNL     1      -0.795   0.908  -0.169  1.00  0.00     0.004 C 
HETATM   19  C9  UNL     1      -1.252  -0.239   0.642  1.00  0.00     0.054 C 
HETATM   20  C14 UNL     1      -1.445   1.458  -1.415  1.00  0.00     0.054 C 
HETATM   21  C10 UNL     1      -1.835  -1.322  -0.286  1.00  0.00     0.006 C 
HETATM   22  C11 UNL     1      -3.285  -1.007  -0.583  1.00  0.00     0.000 C 
HETATM   23  C12 UNL     1      -3.429  -0.040  -1.728  1.00  0.00     0.000 C 
HETATM   24  C13 UNL     1      -2.947   1.331  -1.318  1.00  0.00     0.006 C 
ATOM     25  H5  UNL     1       0.634   2.303  -0.294  1.00  0.00     0.187 HD
ENDBRANCH  16  17
ENDBRANCH   6   9
TORSDOF 2
