REMARK  3 active torsions:
REMARK  status: ('A' for Active; 'I' for Inactive)
REMARK    1  A    between atoms: C2_2  and  C3_3 
REMARK    2  A    between atoms: C3_3  and  N1_4 
REMARK    3  A    between atoms: C3_3  and  C5_7 
ROOT
HETATM    1  C5  UNL     1      -1.224  -0.850   0.063  1.00  0.00     0.012 A 
HETATM    2  C6  UNL     1      -1.269  -2.081   0.774  1.00  0.00     0.016 A 
HETATM    3  C7  UNL     1      -2.553  -2.792   0.913  1.00  0.00     0.069 C 
HETATM    4  N2  UNL     1      -0.114  -2.542   1.239  1.00  0.00    -0.353 N 
ATOM      5  H2  UNL     1      -0.104  -3.422   1.754  1.00  0.00     0.166 HD
HETATM    6  C8  UNL     1       1.056  -1.875   1.049  1.00  0.00     0.087 A 
HETATM    7  S1  UNL     1       2.634  -2.237   1.559  1.00  0.00    -0.075 SA
HETATM    8  C9  UNL     1       3.445  -0.880   0.916  1.00  0.00    -0.008 A 
HETATM    9  C10 UNL     1       2.458  -0.175   0.317  1.00  0.00    -0.030 A 
HETATM   10  C11 UNL     1       1.188  -0.692   0.379  1.00  0.00     0.030 A 
HETATM   11  C12 UNL     1      -0.055  -0.191  -0.125  1.00  0.00     0.070 A 
HETATM   12  N3  UNL     1      -0.045   1.094  -0.774  1.00  0.00    -0.101 NA
HETATM   13  C13 UNL     1       2.879   1.128  -0.329  1.00  0.00     0.040 C 
HETATM   14  C14 UNL     1       4.309   1.303  -0.494  1.00  0.00     0.005 C 
HETATM   15  C15 UNL     1       5.236   0.189  -0.264  1.00  0.00     0.005 C 
HETATM   16  C16 UNL     1       4.883  -0.542   1.004  1.00  0.00     0.047 C 
ENDROOT
BRANCH   1  17
HETATM   17  C3  UNL     1      -2.538  -0.227  -0.246  1.00  0.00     0.117 C 
BRANCH  17  18
HETATM   18  C2  UNL     1      -2.696   0.021  -1.703  1.00  0.00     0.025 C 
HETATM   19  C1  UNL     1      -4.097   0.532  -2.079  1.00  0.00     0.007 C 
ENDBRANCH  17  18
BRANCH  17  20
HETATM   20  N1  UNL     1      -2.580   0.953   0.539  1.00  0.00    -0.399 N 
HETATM   21  C4  UNL     1      -3.581   1.864   0.665  1.00  0.00     0.112 C 
ATOM     22  H1  UNL     1      -1.741   1.145   1.086  1.00  0.00     0.158 HD
ENDBRANCH  17  20
ENDBRANCH   1  17
TORSDOF 3
