REMARK  2 active torsions:
REMARK  status: ('A' for Active; 'I' for Inactive)
REMARK    1  A    between atoms: C5_6  and  N1_7 
REMARK       I    between atoms: N1_7  and  C6_9 
REMARK       I    between atoms: C6_9  and  N3_11 
REMARK    2  A    between atoms: N3_11  and  N4_13 
ROOT
HETATM    1  N1  UNL     1       2.539   0.612   0.717  1.00  0.00    -0.329 N 
ATOM      2  H1  UNL     1       2.319   1.565   1.008  1.00  0.00     0.168 HD
HETATM    3  C6  UNL     1       1.608  -0.262   0.654  1.00  0.00     0.207 C 
HETATM    4  N2  UNL     1       1.859  -1.601   0.255  1.00  0.00    -0.062 NA
HETATM    5  N3  UNL     1       0.275   0.190   1.004  1.00  0.00    -0.274 N 
ATOM      6  H3  UNL     1       0.020   0.425   1.963  1.00  0.00     0.189 HD
ENDROOT
BRANCH   5   7
HETATM    7  N4  UNL     1      -0.607   0.282  -0.010  1.00  0.00    -0.305 N 
HETATM    8  C7  UNL     1      -1.799   0.044  -0.228  1.00  0.00     0.021 C 
HETATM    9  C8  UNL     1      -2.327   0.342  -1.603  1.00  0.00     0.056 C 
HETATM   10  C11 UNL     1      -2.739  -0.503   0.744  1.00  0.00     0.041 C 
HETATM   11  C9  UNL     1      -3.639   1.037  -1.604  1.00  0.00     0.016 C 
HETATM   12  C10 UNL     1      -3.838   1.924  -0.406  1.00  0.00     0.075 C 
HETATM   13  S2  UNL     1      -3.977   0.831   1.041  1.00  0.00    -0.154 SA
HETATM   14  C12 UNL     1      -2.178  -0.900   2.066  1.00  0.00     0.033 C 
HETATM   15  C13 UNL     1      -3.477  -1.726   0.198  1.00  0.00     0.033 C 
ATOM     16  H4  UNL     1      -0.158   0.660  -0.844  1.00  0.00     0.186 HD
ENDBRANCH   5   7
BRANCH   1  17
HETATM   17  C5  UNL     1       3.916   0.257   0.376  1.00  0.00     0.047 A 
HETATM   18  C2  UNL     1       4.529   0.887  -0.684  1.00  0.00     0.005 A 
HETATM   19  C1  UNL     1       3.956   1.943  -1.587  1.00  0.00     0.058 C 
HETATM   20  S1  UNL     1       6.076   0.176  -0.713  1.00  0.00    -0.104 SA
HETATM   21  C3  UNL     1       5.914  -0.893   0.605  1.00  0.00     0.052 A 
HETATM   22  C4  UNL     1       4.635  -0.656   1.033  1.00  0.00     0.038 A 
ENDBRANCH   1  17
TORSDOF 2
