REMARK  13 active torsions:
REMARK  status: ('A' for Active; 'I' for Inactive)
REMARK    1  A    between atoms: O1_2  and  C2_3 
REMARK    2  A    between atoms: C2_3  and  C3_5 
REMARK    3  A    between atoms: C3_5  and  C4_6 
REMARK    4  A    between atoms: C3_5  and  N1_11 
REMARK    5  A    between atoms: C4_6  and  C5_7 
REMARK    6  A    between atoms: C5_7  and  C6_8 
REMARK       I    between atoms: N1_11  and  C7_13 
REMARK    7  A    between atoms: C7_13  and  C8_15 
REMARK    8  A    between atoms: N3_23  and  C13_24 
REMARK    9  A    between atoms: C13_24  and  O7_25 
REMARK   10  A    between atoms: C14_27  and  N4_28 
REMARK   11  A    between atoms: C14_27  and  C24_42 
REMARK       I    between atoms: N4_28  and  C15_30 
REMARK   12  A    between atoms: C15_30  and  C16_32 
REMARK   13  A    between atoms: C18_34  and  C19_35 
ROOT
HETATM    1  C8  UNL     1       1.617  -0.912   1.104  1.00  0.00     0.173 C 
HETATM    2  C9  UNL     1       2.581  -0.799   2.287  1.00  0.00     0.274 C 
HETATM    3  O6  UNL     1       2.514   0.159   3.114  1.00  0.00    -0.266 OA
HETATM    4  N2  UNL     1       3.547  -1.810   2.400  1.00  0.00    -0.354 N 
ATOM      5  H2  UNL     1       4.292  -1.753   3.094  1.00  0.00     0.162 HD
HETATM    6  C10 UNL     1       3.450  -2.929   1.503  1.00  0.00     0.148 C 
HETATM    7  C11 UNL     1       2.074  -3.350   1.193  1.00  0.00     0.106 C 
HETATM    8  C12 UNL     1       2.109  -4.279   0.007  1.00  0.00     0.034 C 
HETATM    9  N3  UNL     1       1.142  -2.211   0.920  1.00  0.00    -0.311 N 
ENDROOT
BRANCH   9  10
HETATM   10  C13 UNL     1      -0.104  -2.629   0.453  1.00  0.00     0.167 C 
HETATM   11  C14 UNL     1      -1.201  -2.074  -0.280  1.00  0.00     0.071 C 
BRANCH  10  12
HETATM   12  O7  UNL     1      -0.291  -3.911   0.806  1.00  0.00    -0.344 OA
ATOM     13  H7  UNL     1      -1.140  -4.196   0.488  1.00  0.00     0.219 HD
ENDBRANCH  10  12
BRANCH  11  14
HETATM   14  N4  UNL     1      -1.996  -1.008   0.223  1.00  0.00    -0.322 N 
HETATM   15  C15 UNL     1      -3.083  -1.041   1.113  1.00  0.00     0.258 C 
HETATM   16  O8  UNL     1      -3.446  -2.133   1.603  1.00  0.00    -0.267 OA
ATOM     17  H4  UNL     1      -1.739  -0.080  -0.113  1.00  0.00     0.169 HD
BRANCH  15  18
HETATM   18  C16 UNL     1      -3.816   0.227   1.471  1.00  0.00     0.062 A 
HETATM   19  C17 UNL     1      -4.880   0.691   0.752  1.00  0.00     0.034 A 
HETATM   20  C18 UNL     1      -5.447   1.853   1.163  1.00  0.00    -0.007 A 
HETATM   21  S1  UNL     1      -4.526   2.295   2.522  1.00  0.00    -0.081 SA
HETATM   22  C23 UNL     1      -3.428   0.986   2.539  1.00  0.00     0.090 A 
HETATM   23 CL1  UNL     1      -2.102   0.672   3.681  1.00  0.00    -0.075 Cl
BRANCH  20  24
HETATM   24  C19 UNL     1      -6.633   2.513   0.487  1.00  0.00    -0.018 C 
HETATM   25  C20 UNL     1      -6.151   2.793  -0.942  1.00  0.00     0.020 C 
HETATM   26  C21 UNL     1      -7.787   1.558   0.389  1.00  0.00     0.020 C 
HETATM   27  C22 UNL     1      -6.939   3.788   1.162  1.00  0.00     0.020 C 
ENDBRANCH  20  24
ENDBRANCH  15  18
ENDBRANCH  11  14
BRANCH  11  28
HETATM   28  C24 UNL     1      -1.408  -2.356  -1.724  1.00  0.00    -0.004 C 
HETATM   29  C25 UNL     1      -1.611  -3.878  -1.997  1.00  0.00     0.021 C 
HETATM   30  C26 UNL     1      -2.801  -1.775  -2.061  1.00  0.00     0.021 C 
HETATM   31  C27 UNL     1      -0.503  -1.793  -2.741  1.00  0.00     0.021 C 
ENDBRANCH  11  28
ENDBRANCH   9  10
BRANCH   1  32
HETATM   32  C7  UNL     1       2.151  -0.026   0.105  1.00  0.00     0.274 C 
HETATM   33  N1  UNL     1       3.373   0.734   0.264  1.00  0.00    -0.342 N 
ATOM     34  H1  UNL     1       3.904   0.610   1.126  1.00  0.00     0.163 HD
HETATM   35  O5  UNL     1       1.621   0.194  -1.021  1.00  0.00    -0.266 OA
BRANCH  33  36
HETATM   36  C3  UNL     1       3.885   1.652  -0.715  1.00  0.00     0.185 C 
BRANCH  36  37
HETATM   37  C2  UNL     1       5.100   1.100  -1.358  1.00  0.00     0.281 C 
HETATM   38  O2  UNL     1       5.648   0.032  -1.013  1.00  0.00    -0.263 OA
BRANCH  37  39
HETATM   39  O1  UNL     1       5.683   1.804  -2.415  1.00  0.00    -0.325 OA
HETATM   40  C1  UNL     1       6.817   1.425  -3.119  1.00  0.00     0.213 C 
ENDBRANCH  37  39
ENDBRANCH  36  37
BRANCH  36  41
HETATM   41  C4  UNL     1       4.193   3.006  -0.103  1.00  0.00     0.046 C 
BRANCH  41  42
HETATM   42  C5  UNL     1       5.291   2.875   0.952  1.00  0.00     0.116 C 
BRANCH  42  43
HETATM   43  C6  UNL     1       5.622   4.155   1.594  1.00  0.00     0.172 C 
HETATM   44  O3  UNL     1       5.074   5.222   1.272  1.00  0.00    -0.648 OA
HETATM   45  O4  UNL     1       6.586   4.143   2.597  1.00  0.00    -0.648 OA
ENDBRANCH  42  43
ENDBRANCH  41  42
ENDBRANCH  36  41
ENDBRANCH  33  36
ENDBRANCH   1  32
TORSDOF 13
