REMARK  10 active torsions:
REMARK  status: ('A' for Active; 'I' for Inactive)
REMARK       I    between atoms: C2_2  and  N1_4 
REMARK    1  A    between atoms: N1_4  and  C3_6 
REMARK    2  A    between atoms: C3_6  and  C4_7 
REMARK    3  A    between atoms: C19_30  and  C20_31 
REMARK    4  A    between atoms: C20_31  and  C21_32 
REMARK    5  A    between atoms: C21_32  and  C22_33 
REMARK    6  A    between atoms: C22_33  and  C23_34 
REMARK    7  A    between atoms: C23_34  and  C24_35 
REMARK    8  A    between atoms: C24_35  and  C25_36 
REMARK    9  A    between atoms: C25_36  and  O5_37 
REMARK   10  A    between atoms: N4_39  and  O6_41 
ROOT
HETATM    1  C4  UNL     1      -0.294   2.417   0.841  1.00  0.00     0.231 C 
HETATM    2  O2  UNL     1      -1.561   1.869   0.756  1.00  0.00    -0.375 OA
HETATM    3  C5  UNL     1      -2.042   1.575   2.001  1.00  0.00     0.169 C 
HETATM    4  C6  UNL     1      -3.527   1.310   1.866  1.00  0.00     0.028 C 
HETATM    5  C7  UNL     1      -3.747  -0.159   1.679  1.00  0.00     0.027 C 
HETATM    6  C8  UNL     1      -3.492  -0.565   0.276  1.00  0.00     0.087 C 
HETATM    7  C9  UNL     1      -4.574   0.001  -0.617  1.00  0.00     0.025 C 
HETATM    8  C10 UNL     1      -5.953  -0.433  -0.163  1.00  0.00     0.004 C 
HETATM    9  C11 UNL     1      -5.967  -1.925   0.093  1.00  0.00     0.020 C 
HETATM   10  C12 UNL     1      -4.734  -2.516  -0.553  1.00  0.00     0.126 C 
HETATM   11  N2  UNL     1      -3.535  -2.036   0.111  1.00  0.00    -0.345 N 
HETATM   12  C13 UNL     1      -2.554  -2.923   0.527  1.00  0.00     0.259 C 
HETATM   13  O3  UNL     1      -2.953  -3.959   1.165  1.00  0.00    -0.270 OA
HETATM   14  C14 UNL     1      -1.085  -2.850   0.338  1.00  0.00     0.165 C 
HETATM   15  C15 UNL     1      -0.469  -4.229   0.222  1.00  0.00     0.073 C 
HETATM   16  C16 UNL     1      -0.285  -4.834   1.546  1.00  0.00     0.095 C 
HETATM   17 CL1  UNL     1       0.981  -6.112   1.359  1.00  0.00    -0.124 Cl
HETATM   18  C17 UNL     1       0.310  -3.832   2.503  1.00  0.00     0.097 C 
HETATM   19  S1  UNL     1      -0.362  -2.271   1.867  1.00  0.00    -0.127 SA
HETATM   20  N3  UNL     1      -0.720  -2.135  -0.846  1.00  0.00    -0.333 N 
ATOM     21  H3  UNL     1      -1.369  -2.233  -1.626  1.00  0.00     0.164 HD
HETATM   22  C18 UNL     1       0.394  -1.320  -1.099  1.00  0.00     0.242 C 
HETATM   23  O4  UNL     1       1.141  -1.615  -2.105  1.00  0.00    -0.271 OA
HETATM   24  C19 UNL     1       0.841  -0.131  -0.348  1.00  0.00     0.178 C 
HETATM   25  N5  UNL     1       0.649   1.096  -1.123  1.00  0.00    -0.341 N 
HETATM   26  C26 UNL     1       0.684   1.107  -2.574  1.00  0.00     0.153 C 
HETATM   27  C27 UNL     1       0.417   2.312  -0.431  1.00  0.00     0.251 C 
HETATM   28  O7  UNL     1       0.861   3.395  -0.956  1.00  0.00    -0.270 OA
ENDROOT
BRANCH  24  29
HETATM   29  C20 UNL     1       2.233  -0.146   0.157  1.00  0.00     0.035 C 
BRANCH  29  30
HETATM   30  C21 UNL     1       3.336  -0.264  -0.831  1.00  0.00     0.002 C 
BRANCH  30  31
HETATM   31  C22 UNL     1       4.656  -0.252  -0.024  1.00  0.00     0.001 C 
BRANCH  31  32
HETATM   32  C23 UNL     1       5.811  -0.358  -1.011  1.00  0.00     0.008 C 
BRANCH  32  33
HETATM   33  C24 UNL     1       7.097  -0.350  -0.212  1.00  0.00     0.086 C 
BRANCH  33  34
HETATM   34  C25 UNL     1       8.244  -0.445  -1.127  1.00  0.00     0.135 C 
HETATM   35  N4  UNL     1       9.046  -1.424  -1.088  1.00  0.00    -0.251 N 
ATOM     36  H4  UNL     1       8.851  -2.140  -0.389  1.00  0.00     0.196 HD
BRANCH  34  37
HETATM   37  O5  UNL     1       8.436   0.579  -2.052  1.00  0.00    -0.348 OA
ATOM     38  H5  UNL     1       9.177   0.518  -2.643  1.00  0.00     0.219 HD
ENDBRANCH  34  37
BRANCH  35  39
HETATM   39  O6  UNL     1      10.134  -1.628  -1.870  1.00  0.00    -0.288 OA
ATOM     40  H6  UNL     1      10.736  -2.363  -1.841  1.00  0.00     0.244 HD
ENDBRANCH  35  39
ENDBRANCH  33  34
ENDBRANCH  32  33
ENDBRANCH  31  32
ENDBRANCH  30  31
ENDBRANCH  29  30
ENDBRANCH  24  29
BRANCH   1  41
HETATM   41  C3  UNL     1      -0.484   3.858   1.261  1.00  0.00     0.164 C 
BRANCH  41  42
HETATM   42  N1  UNL     1      -1.310   4.515   0.292  1.00  0.00    -0.358 N 
HETATM   43  C2  UNL     1      -1.687   5.878   0.386  1.00  0.00     0.213 C 
HETATM   44  C1  UNL     1      -2.533   6.616  -0.553  1.00  0.00     0.117 C 
HETATM   45  O1  UNL     1      -1.234   6.515   1.408  1.00  0.00    -0.274 OA
ATOM     46  H1  UNL     1      -1.644   3.974  -0.506  1.00  0.00     0.162 HD
ENDBRANCH  41  42
ENDBRANCH   1  41
TORSDOF 10
