REMARK  14 active torsions:
REMARK  status: ('A' for Active; 'I' for Inactive)
REMARK    1  A    between atoms: C2_2  and  O1_3 
REMARK    2  A    between atoms: O1_3  and  C3_4 
REMARK       I    between atoms: C3_4  and  N1_6 
REMARK    3  A    between atoms: N1_6  and  C5_8 
REMARK    4  A    between atoms: C5_8  and  C6_9 
REMARK    5  A    between atoms: C5_8  and  C10_13 
REMARK    6  A    between atoms: C6_9  and  C7_10 
REMARK       I    between atoms: C10_13  and  N2_15 
REMARK    7  A    between atoms: N2_15  and  C11_17 
REMARK    8  A    between atoms: C11_17  and  C12_18 
REMARK    9  A    between atoms: C11_17  and  C14_20 
REMARK       I    between atoms: C14_20  and  N3_22 
REMARK   10  A    between atoms: N3_22  and  C15_24 
REMARK   11  A    between atoms: C18_28  and  C19_29 
REMARK   12  A    between atoms: C20_30  and  C21_31 
REMARK   13  A    between atoms: C21_31  and  O6_34 
REMARK   14  A    between atoms: C28_41  and  O7_42 
ROOT
HETATM    1  C14 UNL     1      -0.079   1.643   0.005  1.00  0.00     0.240 C 
HETATM    2  O4  UNL     1      -0.323   0.405   0.116  1.00  0.00    -0.271 OA
HETATM    3  N3  UNL     1       1.197   2.128   0.307  1.00  0.00    -0.350 N 
ATOM      4  H3  UNL     1       1.365   3.131   0.228  1.00  0.00     0.163 HD
ENDROOT
BRANCH   3   5
HETATM    5  C15 UNL     1       2.298   1.275   0.728  1.00  0.00     0.142 C 
HETATM    6  C16 UNL     1       3.582   1.667   0.082  1.00  0.00     0.203 C 
HETATM    7  O5  UNL     1       4.678   0.962   0.666  1.00  0.00    -0.347 OA
HETATM    8  C17 UNL     1       4.495   0.009   1.673  1.00  0.00     0.096 A 
HETATM    9  C18 UNL     1       5.363  -1.038   1.888  1.00  0.00     0.053 A 
HETATM   10  C27 UNL     1       3.382   0.112   2.509  1.00  0.00     0.009 A 
HETATM   11  C24 UNL     1       5.174  -1.975   2.886  1.00  0.00     0.042 A 
HETATM   12  C25 UNL     1       4.062  -1.871   3.720  1.00  0.00     0.013 A 
HETATM   13 BR1  UNL     1       3.771  -3.156   5.115  1.00  0.00    -0.051 Br
HETATM   14  C26 UNL     1       3.207  -0.815   3.486  1.00  0.00     0.032 A 
HETATM   15  C28 UNL     1       2.468   1.248   2.239  1.00  0.00     0.178 C 
BRANCH   9  16
HETATM   16  C19 UNL     1       6.518  -1.131   1.010  1.00  0.00    -0.061 C 
HETATM   17  C20 UNL     1       7.466  -1.197   0.276  1.00  0.00    -0.064 C 
BRANCH  17  18
HETATM   18  C21 UNL     1       8.605  -1.265  -0.637  1.00  0.00     0.114 C 
HETATM   19  C22 UNL     1       9.927  -1.130   0.059  1.00  0.00     0.060 C 
HETATM   20  C23 UNL     1       8.633  -2.614  -1.376  1.00  0.00     0.060 C 
BRANCH  18  21
HETATM   21  O6  UNL     1       8.415  -0.268  -1.595  1.00  0.00    -0.378 OA
ATOM     22  H6  UNL     1       9.155  -0.312  -2.189  1.00  0.00     0.211 HD
ENDBRANCH  18  21
ENDBRANCH  17  18
ENDBRANCH   9  16
BRANCH  15  23
HETATM   23  O7  UNL     1       3.121   2.421   2.634  1.00  0.00    -0.389 OA
ATOM     24  H7  UNL     1       3.227   2.404   3.578  1.00  0.00     0.210 HD
ENDBRANCH  15  23
ENDBRANCH   3   5
BRANCH   1  25
HETATM   25  C11 UNL     1      -1.165   2.533  -0.442  1.00  0.00     0.176 C 
BRANCH  25  26
HETATM   26  N2  UNL     1      -2.424   1.826  -0.284  1.00  0.00    -0.343 N 
HETATM   27  C10 UNL     1      -3.108   1.130  -1.296  1.00  0.00     0.268 C 
HETATM   28  O3  UNL     1      -2.570   1.119  -2.446  1.00  0.00    -0.266 OA
ATOM     29  H2  UNL     1      -2.849   1.835   0.643  1.00  0.00     0.163 HD
BRANCH  27  30
HETATM   30  C5  UNL     1      -4.402   0.430  -1.042  1.00  0.00     0.103 C 
BRANCH  30  31
HETATM   31  N1  UNL     1      -4.681  -0.556  -2.028  1.00  0.00    -0.293 N 
HETATM   32  C3  UNL     1      -5.775  -0.416  -2.915  1.00  0.00     0.367 C 
HETATM   33  O2  UNL     1      -6.546   0.570  -2.829  1.00  0.00    -0.238 OA
HETATM   34  C4  UNL     1      -3.809  -1.697  -2.213  1.00  0.00     0.162 C 
BRANCH  32  35
HETATM   35  O1  UNL     1      -5.992  -1.370  -3.879  1.00  0.00    -0.304 OA
BRANCH  35  36
HETATM   36  C2  UNL     1      -7.032  -1.330  -4.810  1.00  0.00     0.176 C 
HETATM   37  C1  UNL     1      -8.361  -1.322  -4.118  1.00  0.00     0.034 C 
ENDBRANCH  35  36
ENDBRANCH  32  35
ENDBRANCH  30  31
BRANCH  30  38
HETATM   38  C6  UNL     1      -4.695   0.193   0.376  1.00  0.00     0.012 C 
BRANCH  38  39
HETATM   39  C7  UNL     1      -4.105  -0.892   1.171  1.00  0.00     0.002 C 
HETATM   40  C8  UNL     1      -4.668  -0.637   2.627  1.00  0.00     0.013 C 
HETATM   41  C9  UNL     1      -4.715  -2.285   0.896  1.00  0.00     0.013 C 
ENDBRANCH  38  39
ENDBRANCH  30  38
ENDBRANCH  27  30
ENDBRANCH  25  26
BRANCH  25  42
HETATM   42  C12 UNL     1      -1.123   3.894   0.125  1.00  0.00     0.030 C 
HETATM   43  C13 UNL     1      -1.368   3.957   1.611  1.00  0.00     0.007 C 
ENDBRANCH  25  42
ENDBRANCH   1  25
TORSDOF 14
