REMARK  10 active torsions:
REMARK  status: ('A' for Active; 'I' for Inactive)
REMARK    1  A    between atoms: C2_2  and  N1_3 
REMARK    2  A    between atoms: C2_2  and  C10_14 
REMARK       I    between atoms: N1_3  and  C3_5 
REMARK       I    between atoms: C3_5  and  N2_7 
REMARK    3  A    between atoms: C10_14  and  O3_16 
REMARK    4  A    between atoms: O3_16  and  C11_17 
REMARK    5  A    between atoms: C14_22  and  N3_23 
REMARK       I    between atoms: N3_23  and  C15_25 
REMARK    6  A    between atoms: C15_25  and  C16_27 
REMARK    7  A    between atoms: C16_27  and  C17_28 
REMARK    8  A    between atoms: C16_27  and  N4_37 
REMARK    9  A    between atoms: C17_28  and  C18_29 
REMARK       I    between atoms: N4_37  and  C25_39 
REMARK   10  A    between atoms: C25_39  and  C26_41 
ROOT
HETATM    1  N3  UNL     1      -0.105  -1.953   0.592  1.00  0.00    -0.349 N 
ATOM      2  H3  UNL     1       0.315  -1.435  -0.180  1.00  0.00     0.163 HD
HETATM    3  C15 UNL     1      -1.502  -1.885   0.839  1.00  0.00     0.240 C 
HETATM    4  O6  UNL     1      -2.051  -2.499   1.775  1.00  0.00    -0.271 OA
ENDROOT
BRANCH   3   5
HETATM    5  C16 UNL     1      -2.401  -1.048  -0.048  1.00  0.00     0.177 C 
BRANCH   5   6
HETATM    6  C17 UNL     1      -1.966   0.365   0.147  1.00  0.00     0.039 C 
BRANCH   6   7
HETATM    7  C18 UNL     1      -2.668   1.410  -0.630  1.00  0.00    -0.012 C 
HETATM    8  C19 UNL     1      -2.559   1.219  -2.133  1.00  0.00     0.005 C 
HETATM    9  C20 UNL     1      -2.792   2.557  -2.798  1.00  0.00     0.003 C 
HETATM   10  C21 UNL     1      -4.251   2.830  -3.022  1.00  0.00     0.037 C 
HETATM   11  C22 UNL     1      -4.952   3.458  -1.864  1.00  0.00     0.170 C 
HETATM   12  F1  UNL     1      -4.948   4.849  -2.017  1.00  0.00    -0.249 F 
HETATM   13  C23 UNL     1      -4.362   3.174  -0.521  1.00  0.00     0.037 C 
HETATM   14  C24 UNL     1      -4.093   1.677  -0.293  1.00  0.00     0.007 C 
ENDBRANCH   6   7
ENDBRANCH   5   6
BRANCH   5  15
HETATM   15  N4  UNL     1      -3.773  -1.217   0.358  1.00  0.00    -0.347 N 
HETATM   16  C25 UNL     1      -4.692  -1.910  -0.451  1.00  0.00     0.224 C 
HETATM   17  O7  UNL     1      -4.231  -2.369  -1.556  1.00  0.00    -0.273 OA
ATOM     18  H4  UNL     1      -4.084  -0.827   1.248  1.00  0.00     0.163 HD
BRANCH  16  19
HETATM   19  C26 UNL     1      -6.100  -2.163  -0.176  1.00  0.00     0.110 C 
HETATM   20  C27 UNL     1      -6.346  -2.818   1.194  1.00  0.00     0.049 C 
HETATM   21  C28 UNL     1      -7.669  -2.138   1.551  1.00  0.00     0.187 C 
HETATM   22  C29 UNL     1      -8.665  -2.499   0.497  1.00  0.00     0.035 C 
HETATM   23  N5  UNL     1      -7.314  -0.752   1.194  1.00  0.00    -0.066 N 
HETATM   24  C30 UNL     1      -8.392  -1.535  -0.655  1.00  0.00     0.036 C 
HETATM   25  C31 UNL     1      -7.022  -1.003  -0.230  1.00  0.00     0.199 C 
ATOM     26  H52 UNL     1      -8.000  -0.028   1.406  1.00  0.00     0.278 HD
ATOM     27  H51 UNL     1      -6.583  -0.303   1.746  1.00  0.00     0.278 HD
ENDBRANCH  16  19
ENDBRANCH   5  15
ENDBRANCH   3   5
BRANCH   1  28
HETATM   28  C14 UNL     1       0.708  -2.775   1.463  1.00  0.00     0.150 C 
HETATM   29  C11 UNL     1       2.027  -2.210   1.793  1.00  0.00     0.302 C 
HETATM   30  O4  UNL     1       2.831  -3.329   2.098  1.00  0.00    -0.287 OA
HETATM   31  C12 UNL     1       2.405  -4.373   1.308  1.00  0.00     0.263 C 
HETATM   32  O5  UNL     1       3.121  -5.415   1.136  1.00  0.00    -0.265 OA
HETATM   33  C13 UNL     1       1.070  -4.086   0.740  1.00  0.00     0.141 C 
BRANCH  29  34
HETATM   34  O3  UNL     1       2.601  -1.601   0.614  1.00  0.00    -0.285 OA
BRANCH  34  35
HETATM   35  C10 UNL     1       3.147  -0.342   0.715  1.00  0.00     0.283 C 
HETATM   36  O2  UNL     1       3.150   0.232   1.826  1.00  0.00    -0.263 OA
BRANCH  35  37
HETATM   37  C2  UNL     1       3.745   0.405  -0.418  1.00  0.00     0.182 C 
HETATM   38  C1  UNL     1       2.784   1.477  -0.919  1.00  0.00     0.043 C 
BRANCH  37  39
HETATM   39  N1  UNL     1       4.946   1.083   0.115  1.00  0.00    -0.330 N 
HETATM   40  C3  UNL     1       6.179   0.997  -0.544  1.00  0.00     0.319 C 
HETATM   41  O1  UNL     1       6.175   0.309  -1.631  1.00  0.00    -0.247 OA
HETATM   42  N2  UNL     1       7.393   1.553  -0.177  1.00  0.00    -0.330 N 
HETATM   43  C4  UNL     1       7.500   2.323   1.069  1.00  0.00     0.128 C 
HETATM   44  C8  UNL     1       8.645   1.457  -0.903  1.00  0.00     0.085 C 
HETATM   45  C5  UNL     1       8.435   1.512   1.951  1.00  0.00     0.020 C 
HETATM   46  C6  UNL     1       9.741   1.319   1.267  1.00  0.00     0.004 C 
HETATM   47  C7  UNL     1       9.637   0.662  -0.082  1.00  0.00     0.025 C 
HETATM   48  C9  UNL     1       8.565   0.910  -2.273  1.00  0.00     0.032 C 
ATOM     49  H1  UNL     1       4.875   1.623   0.978  1.00  0.00     0.165 HD
ENDBRANCH  37  39
ENDBRANCH  35  37
ENDBRANCH  34  35
ENDBRANCH  29  34
ENDBRANCH   1  28
TORSDOF 10
