REMARK  5 active torsions:
REMARK  status: ('A' for Active; 'I' for Inactive)
REMARK    1  A    between atoms: S1_2  and  C2_3 
REMARK    2  A    between atoms: C3_6  and  N2_7 
REMARK    3  A    between atoms: N2_7  and  C4_9 
REMARK       I    between atoms: N3_12  and  C7_13 
REMARK    4  A    between atoms: C9_21  and  N7_22 
REMARK    5  A    between atoms: N7_22  and  C10_24 
ROOT
HETATM    1  C2  UNL     1      -2.378   2.835   0.204  1.00  0.00     0.174 A 
HETATM    2  N1  UNL     1      -1.064   2.791  -0.055  1.00  0.00    -0.169 N 
ATOM      3  H1  UNL     1      -0.557   3.666  -0.187  1.00  0.00     0.186 HD
HETATM    4  C3  UNL     1      -0.381   1.607  -0.148  1.00  0.00     0.695 A 
HETATM    5  N6  UNL     1      -1.112   0.497   0.037  1.00  0.00    -0.022 N 
ATOM      6  H6  UNL     1      -0.644  -0.407  -0.023  1.00  0.00     0.203 HD
HETATM    7  C9  UNL     1      -2.427   0.517   0.297  1.00  0.00     0.695 A 
HETATM    8  N8  UNL     1      -3.057   1.695   0.380  1.00  0.00    -0.169 N 
ATOM      9  H8  UNL     1      -4.057   1.724   0.578  1.00  0.00     0.186 HD
ENDROOT
BRANCH   4  10
HETATM   10  N2  UNL     1       0.882   1.611  -0.398  1.00  0.00    -0.219 N 
ATOM     11  H2  UNL     1       1.370   2.498  -0.526  1.00  0.00     0.178 HD
BRANCH  10  12
HETATM   12  C4  UNL     1       1.599   0.395  -0.497  1.00  0.00     0.119 C 
HETATM   13  C5  UNL     1       2.040  -0.079   0.896  1.00  0.00     0.047 C 
HETATM   14  C6  UNL     1       2.986  -1.190   0.496  1.00  0.00     0.127 C 
HETATM   15  N3  UNL     1       3.719  -0.560  -0.594  1.00  0.00    -0.354 N 
HETATM   16  C7  UNL     1       4.999  -1.043  -1.016  1.00  0.00     0.184 C 
HETATM   17  C8  UNL     1       2.970   0.561  -1.132  1.00  0.00     0.151 C 
HETATM   18  N4  UNL     1       5.949  -0.209  -1.333  1.00  0.00    -0.374 N 
HETATM   19  N5  UNL     1       5.205  -2.437  -1.080  1.00  0.00    -0.064 NA
ATOM     20  H42 UNL     1       5.800   0.799  -1.287  1.00  0.00     0.158 HD
ATOM     21  H41 UNL     1       6.861  -0.553  -1.634  1.00  0.00     0.158 HD
ENDBRANCH  10  12
ENDBRANCH   4  10
BRANCH   1  22
HETATM   22  S1  UNL     1      -3.250   4.398   0.320  1.00  0.00    -0.097 SA
HETATM   23  C1  UNL     1      -3.852   4.818  -1.327  1.00  0.00     0.099 C 
ENDBRANCH   1  22
BRANCH   7  24
HETATM   24  N7  UNL     1      -3.124  -0.553   0.474  1.00  0.00    -0.222 N 
ATOM     25  H7  UNL     1      -4.121  -0.456   0.668  1.00  0.00     0.178 HD
BRANCH  24  26
HETATM   26  C10 UNL     1      -2.563  -1.884   0.411  1.00  0.00     0.091 C 
HETATM   27  C11 UNL     1      -1.744  -2.234   1.633  1.00  0.00     0.032 C 
HETATM   28  C12 UNL     1      -3.727  -2.844   0.280  1.00  0.00     0.032 C 
ENDBRANCH  24  26
ENDBRANCH   7  24
TORSDOF 5
