REMARK  5 active torsions:
REMARK  status: ('A' for Active; 'I' for Inactive)
REMARK    1  A    between atoms: C2_2  and  C3_3 
REMARK    2  A    between atoms: N1_4  and  C4_6 
REMARK    3  A    between atoms: C7_11  and  N3_12 
REMARK    4  A    between atoms: C8_15  and  N4_16 
REMARK    5  A    between atoms: N4_16  and  N5_18 
ROOT
HETATM    1  C4  UNL     1       1.721   0.356  -0.117  1.00  0.00     0.683 A 
HETATM    2  N2  UNL     1       2.253  -0.627   0.596  1.00  0.00    -0.193 N 
ATOM      3  H2  UNL     1       3.267  -0.620   0.708  1.00  0.00     0.184 HD
HETATM    4  C5  UNL     1       1.577  -1.642   1.191  1.00  0.00     0.059 A 
HETATM    5  C6  UNL     1       2.274  -2.698   1.973  1.00  0.00     0.071 C 
HETATM    6  C7  UNL     1       0.210  -1.666   1.049  1.00  0.00     0.171 A 
HETATM    7  C8  UNL     1      -0.403  -0.670   0.318  1.00  0.00     0.170 A 
HETATM    8  N8  UNL     1       0.334   0.281  -0.227  1.00  0.00    -0.173 N 
ATOM      9  H8  UNL     1      -0.143   1.007  -0.762  1.00  0.00     0.186 HD
ENDROOT
BRANCH   7  10
HETATM   10  N4  UNL     1      -1.679  -0.748   0.222  1.00  0.00    -0.285 N 
ATOM     11  H4  UNL     1      -2.120  -1.538   0.694  1.00  0.00     0.188 HD
BRANCH  10  12
HETATM   12  N5  UNL     1      -2.521   0.111  -0.444  1.00  0.00    -0.323 N 
HETATM   13  C9  UNL     1      -2.612   1.437   0.134  1.00  0.00     0.160 C 
HETATM   14  C10 UNL     1      -4.088   1.691   0.449  1.00  0.00     0.155 C 
HETATM   15  N6  UNL     1      -4.687   0.393   0.723  1.00  0.00    -0.144 NA
HETATM   16  N7  UNL     1      -5.348  -0.080  -0.391  1.00  0.00    -0.338 N 
HETATM   17  C11 UNL     1      -4.583  -0.923  -1.256  1.00  0.00     0.156 C 
ATOM     18  H7  UNL     1      -6.321   0.157  -0.586  1.00  0.00     0.175 HD
HETATM   19  C12 UNL     1      -3.234  -0.339  -1.626  1.00  0.00     0.163 C 
ENDBRANCH  10  12
ENDBRANCH   7  10
BRANCH   6  20
HETATM   20  N3  UNL     1      -0.535  -2.720   1.663  1.00  0.00    -0.110 N 
HETATM   21  O1  UNL     1      -0.459  -3.854   1.132  1.00  0.00    -0.532 OA
HETATM   22  O2  UNL     1      -1.305  -2.528   2.780  1.00  0.00    -0.532 OA
ENDBRANCH   6  20
BRANCH   1  23
HETATM   23  N1  UNL     1       2.301   1.303  -0.676  1.00  0.00    -0.205 N 
HETATM   24  C3  UNL     1       3.547   1.802  -0.860  1.00  0.00     0.078 C 
ATOM     25  H1  UNL     1       1.618   1.895  -1.149  1.00  0.00     0.183 HD
BRANCH  24  26
HETATM   26  C2  UNL     1       4.762   1.097  -0.319  1.00  0.00     0.040 C 
HETATM   27  C1  UNL     1       6.017   1.907  -0.704  1.00  0.00     0.010 C 
ENDBRANCH  24  26
ENDBRANCH   1  23
TORSDOF 5
