REMARK  5 active torsions:
REMARK  status: ('A' for Active; 'I' for Inactive)
REMARK    1  A    between atoms: C4_8  and  C5_9 
REMARK    2  A    between atoms: C5_9  and  C6_10 
REMARK    3  A    between atoms: C6_10  and  N3_11 
REMARK    4  A    between atoms: C8_16  and  N5_17 
REMARK    5  A    between atoms: C13_25  and  N7_26 
ROOT
HETATM    1  N3  UNL     1       0.975   0.312  -0.206  1.00  0.00    -0.225 N 
ATOM      2  H3  UNL     1       0.836   1.255  -0.570  1.00  0.00     0.177 HD
HETATM    3  C7  UNL     1      -0.085  -0.340   0.069  1.00  0.00     0.707 A 
HETATM    4  N4  UNL     1      -1.317   0.232  -0.128  1.00  0.00    -0.021 N 
ATOM      5  H4  UNL     1      -1.352   1.184  -0.493  1.00  0.00     0.203 HD
HETATM    6  C8  UNL     1      -2.472  -0.385   0.131  1.00  0.00     0.709 A 
HETATM    7  N6  UNL     1      -2.378  -1.657   0.619  1.00  0.00    -0.022 N 
ATOM      8  H6  UNL     1      -3.230  -2.175   0.834  1.00  0.00     0.203 HD
HETATM    9  C13 UNL     1      -1.190  -2.236   0.820  1.00  0.00     0.705 A 
HETATM   10  N8  UNL     1      -0.032  -1.589   0.549  1.00  0.00    -0.022 N 
ATOM     11  H8  UNL     1       0.866  -2.046   0.708  1.00  0.00     0.203 HD
ENDROOT
BRANCH   1  12
HETATM   12  C6  UNL     1       2.310  -0.102  -0.072  1.00  0.00     0.144 C 
BRANCH  12  13
HETATM   13  C5  UNL     1       3.216   0.404  -1.197  1.00  0.00     0.079 C 
BRANCH  13  14
HETATM   14  C4  UNL     1       4.575  -0.150  -0.849  1.00  0.00     0.034 A 
HETATM   15  C2  UNL     1       5.463   0.300   0.108  1.00  0.00     0.029 A 
HETATM   16  C1  UNL     1       5.237   1.467   0.996  1.00  0.00     0.070 C 
HETATM   17  N1  UNL     1       6.572  -0.478   0.113  1.00  0.00    -0.354 N 
HETATM   18  C3  UNL     1       6.394  -1.404  -0.822  1.00  0.00     0.180 A 
ATOM     19  H1  UNL     1       7.386  -0.373   0.718  1.00  0.00     0.166 HD
HETATM   20  N2  UNL     1       5.185  -1.212  -1.410  1.00  0.00    -0.354 N 
ATOM     21  H2  UNL     1       4.798  -1.784  -2.161  1.00  0.00     0.166 HD
ENDBRANCH  13  14
ENDBRANCH  12  13
ENDBRANCH   1  12
BRANCH   6  22
HETATM   22  N5  UNL     1      -3.741   0.224  -0.064  1.00  0.00    -0.213 N 
HETATM   23  C9  UNL     1      -4.918  -0.545   0.215  1.00  0.00     0.167 C 
HETATM   24  C10 UNL     1      -6.208   0.167   0.083  1.00  0.00     0.188 C 
HETATM   25  O1  UNL     1      -6.170   1.449  -0.392  1.00  0.00    -0.388 OA
HETATM   26  C11 UNL     1      -5.132   2.230   0.040  1.00  0.00     0.188 C 
HETATM   27  C12 UNL     1      -3.858   1.577  -0.523  1.00  0.00     0.167 C 
ENDBRANCH   6  22
BRANCH   9  28
HETATM   28  N7  UNL     1      -1.093  -3.434   1.278  1.00  0.00    -0.234 N 
ATOM     29  H72 UNL     1      -1.965  -3.921   1.482  1.00  0.00     0.174 HD
ATOM     30  H71 UNL     1      -0.187  -3.876   1.431  1.00  0.00     0.174 HD
ENDBRANCH   9  28
TORSDOF 5
