REMARK  9 active torsions:
REMARK  status: ('A' for Active; 'I' for Inactive)
REMARK    1  A    between atoms: C1_2  and  C2_3 
REMARK       I    between atoms: C1_2  and  N1_5 
REMARK    2  A    between atoms: N1_5  and  C3_7 
REMARK    3  A    between atoms: C4_10  and  N3_11 
REMARK    4  A    between atoms: N3_11  and  C5_13 
REMARK    5  A    between atoms: C5_13  and  C6_14 
REMARK    6  A    between atoms: C6_14  and  C7_15 
REMARK    7  A    between atoms: N5_27  and  C14_29 
REMARK    8  A    between atoms: C14_29  and  C15_30 
REMARK    9  A    between atoms: C15_30  and  N6_31 
ROOT
HETATM    1  C3  UNL     1       0.333   3.131   0.153  1.00  0.00     0.714 A 
HETATM    2  N2  UNL     1       1.245   2.153   0.106  1.00  0.00    -0.021 N 
ATOM      3  H2  UNL     1       2.202   2.324   0.414  1.00  0.00     0.203 HD
HETATM    4  C4  UNL     1       0.875   0.918  -0.362  1.00  0.00     0.711 A 
HETATM    5  N4  UNL     1      -0.401   0.710  -0.767  1.00  0.00    -0.021 N 
ATOM      6  H4  UNL     1      -0.667  -0.212  -1.113  1.00  0.00     0.203 HD
HETATM    7  C13 UNL     1      -1.323   1.680  -0.726  1.00  0.00     0.711 A 
HETATM    8  N5  UNL     1      -2.514   1.522  -1.095  1.00  0.00    -0.203 N 
ATOM      9  H5  UNL     1      -3.125   2.335  -1.016  1.00  0.00     0.183 HD
HETATM   10  N7  UNL     1      -0.905   2.893  -0.251  1.00  0.00    -0.021 N 
ATOM     11  H7  UNL     1      -1.583   3.654  -0.206  1.00  0.00     0.203 HD
ENDROOT
BRANCH   4  12
HETATM   12  N3  UNL     1       1.805   0.042  -0.371  1.00  0.00    -0.204 N 
ATOM     13  H3  UNL     1       2.724   0.331  -0.037  1.00  0.00     0.183 HD
BRANCH  12  14
HETATM   14  C5  UNL     1       1.664  -1.284  -0.803  1.00  0.00     0.083 C 
BRANCH  14  15
HETATM   15  C6  UNL     1       2.680  -2.192  -0.157  1.00  0.00     0.085 C 
BRANCH  15  16
HETATM   16  C7  UNL     1       4.044  -1.750  -0.469  1.00  0.00    -0.030 A 
HETATM   17  C8  UNL     1       4.641  -2.326  -1.590  1.00  0.00     0.034 A 
HETATM   18  C9  UNL     1       5.889  -1.938  -1.981  1.00  0.00     0.056 A 
HETATM   19 CL2  UNL     1       6.638  -2.661  -3.391  1.00  0.00    -0.083 Cl
HETATM   20  C10 UNL     1       6.570  -0.978  -1.276  1.00  0.00     0.057 A 
HETATM   21 CL3  UNL     1       8.175  -0.464  -1.766  1.00  0.00    -0.082 Cl
HETATM   22  C11 UNL     1       6.015  -0.395  -0.175  1.00  0.00     0.050 A 
HETATM   23  C12 UNL     1       4.740  -0.798   0.219  1.00  0.00     0.042 A 
HETATM   24 CL4  UNL     1       4.086  -0.071   1.679  1.00  0.00    -0.084 Cl
ENDBRANCH  15  16
ENDBRANCH  14  15
ENDBRANCH  12  14
ENDBRANCH   4  12
BRANCH   1  25
HETATM   25  N1  UNL     1       0.725   4.291   0.605  1.00  0.00    -0.158 N 
HETATM   26  C1  UNL     1       2.049   4.512   1.026  1.00  0.00     0.249 C 
HETATM   27  O1  UNL     1       3.036   4.651   0.251  1.00  0.00    -0.271 OA
ATOM     28  H1  UNL     1       0.054   5.057   0.654  1.00  0.00     0.187 HD
BRANCH  26  29
HETATM   29  C2  UNL     1       2.333   4.590   2.482  1.00  0.00     0.218 C 
HETATM   30 CL1  UNL     1       2.239   6.286   3.034  1.00  0.00    -0.121 Cl
ENDBRANCH  26  29
ENDBRANCH   1  25
BRANCH   8  31
HETATM   31  C14 UNL     1      -3.093   0.353  -1.602  1.00  0.00     0.109 C 
BRANCH  31  32
HETATM   32  C15 UNL     1      -4.309  -0.127  -0.840  1.00  0.00     0.317 C 
BRANCH  32  33
HETATM   33  N6  UNL     1      -4.079  -0.442   0.525  1.00  0.00     0.097 N 
HETATM   34  C16 UNL     1      -3.252  -1.614   0.723  1.00  0.00     0.299 C 
HETATM   35  C17 UNL     1      -3.853  -2.847   0.124  1.00  0.00     0.198 C 
HETATM   36  O2  UNL     1      -5.167  -3.048   0.341  1.00  0.00    -0.388 OA
HETATM   37  C18 UNL     1      -5.977  -2.005   0.592  1.00  0.00     0.198 C 
HETATM   38  C19 UNL     1      -5.354  -0.768   1.139  1.00  0.00     0.299 C 
ENDBRANCH  32  33
ENDBRANCH  31  32
ENDBRANCH   8  31
TORSDOF 9
