REMARK  13 active torsions:
REMARK  status: ('A' for Active; 'I' for Inactive)
REMARK    1  A    between atoms: C2_2  and  N1_3 
REMARK    2  A    between atoms: N1_3  and  C3_5 
REMARK    3  A    between atoms: C3_5  and  N2_6 
REMARK    4  A    between atoms: C3_5  and  O1_11 
REMARK    5  A    between atoms: N2_6  and  N3_8 
REMARK    6  A    between atoms: O1_11  and  C4_12 
REMARK    7  A    between atoms: C4_12  and  C5_13 
REMARK    8  A    between atoms: C5_13  and  C6_14 
REMARK    9  A    between atoms: C6_14  and  N4_15 
REMARK   10  A    between atoms: C6_14  and  N5_18 
REMARK   11  A    between atoms: C10_25  and  C12_27 
REMARK   12  A    between atoms: S1_32  and  C15_33 
REMARK   13  A    between atoms: C15_33  and  C16_34 
ROOT
HETATM    1  C16 UNL     1      -5.222   1.078   0.926  1.00  0.00     0.017 A 
HETATM    2  C17 UNL     1      -5.912   2.338   1.030  1.00  0.00     0.166 A 
HETATM    3  F1  UNL     1      -5.243   3.411   1.505  1.00  0.00    -0.202 F 
HETATM    4  C18 UNL     1      -7.212   2.494   0.640  1.00  0.00     0.197 A 
HETATM    5  F2  UNL     1      -7.797   3.708   0.716  1.00  0.00    -0.199 F 
HETATM    6  C19 UNL     1      -7.881   1.418   0.135  1.00  0.00     0.198 A 
HETATM    7  F3  UNL     1      -9.168   1.526  -0.300  1.00  0.00    -0.199 F 
HETATM    8  C20 UNL     1      -7.216   0.193   0.037  1.00  0.00     0.179 A 
HETATM    9  F4  UNL     1      -7.950  -0.828  -0.456  1.00  0.00    -0.201 F 
HETATM   10  C21 UNL     1      -5.901   0.043   0.436  1.00  0.00     0.096 A 
HETATM   11  C22 UNL     1      -5.309  -1.273   0.425  1.00  0.00     0.103 C 
HETATM   12  N8  UNL     1      -4.838  -2.321   0.460  1.00  0.00    -0.191 NA
ENDROOT
BRANCH   1  13
HETATM   13  C15 UNL     1      -3.838   1.163   1.456  1.00  0.00     0.113 C 
BRANCH  13  14
HETATM   14  S1  UNL     1      -2.509   0.760   0.521  1.00  0.00    -0.162 SA
HETATM   15  C12 UNL     1      -1.724  -0.431  -0.257  1.00  0.00     0.065 C 
HETATM   16  N7  UNL     1      -1.950  -0.390  -1.523  1.00  0.00    -0.365 N 
HETATM   17  C13 UNL     1      -2.811   0.537  -2.023  1.00  0.00     0.071 C 
ATOM     18  H7  UNL     1      -1.486  -1.049  -2.148  1.00  0.00     0.165 HD
HETATM   19  C14 UNL     1      -2.997   1.691  -1.087  1.00  0.00     0.114 C 
BRANCH  15  20
HETATM   20  C10 UNL     1      -0.738  -1.487   0.313  1.00  0.00     0.081 C 
HETATM   21  N5  UNL     1       0.614  -1.311  -0.250  1.00  0.00    -0.332 N 
HETATM   22  C7  UNL     1       0.779  -1.681  -1.635  1.00  0.00     0.359 C 
HETATM   23  N6  UNL     1       0.693  -3.138  -1.664  1.00  0.00    -0.059 N 
HETATM   24  C8  UNL     1      -0.079  -3.702  -0.618  1.00  0.00     0.237 C 
ATOM     25  H62 UNL     1       0.349  -3.455  -2.570  1.00  0.00     0.279 HD
ATOM     26  H61 UNL     1       1.627  -3.549  -1.677  1.00  0.00     0.279 HD
HETATM   27  C9  UNL     1      -1.181  -2.824  -0.055  1.00  0.00     0.065 C 
HETATM   28  C11 UNL     1      -0.692  -1.144   1.779  1.00  0.00     0.046 C 
BRANCH  21  29
HETATM   29  C6  UNL     1       1.737  -0.921   0.498  1.00  0.00     0.077 C 
BRANCH  29  30
HETATM   30  C5  UNL     1       2.795   0.054   0.049  1.00  0.00     0.102 C 
BRANCH  30  31
HETATM   31  C4  UNL     1       4.138  -0.682   0.158  1.00  0.00     0.186 C 
BRANCH  31  32
HETATM   32  O1  UNL     1       5.294   0.003  -0.024  1.00  0.00    -0.321 OA
BRANCH  32  33
HETATM   33  C3  UNL     1       5.857   0.969   0.732  1.00  0.00     0.233 C 
BRANCH  33  34
HETATM   34  N1  UNL     1       6.165   2.297   0.268  1.00  0.00    -0.355 N 
ATOM     35  H1  UNL     1       5.634   3.101   0.604  1.00  0.00     0.163 HD
BRANCH  34  36
HETATM   36  C2  UNL     1       7.227   2.469  -0.672  1.00  0.00     0.118 C 
HETATM   37  C1  UNL     1       8.508   2.048   0.060  1.00  0.00     0.026 C 
ENDBRANCH  34  36
ENDBRANCH  33  34
BRANCH  33  38
HETATM   38  N2  UNL     1       6.144   0.702   1.952  1.00  0.00    -0.272 N 
ATOM     39  H2  UNL     1       6.572   1.447   2.503  1.00  0.00     0.190 HD
BRANCH  38  40
HETATM   40  N3  UNL     1       5.933  -0.464   2.566  1.00  0.00    -0.342 N 
ATOM     41  H32 UNL     1       5.505  -1.196   2.000  1.00  0.00     0.176 HD
ATOM     42  H31 UNL     1       6.161  -0.677   3.537  1.00  0.00     0.176 HD
ENDBRANCH  38  40
ENDBRANCH  33  38
ENDBRANCH  32  33
ENDBRANCH  31  32
ENDBRANCH  30  31
ENDBRANCH  29  30
BRANCH  29  43
HETATM   43  N4  UNL     1       1.950  -1.399   1.675  1.00  0.00    -0.389 N 
ATOM     44  H42 UNL     1       2.766  -1.116   2.218  1.00  0.00     0.157 HD
ATOM     45  H41 UNL     1       1.234  -2.059   1.979  1.00  0.00     0.157 HD
ENDBRANCH  29  43
ENDBRANCH  21  29
ENDBRANCH  15  20
ENDBRANCH  13  14
ENDBRANCH   1  13
TORSDOF 13
