REMARK  9 active torsions:
REMARK  status: ('A' for Active; 'I' for Inactive)
REMARK    1  A    between atoms: C2_2  and  C4_5 
REMARK       I    between atoms: C4_5  and  N1_7 
REMARK    2  A    between atoms: C8_11  and  C9_12 
REMARK       I    between atoms: C9_12  and  N2_14 
REMARK    3  A    between atoms: N2_14  and  C10_16 
REMARK    4  A    between atoms: C10_16  and  C11_17 
REMARK    5  A    between atoms: C11_17  and  O3_18 
REMARK    6  A    between atoms: C11_17  and  N3_20 
REMARK    7  A    between atoms: C14_23  and  C15_24 
REMARK    8  A    between atoms: C14_23  and  C16_27 
REMARK    9  A    between atoms: C15_24  and  O4_25 
ROOT
HETATM    1  C10 UNL     1      -0.142  -1.513  -0.688  1.00  0.00     0.128 C 
HETATM    2  C22 UNL     1       0.716  -2.788  -0.525  1.00  0.00     0.043 C 
HETATM    3  C23 UNL     1       0.632  -3.525  -1.813  1.00  0.00     0.006 C 
HETATM    4  C24 UNL     1       0.251  -2.542  -2.868  1.00  0.00     0.040 C 
HETATM    5  C25 UNL     1      -0.208  -1.279  -2.149  1.00  0.00     0.206 C 
HETATM    6  F2  UNL     1      -1.529  -1.053  -2.581  1.00  0.00    -0.246 F 
ENDROOT
BRANCH   1   7
HETATM    7  N2  UNL     1      -1.474  -1.840  -0.170  1.00  0.00    -0.340 N 
HETATM    8  C9  UNL     1      -2.544  -0.937  -0.062  1.00  0.00     0.241 C 
HETATM    9  O2  UNL     1      -2.523   0.261  -0.384  1.00  0.00    -0.271 OA
ATOM     10  H2  UNL     1      -1.636  -2.799   0.136  1.00  0.00     0.163 HD
BRANCH   8  11
HETATM   11  C8  UNL     1      -3.842  -1.441   0.492  1.00  0.00     0.179 C 
HETATM   12  N1  UNL     1      -4.843  -0.394   0.571  1.00  0.00    -0.337 N 
HETATM   13  C4  UNL     1      -5.900  -0.184  -0.355  1.00  0.00     0.239 C 
HETATM   14  C5  UNL     1      -4.516   0.352   1.771  1.00  0.00     0.127 C 
HETATM   15  O1  UNL     1      -6.010  -0.952  -1.348  1.00  0.00    -0.272 OA
HETATM   16  C6  UNL     1      -3.735  -0.581   2.675  1.00  0.00     0.022 C 
HETATM   17  C7  UNL     1      -3.647  -1.891   1.938  1.00  0.00     0.037 C 
BRANCH  13  18
HETATM   18  C2  UNL     1      -6.899   0.901  -0.221  1.00  0.00     0.092 C 
HETATM   19  C1  UNL     1      -7.857   0.920  -1.399  1.00  0.00     0.038 C 
HETATM   20  C3  UNL     1      -7.721   0.629   1.020  1.00  0.00     0.038 C 
HETATM   21  S1  UNL     1      -6.161   2.526  -0.079  1.00  0.00    -0.077 SA
ENDBRANCH  13  18
ENDBRANCH   8  11
ENDBRANCH   1   7
BRANCH   1  22
HETATM   22  C11 UNL     1       0.423  -0.440   0.143  1.00  0.00     0.145 C 
BRANCH  22  23
HETATM   23  O3  UNL     1      -0.279  -0.022   1.156  1.00  0.00    -0.347 OA
ATOM     24  H3  UNL     1       0.086   0.671   1.693  1.00  0.00     0.219 HD
ENDBRANCH  22  23
BRANCH  22  25
HETATM   25  N3  UNL     1       1.646   0.224   0.005  1.00  0.00    -0.361 N 
HETATM   26  C12 UNL     1       2.007   1.304   0.951  1.00  0.00     0.126 C 
HETATM   27  C13 UNL     1       3.365   1.846   0.640  1.00  0.00     0.037 C 
HETATM   28  C14 UNL     1       4.420   0.765   0.590  1.00  0.00     0.041 C 
HETATM   29  C20 UNL     1       3.984  -0.338  -0.303  1.00  0.00     0.201 C 
HETATM   30  F1  UNL     1       4.858  -0.700  -1.283  1.00  0.00    -0.247 F 
HETATM   31  C21 UNL     1       2.630  -0.051  -0.989  1.00  0.00     0.162 C 
BRANCH  28  32
HETATM   32  C15 UNL     1       4.523   0.201   2.016  1.00  0.00     0.179 C 
BRANCH  32  33
HETATM   33  O4  UNL     1       4.889   1.184   2.928  1.00  0.00    -0.400 OA
ATOM     34  H4  UNL     1       4.953   0.835   3.809  1.00  0.00     0.209 HD
ENDBRANCH  32  33
ENDBRANCH  28  32
BRANCH  28  35
HETATM   35  C16 UNL     1       5.736   1.386   0.286  1.00  0.00     0.135 C 
HETATM   36  C17 UNL     1       5.817   2.140  -1.003  1.00  0.00     0.035 C 
HETATM   37  C18 UNL     1       7.338   2.170  -1.210  1.00  0.00     0.029 C 
HETATM   38  C19 UNL     1       7.703   0.817  -0.649  1.00  0.00     0.168 C 
HETATM   39  O5  UNL     1       6.795   0.490   0.315  1.00  0.00    -0.385 OA
ENDBRANCH  28  35
ENDBRANCH  22  25
ENDBRANCH   1  22
TORSDOF 9
