REMARK  7 active torsions:
REMARK  status: ('A' for Active; 'I' for Inactive)
REMARK    1  A    between atoms: N1_4  and  C3_5 
REMARK    2  A    between atoms: C3_5  and  C4_6 
REMARK    3  A    between atoms: C4_6  and  N2_7 
REMARK    4  A    between atoms: C6_9  and  C7_10 
REMARK    5  A    between atoms: C9_13  and  N3_14 
REMARK    6  A    between atoms: N3_14  and  C10_16 
REMARK    7  A    between atoms: C10_16  and  C11_17 
REMARK       I    between atoms: N4_20  and  C14_21 
ROOT
HETATM    1  N2  UNL     1      -0.665   1.359   0.744  1.00  0.00    -0.340 N 
HETATM    2  C5  UNL     1       0.010   2.129  -0.109  1.00  0.00     0.102 A 
HETATM    3  C6  UNL     1       1.380   1.841  -0.060  1.00  0.00    -0.011 A 
HETATM    4  C8  UNL     1       1.523   0.839   0.880  1.00  0.00     0.061 A 
HETATM    5  C9  UNL     1       2.619   0.166   1.354  1.00  0.00     0.116 A 
HETATM    6  N6  UNL     1       2.445  -0.768   2.293  1.00  0.00    -0.338 N 
ATOM      7  H6  UNL     1       3.255  -1.273   2.652  1.00  0.00     0.168 HD
HETATM    8  C17 UNL     1       1.204  -1.060   2.782  1.00  0.00     0.183 A 
HETATM    9  N7  UNL     1       0.148  -0.386   2.299  1.00  0.00    -0.338 N 
ATOM     10  H7  UNL     1      -0.776  -0.611   2.669  1.00  0.00     0.168 HD
HETATM   11  C18 UNL     1       0.238   0.573   1.351  1.00  0.00     0.123 A 
ENDROOT
BRANCH   1  12
HETATM   12  C4  UNL     1      -2.098   1.325   1.009  1.00  0.00     0.160 C 
BRANCH  12  13
HETATM   13  C3  UNL     1      -2.751   0.336   0.061  1.00  0.00     0.295 C 
BRANCH  13  14
HETATM   14  N1  UNL     1      -4.159   0.320   0.349  1.00  0.00     0.117 N 
HETATM   15  C2  UNL     1      -4.904  -0.569  -0.492  1.00  0.00     0.263 C 
HETATM   16  C1  UNL     1      -4.962  -1.960   0.060  1.00  0.00     0.071 C 
HETATM   17 CL1  UNL     1      -4.255  -0.643  -2.144  1.00  0.00    -0.082 Cl
HETATM   18  C21 UNL     1      -6.323  -0.005  -0.521  1.00  0.00     0.136 C 
HETATM   19  C20 UNL     1      -6.260   1.242   0.299  1.00  0.00     0.074 C 
HETATM   20  C22 UNL     1      -6.687   0.330  -1.931  1.00  0.00     0.274 C 
HETATM   21  O2  UNL     1      -7.219  -0.882   0.080  1.00  0.00    -0.373 OA
HETATM   22  C19 UNL     1      -4.789   1.609   0.240  1.00  0.00     0.278 C 
HETATM   23  N8  UNL     1      -7.942   1.048  -1.990  1.00  0.00    -0.070 N 
HETATM   24  C23 UNL     1      -8.865   0.440  -1.065  1.00  0.00     0.258 C 
ATOM     25  H82 UNL     1      -7.828   2.048  -1.827  1.00  0.00     0.277 HD
ATOM     26  H81 UNL     1      -8.317   1.102  -2.937  1.00  0.00     0.277 HD
HETATM   27  C24 UNL     1      -8.391  -0.954  -0.648  1.00  0.00     0.196 C 
ENDBRANCH  13  14
ENDBRANCH  12  13
ENDBRANCH   1  12
BRANCH   3  28
HETATM   28  C7  UNL     1       2.420   2.509  -0.879  1.00  0.00     0.155 C 
HETATM   29 CL2  UNL     1       2.966   1.516  -2.247  1.00  0.00    -0.125 Cl
ENDBRANCH   3  28
BRANCH   5  30
HETATM   30  N3  UNL     1       3.789   0.415   0.909  1.00  0.00    -0.375 N 
ATOM     31  H3  UNL     1       3.859   1.134   0.189  1.00  0.00     0.161 HD
BRANCH  30  32
HETATM   32  C10 UNL     1       5.006  -0.203   1.310  1.00  0.00     0.126 C 
BRANCH  32  33
HETATM   33  C11 UNL     1       5.278  -1.546   0.725  1.00  0.00     0.006 C 
HETATM   34  C12 UNL     1       6.617  -2.019   1.279  1.00  0.00     0.026 C 
HETATM   35  C13 UNL     1       7.601  -2.189   0.165  1.00  0.00     0.127 C 
HETATM   36  N4  UNL     1       7.646  -0.992  -0.641  1.00  0.00    -0.337 N 
HETATM   37  C14 UNL     1       8.842  -0.273  -0.893  1.00  0.00     0.330 C 
HETATM   38  C15 UNL     1       6.411  -0.506  -1.219  1.00  0.00     0.127 C 
HETATM   39  N5  UNL     1       8.881   0.889  -1.677  1.00  0.00    -0.040 NA
HETATM   40  O1  UNL     1       9.896  -0.707  -0.388  1.00  0.00    -0.251 OA
HETATM   41  C16 UNL     1       5.323  -1.451  -0.781  1.00  0.00     0.026 C 
ENDBRANCH  32  33
ENDBRANCH  30  32
ENDBRANCH   5  30
TORSDOF 7
