REMARK  9 active torsions:
REMARK  status: ('A' for Active; 'I' for Inactive)
REMARK    1  A    between atoms: N2_8  and  C5_9 
REMARK    2  A    between atoms: C5_9  and  C6_10 
REMARK    3  A    between atoms: C6_10  and  C7_11 
REMARK    4  A    between atoms: C7_11  and  N3_12 
REMARK    5  A    between atoms: N3_12  and  C8_14 
REMARK    6  A    between atoms: C8_14  and  N4_16 
REMARK    7  A    between atoms: N4_16  and  N5_18 
REMARK    8  A    between atoms: C9_20  and  C10_21 
REMARK    9  A    between atoms: C16_29  and  O2_30 
ROOT
HETATM    1  C8  UNL     1       0.816  -2.795   0.277  1.00  0.00     0.186 C 
HETATM    2  S1  UNL     1       1.797  -3.739   1.206  1.00  0.00    -0.040 SA
ENDROOT
BRANCH   1   3
HETATM    3  N3  UNL     1      -0.363  -3.348  -0.272  1.00  0.00    -0.366 N 
ATOM      4  H3  UNL     1      -0.576  -4.330  -0.098  1.00  0.00     0.161 HD
BRANCH   3   5
HETATM    5  C7  UNL     1      -1.271  -2.570  -1.067  1.00  0.00     0.123 C 
BRANCH   5   6
HETATM    6  C6  UNL     1      -2.062  -1.550  -0.281  1.00  0.00     0.040 C 
BRANCH   6   7
HETATM    7  C5  UNL     1      -2.937  -0.801  -1.261  1.00  0.00     0.137 C 
BRANCH   7   8
HETATM    8  N2  UNL     1      -3.740   0.219  -0.578  1.00  0.00    -0.282 N 
HETATM    9  C4  UNL     1      -3.200   1.519  -0.430  1.00  0.00     0.244 A 
HETATM   10  C3  UNL     1      -4.007   2.549   0.256  1.00  0.00     0.223 A 
HETATM   11  O1  UNL     1      -2.038   1.818  -0.873  1.00  0.00    -0.271 OA
HETATM   12  N1  UNL     1      -5.281   2.127   0.709  1.00  0.00    -0.380 N 
HETATM   13  C2  UNL     1      -5.827   0.975   0.608  1.00  0.00     0.070 A 
ATOM     14  H1  UNL     1      -5.839   2.839   1.180  1.00  0.00     0.160 HD
HETATM   15  C1  UNL     1      -7.190   0.694   1.145  1.00  0.00     0.074 C 
HETATM   16  C17 UNL     1      -5.036  -0.057  -0.069  1.00  0.00     0.272 A 
HETATM   17  O3  UNL     1      -5.537  -1.202  -0.188  1.00  0.00    -0.266 OA
ENDBRANCH   7   8
ENDBRANCH   6   7
ENDBRANCH   5   6
ENDBRANCH   3   5
ENDBRANCH   1   3
BRANCH   1  18
HETATM   18  N4  UNL     1       1.138  -1.442   0.022  1.00  0.00    -0.277 N 
ATOM     19  H4  UNL     1       0.515  -0.889  -0.567  1.00  0.00     0.189 HD
BRANCH  18  20
HETATM   20  N5  UNL     1       2.287  -0.834   0.552  1.00  0.00    -0.309 N 
HETATM   21  C9  UNL     1       3.125  -0.204  -0.164  1.00  0.00     0.122 C 
ATOM     22  H5  UNL     1       2.456  -0.901   1.556  1.00  0.00     0.186 HD
BRANCH  21  23
HETATM   23  C10 UNL     1       4.321   0.443   0.305  1.00  0.00     0.022 A 
HETATM   24  C11 UNL     1       5.101   1.080  -0.659  1.00  0.00    -0.030 A 
HETATM   25  C12 UNL     1       4.655   1.041  -2.097  1.00  0.00     0.050 C 
HETATM   26  C13 UNL     1       6.256   1.731  -0.313  1.00  0.00     0.019 A 
HETATM   27 BR1  UNL     1       7.290   2.584  -1.653  1.00  0.00    -0.051 Br
HETATM   28  C14 UNL     1       6.645   1.752   1.006  1.00  0.00     0.041 A 
HETATM   29  C15 UNL     1       5.899   1.135   1.971  1.00  0.00     0.046 A 
HETATM   30 BR2  UNL     1       6.432   1.159   3.805  1.00  0.00    -0.048 Br
HETATM   31  C16 UNL     1       4.710   0.461   1.638  1.00  0.00     0.095 A 
BRANCH  31  32
HETATM   32  O2  UNL     1       4.005  -0.134   2.629  1.00  0.00    -0.358 OA
ATOM     33  H2  UNL     1       4.271  -0.122   3.541  1.00  0.00     0.217 HD
ENDBRANCH  31  32
ENDBRANCH  21  23
ENDBRANCH  18  20
ENDBRANCH   1  18
TORSDOF 9
