REMARK  9 active torsions:
REMARK  status: ('A' for Active; 'I' for Inactive)
REMARK    1  A    between atoms: C2_2  and  O1_3 
REMARK    2  A    between atoms: C2_2  and  N1_5 
REMARK    3  A    between atoms: C3_6  and  C4_7 
REMARK       I    between atoms: N3_16  and  C9_17 
REMARK       I    between atoms: C9_17  and  N4_19 
REMARK    4  A    between atoms: N4_19  and  C10_21 
REMARK    5  A    between atoms: C10_21  and  C12_23 
REMARK       I    between atoms: C12_23  and  N5_25 
REMARK    6  A    between atoms: C15_28  and  C16_29 
REMARK    7  A    between atoms: C16_29  and  N6_30 
REMARK    8  A    between atoms: C19_33  and  C20_34 
REMARK    9  A    between atoms: C20_34  and  O4_35 
ROOT
HETATM    1  N1  UNL     1      -6.735   1.066   0.622  1.00  0.00    -0.277 N 
HETATM    2  C3  UNL     1      -7.057   1.905   1.647  1.00  0.00     0.183 A 
HETATM    3  N2  UNL     1      -6.115   2.852   1.719  1.00  0.00    -0.339 N 
ATOM      4  H2  UNL     1      -6.105   3.614   2.397  1.00  0.00     0.167 HD
HETATM    5  C5  UNL     1      -5.168   2.652   0.753  1.00  0.00     0.038 A 
HETATM    6  C6  UNL     1      -5.556   1.546   0.078  1.00  0.00     0.065 A 
HETATM    7  C7  UNL     1      -4.726   1.062  -1.046  1.00  0.00     0.137 C 
HETATM    8  C8  UNL     1      -5.360   1.304  -2.395  1.00  0.00     0.039 C 
HETATM    9  N3  UNL     1      -3.400   1.606  -0.995  1.00  0.00    -0.324 N 
HETATM   10  C9  UNL     1      -2.267   0.821  -1.153  1.00  0.00     0.319 C 
HETATM   11  O2  UNL     1      -1.136   1.390  -1.081  1.00  0.00    -0.247 OA
HETATM   12  N4  UNL     1      -2.307  -0.559  -1.389  1.00  0.00    -0.330 N 
ATOM     13  H4  UNL     1      -3.211  -1.028  -1.442  1.00  0.00     0.165 HD
HETATM   14  C25 UNL     1      -3.285   3.034  -0.789  1.00  0.00     0.134 C 
HETATM   15  C26 UNL     1      -3.957   3.454   0.475  1.00  0.00     0.079 C 
ENDROOT
BRANCH  12  16
HETATM   16  C10 UNL     1      -1.071  -1.353  -1.563  1.00  0.00     0.174 C 
HETATM   17  C11 UNL     1      -0.145  -0.566  -2.492  1.00  0.00     0.042 C 
BRANCH  16  18
HETATM   18  C12 UNL     1      -0.428  -1.534  -0.263  1.00  0.00     0.242 C 
HETATM   19  O3  UNL     1      -0.918  -0.929   0.753  1.00  0.00    -0.271 OA
HETATM   20  N5  UNL     1       0.694  -2.336  -0.090  1.00  0.00    -0.350 N 
HETATM   21  C13 UNL     1       1.308  -2.409   1.250  1.00  0.00     0.126 C 
HETATM   22  C24 UNL     1       1.317  -3.144  -1.116  1.00  0.00     0.126 C 
HETATM   23  C14 UNL     1       2.772  -2.684   1.048  1.00  0.00     0.026 C 
HETATM   24  C15 UNL     1       3.261  -1.917  -0.152  1.00  0.00     0.017 C 
HETATM   25  C23 UNL     1       2.727  -2.615  -1.413  1.00  0.00     0.026 C 
BRANCH  24  26
HETATM   26  C16 UNL     1       4.779  -1.869  -0.209  1.00  0.00     0.277 C 
BRANCH  26  27
HETATM   27  N6  UNL     1       5.244  -1.215   1.000  1.00  0.00     0.088 N 
HETATM   28  C17 UNL     1       4.885   0.184   1.026  1.00  0.00     0.273 C 
HETATM   29  C18 UNL     1       5.824   0.887   1.977  1.00  0.00     0.037 C 
HETATM   30  C19 UNL     1       7.188   0.953   1.311  1.00  0.00     0.012 C 
HETATM   31  C21 UNL     1       7.511  -0.344   0.604  1.00  0.00     0.037 C 
HETATM   32  C22 UNL     1       6.667  -1.427   1.201  1.00  0.00     0.273 C 
BRANCH  30  33
HETATM   33  C20 UNL     1       7.166   2.051   0.270  1.00  0.00     0.168 C 
BRANCH  33  34
HETATM   34  O4  UNL     1       6.877   3.241   0.932  1.00  0.00    -0.400 OA
ATOM     35  H4  UNL     1       6.863   3.930   0.278  1.00  0.00     0.209 HD
ENDBRANCH  33  34
ENDBRANCH  30  33
ENDBRANCH  26  27
ENDBRANCH  24  26
ENDBRANCH  16  18
ENDBRANCH  12  16
BRANCH   1  36
HETATM   36  C2  UNL     1      -7.452  -0.050   0.209  1.00  0.00     0.119 C 
HETATM   37  C1  UNL     1      -7.235  -1.024  -0.869  1.00  0.00     0.098 C 
BRANCH  36  38
HETATM   38  O1  UNL     1      -8.542  -0.319   0.887  1.00  0.00    -0.349 OA
ATOM     39  H1  UNL     1      -8.682   0.311   1.584  1.00  0.00     0.219 HD
ENDBRANCH  36  38
ENDBRANCH   1  36
BRANCH   2  40
HETATM   40  C4  UNL     1      -8.247   1.789   2.527  1.00  0.00     0.311 C 
HETATM   41  F1  UNL     1      -8.213   0.727   3.400  1.00  0.00    -0.169 F 
HETATM   42  F2  UNL     1      -9.443   2.031   1.941  1.00  0.00    -0.169 F 
ENDBRANCH   2  40
TORSDOF 9
