REMARK  7 active torsions:
REMARK  status: ('A' for Active; 'I' for Inactive)
REMARK    1  A    between atoms: N1_2  and  C3_4 
REMARK    2  A    between atoms: C3_4  and  C4_5 
REMARK    3  A    between atoms: C4_5  and  N2_6 
REMARK    4  A    between atoms: N2_6  and  C5_8 
REMARK    5  A    between atoms: C6_11  and  N4_12 
REMARK    6  A    between atoms: C9_17  and  C10_18 
REMARK    7  A    between atoms: N7_26  and  C15_28 
ROOT
HETATM    1  C5  UNL     1       1.121  -0.757  -0.876  1.00  0.00     0.694 A 
HETATM    2  N3  UNL     1       1.797  -1.782  -0.330  1.00  0.00    -0.022 N 
ATOM      3  H3  UNL     1       2.724  -2.011  -0.690  1.00  0.00     0.203 HD
HETATM    4  C6  UNL     1       1.290  -2.514   0.675  1.00  0.00     0.695 A 
HETATM    5  N5  UNL     1       0.083  -2.189   1.117  1.00  0.00    -0.175 N 
ATOM      6  H5  UNL     1      -0.305  -2.744   1.880  1.00  0.00     0.186 HD
HETATM    7  C9  UNL     1      -0.686  -1.160   0.624  1.00  0.00     0.150 A 
HETATM    8  N8  UNL     1      -0.121  -0.485  -0.363  1.00  0.00    -0.175 N 
ATOM      9  H8  UNL     1      -0.644   0.290  -0.770  1.00  0.00     0.186 HD
ENDROOT
BRANCH   7  10
HETATM   10  C10 UNL     1      -1.990  -0.922   1.226  1.00  0.00     0.054 A 
HETATM   11  C11 UNL     1      -2.403  -1.799   2.254  1.00  0.00     0.039 A 
HETATM   12  C12 UNL     1      -3.604  -1.606   2.850  1.00  0.00     0.027 A 
HETATM   13 BR1  UNL     1      -4.160  -2.798   4.243  1.00  0.00    -0.050 Br
HETATM   14  C13 UNL     1      -4.444  -0.577   2.489  1.00  0.00     0.108 A 
HETATM   15  N6  UNL     1      -4.074   0.258   1.525  1.00  0.00    -0.350 N 
HETATM   16  C14 UNL     1      -2.855   0.079   0.904  1.00  0.00     0.119 A 
ATOM     17  H6  UNL     1      -4.686   1.025   1.246  1.00  0.00     0.166 HD
HETATM   18  N7  UNL     1      -2.540   0.908  -0.031  1.00  0.00    -0.342 N 
ATOM     19  H7  UNL     1      -1.646   0.793  -0.509  1.00  0.00     0.167 HD
BRANCH  18  20
HETATM   20  C15 UNL     1      -3.385   1.969  -0.419  1.00  0.00     0.034 A 
HETATM   21  C16 UNL     1      -3.419   3.197   0.239  1.00  0.00     0.029 A 
HETATM   22  C17 UNL     1      -4.249   4.227  -0.152  1.00  0.00     0.004 A 
HETATM   23  C18 UNL     1      -5.091   4.048  -1.243  1.00  0.00     0.019 A 
HETATM   24  C19 UNL     1      -5.082   2.843  -1.918  1.00  0.00     0.013 A 
HETATM   25 BR2  UNL     1      -6.263   2.650  -3.422  1.00  0.00    -0.051 Br
HETATM   26  C20 UNL     1      -4.252   1.845  -1.509  1.00  0.00     0.048 A 
ENDBRANCH  18  20
ENDBRANCH   7  10
BRANCH   4  27
HETATM   27  N4  UNL     1       2.034  -3.586   1.228  1.00  0.00    -0.226 N 
HETATM   28  C7  UNL     1       1.536  -4.407   2.312  1.00  0.00     0.168 C 
HETATM   29  C8  UNL     1       3.349  -3.890   0.705  1.00  0.00     0.168 C 
ENDBRANCH   4  27
BRANCH   1  30
HETATM   30  N2  UNL     1       1.613  -0.054  -1.839  1.00  0.00    -0.224 N 
ATOM     31  H2  UNL     1       1.076   0.718  -2.234  1.00  0.00     0.177 HD
BRANCH  30  32
HETATM   32  C4  UNL     1       2.905  -0.358  -2.349  1.00  0.00     0.168 C 
BRANCH  32  33
HETATM   33  C3  UNL     1       4.056   0.397  -1.807  1.00  0.00     0.291 C 
BRANCH  33  34
HETATM   34  N1  UNL     1       4.052   1.810  -1.972  1.00  0.00     0.081 N 
HETATM   35  C1  UNL     1       5.317   2.323  -1.403  1.00  0.00     0.309 C 
HETATM   36  C2  UNL     1       3.033   2.369  -1.077  1.00  0.00     0.309 C 
ENDBRANCH  33  34
ENDBRANCH  32  33
ENDBRANCH  30  32
ENDBRANCH   1  30
TORSDOF 7
