REMARK  7 active torsions:
REMARK  status: ('A' for Active; 'I' for Inactive)
REMARK    1  A    between atoms: C2_2  and  C3_3 
REMARK    2  A    between atoms: C4_4  and  C5_5 
REMARK       I    between atoms: C5_5  and  N1_7 
REMARK       I    between atoms: N5_25  and  C17_26 
REMARK    3  A    between atoms: C17_26  and  C18_28 
REMARK    4  A    between atoms: C18_28  and  O3_29 
REMARK    5  A    between atoms: O3_29  and  C19_30 
REMARK    6  A    between atoms: C22_35  and  C23_36 
REMARK    7  A    between atoms: C24_37  and  C25_38 
ROOT
HETATM    1  C5  UNL     1      -3.710  -0.691  -0.241  1.00  0.00     0.226 C 
HETATM    2  O1  UNL     1      -4.601  -0.935  -1.093  1.00  0.00    -0.273 OA
HETATM    3  N1  UNL     1      -4.162  -0.074   0.947  1.00  0.00    -0.335 N 
HETATM    4  C6  UNL     1      -3.375   0.281   2.108  1.00  0.00     0.127 C 
HETATM    5  C7  UNL     1      -3.966   1.603   2.595  1.00  0.00     0.023 C 
HETATM    6  C8  UNL     1      -5.254   1.741   1.839  1.00  0.00     0.042 C 
HETATM    7  C9  UNL     1      -5.509   0.364   1.296  1.00  0.00     0.194 C 
HETATM    8  C10 UNL     1      -6.085  -0.450   2.340  1.00  0.00     0.084 C 
HETATM    9  N2  UNL     1      -6.549  -1.114   3.189  1.00  0.00    -0.195 NA
ENDROOT
BRANCH   1  10
HETATM   10  C4  UNL     1      -2.283  -0.994  -0.398  1.00  0.00     0.093 C 
HETATM   11  C3  UNL     1      -1.960  -1.923  -1.524  1.00  0.00     0.028 C 
HETATM   12  C14 UNL     1      -1.122  -1.131  -2.501  1.00  0.00     0.029 C 
HETATM   13  C13 UNL     1      -2.017  -0.006  -3.080  1.00  0.00     0.009 C 
HETATM   14  C15 UNL     1      -0.247  -0.287  -1.616  1.00  0.00     0.100 C 
HETATM   15  C12 UNL     1      -2.175   0.894  -1.894  1.00  0.00     0.009 C 
HETATM   16  C11 UNL     1      -1.430   0.192  -0.736  1.00  0.00     0.035 C 
HETATM   17  N3  UNL     1       0.190   0.952  -2.234  1.00  0.00    -0.210 N 
HETATM   18  C28 UNL     1       0.847  -0.911  -0.911  1.00  0.00     0.067 A 
HETATM   19  C16 UNL     1       1.184   1.781  -1.655  1.00  0.00     0.682 C 
ATOM     20  H3  UNL     1      -0.234   1.237  -3.117  1.00  0.00     0.179 HD
HETATM   21  N4  UNL     1       1.308   3.012  -1.995  1.00  0.00    -0.234 N 
HETATM   22  N5  UNL     1       2.081   1.248  -0.669  1.00  0.00    -0.112 N 
ATOM     23  H42 UNL     1       0.671   3.391  -2.696  1.00  0.00     0.174 HD
ATOM     24  H41 UNL     1       2.023   3.608  -1.578  1.00  0.00     0.174 HD
HETATM   25  C17 UNL     1       3.030   2.100  -0.046  1.00  0.00     0.267 C 
HETATM   26  C20 UNL     1       1.870  -0.135  -0.341  1.00  0.00     0.086 A 
HETATM   27  O2  UNL     1       3.660   1.716   0.956  1.00  0.00    -0.270 OA
HETATM   28  C21 UNL     1       2.854  -0.739   0.425  1.00  0.00     0.054 A 
HETATM   29  C22 UNL     1       2.871  -2.128   0.656  1.00  0.00     0.035 A 
HETATM   30  C27 UNL     1       1.858  -2.846   0.078  1.00  0.00     0.109 A 
HETATM   31  N6  UNL     1       0.938  -2.220  -0.646  1.00  0.00    -0.364 N 
ATOM     32  H6  UNL     1       0.210  -2.809  -1.050  1.00  0.00     0.165 HD
BRANCH  11  33
HETATM   33  C2  UNL     1      -2.994  -2.775  -2.065  1.00  0.00    -0.031 C 
HETATM   34  C1  UNL     1      -3.198  -2.966  -3.332  1.00  0.00     0.007 C 
ENDBRANCH  11  33
BRANCH  25  35
HETATM   35  C18 UNL     1       3.372   3.476  -0.488  1.00  0.00     0.278 C 
BRANCH  35  36
HETATM   36  O3  UNL     1       4.445   3.966   0.313  1.00  0.00    -0.323 OA
BRANCH  36  37
HETATM   37  C19 UNL     1       4.801   5.235  -0.055  1.00  0.00     0.500 C 
HETATM   38  F1  UNL     1       4.563   6.170   0.955  1.00  0.00    -0.184 F 
HETATM   39  F2  UNL     1       6.094   5.347  -0.519  1.00  0.00    -0.184 F 
ENDBRANCH  36  37
ENDBRANCH  35  36
ENDBRANCH  25  35
BRANCH  29  40
HETATM   40  C23 UNL     1       3.904  -2.730   1.457  1.00  0.00    -0.066 C 
HETATM   41  C24 UNL     1       4.759  -3.236   2.140  1.00  0.00    -0.101 C 
BRANCH  41  42
HETATM   42  C25 UNL     1       5.796  -3.839   2.983  1.00  0.00     0.090 C 
HETATM   43  C26 UNL     1       6.719  -2.753   3.476  1.00  0.00     0.018 C 
ENDBRANCH  41  42
ENDBRANCH  29  40
ENDBRANCH   1  10
TORSDOF 7
