REMARK  8 active torsions:
REMARK  status: ('A' for Active; 'I' for Inactive)
REMARK       I    between atoms: C1_2  and  N1_3 
REMARK    1  A    between atoms: C1_2  and  C16_26 
REMARK    2  A    between atoms: N1_3  and  C2_5 
REMARK    3  A    between atoms: C7_10  and  C8_11 
REMARK       I    between atoms: C8_11  and  N2_13 
REMARK    4  A    between atoms: C9_14  and  C10_15 
REMARK    5  A    between atoms: C10_15  and  O3_16 
REMARK    6  A    between atoms: C12_20  and  C13_21 
REMARK    7  A    between atoms: C13_21  and  C14_23 
REMARK    8  A    between atoms: N4_30  and  C18_31 
ROOT
HETATM    1  C2  UNL     1      -1.680   2.383  -1.585  1.00  0.00     0.093 C 
HETATM    2  C3  UNL     1      -2.373   3.650  -1.024  1.00  0.00     0.009 C 
HETATM    3  C4  UNL     1      -3.148   3.947  -2.283  1.00  0.00     0.007 C 
HETATM    4  C5  UNL     1      -3.535   2.811  -2.858  1.00  0.00     0.008 C 
HETATM    5  C6  UNL     1      -2.994   1.720  -1.931  1.00  0.00     0.022 C 
HETATM    6  C7  UNL     1      -3.844   1.850  -0.727  1.00  0.00     0.084 C 
HETATM    7  C15 UNL     1      -3.217   3.042   0.029  1.00  0.00     0.021 C 
ENDROOT
BRANCH   1   8
HETATM    8  N1  UNL     1      -0.841   1.732  -0.665  1.00  0.00    -0.350 N 
HETATM    9  C1  UNL     1       0.540   1.567  -1.065  1.00  0.00     0.271 C 
HETATM   10  O1  UNL     1       0.971   1.981  -2.179  1.00  0.00    -0.266 OA
ATOM     11  H1  UNL     1      -1.186   1.395   0.234  1.00  0.00     0.163 HD
BRANCH   9  12
HETATM   12  C16 UNL     1       1.523   0.905  -0.192  1.00  0.00     0.134 A 
HETATM   13  C17 UNL     1       1.301   0.360   1.050  1.00  0.00     0.145 A 
HETATM   14  N3  UNL     1       2.489  -0.123   1.466  1.00  0.00    -0.292 N 
HETATM   15  N4  UNL     1       3.401   0.105   0.540  1.00  0.00    -0.224 N 
ATOM     16  H3  UNL     1       2.657  -0.591   2.357  1.00  0.00     0.187 HD
HETATM   17  N5  UNL     1       2.820   0.728  -0.466  1.00  0.00    -0.277 N 
ATOM     18  H5  UNL     1       3.287   1.029  -1.321  1.00  0.00     0.189 HD
BRANCH  15  19
HETATM   19  C18 UNL     1       4.793  -0.288   0.676  1.00  0.00     0.071 C 
HETATM   20  C19 UNL     1       5.559   0.688   1.542  1.00  0.00     0.039 C 
HETATM   21  C20 UNL     1       6.980   0.206   1.633  1.00  0.00    -0.011 C 
HETATM   22  C21 UNL     1       7.078  -1.180   2.246  1.00  0.00     0.009 C 
HETATM   23  C25 UNL     1       7.664   0.151   0.290  1.00  0.00     0.009 C 
HETATM   24  C22 UNL     1       6.285  -2.140   1.392  1.00  0.00    -0.011 C 
HETATM   25  C23 UNL     1       6.940  -2.173   0.033  1.00  0.00     0.009 C 
HETATM   26  C27 UNL     1       4.859  -1.641   1.319  1.00  0.00     0.039 C 
HETATM   27  C24 UNL     1       6.847  -0.804  -0.585  1.00  0.00    -0.011 C 
HETATM   28  C26 UNL     1       5.438  -0.315  -0.699  1.00  0.00     0.039 C 
ENDBRANCH  15  19
ENDBRANCH   9  12
ENDBRANCH   1   8
BRANCH   6  29
HETATM   29  C8  UNL     1      -4.059   0.709   0.128  1.00  0.00     0.227 C 
HETATM   30  O2  UNL     1      -3.614   0.792   1.330  1.00  0.00    -0.273 OA
HETATM   31  N2  UNL     1      -4.724  -0.480  -0.283  1.00  0.00    -0.314 N 
HETATM   32  C9  UNL     1      -5.331  -0.843  -1.537  1.00  0.00     0.137 C 
HETATM   33  C12 UNL     1      -4.886  -1.622   0.582  1.00  0.00     0.261 C 
HETATM   34  C11 UNL     1      -5.902  -2.226  -1.249  1.00  0.00     0.198 C 
HETATM   35  O4  UNL     1      -6.108  -2.187   0.146  1.00  0.00    -0.361 OA
BRANCH  32  36
HETATM   36  C10 UNL     1      -6.390   0.079  -2.048  1.00  0.00     0.191 C 
BRANCH  36  37
HETATM   37  O3  UNL     1      -7.462   0.265  -1.193  1.00  0.00    -0.399 OA
ATOM     38  H3  UNL     1      -8.135   0.851  -1.518  1.00  0.00     0.209 HD
ENDBRANCH  36  37
ENDBRANCH  32  36
BRANCH  33  39
HETATM   39  C13 UNL     1      -4.902  -1.381   2.043  1.00  0.00     0.232 C 
HETATM   40  F1  UNL     1      -5.904  -0.535   2.433  1.00  0.00    -0.244 F 
BRANCH  39  41
HETATM   41  C14 UNL     1      -5.311  -2.759   2.658  1.00  0.00     0.156 C 
HETATM   42 CL1  UNL     1      -4.092  -3.944   2.174  1.00  0.00    -0.127 Cl
ENDBRANCH  39  41
ENDBRANCH  33  39
ENDBRANCH   6  29
TORSDOF 8
