REMARK  9 active torsions:
REMARK  status: ('A' for Active; 'I' for Inactive)
REMARK    1  A    between atoms: C4_5  and  N2_6 
REMARK       I    between atoms: N2_6  and  C5_8 
REMARK    2  A    between atoms: C5_8  and  C6_10 
REMARK    3  A    between atoms: C6_10  and  N3_11 
REMARK    4  A    between atoms: C6_10  and  C10_22 
REMARK       I    between atoms: N3_11  and  C7_13 
REMARK    5  A    between atoms: C7_13  and  C8_15 
REMARK    6  A    between atoms: C8_15  and  C9_18 
REMARK    7  A    between atoms: N4_25  and  C13_26 
REMARK    8  A    between atoms: C13_26  and  N5_28 
REMARK    9  A    between atoms: N5_28  and  C14_30 
ROOT
HETATM    1  C6  UNL     1      -1.140  -0.688  -1.075  1.00  0.00     0.181 C 
ENDROOT
BRANCH   1   2
HETATM    2  C5  UNL     1      -2.508  -0.251  -0.730  1.00  0.00     0.241 C 
HETATM    3  N2  UNL     1      -3.287  -0.746   0.343  1.00  0.00    -0.355 N 
ATOM      4  H2  UNL     1      -2.888  -1.473   0.937  1.00  0.00     0.162 HD
HETATM    5  O1  UNL     1      -3.103   0.654  -1.431  1.00  0.00    -0.271 OA
BRANCH   3   6
HETATM    6  C4  UNL     1      -4.634  -0.266   0.642  1.00  0.00     0.087 C 
HETATM    7  C3  UNL     1      -4.620   0.135   2.085  1.00  0.00     0.055 C 
HETATM    8  C2  UNL     1      -5.971   0.525   2.567  1.00  0.00     0.274 C 
HETATM    9  N1  UNL     1      -7.062  -0.061   1.851  1.00  0.00     0.084 N 
HETATM   10  C1  UNL     1      -7.668   0.821   0.893  1.00  0.00     0.309 C 
HETATM   11  C23 UNL     1      -6.785  -1.380   1.342  1.00  0.00     0.274 C 
HETATM   12  C22 UNL     1      -5.565  -1.447   0.485  1.00  0.00     0.055 C 
ENDBRANCH   3   6
ENDBRANCH   1   2
BRANCH   1  13
HETATM   13  N3  UNL     1      -0.801  -0.178  -2.429  1.00  0.00    -0.342 N 
HETATM   14  C7  UNL     1      -0.572  -1.033  -3.527  1.00  0.00     0.300 C 
HETATM   15  O2  UNL     1      -0.664  -2.275  -3.329  1.00  0.00    -0.266 OA
ATOM     16  H3  UNL     1      -0.731   0.830  -2.570  1.00  0.00     0.163 HD
BRANCH  14  17
HETATM   17  C8  UNL     1      -0.238  -0.546  -4.862  1.00  0.00     0.417 C 
HETATM   18  F1  UNL     1      -0.019  -1.619  -5.742  1.00  0.00    -0.185 F 
HETATM   19  F2  UNL     1       0.903   0.232  -4.922  1.00  0.00    -0.185 F 
BRANCH  17  20
HETATM   20  C9  UNL     1      -1.359   0.246  -5.502  1.00  0.00     0.464 C 
HETATM   21  F3  UNL     1      -0.915   0.645  -6.751  1.00  0.00    -0.165 F 
HETATM   22  F4  UNL     1      -2.468  -0.564  -5.735  1.00  0.00    -0.165 F 
HETATM   23  F5  UNL     1      -1.737   1.351  -4.809  1.00  0.00    -0.165 F 
ENDBRANCH  17  20
ENDBRANCH  14  17
ENDBRANCH   1  13
BRANCH   1  24
HETATM   24  C10 UNL     1      -0.065  -0.342  -0.131  1.00  0.00     0.021 C 
HETATM   25  C11 UNL     1       0.193   1.110   0.145  1.00  0.00     0.027 C 
HETATM   26  C12 UNL     1       1.488   1.260   0.951  1.00  0.00     0.125 C 
HETATM   27  N4  UNL     1       1.922   0.042   1.571  1.00  0.00    -0.358 N 
HETATM   28  C20 UNL     1       1.001  -0.952   2.032  1.00  0.00     0.125 C 
HETATM   29  C21 UNL     1      -0.269  -1.000   1.208  1.00  0.00     0.027 C 
BRANCH  27  30
HETATM   30  C13 UNL     1       3.311  -0.178   1.752  1.00  0.00     0.170 C 
HETATM   31  S1  UNL     1       3.734  -1.612   2.478  1.00  0.00    -0.041 SA
BRANCH  30  32
HETATM   32  N5  UNL     1       4.302   0.744   1.362  1.00  0.00    -0.363 N 
ATOM     33  H5  UNL     1       4.037   1.629   0.930  1.00  0.00     0.162 HD
BRANCH  32  34
HETATM   34  C14 UNL     1       5.723   0.423   1.582  1.00  0.00     0.083 C 
HETATM   35  C15 UNL     1       6.497   1.634   1.111  1.00  0.00     0.025 C 
HETATM   36  C16 UNL     1       6.492   1.546  -0.423  1.00  0.00     0.002 C 
HETATM   37  C17 UNL     1       7.526   0.483  -0.731  1.00  0.00     0.000 C 
HETATM   38  C18 UNL     1       7.334  -0.769   0.043  1.00  0.00     0.002 C 
HETATM   39  C19 UNL     1       6.116  -0.836   0.893  1.00  0.00     0.025 C 
ENDBRANCH  32  34
ENDBRANCH  30  32
ENDBRANCH  27  30
ENDBRANCH   1  24
TORSDOF 9
