REMARK  1 active torsions:
REMARK  status: ('A' for Active; 'I' for Inactive)
REMARK    1  A    between atoms: N1_2  and  C2_5 
ROOT
HETATM    1  C2  UNL     1       1.430   0.146  -0.135  1.00  0.00     0.186 C 
HETATM    2  C3  UNL     1       0.978  -1.195  -0.594  1.00  0.00     0.033 C 
HETATM    3  C4  UNL     1      -0.454  -1.516  -0.402  1.00  0.00     0.002 C 
HETATM    4  C5  UNL     1      -1.014  -1.284   0.947  1.00  0.00     0.000 C 
HETATM    5  C6  UNL     1      -2.406  -0.643   0.847  1.00  0.00     0.001 C 
HETATM    6  C7  UNL     1      -2.283   0.873   0.694  1.00  0.00     0.010 C 
HETATM    7  C8  UNL     1      -2.645   1.357  -0.660  1.00  0.00     0.073 C 
HETATM    8  S1  UNL     1      -1.357   2.128  -1.593  1.00  0.00    -0.169 SA
HETATM    9  C9  UNL     1       0.225   2.270  -0.769  1.00  0.00     0.076 C 
HETATM   10  C10 UNL     1       1.219   1.212  -1.205  1.00  0.00     0.043 C 
ENDROOT
BRANCH   1  11
HETATM   11  N1  UNL     1       2.885   0.030   0.083  1.00  0.00    -0.075 N 
HETATM   12  C1  UNL     1       3.153  -0.938   1.127  1.00  0.00     0.267 C 
ATOM     13  H12 UNL     1       3.316   0.934   0.279  1.00  0.00     0.277 HD
ATOM     14  H11 UNL     1       3.385  -0.189  -0.779  1.00  0.00     0.277 HD
ENDBRANCH   1  11
TORSDOF 1
