REMARK  3 active torsions:
REMARK  status: ('A' for Active; 'I' for Inactive)
REMARK    1  A    between atoms: C2_2  and  C4_4 
REMARK    2  A    between atoms: C8_8  and  C10_11 
REMARK    3  A    between atoms: C10_11  and  O1_14 
ROOT
HETATM    1  C4  UNL     1      -0.625  -0.055  -0.328  1.00  0.00     0.025 A 
HETATM    2  C5  UNL     1       0.070  -1.355   0.043  1.00  0.00    -0.018 A 
HETATM    3  C6  UNL     1       0.438  -2.167  -1.187  1.00  0.00     0.017 C 
HETATM    4  C7  UNL     1      -0.426  -2.220   1.155  1.00  0.00     0.017 C 
HETATM    5  C8  UNL     1       0.655  -0.066   0.379  1.00  0.00     0.091 A 
HETATM    6  C9  UNL     1       0.623   0.254   1.841  1.00  0.00     0.073 C 
HETATM    7  N1  UNL     1       0.621   0.497   2.995  1.00  0.00    -0.196 NA
ENDROOT
BRANCH   5   8
HETATM    8  C10 UNL     1       1.843   0.575  -0.245  1.00  0.00     0.072 C 
HETATM    9  C11 UNL     1       2.338   0.109  -1.543  1.00  0.00     0.047 C 
HETATM   10  C12 UNL     1       1.593   2.087  -0.371  1.00  0.00     0.047 C 
BRANCH   8  11
HETATM   11  O1  UNL     1       2.913   0.479   0.670  1.00  0.00    -0.389 OA
ATOM     12  H1  UNL     1       3.672   0.888   0.271  1.00  0.00     0.210 HD
ENDBRANCH   8  11
ENDBRANCH   5   8
BRANCH   1  13
HETATM   13  C2  UNL     1      -1.967   0.198   0.136  1.00  0.00    -0.016 C 
HETATM   14  C1  UNL     1      -2.347   0.282   1.547  1.00  0.00     0.010 C 
HETATM   15  C3  UNL     1      -2.543   1.486  -0.513  1.00  0.00     0.010 C 
ENDBRANCH   1  13
TORSDOF 3
