REMARK  3 active torsions:
REMARK  status: ('A' for Active; 'I' for Inactive)
REMARK    1  A    between atoms: N1_1  and  C1_4 
REMARK    2  A    between atoms: C4_16  and  N6_17 
REMARK    3  A    between atoms: C5_19  and  C6_20 
ROOT
HETATM    1  C1  UNL     1      -3.098  -1.044   0.339  1.00  0.00     0.677 A 
HETATM    2  N2  UNL     1      -4.136  -0.251   0.014  1.00  0.00    -0.179 N 
ATOM      3  H2  UNL     1      -5.086  -0.602   0.136  1.00  0.00     0.185 HD
HETATM    4  C2  UNL     1      -3.953   0.996  -0.469  1.00  0.00     0.147 A 
HETATM    5  S1  UNL     1      -5.232   1.954  -0.862  1.00  0.00    -0.057 SA
HETATM    6  C3  UNL     1      -2.654   1.426  -0.618  1.00  0.00     0.119 A 
HETATM    7  N3  UNL     1      -2.421   2.659  -1.095  1.00  0.00    -0.281 N 
ATOM      8  H3  UNL     1      -3.202   3.266  -1.344  1.00  0.00     0.188 HD
HETATM    9  N4  UNL     1      -1.187   3.082  -1.241  1.00  0.00    -0.241 N 
ATOM     10  H4  UNL     1      -1.029   4.022  -1.605  1.00  0.00     0.208 HD
HETATM   11  N5  UNL     1      -0.166   2.351  -0.940  1.00  0.00    -0.269 N 
ATOM     12  H5  UNL     1       0.763   2.748  -1.080  1.00  0.00     0.190 HD
HETATM   13  C4  UNL     1      -0.251   1.060  -0.439  1.00  0.00     0.151 A 
HETATM   14  C10 UNL     1      -1.563   0.622  -0.288  1.00  0.00     0.125 A 
HETATM   15  N7  UNL     1      -1.834  -0.600   0.184  1.00  0.00    -0.186 N 
ATOM     16  H7  UNL     1      -1.060  -1.215   0.435  1.00  0.00     0.184 HD
ENDROOT
BRANCH  13  17
HETATM   17  N6  UNL     1       0.788   0.454  -0.187  1.00  0.00    -0.347 N 
HETATM   18  C5  UNL     1       1.333  -0.701   0.271  1.00  0.00     0.127 C 
ATOM     19  H6  UNL     1       1.561   1.078  -0.418  1.00  0.00     0.167 HD
BRANCH  18  20
HETATM   20  C6  UNL     1       2.850  -0.585   0.282  1.00  0.00     0.090 A 
HETATM   21  C7  UNL     1       3.750  -1.537   0.676  1.00  0.00     0.040 A 
HETATM   22  C8  UNL     1       5.022  -1.022   0.525  1.00  0.00     0.027 A 
HETATM   23  C9  UNL     1       4.823   0.253   0.033  1.00  0.00     0.142 A 
HETATM   24  O1  UNL     1       3.535   0.465  -0.093  1.00  0.00    -0.321 OA
ENDBRANCH  18  20
ENDBRANCH  13  17
BRANCH   1  25
HETATM   25  N1  UNL     1      -3.275  -2.255   0.808  1.00  0.00    -0.234 N 
ATOM     26  H12 UNL     1      -4.231  -2.591   0.925  1.00  0.00     0.174 HD
ATOM     27  H11 UNL     1      -2.488  -2.856   1.054  1.00  0.00     0.174 HD
ENDBRANCH   1  25
TORSDOF 3
