REMARK  3 active torsions:
REMARK  status: ('A' for Active; 'I' for Inactive)
REMARK    1  A    between atoms: O1_3  and  C2_4 
REMARK    2  A    between atoms: C5_7  and  N2_8 
REMARK    3  A    between atoms: N2_8  and  C6_10 
ROOT
HETATM    1  N1  UNL     1       6.872  -0.416  -2.292  1.00  0.00    -0.164 NA
HETATM    2  C1  UNL     1       6.116  -0.876  -1.521  1.00  0.00     0.234 C 
HETATM    3  O1  UNL     1       5.235  -1.390  -0.617  1.00  0.00    -0.241 OA
ENDROOT
BRANCH   3   4
HETATM    4  C2  UNL     1       4.074  -0.732  -0.239  1.00  0.00     0.089 A 
HETATM    5  C3  UNL     1       3.209  -1.284   0.679  1.00  0.00     0.040 A 
HETATM    6  C4  UNL     1       2.055  -0.600   1.036  1.00  0.00     0.033 A 
HETATM    7  C5  UNL     1       1.722   0.631   0.508  1.00  0.00     0.049 A 
HETATM    8  C11 UNL     1       2.596   1.176  -0.410  1.00  0.00     0.033 A 
HETATM    9  C12 UNL     1       3.757   0.494  -0.773  1.00  0.00     0.040 A 
BRANCH   7  10
HETATM   10  N2  UNL     1       0.541   1.325   0.878  1.00  0.00    -0.192 N 
ATOM     11  H2  UNL     1       0.608   2.203   1.393  1.00  0.00     0.184 HD
BRANCH  10  12
HETATM   12  C6  UNL     1      -0.616   0.850   0.566  1.00  0.00     0.685 A 
HETATM   13  N3  UNL     1      -0.811  -0.291  -0.107  1.00  0.00    -0.174 N 
HETATM   14  C7  UNL     1      -2.143  -0.483  -0.259  1.00  0.00     0.153 A 
ATOM     15  H3  UNL     1      -0.078  -0.913  -0.449  1.00  0.00     0.186 HD
HETATM   16  N4  UNL     1      -2.908  -1.430  -0.835  1.00  0.00    -0.336 N 
HETATM   17  C10 UNL     1      -2.767   0.580   0.343  1.00  0.00     0.137 A 
HETATM   18  C8  UNL     1      -4.265  -1.346  -0.827  1.00  0.00     0.183 A 
ATOM     19  H4  UNL     1      -2.460  -2.227  -1.287  1.00  0.00     0.168 HD
HETATM   20  N5  UNL     1      -4.899  -0.315  -0.244  1.00  0.00    -0.337 N 
HETATM   21  C9  UNL     1      -4.160   0.640   0.337  1.00  0.00     0.131 A 
ATOM     22  H5  UNL     1      -5.918  -0.260  -0.244  1.00  0.00     0.168 HD
HETATM   23  N6  UNL     1      -4.728   1.647   0.908  1.00  0.00    -0.383 N 
ATOM     24  H62 UNL     1      -5.747   1.691   0.904  1.00  0.00     0.157 HD
ATOM     25  H61 UNL     1      -4.165   2.374   1.350  1.00  0.00     0.157 HD
HETATM   26  N7  UNL     1      -1.833   1.387   0.843  1.00  0.00    -0.184 N 
ATOM     27  H7  UNL     1      -2.002   2.258   1.347  1.00  0.00     0.184 HD
ENDBRANCH  10  12
ENDBRANCH   7  10
ENDBRANCH   3   4
TORSDOF 3
