REMARK  5 active torsions:
REMARK  status: ('A' for Active; 'I' for Inactive)
REMARK    1  A    between atoms: C7_7  and  C8_8 
REMARK    2  A    between atoms: N2_12  and  N3_14 
REMARK    3  A    between atoms: C10_19  and  C11_20 
REMARK    4  A    between atoms: C11_20  and  S1_21 
REMARK    5  A    between atoms: S1_21  and  C12_22 
ROOT
HETATM    1  C8  UNL     1      -0.852   0.661  -0.600  1.00  0.00     0.087 A 
HETATM    2  N1  UNL     1      -1.293   1.595  -1.448  1.00  0.00    -0.187 N 
ATOM      3  H1  UNL     1      -2.219   2.019  -1.396  1.00  0.00     0.184 HD
HETATM    4  C9  UNL     1      -0.395   1.904  -2.357  1.00  0.00     0.697 A 
HETATM    5  N2  UNL     1      -0.390   2.941  -3.208  1.00  0.00    -0.139 N 
ATOM      6  H2  UNL     1       0.354   3.107  -3.886  1.00  0.00     0.205 HD
HETATM    7  N4  UNL     1       0.704   1.119  -2.078  1.00  0.00    -0.188 N 
ATOM      8  H4  UNL     1       1.578   1.110  -2.604  1.00  0.00     0.184 HD
HETATM    9  C10 UNL     1       0.427   0.355  -0.978  1.00  0.00     0.084 A 
ENDROOT
BRANCH   9  10
HETATM   10  C11 UNL     1       1.478  -0.215  -0.084  1.00  0.00     0.085 C 
BRANCH  10  11
HETATM   11  S1  UNL     1       2.308  -1.723  -0.272  1.00  0.00    -0.062 SA
BRANCH  11  12
HETATM   12  C12 UNL     1       3.838  -1.598   0.668  1.00  0.00     0.164 A 
HETATM   13  N5  UNL     1       4.005  -1.622   2.035  1.00  0.00    -0.331 N 
HETATM   14  C13 UNL     1       5.388  -1.523   2.200  1.00  0.00     0.199 A 
ATOM     15  H5  UNL     1       3.288  -1.695   2.757  1.00  0.00     0.168 HD
HETATM   16  N6  UNL     1       6.000  -1.464   1.052  1.00  0.00    -0.294 N 
HETATM   17  N7  UNL     1       5.051  -1.501   0.110  1.00  0.00    -0.279 N 
ATOM     18  H6  UNL     1       7.007  -1.402   0.901  1.00  0.00     0.187 HD
ATOM     19  H7  UNL     1       5.227  -1.461  -0.894  1.00  0.00     0.189 HD
ENDBRANCH  11  12
ENDBRANCH  10  11
ENDBRANCH   9  10
BRANCH   1  20
HETATM   20  C7  UNL     1      -1.731   0.121   0.419  1.00  0.00    -0.001 A 
HETATM   21  C2  UNL     1      -2.354  -1.124   0.309  1.00  0.00    -0.049 A 
HETATM   22  C1  UNL     1      -2.077  -2.023  -0.854  1.00  0.00     0.049 C 
HETATM   23  C3  UNL     1      -3.248  -1.576   1.273  1.00  0.00     0.007 A 
HETATM   24  C4  UNL     1      -3.557  -0.839   2.377  1.00  0.00     0.001 A 
HETATM   25  C5  UNL     1      -2.960   0.379   2.514  1.00  0.00     0.001 A 
HETATM   26  C6  UNL     1      -2.064   0.863   1.555  1.00  0.00     0.014 A 
ENDBRANCH   1  20
BRANCH   5  27
HETATM   27  N3  UNL     1      -1.544   3.800  -3.069  1.00  0.00    -0.331 N 
ATOM     28  H32 UNL     1      -2.281   3.622  -2.386  1.00  0.00     0.177 HD
ATOM     29  H31 UNL     1      -1.540   4.588  -3.716  1.00  0.00     0.177 HD
ENDBRANCH   5  27
TORSDOF 5
