REMARK  7 active torsions:
REMARK  status: ('A' for Active; 'I' for Inactive)
REMARK    1  A    between atoms: C9_9  and  C10_10 
REMARK       I    between atoms: C10_10  and  N1_12 
REMARK    2  A    between atoms: N1_12  and  C11_14 
REMARK    3  A    between atoms: C11_14  and  C12_15 
REMARK    4  A    between atoms: C12_15  and  C13_16 
REMARK    5  A    between atoms: C13_16  and  C14_17 
REMARK    6  A    between atoms: C14_17  and  N2_18 
REMARK       I    between atoms: N2_18  and  C15_20 
REMARK    7  A    between atoms: C15_20  and  C16_22 
ROOT
HETATM    1  C12 UNL     1      -0.223  -0.904   0.681  1.00  0.00     0.021 C 
ENDROOT
BRANCH   1   2
HETATM    2  C11 UNL     1      -0.973  -0.269  -0.457  1.00  0.00     0.122 C 
BRANCH   2   3
HETATM    3  N1  UNL     1      -2.388  -0.355  -0.171  1.00  0.00    -0.360 N 
HETATM    4  C10 UNL     1      -3.376   0.159  -1.059  1.00  0.00     0.226 C 
HETATM    5  O1  UNL     1      -2.991   0.701  -2.119  1.00  0.00    -0.273 OA
ATOM      6  H1  UNL     1      -2.689  -0.799   0.697  1.00  0.00     0.162 HD
BRANCH   4   7
HETATM    7  C9  UNL     1      -4.822   0.077  -0.777  1.00  0.00     0.042 C 
HETATM    8  C8  UNL     1      -5.591   0.701  -1.893  1.00  0.00     0.024 C 
HETATM    9  C7  UNL     1      -7.082   0.694  -1.616  1.00  0.00    -0.009 C 
HETATM   10  C2  UNL     1      -7.322   1.459  -0.347  1.00  0.00    -0.010 C 
HETATM   11  C6  UNL     1      -7.512  -0.748  -1.509  1.00  0.00     0.010 C 
HETATM   12  C1  UNL     1      -8.763   1.726  -0.059  1.00  0.00     0.011 C 
HETATM   13  C3  UNL     1      -6.619   0.746   0.777  1.00  0.00    -0.009 C 
HETATM   14  C4  UNL     1      -7.094  -0.680   0.887  1.00  0.00     0.010 C 
HETATM   15  C27 UNL     1      -5.143   0.747   0.541  1.00  0.00     0.024 C 
HETATM   16  C5  UNL     1      -6.739  -1.404  -0.403  1.00  0.00    -0.013 C 
HETATM   17  C26 UNL     1      -5.263  -1.367  -0.656  1.00  0.00     0.024 C 
ENDBRANCH   4   7
ENDBRANCH   2   3
ENDBRANCH   1   2
BRANCH   1  18
HETATM   18  C13 UNL     1       1.277  -0.873   0.492  1.00  0.00     0.021 C 
BRANCH  18  19
HETATM   19  C14 UNL     1       1.817   0.512   0.373  1.00  0.00     0.122 C 
BRANCH  19  20
HETATM   20  N2  UNL     1       3.251   0.489   0.189  1.00  0.00    -0.360 N 
HETATM   21  C15 UNL     1       4.180  -0.056   1.110  1.00  0.00     0.226 C 
HETATM   22  O2  UNL     1       3.847  -0.583   2.202  1.00  0.00    -0.273 OA
ATOM     23  H2  UNL     1       3.622   0.896  -0.669  1.00  0.00     0.162 HD
BRANCH  21  24
HETATM   24  C16 UNL     1       5.627  -0.012   0.786  1.00  0.00     0.042 C 
HETATM   25  C17 UNL     1       5.816  -0.780  -0.503  1.00  0.00     0.024 C 
HETATM   26  C18 UNL     1       7.267  -0.766  -0.940  1.00  0.00    -0.013 C 
HETATM   27  C19 UNL     1       7.657   0.675  -1.144  1.00  0.00     0.009 C 
HETATM   28  C23 UNL     1       8.081  -1.437   0.131  1.00  0.00     0.009 C 
HETATM   29  C20 UNL     1       7.541   1.381   0.174  1.00  0.00    -0.013 C 
HETATM   30  C21 UNL     1       8.358   0.716   1.262  1.00  0.00     0.009 C 
HETATM   31  C25 UNL     1       6.113   1.409   0.608  1.00  0.00     0.024 C 
HETATM   32  C22 UNL     1       7.874  -0.687   1.435  1.00  0.00    -0.013 C 
HETATM   33  C24 UNL     1       6.433  -0.701   1.847  1.00  0.00     0.024 C 
ENDBRANCH  21  24
ENDBRANCH  19  20
ENDBRANCH  18  19
ENDBRANCH   1  18
TORSDOF 7
