REMARK  1 active torsions:
REMARK  status: ('A' for Active; 'I' for Inactive)
REMARK       I    between atoms: C2_2  and  N1_4 
REMARK    1  A    between atoms: N1_4  and  N2_6 
ROOT
HETATM    1  N2  UNL     1      -0.564  -0.999   0.098  1.00  0.00    -0.286 N 
ATOM      2  H2  UNL     1      -0.760  -1.914   0.503  1.00  0.00     0.188 HD
HETATM    3  C3  UNL     1       0.648  -0.656  -0.077  1.00  0.00     0.122 C 
HETATM    4  S1  UNL     1       1.388   0.815  -0.738  1.00  0.00    -0.103 SA
HETATM    5  C4  UNL     1       3.132   0.636  -0.377  1.00  0.00     0.092 C 
HETATM    6  C5  UNL     1       3.481  -0.784  -0.240  1.00  0.00     0.092 C 
HETATM    7  S2  UNL     1       2.047  -1.699   0.353  1.00  0.00    -0.103 SA
ENDROOT
BRANCH   1   8
HETATM    8  N1  UNL     1      -1.644  -0.168  -0.244  1.00  0.00    -0.269 N 
HETATM    9  C2  UNL     1      -2.783  -0.172   0.588  1.00  0.00     0.232 C 
HETATM   10  C1  UNL     1      -3.946   0.712   0.234  1.00  0.00     0.119 C 
HETATM   11  O1  UNL     1      -2.803  -0.906   1.598  1.00  0.00    -0.272 OA
ATOM     12  H1  UNL     1      -1.605   0.424  -1.074  1.00  0.00     0.190 HD
ENDBRANCH   1   8
TORSDOF 1
