REMARK  2 active torsions:
REMARK  status: ('A' for Active; 'I' for Inactive)
REMARK    1  A    between atoms: C2_2  and  O1_3 
REMARK    2  A    between atoms: C2_2  and  C3_5 
ROOT
HETATM    1  C3  UNL     1       0.182  -0.293   0.998  1.00  0.00     0.168 C 
HETATM    2  S1  UNL     1      -1.002   0.972   1.587  1.00  0.00    -0.148 SA
HETATM    3  C4  UNL     1      -2.177   1.036   0.203  1.00  0.00     0.088 C 
HETATM    4  C5  UNL     1      -2.395  -0.437  -0.069  1.00  0.00     0.120 C 
HETATM    5  S2  UNL     1      -0.704  -0.996  -0.389  1.00  0.00     0.032 S 
HETATM    6  O2  UNL     1      -0.604  -2.488  -0.470  1.00  0.00    -0.257 OA
ENDROOT
BRANCH   1   7
HETATM    7  C2  UNL     1       1.428   0.462   0.525  1.00  0.00     0.140 C 
HETATM    8  C1  UNL     1       2.478  -0.488   0.015  1.00  0.00     0.041 C 
BRANCH   7   9
HETATM    9  O1  UNL     1       1.027   1.322  -0.489  1.00  0.00    -0.394 OA
ATOM     10  H1  UNL     1       0.364   1.922  -0.167  1.00  0.00     0.210 HD
ENDBRANCH   7   9
ENDBRANCH   1   7
TORSDOF 2
