REMARK  2 active torsions:
REMARK  status: ('A' for Active; 'I' for Inactive)
REMARK    1  A    between atoms: N1_4  and  N2_6 
REMARK    2  A    between atoms: C8_12  and  O1_13 
ROOT
HETATM    1  N2  UNL     1      -1.114  -0.658   0.547  1.00  0.00    -0.309 N 
ATOM      2  H2  UNL     1      -1.579  -1.551   0.384  1.00  0.00     0.186 HD
HETATM    3  C4  UNL     1       0.164  -0.597   0.656  1.00  0.00     0.006 C 
HETATM    4  C5  UNL     1       0.809   0.691   0.888  1.00  0.00     0.054 C 
HETATM    5  C6  UNL     1       2.236   0.752   0.403  1.00  0.00     0.008 C 
HETATM    6  C7  UNL     1       2.987  -0.524   0.681  1.00  0.00     0.032 C 
HETATM    7  C8  UNL     1       2.313  -1.728   0.105  1.00  0.00     0.123 C 
HETATM    8  C9  UNL     1       0.885  -1.890   0.529  1.00  0.00     0.085 C 
ENDROOT
BRANCH   1   9
HETATM    9  N1  UNL     1      -1.853   0.517   0.655  1.00  0.00    -0.310 N 
HETATM   10  C2  UNL     1      -2.589   0.905  -0.304  1.00  0.00    -0.004 C 
HETATM   11  C1  UNL     1      -2.681   0.128  -1.549  1.00  0.00     0.064 C 
HETATM   12  C3  UNL     1      -3.355   2.164  -0.135  1.00  0.00     0.064 C 
ATOM     13  H1  UNL     1      -1.803   1.070   1.511  1.00  0.00     0.186 HD
ENDBRANCH   1   9
BRANCH   7  14
HETATM   14  O1  UNL     1       2.347  -1.678  -1.298  1.00  0.00    -0.395 OA
ATOM     15  H1  UNL     1       1.919  -2.443  -1.664  1.00  0.00     0.210 HD
ENDBRANCH   7  14
TORSDOF 2
