REMARK  7 active torsions:
REMARK  status: ('A' for Active; 'I' for Inactive)
REMARK    1  A    between atoms: C2_2  and  C3_3 
REMARK    2  A    between atoms: C2_2  and  C6_19 
REMARK       I    between atoms: N1_4  and  C4_6 
REMARK       I    between atoms: C4_6  and  N2_7 
REMARK    3  A    between atoms: N2_7  and  N3_9 
REMARK    4  A    between atoms: N3_9  and  N4_10 
REMARK    5  A    between atoms: N5_13  and  N6_15 
REMARK    6  A    between atoms: C6_19  and  C7_20 
REMARK    7  A    between atoms: C7_20  and  C8_21 
ROOT
HETATM    1  N6  UNL     1       5.406   0.034   0.116  1.00  0.00    -0.222 N 
ATOM      2  H6  UNL     1       5.756  -0.807  -0.343  1.00  0.00     0.200 HD
HETATM    3  C5  UNL     1       6.293   0.955   0.658  1.00  0.00     0.198 C 
HETATM    4  N7  UNL     1       7.054   1.726   1.102  1.00  0.00    -0.170 NA
ENDROOT
BRANCH   1   5
HETATM    5  N5  UNL     1       4.047   0.263   0.202  1.00  0.00    -0.121 N 
HETATM    6  C4  UNL     1       3.139  -0.569  -0.125  1.00  0.00     0.723 C 
HETATM    7  N1  UNL     1       1.760  -0.289  -0.019  1.00  0.00    -0.198 N 
HETATM    8  N2  UNL     1       3.521  -1.841  -0.622  1.00  0.00    -0.044 N 
HETATM    9  C3  UNL     1       1.284   0.916  -0.034  1.00  0.00     0.112 C 
ATOM     10  H1  UNL     1       1.110  -1.069   0.073  1.00  0.00     0.183 HD
ATOM     11  H2  UNL     1       4.141  -1.931  -1.427  1.00  0.00     0.223 HD
ATOM     12  H5  UNL     1       3.746   1.171   0.556  1.00  0.00     0.206 HD
BRANCH   9  13
HETATM   13  C2  UNL     1      -0.153   1.173   0.078  1.00  0.00    -0.051 C 
HETATM   14  C1  UNL     1      -0.551   2.433   0.053  1.00  0.00     0.020 C 
BRANCH  13  15
HETATM   15  C6  UNL     1      -1.132   0.060   0.216  1.00  0.00     0.039 C 
BRANCH  15  16
HETATM   16  C7  UNL     1      -2.528   0.626   0.305  1.00  0.00     0.009 C 
BRANCH  16  17
HETATM   17  C8  UNL     1      -3.579  -0.420   0.447  1.00  0.00    -0.014 A 
HETATM   18  C9  UNL     1      -3.765  -1.470  -0.597  1.00  0.00     0.005 A 
HETATM   19  C10 UNL     1      -4.718  -0.340  -0.571  1.00  0.00     0.005 A 
ENDBRANCH  16  17
ENDBRANCH  15  16
ENDBRANCH  13  15
ENDBRANCH   9  13
BRANCH   8  20
HETATM   20  N3  UNL     1       3.072  -2.840  -0.040  1.00  0.00    -0.229 NA
BRANCH  20  21
HETATM   21  N4  UNL     1       2.894  -3.952   0.479  1.00  0.00    -0.260 N 
ATOM     22  H42 UNL     1       3.832  -4.265   0.229  1.00  0.00     0.193 HD
ATOM     23  H41 UNL     1       2.525  -4.774   0.958  1.00  0.00     0.193 HD
ENDBRANCH  20  21
ENDBRANCH   8  20
ENDBRANCH   1   5
TORSDOF 7
