REMARK  4 active torsions:
REMARK  status: ('A' for Active; 'I' for Inactive)
REMARK    1  A    between atoms: C1_2  and  C2_4 
REMARK    2  A    between atoms: C2_4  and  C3_6 
REMARK    3  A    between atoms: C3_6  and  C4_8 
REMARK    4  A    between atoms: C4_8  and  C5_9 
ROOT
HETATM    1  C5  UNL     1       0.287  -1.366  -0.223  1.00  0.00    -0.007 C 
HETATM    2  C6  UNL     1      -0.655  -2.005   0.780  1.00  0.00     0.005 C 
HETATM    3  C7  UNL     1      -1.502  -1.039   1.546  1.00  0.00     0.000 C 
HETATM    4  C8  UNL     1      -2.752  -0.597   0.844  1.00  0.00     0.000 C 
HETATM    5  C9  UNL     1      -2.667   0.772   0.264  1.00  0.00     0.000 C 
HETATM    6  C10 UNL     1      -2.294   0.830  -1.189  1.00  0.00     0.000 C 
HETATM    7  C11 UNL     1      -0.782   0.621  -1.378  1.00  0.00     0.000 C 
HETATM    8  C12 UNL     1      -0.429  -0.826  -1.408  1.00  0.00     0.005 C 
ENDROOT
BRANCH   1   9
HETATM    9  C4  UNL     1       1.229  -0.434   0.454  1.00  0.00     0.092 C 
BRANCH   9  10
HETATM   10  C3  UNL     1       2.208   0.226  -0.441  1.00  0.00     0.206 C 
HETATM   11  O4  UNL     1       2.210  -0.067  -1.653  1.00  0.00    -0.289 OA
BRANCH  10  12
HETATM   12  C2  UNL     1       3.166   1.208   0.070  1.00  0.00     0.293 C 
HETATM   13  O3  UNL     1       3.181   1.515   1.280  1.00  0.00    -0.277 OA
BRANCH  12  14
HETATM   14  C1  UNL     1       4.108   1.831  -0.838  1.00  0.00     0.255 C 
HETATM   15  O1  UNL     1       4.103   1.526  -2.077  1.00  0.00    -0.641 OA
HETATM   16  O2  UNL     1       5.023   2.756  -0.406  1.00  0.00    -0.641 OA
ENDBRANCH  12  14
ENDBRANCH  10  12
ENDBRANCH   9  10
ENDBRANCH   1   9
TORSDOF 4
