REMARK  5 active torsions:
REMARK  status: ('A' for Active; 'I' for Inactive)
REMARK    1  A    between atoms: C2_2  and  C3_3 
REMARK    2  A    between atoms: C3_3  and  C4_5 
REMARK    3  A    between atoms: C4_5  and  S1_7 
REMARK    4  A    between atoms: S1_7  and  S2_8 
REMARK    5  A    between atoms: S2_8  and  C5_9 
ROOT
HETATM    1  C4  UNL     1      -0.080  -0.363  -0.736  1.00  0.00     0.215 C 
HETATM    2  O1  UNL     1      -0.014   0.824  -0.871  1.00  0.00    -0.283 OA
ENDROOT
BRANCH   1   3
HETATM    3  C3  UNL     1      -1.377  -0.993  -0.427  1.00  0.00     0.163 C 
HETATM    4 CL1  UNL     1      -1.305  -2.070   0.965  1.00  0.00    -0.116 Cl
BRANCH   3   5
HETATM    5  C2  UNL     1      -2.498   0.014  -0.319  1.00  0.00     0.024 C 
HETATM    6  C1  UNL     1      -2.385   0.899   0.874  1.00  0.00     0.007 C 
ENDBRANCH   3   5
ENDBRANCH   1   3
BRANCH   1   7
HETATM    7  S1  UNL     1       1.360  -1.371  -0.905  1.00  0.00    -0.011 SA
BRANCH   7   8
HETATM    8  S2  UNL     1       3.003  -0.102  -1.345  1.00  0.00    -0.023 SA
BRANCH   8   9
HETATM    9  C5  UNL     1       3.756   0.406   0.186  1.00  0.00     0.160 C 
HETATM   10  N1  UNL     1       3.220  -0.054   1.420  1.00  0.00    -0.081 NA
HETATM   11  S3  UNL     1       5.063   1.399   0.201  1.00  0.00    -0.055 SA
ENDBRANCH   8   9
ENDBRANCH   7   8
ENDBRANCH   1   7
TORSDOF 5
