REMARK  5 active torsions:
REMARK  status: ('A' for Active; 'I' for Inactive)
REMARK    1  A    between atoms: N1_2  and  S1_4 
REMARK    2  A    between atoms: S1_4  and  N2_7 
REMARK    3  A    between atoms: N2_7  and  C3_9 
REMARK    4  A    between atoms: C5_14  and  C6_15 
REMARK       I    between atoms: N6_18  and  C7_19 
REMARK       I    between atoms: C7_19  and  N7_20 
REMARK       I    between atoms: C7_19  and  N8_24 
REMARK    5  A    between atoms: C8_28  and  O4_29 
ROOT
HETATM    1  C3  UNL     1       0.719   0.887  -0.068  1.00  0.00     0.223 C 
HETATM    2  N3  UNL     1      -0.337   1.850  -0.432  1.00  0.00    -0.355 N 
ATOM      3  H3  UNL     1      -0.078   2.805  -0.680  1.00  0.00     0.162 HD
HETATM    4  C4  UNL     1      -1.701   1.477  -0.445  1.00  0.00     0.145 C 
HETATM    5  N4  UNL     1      -2.654   2.554  -0.528  1.00  0.00    -0.080 NA
HETATM    6  C5  UNL     1      -2.122   0.195  -0.383  1.00  0.00     0.142 C 
HETATM    7  N6  UNL     1      -1.077  -0.763  -0.290  1.00  0.00    -0.294 N 
HETATM    8  C7  UNL     1      -1.307  -2.108   0.172  1.00  0.00     0.485 C 
HETATM    9  N7  UNL     1      -1.919  -2.899  -0.846  1.00  0.00    -0.033 N 
ATOM     10  H71 UNL     1      -2.082  -3.851  -0.519  1.00  0.00     0.278 HD
ATOM     11  H72 UNL     1      -1.378  -2.885  -1.710  1.00  0.00     0.278 HD
ATOM     12  H73 UNL     1      -2.776  -2.468  -1.193  1.00  0.00     0.278 HD
HETATM   13  N8  UNL     1      -1.962  -2.177   1.466  1.00  0.00    -0.033 N 
ATOM     14  H81 UNL     1      -2.125  -3.129   1.793  1.00  0.00     0.278 HD
ATOM     15  H82 UNL     1      -2.833  -1.646   1.457  1.00  0.00     0.278 HD
ATOM     16  H83 UNL     1      -1.442  -1.642   2.161  1.00  0.00     0.278 HD
HETATM   17  C8  UNL     1       0.302  -0.424  -0.692  1.00  0.00     0.262 C 
ENDROOT
BRANCH   6  18
HETATM   18  C6  UNL     1      -3.529  -0.086  -0.401  1.00  0.00     0.284 C 
HETATM   19  N5  UNL     1      -4.445   1.000  -0.482  1.00  0.00    -0.056 NA
HETATM   20  O3  UNL     1      -4.034  -1.207  -0.352  1.00  0.00    -0.269 OA
ENDBRANCH   6  18
BRANCH  17  21
HETATM   21  O4  UNL     1       0.254  -0.369  -2.081  1.00  0.00    -0.373 OA
ATOM     22  H4  UNL     1      -0.008  -1.193  -2.473  1.00  0.00     0.212 HD
ENDBRANCH  17  21
BRANCH   1  23
HETATM   23  N2  UNL     1       1.992   1.335  -0.458  1.00  0.00    -0.171 NA
HETATM   24  C2  UNL     1       2.651   0.648  -1.504  1.00  0.00     0.133 C 
BRANCH  23  25
HETATM   25  S1  UNL     1       3.114   1.532   0.828  1.00  0.00     0.300 S 
HETATM   26  O1  UNL     1       4.489   1.604   0.224  1.00  0.00    -0.188 OA
HETATM   27  O2  UNL     1       2.909   2.783   1.608  1.00  0.00    -0.188 OA
BRANCH  25  28
HETATM   28  N1  UNL     1       3.086   0.215   1.937  1.00  0.00    -0.311 N 
HETATM   29  C1  UNL     1       4.012  -0.830   1.570  1.00  0.00     0.160 C 
ATOM     30  H1  UNL     1       2.484   0.177   2.759  1.00  0.00     0.172 HD
ENDBRANCH  25  28
ENDBRANCH  23  25
ENDBRANCH   1  23
TORSDOF 5
