REMARK  8 active torsions:
REMARK  status: ('A' for Active; 'I' for Inactive)
REMARK    1  A    between atoms: N1_1  and  N2_4 
REMARK    2  A    between atoms: N2_4  and  S1_6 
REMARK    3  A    between atoms: S1_6  and  N3_8 
REMARK    4  A    between atoms: S1_6  and  N5_13 
REMARK    5  A    between atoms: N3_8  and  N4_10 
REMARK    6  A    between atoms: N5_13  and  N6_15 
REMARK       I    between atoms: N6_15  and  C1_17 
REMARK    7  A    between atoms: N8_19  and  N9_21 
REMARK    8  A    between atoms: N9_21  and  C2_23 
ROOT
HETATM    1  N6  UNL     1       1.019   0.593  -0.750  1.00  0.00    -0.263 N 
ATOM      2  H6  UNL     1       0.929   0.816  -1.741  1.00  0.00     0.190 HD
HETATM    3  C1  UNL     1      -0.076   0.073  -0.037  1.00  0.00     0.222 C 
HETATM    4  N7  UNL     1      -0.261   0.400   1.322  1.00  0.00    -0.061 NA
HETATM    5  N8  UNL     1      -0.915  -0.701  -0.614  1.00  0.00    -0.271 N 
ATOM      6  H8  UNL     1      -0.780  -0.936  -1.597  1.00  0.00     0.189 HD
ENDROOT
BRANCH   1   7
HETATM    7  N5  UNL     1       2.229   0.801  -0.090  1.00  0.00    -0.223 N 
ATOM      8  H5  UNL     1       2.356   1.518   0.624  1.00  0.00     0.200 HD
BRANCH   7   9
HETATM    9  S1  UNL     1       3.473  -0.245  -0.580  1.00  0.00     0.243 S 
HETATM   10  O1  UNL     1       3.068  -1.263  -1.580  1.00  0.00    -0.201 OA
BRANCH   9  11
HETATM   11  N2  UNL     1       4.107  -1.043   0.638  1.00  0.00    -0.232 N 
ATOM     12  H2  UNL     1       3.819  -0.895   1.605  1.00  0.00     0.199 HD
BRANCH  11  13
HETATM   13  N1  UNL     1       5.096  -1.968   0.271  1.00  0.00    -0.336 N 
ATOM     14  H12 UNL     1       5.373  -2.105  -0.701  1.00  0.00     0.177 HD
ATOM     15  H11 UNL     1       5.503  -2.481   1.053  1.00  0.00     0.177 HD
ENDBRANCH  11  13
ENDBRANCH   9  11
BRANCH   9  16
HETATM   16  N3  UNL     1       4.796   0.673  -1.262  1.00  0.00    -0.232 N 
ATOM     17  H3  UNL     1       5.447   0.371  -1.987  1.00  0.00     0.199 HD
BRANCH  16  18
HETATM   18  N4  UNL     1       4.774   1.920  -0.599  1.00  0.00    -0.336 N 
ATOM     19  H42 UNL     1       4.117   2.210   0.125  1.00  0.00     0.177 HD
ATOM     20  H41 UNL     1       5.546   2.455  -0.997  1.00  0.00     0.177 HD
ENDBRANCH  16  18
ENDBRANCH   9  16
ENDBRANCH   7   9
ENDBRANCH   1   7
BRANCH   5  21
HETATM   21  N9  UNL     1      -2.010  -1.232   0.069  1.00  0.00    -0.280 N 
ATOM     22  H9  UNL     1      -1.918  -2.140   0.524  1.00  0.00     0.189 HD
BRANCH  21  23
HETATM   23  C2  UNL     1      -3.264  -0.534   0.148  1.00  0.00     0.181 A 
HETATM   24  N10 UNL     1      -3.369   0.641   0.638  1.00  0.00    -0.290 N 
HETATM   25  C3  UNL     1      -4.602   1.345   0.723  1.00  0.00     0.328 A 
ATOM     26  H10 UNL     1      -2.526   1.098   0.986  1.00  0.00     0.172 HD
HETATM   27  O2  UNL     1      -4.658   2.504   1.214  1.00  0.00    -0.247 OA
HETATM   28  N11 UNL     1      -5.824   0.784   0.263  1.00  0.00    -0.272 N 
HETATM   29  C4  UNL     1      -5.771  -0.523  -0.293  1.00  0.00     0.303 A 
ATOM     30  H11 UNL     1      -6.703   1.298   0.329  1.00  0.00     0.174 HD
HETATM   31  O3  UNL     1      -6.830  -1.051  -0.711  1.00  0.00    -0.263 OA
HETATM   32  C5  UNL     1      -4.474  -1.184  -0.348  1.00  0.00     0.284 A 
HETATM   33  O4  UNL     1      -4.390  -2.342  -0.835  1.00  0.00    -0.278 OA
ENDBRANCH  21  23
ENDBRANCH   5  21
TORSDOF 8
