REMARK  14 active torsions:
REMARK  status: ('A' for Active; 'I' for Inactive)
REMARK    1  A    between atoms: N2_3  and  S1_5 
REMARK    2  A    between atoms: S1_5  and  C2_7 
REMARK    3  A    between atoms: S1_5  and  N3_11 
REMARK    4  A    between atoms: C2_7  and  C3_8 
REMARK    5  A    between atoms: N3_11  and  C6_13 
REMARK    6  A    between atoms: C6_13  and  C7_14 
REMARK    7  A    between atoms: C7_14  and  C8_16 
REMARK    8  A    between atoms: C11_19  and  C12_20 
REMARK    9  A    between atoms: C14_26  and  N6_27 
REMARK   10  A    between atoms: C15_32  and  N8_33 
REMARK   11  A    between atoms: C17_39  and  N10_40 
REMARK   12  A    between atoms: N10_40  and  C18_42 
REMARK   13  A    between atoms: C18_42  and  C19_43 
REMARK   14  A    between atoms: C19_43  and  N11_44 
ROOT
HETATM    1  N1  UNL     1       8.888   1.644  -2.333  1.00  0.00    -0.171 NA
HETATM    2  C1  UNL     1       8.150   0.831  -2.767  1.00  0.00     0.190 C 
HETATM    3  N2  UNL     1       7.242  -0.154  -3.269  1.00  0.00    -0.238 N 
ATOM      4  H2  UNL     1       7.471  -0.668  -4.120  1.00  0.00     0.189 HD
ENDROOT
BRANCH   3   5
HETATM    5  S1  UNL     1       5.689  -0.494  -2.402  1.00  0.00     0.115 S 
HETATM    6  O1  UNL     1       5.075   0.753  -3.561  1.00  0.00    -0.228 OA
BRANCH   5   7
HETATM    7  C2  UNL     1       6.033   0.198  -0.606  1.00  0.00     0.144 C 
BRANCH   7   8
HETATM    8  C3  UNL     1       6.061  -1.009   0.325  1.00  0.00    -0.000 A 
HETATM    9  C4  UNL     1       7.056  -2.082   0.102  1.00  0.00     0.006 A 
HETATM   10  C5  UNL     1       7.182  -1.162   1.303  1.00  0.00     0.006 A 
ENDBRANCH   7   8
ENDBRANCH   5   7
BRANCH   5  11
HETATM   11  N3  UNL     1       4.059  -0.941  -2.317  1.00  0.00    -0.328 N 
ATOM     12  H3  UNL     1       3.712  -1.808  -2.727  1.00  0.00     0.171 HD
BRANCH  11  13
HETATM   13  C6  UNL     1       3.174   0.002  -1.613  1.00  0.00     0.214 C 
BRANCH  13  14
HETATM   14  C7  UNL     1       1.785  -0.465  -1.664  1.00  0.00     0.177 C 
HETATM   15  O2  UNL     1       1.480  -1.569  -2.235  1.00  0.00    -0.291 OA
BRANCH  14  16
HETATM   16  C8  UNL     1       0.747   0.336  -1.062  1.00  0.00     0.014 A 
HETATM   17  C9  UNL     1       0.976   1.532  -0.428  1.00  0.00     0.016 A 
HETATM   18  C10 UNL     1      -0.043   2.266   0.131  1.00  0.00     0.018 A 
HETATM   19  C11 UNL     1      -1.373   1.828   0.081  1.00  0.00     0.034 A 
HETATM   20  C17 UNL     1      -1.618   0.637  -0.547  1.00  0.00     0.043 A 
HETATM   21  C24 UNL     1      -0.551  -0.088  -1.108  1.00  0.00     0.045 A 
BRANCH  19  22
HETATM   22  C12 UNL     1      -2.417   2.646   0.718  1.00  0.00     0.120 A 
HETATM   23  N4  UNL     1      -3.738   2.470   0.825  1.00  0.00    -0.325 N 
HETATM   24  C13 UNL     1      -4.318   3.452   1.490  1.00  0.00     0.153 A 
ATOM     25  H4  UNL     1      -4.239   1.670   0.438  1.00  0.00     0.169 HD
HETATM   26  N5  UNL     1      -5.569   3.758   1.866  1.00  0.00    -0.174 N 
HETATM   27  C16 UNL     1      -3.324   4.333   1.845  1.00  0.00     0.123 A 
HETATM   28  C14 UNL     1      -5.850   4.882   2.565  1.00  0.00     0.679 A 
ATOM     29  H5  UNL     1      -6.330   3.125   1.618  1.00  0.00     0.186 HD
HETATM   30  N7  UNL     1      -4.873   5.752   2.918  1.00  0.00    -0.175 N 
HETATM   31  C15 UNL     1      -3.610   5.482   2.560  1.00  0.00     0.145 A 
ATOM     32  H7  UNL     1      -5.094   6.596   3.446  1.00  0.00     0.186 HD
HETATM   33  N9  UNL     1      -2.171   3.805   1.354  1.00  0.00    -0.336 N 
ATOM     34  H9  UNL     1      -1.249   4.229   1.454  1.00  0.00     0.168 HD
BRANCH  28  35
HETATM   35  N6  UNL     1      -7.048   5.141   2.900  1.00  0.00    -0.234 N 
ATOM     36  H62 UNL     1      -7.783   4.486   2.634  1.00  0.00     0.174 HD
ATOM     37  H61 UNL     1      -7.260   5.988   3.427  1.00  0.00     0.174 HD
ENDBRANCH  28  35
BRANCH  31  38
HETATM   38  N8  UNL     1      -2.656   6.268   2.870  1.00  0.00    -0.383 N 
ATOM     39  H82 UNL     1      -2.867   7.115   3.397  1.00  0.00     0.157 HD
ATOM     40  H81 UNL     1      -1.695   6.063   2.598  1.00  0.00     0.157 HD
ENDBRANCH  31  38
ENDBRANCH  19  22
BRANCH  20  41
HETATM   41  N10 UNL     1      -2.941   0.123  -0.702  1.00  0.00    -0.387 N 
ATOM     42  H10 UNL     1      -3.744   0.720  -0.502  1.00  0.00     0.159 HD
BRANCH  41  43
HETATM   43  C18 UNL     1      -3.151  -1.256  -1.146  1.00  0.00     0.150 C 
BRANCH  43  44
HETATM   44  C19 UNL     1      -2.748  -2.172  -0.042  1.00  0.00     0.292 C 
BRANCH  44  45
HETATM   45  N11 UNL     1      -2.909  -3.579  -0.362  1.00  0.00     0.090 N 
HETATM   46  C20 UNL     1      -2.477  -4.373   0.775  1.00  0.00     0.272 C 
HETATM   47  C21 UNL     1      -3.391  -5.580   0.793  1.00  0.00     0.032 C 
HETATM   48  C22 UNL     1      -4.712  -4.976   0.363  1.00  0.00     0.032 C 
HETATM   49  C23 UNL     1      -4.307  -3.869  -0.551  1.00  0.00     0.272 C 
ENDBRANCH  44  45
ENDBRANCH  43  44
ENDBRANCH  41  43
ENDBRANCH  20  41
ENDBRANCH  14  16
ENDBRANCH  13  14
ENDBRANCH  11  13
ENDBRANCH   5  11
ENDBRANCH   3   5
TORSDOF 14
