REMARK  14 active torsions:
REMARK  status: ('A' for Active; 'I' for Inactive)
REMARK    1  A    between atoms: C3_3  and  C4_4 
REMARK    2  A    between atoms: C7_7  and  C8_8 
REMARK       I    between atoms: C8_8  and  N1_10 
REMARK    3  A    between atoms: N1_10  and  C9_12 
REMARK    4  A    between atoms: C9_12  and  C10_13 
REMARK    5  A    between atoms: C10_13  and  C11_14 
REMARK    6  A    between atoms: C11_14  and  C12_15 
REMARK    7  A    between atoms: C14_19  and  N3_20 
REMARK    8  A    between atoms: C17_30  and  O2_31 
REMARK    9  A    between atoms: O2_31  and  C18_32 
REMARK   10  A    between atoms: C18_32  and  C19_33 
REMARK   11  A    between atoms: C19_33  and  C20_34 
REMARK   12  A    between atoms: C20_34  and  C21_35 
REMARK   13  A    between atoms: C21_35  and  C22_36 
REMARK   14  A    between atoms: C22_36  and  N6_37 
ROOT
HETATM    1  C1  UNL     1      -3.137   4.083   2.841  1.00  0.00     0.012 C 
HETATM    2  C2  UNL     1      -2.824   4.272   1.691  1.00  0.00    -0.113 C 
HETATM    3  C3  UNL     1      -2.469   4.495   0.288  1.00  0.00     0.134 C 
ENDROOT
BRANCH   3   4
HETATM    4  C4  UNL     1      -1.057   4.124  -0.001  1.00  0.00    -0.014 A 
HETATM    5  C5  UNL     1      -0.101   5.100  -0.154  1.00  0.00     0.012 A 
HETATM    6  C6  UNL     1       1.218   4.818  -0.423  1.00  0.00     0.018 A 
HETATM    7  C7  UNL     1       1.614   3.509  -0.548  1.00  0.00     0.034 A 
HETATM    8  C16 UNL     1       0.640   2.521  -0.392  1.00  0.00     0.054 A 
HETATM    9  C17 UNL     1      -0.676   2.779  -0.123  1.00  0.00     0.076 A 
BRANCH   7  10
HETATM   10  C8  UNL     1       3.017   3.194  -0.821  1.00  0.00     0.251 C 
HETATM   11  O1  UNL     1       3.901   3.388   0.069  1.00  0.00    -0.268 OA
HETATM   12  N1  UNL     1       3.355   2.677  -2.088  1.00  0.00    -0.357 N 
ATOM     13  H1  UNL     1       2.593   2.553  -2.755  1.00  0.00     0.162 HD
BRANCH  12  14
HETATM   14  C9  UNL     1       4.676   2.307  -2.530  1.00  0.00     0.123 C 
BRANCH  14  15
HETATM   15  C10 UNL     1       5.268   1.163  -1.677  1.00  0.00     0.024 C 
BRANCH  15  16
HETATM   16  C11 UNL     1       4.353   0.017  -1.832  1.00  0.00     0.045 C 
BRANCH  16  17
HETATM   17  C12 UNL     1       4.655  -1.232  -1.135  1.00  0.00     0.002 A 
HETATM   18  C13 UNL     1       3.732  -2.262  -1.355  1.00  0.00     0.117 A 
HETATM   19  N2  UNL     1       3.913  -3.440  -0.766  1.00  0.00    -0.202 N 
HETATM   20  C14 UNL     1       4.980  -3.663   0.045  1.00  0.00     0.677 A 
ATOM     21  H2  UNL     1       3.239  -4.189  -0.926  1.00  0.00     0.183 HD
HETATM   22  N4  UNL     1       5.862  -2.709   0.265  1.00  0.00    -0.177 N 
HETATM   23  C15 UNL     1       5.733  -1.475  -0.309  1.00  0.00     0.122 A 
ATOM     24  H4  UNL     1       6.657  -2.895   0.876  1.00  0.00     0.185 HD
HETATM   25  N5  UNL     1       6.569  -0.590  -0.094  1.00  0.00    -0.385 N 
ATOM     26  H52 UNL     1       6.473   0.331  -0.522  1.00  0.00     0.157 HD
ATOM     27  H51 UNL     1       7.366  -0.770   0.517  1.00  0.00     0.157 HD
BRANCH  20  28
HETATM   28  N3  UNL     1       5.096  -4.847   0.593  1.00  0.00    -0.234 N 
ATOM     29  H32 UNL     1       4.413  -5.585   0.423  1.00  0.00     0.174 HD
ATOM     30  H31 UNL     1       5.897  -5.014   1.202  1.00  0.00     0.174 HD
ENDBRANCH  20  28
ENDBRANCH  16  17
ENDBRANCH  15  16
ENDBRANCH  14  15
ENDBRANCH  12  14
ENDBRANCH   7  10
BRANCH   9  31
HETATM   31  O2  UNL     1      -1.639   1.859   0.031  1.00  0.00    -0.350 OA
BRANCH  31  32
HETATM   32  C18 UNL     1      -1.646   0.462   0.010  1.00  0.00     0.179 C 
BRANCH  32  33
HETATM   33  C19 UNL     1      -0.848  -0.069   1.133  1.00  0.00     0.054 C 
BRANCH  33  34
HETATM   34  C20 UNL     1      -0.618  -1.498   1.269  1.00  0.00    -0.023 C 
BRANCH  34  35
HETATM   35  C21 UNL     1      -1.528  -2.580   1.442  1.00  0.00     0.014 C 
BRANCH  35  36
HETATM   36  C22 UNL     1      -2.494  -3.194   0.572  1.00  0.00     0.103 C 
BRANCH  36  37
HETATM   37  N6  UNL     1      -3.600  -2.651  -0.072  1.00  0.00    -0.258 N 
HETATM   38  C23 UNL     1      -3.697  -2.250  -1.371  1.00  0.00     0.332 A 
HETATM   39  O3  UNL     1      -2.744  -2.326  -2.203  1.00  0.00    -0.246 OA
HETATM   40  N7  UNL     1      -4.914  -1.787  -1.597  1.00  0.00    -0.304 N 
HETATM   41  C24 UNL     1      -5.636  -1.866  -0.485  1.00  0.00     0.098 A 
ATOM     42  H7  UNL     1      -5.248  -1.424  -2.490  1.00  0.00     0.171 HD
HETATM   43  C25 UNL     1      -6.945  -1.524  -0.174  1.00  0.00     0.139 A 
HETATM   44  C27 UNL     1      -4.822  -2.406   0.473  1.00  0.00     0.159 A 
HETATM   45  N8  UNL     1      -7.412  -1.720   1.058  1.00  0.00    -0.200 N 
HETATM   46  C26 UNL     1      -6.627  -2.249   2.012  1.00  0.00     0.677 A 
ATOM     47  H8  UNL     1      -8.375  -1.466   1.280  1.00  0.00     0.183 HD
HETATM   48  N9  UNL     1      -7.075  -2.441   3.206  1.00  0.00    -0.234 N 
HETATM   49  N10 UNL     1      -5.345  -2.582   1.699  1.00  0.00    -0.174 N 
ATOM     50  H92 UNL     1      -8.036  -2.191   3.441  1.00  0.00     0.174 HD
ATOM     51  H91 UNL     1      -6.479  -2.842   3.930  1.00  0.00     0.174 HD
ATOM     52  H10 UNL     1      -4.754  -2.983   2.427  1.00  0.00     0.186 HD
ENDBRANCH  36  37
ENDBRANCH  35  36
ENDBRANCH  34  35
ENDBRANCH  33  34
ENDBRANCH  32  33
ENDBRANCH  31  32
ENDBRANCH   9  31
ENDBRANCH   3   4
TORSDOF 14
