REMARK  2 active torsions:
REMARK  status: ('A' for Active; 'I' for Inactive)
REMARK    1  A    between atoms: C14_15  and  O1_16 
REMARK    2  A    between atoms: O1_16  and  N2_17 
ROOT
HETATM    1  C1  UNL     1       1.125   1.224  -1.875  1.00  0.00     0.016 C 
HETATM    2  C2  UNL     1       0.873   0.967  -0.376  1.00  0.00    -0.033 C 
HETATM    3  C3  UNL     1       0.827   2.373   0.221  1.00  0.00     0.010 C 
HETATM    4  C4  UNL     1      -0.537   2.917   0.141  1.00  0.00     0.001 C 
HETATM    5  C5  UNL     1      -1.372   2.102   1.076  1.00  0.00     0.005 C 
HETATM    6  C6  UNL     1      -1.235   0.620   0.968  1.00  0.00    -0.003 C 
HETATM    7  C7  UNL     1      -2.614   0.116   0.978  1.00  0.00     0.036 C 
HETATM    8  C8  UNL     1      -2.927  -1.289   0.866  1.00  0.00     0.272 C 
HETATM    9  N1  UNL     1      -2.195  -1.901  -0.210  1.00  0.00     0.088 N 
HETATM   10  C9  UNL     1      -2.124  -1.134  -1.398  1.00  0.00     0.273 C 
HETATM   11  C10 UNL     1      -1.288   0.101  -1.352  1.00  0.00     0.041 C 
HETATM   12  C11 UNL     1      -0.332   0.138  -0.135  1.00  0.00    -0.022 C 
HETATM   13  C12 UNL     1       0.088  -1.287  -0.012  1.00  0.00     0.026 C 
HETATM   14  C13 UNL     1       1.264  -1.551   0.893  1.00  0.00     0.041 C 
HETATM   15  C14 UNL     1       2.447  -0.970   0.101  1.00  0.00     0.152 C 
HETATM   16  C15 UNL     1       2.184   0.483   0.163  1.00  0.00     0.044 C 
HETATM   17  C16 UNL     1      -0.948  -2.286   0.348  1.00  0.00     0.277 C 
ENDROOT
BRANCH  15  18
HETATM   18  O1  UNL     1       3.645  -1.249   0.702  1.00  0.00    -0.282 OA
BRANCH  18  19
HETATM   19  N2  UNL     1       4.532  -1.881  -0.069  1.00  0.00    -0.311 N 
ATOM     20  H22 UNL     1       4.318  -2.131  -1.034  1.00  0.00     0.184 HD
ATOM     21  H21 UNL     1       5.425  -2.089   0.379  1.00  0.00     0.184 HD
ENDBRANCH  18  19
ENDBRANCH  15  18
TORSDOF 2
