REMARK  1 active torsions:
REMARK  status: ('A' for Active; 'I' for Inactive)
REMARK    1  A    between atoms: N1_1  and  C1_4 
ROOT
HETATM    1  C1  UNL     1      -1.045   0.365  -0.036  1.00  0.00     0.693 A 
HETATM    2  N2  UNL     1      -0.692  -0.913   0.204  1.00  0.00    -0.129 N 
ATOM      3  H2  UNL     1      -1.432  -1.596   0.364  1.00  0.00     0.205 HD
HETATM    4  N3  UNL     1       0.561  -1.328   0.243  1.00  0.00    -0.247 N 
ATOM      5  H3  UNL     1       0.793  -2.304   0.428  1.00  0.00     0.191 HD
HETATM    6  C2  UNL     1       1.517  -0.407   0.028  1.00  0.00     0.329 A 
HETATM    7  O1  UNL     1       2.729  -0.808   0.066  1.00  0.00    -0.261 OA
HETATM    8  C3  UNL     1       1.180   0.893  -0.217  1.00  0.00     0.329 A 
HETATM    9  O2  UNL     1       2.111   1.743  -0.416  1.00  0.00    -0.261 OA
HETATM   10  N4  UNL     1      -0.104   1.302  -0.254  1.00  0.00    -0.150 N 
ATOM     11  H4  UNL     1      -0.350   2.274  -0.438  1.00  0.00     0.188 HD
ENDROOT
BRANCH   1  12
HETATM   12  N1  UNL     1      -2.273   0.763  -0.073  1.00  0.00    -0.233 N 
ATOM     13  H12 UNL     1      -2.986   0.053   0.092  1.00  0.00     0.174 HD
ATOM     14  H11 UNL     1      -2.540   1.730  -0.255  1.00  0.00     0.174 HD
ENDBRANCH   1  12
TORSDOF 1
