REMARK  8 active torsions:
REMARK  status: ('A' for Active; 'I' for Inactive)
REMARK    1  A    between atoms: C2_2  and  O1_4 
REMARK    2  A    between atoms: O1_4  and  C4_5 
REMARK       I    between atoms: C4_5  and  N1_7 
REMARK    3  A    between atoms: C7_10  and  C8_11 
REMARK    4  A    between atoms: C7_10  and  C9_14 
REMARK    5  A    between atoms: C8_11  and  O3_12 
REMARK    6  A    between atoms: C9_14  and  C10_15 
REMARK    7  A    between atoms: C10_15  and  N2_16 
REMARK       I    between atoms: N2_16  and  C11_18 
REMARK       I    between atoms: C11_18  and  N3_20 
REMARK    8  A    between atoms: N3_20  and  C12_22 
ROOT
HETATM    1  C4  UNL     1       4.263  -0.760   0.480  1.00  0.00     0.363 C 
HETATM    2  O2  UNL     1       5.047  -1.739   0.384  1.00  0.00    -0.238 OA
HETATM    3  N1  UNL     1       2.982  -0.872  -0.114  1.00  0.00    -0.328 N 
HETATM    4  C5  UNL     1       2.534  -2.050  -0.821  1.00  0.00     0.129 C 
HETATM    5  C6  UNL     1       1.929  -1.676  -2.156  1.00  0.00     0.032 C 
HETATM    6  C7  UNL     1       0.883  -0.591  -2.006  1.00  0.00    -0.015 C 
HETATM    7  C16 UNL     1       1.551   0.603  -1.380  1.00  0.00     0.032 C 
HETATM    8  C17 UNL     1       2.077   0.249  -0.006  1.00  0.00     0.129 C 
ENDROOT
BRANCH   6   9
HETATM    9  C8  UNL     1       0.422  -0.219  -3.378  1.00  0.00     0.173 C 
BRANCH   9  10
HETATM   10  O3  UNL     1      -0.140  -1.279  -4.080  1.00  0.00    -0.400 OA
ATOM     11  H3  UNL     1      -0.433  -1.043  -4.952  1.00  0.00     0.209 HD
ENDBRANCH   9  10
ENDBRANCH   6   9
BRANCH   6  12
HETATM   12  C9  UNL     1      -0.268  -1.108  -1.208  1.00  0.00     0.031 C 
BRANCH  12  13
HETATM   13  C10 UNL     1      -1.342  -0.060  -1.028  1.00  0.00     0.125 C 
BRANCH  13  14
HETATM   14  N2  UNL     1      -2.457  -0.589  -0.241  1.00  0.00    -0.343 N 
HETATM   15  C11 UNL     1      -3.583   0.219   0.055  1.00  0.00     0.316 C 
HETATM   16  O4  UNL     1      -3.651   1.429  -0.358  1.00  0.00    -0.247 OA
HETATM   17  N3  UNL     1      -4.641  -0.342   0.823  1.00  0.00    -0.335 N 
ATOM     18  H3  UNL     1      -4.588  -1.306   1.152  1.00  0.00     0.165 HD
ATOM     19  H2  UNL     1      -2.423  -1.550   0.098  1.00  0.00     0.164 HD
BRANCH  17  20
HETATM   20  C12 UNL     1      -5.784   0.470   1.128  1.00  0.00     0.023 C 
HETATM   21  C13 UNL     1      -6.499   0.956  -0.117  1.00  0.00     0.037 C 
HETATM   22  C14 UNL     1      -6.725  -0.308   1.998  1.00  0.00     0.037 C 
HETATM   23  C15 UNL     1      -5.303   1.718   1.865  1.00  0.00     0.037 C 
ENDBRANCH  17  20
ENDBRANCH  13  14
ENDBRANCH  12  13
ENDBRANCH   6  12
BRANCH   1  24
HETATM   24  O1  UNL     1       4.650   0.389   1.149  1.00  0.00    -0.299 OA
BRANCH  24  25
HETATM   25  C2  UNL     1       5.929   0.493   1.738  1.00  0.00     0.125 C 
HETATM   26  C1  UNL     1       5.778   0.749   3.225  1.00  0.00     0.040 C 
HETATM   27  C3  UNL     1       6.706   1.654   1.112  1.00  0.00     0.040 C 
ENDBRANCH  24  25
ENDBRANCH   1  24
TORSDOF 8
