REMARK  8 active torsions:
REMARK  status: ('A' for Active; 'I' for Inactive)
REMARK    1  A    between atoms: C2_2  and  N1_3 
REMARK    2  A    between atoms: N1_3  and  C3_5 
REMARK    3  A    between atoms: C4_8  and  N3_9 
REMARK    4  A    between atoms: N3_9  and  C5_11 
REMARK    5  A    between atoms: C5_11  and  C6_12 
REMARK    6  A    between atoms: C9_17  and  N5_18 
REMARK    7  A    between atoms: N5_18  and  C10_20 
REMARK    8  A    between atoms: C12_22  and  C13_23 
ROOT
HETATM    1  C3  UNL     1      -1.411  -0.960  -0.462  1.00  0.00     0.707 A 
HETATM    2  N2  UNL     1      -2.351  -0.040  -0.156  1.00  0.00    -0.022 N 
ATOM      3  H2  UNL     1      -3.316  -0.204  -0.443  1.00  0.00     0.203 HD
HETATM    4  C4  UNL     1      -2.053   1.085   0.516  1.00  0.00     0.707 A 
HETATM    5  N4  UNL     1      -0.774   1.264   0.876  1.00  0.00    -0.021 N 
ATOM      6  H4  UNL     1      -0.530   2.113   1.386  1.00  0.00     0.203 HD
HETATM    7  C9  UNL     1       0.206   0.383   0.600  1.00  0.00     0.711 A 
HETATM    8  N7  UNL     1      -0.143  -0.732  -0.077  1.00  0.00    -0.021 N 
ATOM      9  H7  UNL     1       0.575  -1.420  -0.303  1.00  0.00     0.203 HD
ENDROOT
BRANCH   7  10
HETATM   10  N5  UNL     1       1.381   0.657   0.990  1.00  0.00    -0.189 N 
ATOM     11  H5  UNL     1       1.493   1.538   1.492  1.00  0.00     0.184 HD
BRANCH  10  12
HETATM   12  C10 UNL     1       2.536  -0.100   0.816  1.00  0.00     0.071 A 
HETATM   13  C11 UNL     1       3.489   0.250  -0.110  1.00  0.00     0.041 A 
HETATM   14  C12 UNL     1       4.645  -0.491  -0.299  1.00  0.00    -0.037 A 
HETATM   15  C16 UNL     1       4.825  -1.610   0.478  1.00  0.00     0.095 A 
HETATM   16  N6  UNL     1       3.891  -1.952   1.386  1.00  0.00    -0.367 N 
HETATM   17  C17 UNL     1       2.751  -1.225   1.574  1.00  0.00     0.032 A 
ATOM     18  H6  UNL     1       4.041  -2.785   1.955  1.00  0.00     0.165 HD
HETATM   19  C18 UNL     1       1.777  -1.693   2.610  1.00  0.00     0.070 C 
BRANCH  14  20
HETATM   20  C13 UNL     1       5.670  -0.098  -1.309  1.00  0.00     0.012 C 
HETATM   21  C14 UNL     1       4.997   0.060  -2.659  1.00  0.00     0.015 C 
HETATM   22  C15 UNL     1       6.169   1.288  -0.909  1.00  0.00     0.015 C 
ENDBRANCH  14  20
ENDBRANCH  10  12
ENDBRANCH   7  10
BRANCH   4  23
HETATM   23  N3  UNL     1      -2.956   1.959   0.805  1.00  0.00    -0.225 N 
ATOM     24  H3  UNL     1      -2.715   2.808   1.316  1.00  0.00     0.177 HD
BRANCH  23  25
HETATM   25  C5  UNL     1      -4.316   1.709   0.389  1.00  0.00     0.142 C 
BRANCH  25  26
HETATM   26  C6  UNL     1      -5.244   2.839   0.710  1.00  0.00    -0.004 C 
HETATM   27  C7  UNL     1      -5.316   3.140   2.185  1.00  0.00     0.011 C 
HETATM   28  C8  UNL     1      -6.642   2.413   0.276  1.00  0.00     0.011 C 
ENDBRANCH  25  26
ENDBRANCH  23  25
ENDBRANCH   4  23
BRANCH   1  29
HETATM   29  N1  UNL     1      -1.783  -2.012  -1.109  1.00  0.00    -0.225 N 
ATOM     30  H1  UNL     1      -2.768  -2.102  -1.360  1.00  0.00     0.177 HD
BRANCH  29  31
HETATM   31  C2  UNL     1      -0.883  -3.063  -1.495  1.00  0.00     0.133 C 
HETATM   32  C1  UNL     1      -1.651  -4.340  -1.798  1.00  0.00     0.027 C 
ENDBRANCH  29  31
ENDBRANCH   1  29
TORSDOF 8
