REMARK  6 active torsions:
REMARK  status: ('A' for Active; 'I' for Inactive)
REMARK    1  A    between atoms: C2_2  and  O1_3 
REMARK    2  A    between atoms: O1_3  and  C3_4 
REMARK    3  A    between atoms: C3_4  and  C4_6 
REMARK    4  A    between atoms: C7_11  and  C8_12 
REMARK    5  A    between atoms: C8_12  and  C9_13 
REMARK    6  A    between atoms: C12_18  and  O3_19 
ROOT
HETATM    1  C9  UNL     1      -1.100   0.623   1.728  1.00  0.00     0.031 C 
HETATM    2  C10 UNL     1      -1.616   1.695   1.009  1.00  0.00     0.101 C 
HETATM    3  N2  UNL     1      -2.841   1.897   0.497  1.00  0.00    -0.361 N 
ATOM      4  H2  UNL     1      -2.899   2.580  -0.258  1.00  0.00     0.165 HD
HETATM    5  C11 UNL     1      -4.007   1.313   0.852  1.00  0.00     0.093 A 
HETATM    6  C12 UNL     1      -5.382   1.412   0.750  1.00  0.00     0.099 A 
HETATM    7  C14 UNL     1      -5.493   0.286   1.493  1.00  0.00     0.071 A 
HETATM    8  C15 UNL     1      -4.128   0.099   1.652  1.00  0.00     0.067 A 
HETATM    9  N3  UNL     1      -3.169  -0.672   2.187  1.00  0.00    -0.321 N 
ATOM     10  H3  UNL     1      -3.485  -1.494   2.701  1.00  0.00     0.169 HD
HETATM   11  C16 UNL     1      -1.815  -0.482   2.123  1.00  0.00     0.254 C 
HETATM   12  O4  UNL     1      -1.177  -1.499   2.490  1.00  0.00    -0.268 OA
ENDROOT
BRANCH   1  13
HETATM   13  C8  UNL     1       0.328   0.651   2.111  1.00  0.00     0.103 C 
BRANCH  13  14
HETATM   14  C7  UNL     1       1.195  -0.223   1.287  1.00  0.00     0.021 A 
HETATM   15  N1  UNL     1       1.742  -1.390   1.658  1.00  0.00    -0.362 N 
HETATM   16  C5  UNL     1       2.489  -1.921   0.669  1.00  0.00     0.022 A 
ATOM     17  H1  UNL     1       1.610  -1.821   2.573  1.00  0.00     0.165 HD
HETATM   18  C4  UNL     1       2.439  -1.072  -0.414  1.00  0.00     0.069 A 
HETATM   19  C6  UNL     1       3.264  -3.205   0.675  1.00  0.00     0.069 C 
HETATM   20  C17 UNL     1       1.628  -0.018  -0.009  1.00  0.00    -0.021 A 
HETATM   21  C18 UNL     1       1.316   1.121  -0.887  1.00  0.00     0.051 C 
BRANCH  18  22
HETATM   22  C3  UNL     1       3.095  -1.219  -1.727  1.00  0.00     0.295 C 
HETATM   23  O2  UNL     1       2.510  -1.805  -2.648  1.00  0.00    -0.259 OA
BRANCH  22  24
HETATM   24  O1  UNL     1       4.364  -0.711  -1.952  1.00  0.00    -0.318 OA
BRANCH  24  25
HETATM   25  C2  UNL     1       5.013  -0.845  -3.218  1.00  0.00     0.174 C 
HETATM   26  C1  UNL     1       6.378  -0.206  -3.196  1.00  0.00     0.034 C 
ENDBRANCH  24  25
ENDBRANCH  22  24
ENDBRANCH  18  22
ENDBRANCH  13  14
ENDBRANCH   1  13
BRANCH   6  27
HETATM   27  O3  UNL     1      -6.186   2.337   0.117  1.00  0.00    -0.353 OA
HETATM   28  C13 UNL     1      -7.595   2.276   0.121  1.00  0.00     0.210 C 
ENDBRANCH   6  27
TORSDOF 6
