REMARK  6 active torsions:
REMARK  status: ('A' for Active; 'I' for Inactive)
REMARK    1  A    between atoms: N1_2  and  C2_4 
REMARK    2  A    between atoms: C2_4  and  C3_6 
REMARK    3  A    between atoms: C3_6  and  C4_7 
REMARK    4  A    between atoms: C4_7  and  N2_8 
REMARK    5  A    between atoms: N2_8  and  S2_10 
REMARK    6  A    between atoms: C14_21  and  O3_22 
ROOT
HETATM    1  C3  UNL     1      -0.077   0.030   0.065  1.00  0.00     0.060 C 
HETATM    2  C7  UNL     1      -0.852  -0.768   1.107  1.00  0.00     0.006 C 
HETATM    3  C8  UNL     1      -1.215  -2.103   0.528  1.00  0.00     0.010 C 
HETATM    4  C9  UNL     1      -2.072  -1.977  -0.713  1.00  0.00    -0.011 C 
HETATM    5  C10 UNL     1      -3.360  -1.278  -0.254  1.00  0.00     0.009 C 
HETATM    6  C11 UNL     1      -3.022   0.075   0.294  1.00  0.00    -0.011 C 
HETATM    7  C12 UNL     1      -2.141  -0.102   1.497  1.00  0.00     0.010 C 
HETATM    8  C13 UNL     1      -2.264   0.906  -0.707  1.00  0.00     0.043 C 
HETATM    9  C14 UNL     1      -0.967   0.191  -1.120  1.00  0.00     0.074 C 
HETATM   10  C15 UNL     1      -1.455  -1.082  -1.746  1.00  0.00     0.043 C 
ENDROOT
BRANCH   1  11
HETATM   11  C2  UNL     1       0.268   1.359   0.621  1.00  0.00     0.086 C 
HETATM   12  S1  UNL     1       0.428   2.633  -0.371  1.00  0.00    -0.065 SA
BRANCH  11  13
HETATM   13  N1  UNL     1       0.473   1.594   2.009  1.00  0.00    -0.388 N 
HETATM   14  C1  UNL     1       0.810   2.905   2.527  1.00  0.00     0.147 C 
ATOM     15  H1  UNL     1       0.380   0.815   2.661  1.00  0.00     0.159 HD
ENDBRANCH  11  13
ENDBRANCH   1  11
BRANCH   1  16
HETATM   16  C4  UNL     1       1.151  -0.763  -0.214  1.00  0.00     0.127 C 
BRANCH  16  17
HETATM   17  N2  UNL     1       2.112  -0.266  -1.113  1.00  0.00    -0.214 NA
HETATM   18  C5  UNL     1       2.261  -1.108  -2.310  1.00  0.00     0.129 C 
BRANCH  17  19
HETATM   19  S2  UNL     1       3.687   0.015  -0.521  1.00  0.00     0.207 S 
HETATM   20  C6  UNL     1       3.868   1.186   0.746  1.00  0.00     0.180 C 
HETATM   21  O1  UNL     1       4.600   0.388  -1.683  1.00  0.00    -0.212 OA
HETATM   22  O2  UNL     1       4.196  -1.319   0.048  1.00  0.00    -0.212 OA
ENDBRANCH  17  19
ENDBRANCH  16  17
ENDBRANCH   1  16
BRANCH   9  23
HETATM   23  O3  UNL     1      -0.410   0.954  -2.143  1.00  0.00    -0.389 OA
ATOM     24  H3  UNL     1      -0.977   1.057  -2.898  1.00  0.00     0.210 HD
ENDBRANCH   9  23
TORSDOF 6
