REMARK  4 active torsions:
REMARK  status: ('A' for Active; 'I' for Inactive)
REMARK    1  A    between atoms: N1_1  and  N2_4 
REMARK    2  A    between atoms: C1_5  and  C2_6 
REMARK    3  A    between atoms: N3_7  and  C3_9 
REMARK    4  A    between atoms: N8_22  and  O2_23 
ROOT
HETATM    1  C2  UNL     1      -0.494   0.027  -0.632  1.00  0.00     0.122 C 
HETATM    2  N3  UNL     1       0.059   1.114  -0.995  1.00  0.00    -0.369 N 
ATOM      3  H3  UNL     1      -0.504   1.961  -1.071  1.00  0.00     0.164 HD
ENDROOT
BRANCH   1   4
HETATM    4  C1  UNL     1      -1.925  -0.034  -0.320  1.00  0.00     0.110 A 
HETATM    5  N2  UNL     1      -2.647  -1.103   0.074  1.00  0.00    -0.159 N 
HETATM    6  N8  UNL     1      -3.921  -0.713   0.251  1.00  0.00    -0.073 N 
HETATM    7  N7  UNL     1      -4.029   0.576  -0.021  1.00  0.00    -0.266 N 
HETATM    8  C6  UNL     1      -2.815   1.029  -0.377  1.00  0.00     0.146 A 
ATOM      9  H7  UNL     1      -4.884   1.130   0.030  1.00  0.00     0.190 HD
BRANCH   5  10
HETATM   10  N1  UNL     1      -2.145  -2.392   0.264  1.00  0.00    -0.320 N 
ATOM     11  H12 UNL     1      -1.178  -2.688   0.130  1.00  0.00     0.179 HD
ATOM     12  H11 UNL     1      -2.691  -3.200   0.562  1.00  0.00     0.179 HD
ENDBRANCH   5  10
BRANCH   6  13
HETATM   13  O2  UNL     1      -4.914  -1.588   0.657  1.00  0.00    -0.252 OA
ATOM     14  H2  UNL     1      -5.814  -1.312   0.782  1.00  0.00     0.248 HD
ENDBRANCH   6  13
ENDBRANCH   1   4
BRANCH   2  15
HETATM   15  C3  UNL     1       1.433   1.168  -1.293  1.00  0.00     0.138 C 
HETATM   16  C4  UNL     1       2.370   0.816  -0.395  1.00  0.00     0.139 A 
HETATM   17  N4  UNL     1       2.156   0.357   0.929  1.00  0.00    -0.280 N 
HETATM   18  N6  UNL     1       3.778   0.834  -0.595  1.00  0.00    -0.291 N 
HETATM   19  N5  UNL     1       3.397   0.110   1.501  1.00  0.00    -0.250 N 
ATOM     20  H4  UNL     1       1.251   0.231   1.381  1.00  0.00     0.188 HD
HETATM   21  C5  UNL     1       4.445   0.394   0.582  1.00  0.00     0.340 A 
ATOM     22  H5  UNL     1       3.538  -0.230   2.452  1.00  0.00     0.192 HD
HETATM   23  O1  UNL     1       5.695   0.291   0.744  1.00  0.00    -0.245 OA
ATOM     24  H6  UNL     1       4.242   1.121  -1.457  1.00  0.00     0.172 HD
ENDBRANCH   2  15
TORSDOF 4
