REMARK  2 active torsions:
REMARK  status: ('A' for Active; 'I' for Inactive)
REMARK    1  A    between atoms: C4_9  and  C5_10 
REMARK    2  A    between atoms: C7_12  and  O2_13 
ROOT
HETATM    1  C5  UNL     1      -0.259   0.531   0.640  1.00  0.00     0.041 C 
HETATM    2  C6  UNL     1       1.087   0.160   0.272  1.00  0.00     0.084 A 
HETATM    3  C7  UNL     1       1.763   0.816  -0.730  1.00  0.00     0.160 A 
HETATM    4  N3  UNL     1       3.014   0.488  -1.088  1.00  0.00    -0.288 N 
ATOM      5  H3  UNL     1       3.476   1.003  -1.837  1.00  0.00     0.172 HD
HETATM    6  C8  UNL     1       3.660  -0.507  -0.473  1.00  0.00     0.329 A 
HETATM    7  O3  UNL     1       4.853  -0.817  -0.818  1.00  0.00    -0.247 OA
HETATM    8  N4  UNL     1       3.044  -1.173   0.507  1.00  0.00    -0.275 N 
ATOM      9  H4  UNL     1       3.530  -1.933   0.983  1.00  0.00     0.173 HD
HETATM   10  C9  UNL     1       1.794  -0.854   0.873  1.00  0.00     0.263 A 
HETATM   11  O4  UNL     1       1.183  -1.474   1.805  1.00  0.00    -0.267 OA
ENDROOT
BRANCH   1  12
HETATM   12  C4  UNL     1      -1.344  -0.051   0.164  1.00  0.00     0.062 A 
HETATM   13  C2  UNL     1      -2.623   0.314   0.525  1.00  0.00     0.054 A 
HETATM   14  C1  UNL     1      -2.992   1.266   1.372  1.00  0.00     0.045 C 
HETATM   15  N1  UNL     1      -3.469  -0.486  -0.151  1.00  0.00    -0.298 N 
HETATM   16  N2  UNL     1      -2.793  -1.309  -0.895  1.00  0.00    -0.265 N 
ATOM     17  H1  UNL     1      -4.486  -0.451  -0.088  1.00  0.00     0.187 HD
HETATM   18  C3  UNL     1      -1.464  -1.081  -0.737  1.00  0.00     0.272 A 
ATOM     19  H2  UNL     1      -3.199  -2.019  -1.505  1.00  0.00     0.190 HD
HETATM   20  O1  UNL     1      -0.507  -1.679  -1.292  1.00  0.00    -0.266 OA
ENDBRANCH   1  12
BRANCH   3  21
HETATM   21  O2  UNL     1       1.108   1.860  -1.388  1.00  0.00    -0.345 OA
ATOM     22  H2  UNL     1       1.575   2.313  -2.080  1.00  0.00     0.219 HD
ENDBRANCH   3  21
TORSDOF 2
