REMARK  2 active torsions:
REMARK  status: ('A' for Active; 'I' for Inactive)
REMARK       I    between atoms: N1_1  and  C1_4 
REMARK       I    between atoms: C1_4  and  N3_6 
REMARK    1  A    between atoms: N3_6  and  C2_8 
REMARK    2  A    between atoms: N7_21  and  O3_22 
ROOT
HETATM    1  C2  UNL     1       1.200  -0.649  -0.124  1.00  0.00     0.703 A 
HETATM    2  N4  UNL     1       0.425   0.446  -0.009  1.00  0.00    -0.171 N 
ATOM      3  H4  UNL     1       0.856   1.367   0.069  1.00  0.00     0.186 HD
HETATM    4  C3  UNL     1      -0.918   0.329   0.004  1.00  0.00     0.172 A 
HETATM    5  N5  UNL     1      -1.703   1.418   0.118  1.00  0.00    -0.301 N 
ATOM      6  H5  UNL     1      -1.281   2.343   0.195  1.00  0.00     0.171 HD
HETATM    7  C4  UNL     1      -3.038   1.288   0.130  1.00  0.00     0.315 A 
HETATM    8  O1  UNL     1      -3.802   2.298   0.237  1.00  0.00    -0.262 OA
HETATM    9  C5  UNL     1      -3.645   0.047   0.025  1.00  0.00     0.315 A 
HETATM   10  O2  UNL     1      -4.890  -0.043   0.038  1.00  0.00    -0.262 OA
HETATM   11  N6  UNL     1      -2.873  -1.051  -0.090  1.00  0.00    -0.299 N 
ATOM     12  H6  UNL     1      -3.295  -1.976  -0.168  1.00  0.00     0.171 HD
HETATM   13  C6  UNL     1      -1.537  -0.906  -0.100  1.00  0.00     0.200 A 
HETATM   14  N7  UNL     1      -0.735  -1.980  -0.214  1.00  0.00    -0.128 N 
HETATM   15  N8  UNL     1       0.576  -1.850  -0.225  1.00  0.00    -0.103 N 
ATOM     16  H8  UNL     1       1.148  -2.690  -0.313  1.00  0.00     0.208 HD
ENDROOT
BRANCH   1  17
HETATM   17  N3  UNL     1       2.469  -0.634  -0.145  1.00  0.00    -0.162 N 
HETATM   18  C1  UNL     1       3.289   0.496  -0.054  1.00  0.00     0.200 C 
HETATM   19  N1  UNL     1       3.269   1.469  -0.919  1.00  0.00    -0.373 N 
HETATM   20  N2  UNL     1       4.196   0.614   1.021  1.00  0.00    -0.063 NA
ATOM     21  H12 UNL     1       3.867   2.293  -0.853  1.00  0.00     0.158 HD
ATOM     22  H11 UNL     1       2.614   1.384  -1.696  1.00  0.00     0.158 HD
ATOM     23  H3  UNL     1       2.938  -1.535  -0.237  1.00  0.00     0.187 HD
ENDBRANCH   1  17
BRANCH  14  24
HETATM   24  O3  UNL     1      -1.296  -3.105  -0.309  1.00  0.00    -0.266 OA
ATOM     25  H3  UNL     1      -0.730  -3.863  -0.390  1.00  0.00     0.247 HD
ENDBRANCH  14  24
TORSDOF 2
