REMARK  3 active torsions:
REMARK  status: ('A' for Active; 'I' for Inactive)
REMARK    1  A    between atoms: C10_10  and  C11_11 
REMARK    2  A    between atoms: C11_11  and  C12_13 
REMARK    3  A    between atoms: C12_13  and  C13_14 
ROOT
HETATM    1  C11 UNL     1      -0.090   0.514   0.993  1.00  0.00     0.138 C 
HETATM    2  O1  UNL     1       0.188   0.690   2.155  1.00  0.00    -0.297 OA
ENDROOT
BRANCH   1   3
HETATM    3  C10 UNL     1      -1.439   0.044   0.618  1.00  0.00     0.025 C 
HETATM    4  C2  UNL     1      -2.162   1.014  -0.284  1.00  0.00     0.001 C 
HETATM    5  C1  UNL     1      -2.189   2.411   0.274  1.00  0.00     0.011 C 
HETATM    6  C3  UNL     1      -3.532   0.491  -0.556  1.00  0.00    -0.009 C 
HETATM    7  C4  UNL     1      -3.450  -0.793  -1.340  1.00  0.00     0.010 C 
HETATM    8  C8  UNL     1      -4.286   0.326   0.734  1.00  0.00     0.010 C 
HETATM    9  C5  UNL     1      -2.677  -1.786  -0.490  1.00  0.00    -0.013 C 
HETATM   10  C6  UNL     1      -3.500  -2.031   0.754  1.00  0.00     0.009 C 
HETATM   11  C19 UNL     1      -1.314  -1.259  -0.186  1.00  0.00     0.022 C 
HETATM   12  C7  UNL     1      -3.605  -0.739   1.545  1.00  0.00    -0.013 C 
HETATM   13  C9  UNL     1      -2.205  -0.289   1.854  1.00  0.00     0.022 C 
ENDBRANCH   1   3
BRANCH   1  14
HETATM   14  C12 UNL     1       0.896   0.761  -0.064  1.00  0.00     0.119 C 
BRANCH  14  15
HETATM   15  C13 UNL     1       2.231   1.238   0.461  1.00  0.00     0.199 C 
HETATM   16  O2  UNL     1       2.692   0.195   1.317  1.00  0.00    -0.291 OA
HETATM   17  N1  UNL     1       3.966   0.072   1.038  1.00  0.00    -0.186 NA
HETATM   18  C14 UNL     1       4.656  -1.122   1.325  1.00  0.00     0.121 C 
HETATM   19  C17 UNL     1       3.930  -0.009  -0.444  1.00  0.00     0.134 C 
HETATM   20  C15 UNL     1       5.861  -0.987   0.373  1.00  0.00     0.019 C 
HETATM   21  C16 UNL     1       5.389  -0.001  -0.713  1.00  0.00     0.029 C 
HETATM   22  C18 UNL     1       3.182   1.217  -0.677  1.00  0.00     0.032 C 
HETATM   23  N2  UNL     1       3.315   2.042  -1.610  1.00  0.00    -0.402 N 
ATOM     24  H22 UNL     1       2.791   2.901  -1.773  1.00  0.00     0.155 HD
ATOM     25  H21 UNL     1       3.969   2.028  -2.393  1.00  0.00     0.155 HD
ENDBRANCH  14  15
ENDBRANCH   1  14
TORSDOF 3
