REMARK  4 active torsions:
REMARK  status: ('A' for Active; 'I' for Inactive)
REMARK    1  A    between atoms: C4_4  and  C5_5 
REMARK    2  A    between atoms: C5_5  and  O2_7 
REMARK    3  A    between atoms: O2_7  and  C6_8 
REMARK       I    between atoms: C6_8  and  N1_10 
REMARK    4  A    between atoms: N1_10  and  C7_12 
ROOT
HETATM    1  C5  UNL     1      -1.234  -0.158  -0.413  1.00  0.00     0.277 C 
HETATM    2  O1  UNL     1      -1.093  -0.035  -1.630  1.00  0.00    -0.264 OA
ENDROOT
BRANCH   1   3
HETATM    3  C4  UNL     1      -2.453  -0.309   0.372  1.00  0.00     0.060 C 
HETATM    4  C3  UNL     1      -2.322  -1.695   1.049  1.00  0.00     0.054 C 
HETATM    5  C2  UNL     1      -2.772  -2.163  -0.313  1.00  0.00    -0.083 C 
HETATM    6  C1  UNL     1      -2.463  -3.153  -1.102  1.00  0.00     0.015 C 
HETATM    7  C19 UNL     1      -3.646  -1.000  -0.236  1.00  0.00     0.033 C 
HETATM    8  C18 UNL     1      -4.229  -0.344  -1.392  1.00  0.00     0.015 C 
HETATM    9  C16 UNL     1      -4.883   0.946  -1.028  1.00  0.00    -0.013 C 
HETATM   10  C15 UNL     1      -3.900   2.079  -0.762  1.00  0.00     0.009 C 
HETATM   11  C17 UNL     1      -5.297   1.116   0.392  1.00  0.00     0.009 C 
HETATM   12  C14 UNL     1      -3.948   1.711   0.669  1.00  0.00    -0.013 C 
HETATM   13  C13 UNL     1      -2.920   0.797   1.195  1.00  0.00     0.025 C 
ENDBRANCH   1   3
BRANCH   1  14
HETATM   14  O2  UNL     1      -0.026  -0.151   0.322  1.00  0.00    -0.227 OA
BRANCH  14  15
HETATM   15  C6  UNL     1       1.204  -0.015  -0.307  1.00  0.00     0.368 C 
HETATM   16  O3  UNL     1       1.282   0.107  -1.558  1.00  0.00    -0.238 OA
HETATM   17  N1  UNL     1       2.430  -0.006   0.424  1.00  0.00    -0.332 N 
ATOM     18  H1  UNL     1       2.383  -0.104   1.438  1.00  0.00     0.165 HD
BRANCH  17  19
HETATM   19  C7  UNL     1       3.715   0.131  -0.174  1.00  0.00     0.086 C 
HETATM   20  C8  UNL     1       4.458   1.361   0.244  1.00  0.00     0.025 C 
HETATM   21  C9  UNL     1       5.613   1.084   1.177  1.00  0.00     0.002 C 
HETATM   22  C10 UNL     1       6.601   0.107   0.581  1.00  0.00     0.000 C 
HETATM   23  C11 UNL     1       5.960  -0.768  -0.473  1.00  0.00     0.002 C 
HETATM   24  C12 UNL     1       4.561  -1.127  -0.018  1.00  0.00     0.025 C 
ENDBRANCH  17  19
ENDBRANCH  14  15
ENDBRANCH   1  14
TORSDOF 4
