REMARK  4 active torsions:
REMARK  status: ('A' for Active; 'I' for Inactive)
REMARK    1  A    between atoms: C2_2  and  C3_3 
REMARK    2  A    between atoms: C3_3  and  C4_4 
REMARK    3  A    between atoms: C11_11  and  O1_12 
REMARK    4  A    between atoms: C14_16  and  O2_17 
ROOT
HETATM    1  C4  UNL     1       0.935  -0.155   0.639  1.00  0.00    -0.003 C 
HETATM    2  C5  UNL     1       0.104   0.319   1.805  1.00  0.00     0.013 C 
HETATM    3  C6  UNL     1      -1.242  -0.290   1.925  1.00  0.00     0.008 C 
HETATM    4  C7  UNL     1      -2.215   0.035   0.887  1.00  0.00     0.021 C 
HETATM    5  C8  UNL     1      -2.662  -1.227   0.116  1.00  0.00     0.009 C 
HETATM    6  C9  UNL     1      -2.028  -1.098  -1.276  1.00  0.00     0.019 C 
HETATM    7  C10 UNL     1      -0.984   0.041  -1.081  1.00  0.00     0.049 C 
HETATM    8  C11 UNL     1      -0.917   0.924  -2.263  1.00  0.00     0.132 C 
HETATM    9  C12 UNL     1      -1.482   2.301  -1.869  1.00  0.00     0.036 C 
HETATM   10  C13 UNL     1      -1.490   2.223  -0.318  1.00  0.00     0.042 C 
HETATM   11  C14 UNL     1      -1.887   0.867  -0.220  1.00  0.00     0.074 C 
HETATM   12  C15 UNL     1       0.199  -0.598  -0.537  1.00  0.00     0.082 C 
HETATM   13  C16 UNL     1       1.144  -1.001  -1.648  1.00  0.00     0.042 C 
HETATM   14  C17 UNL     1       1.871  -2.249  -1.122  1.00  0.00     0.035 C 
HETATM   15  C18 UNL     1       1.120  -2.457   0.169  1.00  0.00     0.123 C 
HETATM   16  C19 UNL     1       1.651  -1.409   1.115  1.00  0.00     0.044 C 
HETATM   17  O3  UNL     1      -0.114  -1.939  -0.123  1.00  0.00    -0.373 OA
ENDROOT
BRANCH   1  18
HETATM   18  C3  UNL     1       2.033   0.875   0.422  1.00  0.00     0.039 C 
BRANCH  18  19
HETATM   19  C2  UNL     1       2.866   1.002   1.668  1.00  0.00    -0.036 C 
HETATM   20  C1  UNL     1       4.166   0.786   1.666  1.00  0.00     0.007 C 
ENDBRANCH  18  19
ENDBRANCH   1  18
BRANCH   8  21
HETATM   21  O1  UNL     1       0.241   1.154  -2.900  1.00  0.00    -0.395 OA
ATOM     22  H1  UNL     1       0.284   1.722  -3.660  1.00  0.00     0.210 HD
ENDBRANCH   8  21
BRANCH  11  23
HETATM   23  O2  UNL     1      -3.138   0.891  -0.957  1.00  0.00    -0.388 OA
ATOM     24  H2  UNL     1      -2.919   1.446  -1.696  1.00  0.00     0.210 HD
ENDBRANCH  11  23
TORSDOF 4
