REMARK  3 active torsions:
REMARK  status: ('A' for Active; 'I' for Inactive)
REMARK    1  A    between atoms: C2_2  and  C3_3 
REMARK    2  A    between atoms: C11_12  and  O2_13 
REMARK    3  A    between atoms: C16_19  and  O3_20 
ROOT
HETATM    1  C3  UNL     1      -2.613   0.466  -0.386  1.00  0.00     0.061 C 
HETATM    2  C4  UNL     1      -3.587   1.041  -1.411  1.00  0.00     0.046 C 
HETATM    3  O1  UNL     1      -3.238  -0.657   0.092  1.00  0.00    -0.375 OA
HETATM    4  C5  UNL     1      -2.544  -1.828  -0.028  1.00  0.00     0.118 C 
HETATM    5  C6  UNL     1      -3.290  -2.955   0.599  1.00  0.00     0.039 C 
HETATM    6  C7  UNL     1      -1.187  -1.602   0.604  1.00  0.00     0.037 C 
HETATM    7  C8  UNL     1      -0.426  -0.819  -0.452  1.00  0.00     0.002 C 
HETATM    8  C9  UNL     1       0.877  -0.415   0.144  1.00  0.00     0.027 C 
HETATM    9  C10 UNL     1       1.901  -1.542   0.038  1.00  0.00     0.040 C 
HETATM   10  C11 UNL     1       3.164  -1.249   0.771  1.00  0.00     0.127 C 
HETATM   11  C12 UNL     1       3.727   0.120   0.461  1.00  0.00    -0.012 A 
HETATM   12  C13 UNL     1       4.946   0.265  -0.362  1.00  0.00     0.013 A 
HETATM   13  C14 UNL     1       5.034   0.415   1.128  1.00  0.00     0.013 A 
HETATM   14  C15 UNL     1       2.687   1.188   0.445  1.00  0.00     0.050 C 
HETATM   15  C16 UNL     1       1.513   0.800  -0.427  1.00  0.00     0.063 C 
HETATM   16  C17 UNL     1       0.469   1.905  -0.337  1.00  0.00     0.038 C 
HETATM   17  C18 UNL     1      -0.591   1.540  -1.318  1.00  0.00     0.011 C 
HETATM   18  C19 UNL     1      -1.278   0.226  -1.035  1.00  0.00     0.024 C 
ENDROOT
BRANCH   1  19
HETATM   19  C2  UNL     1      -2.573   1.481   0.734  1.00  0.00     0.033 C 
HETATM   20  C1  UNL     1      -3.968   1.669   1.344  1.00  0.00     0.008 C 
ENDBRANCH   1  19
BRANCH  15  21
HETATM   21  O3  UNL     1       1.938   0.578  -1.716  1.00  0.00    -0.389 OA
ATOM     22  H3  UNL     1       2.345   1.355  -2.081  1.00  0.00     0.210 HD
ENDBRANCH  15  21
BRANCH  10  23
HETATM   23  O2  UNL     1       4.126  -2.177   0.337  1.00  0.00    -0.395 OA
ATOM     24  H2  UNL     1       4.932  -1.990   0.805  1.00  0.00     0.210 HD
ENDBRANCH  10  23
TORSDOF 3
