REMARK  2 active torsions:
REMARK  status: ('A' for Active; 'I' for Inactive)
REMARK    1  A    between atoms: O1_1  and  C1_3 
REMARK    2  A    between atoms: C1_3  and  C2_4 
ROOT
HETATM    1  C1  UNL     1       1.191  -0.822  -0.849  1.00  0.00     0.091 C 
HETATM    2  C7  UNL     1       0.996  -2.205  -0.440  1.00  0.00     0.041 C 
HETATM    3  C8  UNL     1      -0.425  -2.749  -0.385  1.00  0.00     0.010 C 
HETATM    4  C9  UNL     1      -1.306  -1.533  -0.032  1.00  0.00     0.008 C 
HETATM    5  C10 UNL     1      -2.609  -1.850   0.605  1.00  0.00     0.119 C 
HETATM    6  N1  UNL     1      -2.857  -1.238   1.921  1.00  0.00    -0.417 N 
ATOM      7  H1  UNL     1      -2.614  -1.703   2.796  1.00  0.00     0.153 HD
HETATM    8  C11 UNL     1      -3.487   0.105   1.882  1.00  0.00     0.148 C 
HETATM    9  C12 UNL     1      -2.739   0.799   0.805  1.00  0.00    -0.063 C 
HETATM   10  C13 UNL     1      -3.184   1.960  -0.020  1.00  0.00     0.036 C 
HETATM   11  C14 UNL     1      -2.275   1.751  -1.270  1.00  0.00     0.005 C 
HETATM   12  C15 UNL     1      -2.122   0.329  -1.712  1.00  0.00     0.006 C 
HETATM   13  C16 UNL     1      -1.161  -0.605  -1.151  1.00  0.00     0.002 C 
HETATM   14  C17 UNL     1       0.081   0.191  -0.700  1.00  0.00     0.049 C 
HETATM   15  C18 UNL     1      -0.128   0.821   0.618  1.00  0.00    -0.018 C 
HETATM   16  C19 UNL     1      -1.423   1.106   1.223  1.00  0.00     0.001 C 
ENDROOT
BRANCH   1  17
HETATM   17  O1  UNL     1       1.189  -0.925  -2.304  1.00  0.00    -0.387 OA
ATOM     18  H1  UNL     1       0.310  -1.244  -2.473  1.00  0.00     0.210 HD
ENDBRANCH   1  17
BRANCH   1  19
HETATM   19  C2  UNL     1       2.573  -0.321  -0.584  1.00  0.00     0.156 C 
HETATM   20  C3  UNL     1       3.147  -0.393   0.755  1.00  0.00     0.035 C 
HETATM   21  C4  UNL     1       3.592   0.966   1.319  1.00  0.00     0.005 C 
HETATM   22  C5  UNL     1       4.410   1.735   0.322  1.00  0.00     0.026 C 
HETATM   23  C6  UNL     1       4.150   1.271  -1.099  1.00  0.00     0.168 C 
HETATM   24  O2  UNL     1       2.798   0.940  -1.147  1.00  0.00    -0.383 OA
ENDBRANCH   1  19
TORSDOF 2
