REMARK  6 active torsions:
REMARK  status: ('A' for Active; 'I' for Inactive)
REMARK    1  A    between atoms: C2_2  and  N1_3 
REMARK    2  A    between atoms: N1_3  and  C4_5 
REMARK    3  A    between atoms: C4_5  and  C5_6 
REMARK    4  A    between atoms: C17_20  and  C18_21 
REMARK    5  A    between atoms: C19_22  and  C20_23 
REMARK    6  A    between atoms: C21_24  and  C22_25 
ROOT
HETATM    1  C5  UNL     1      -3.163   0.462   0.553  1.00  0.00     0.215 C 
HETATM    2  C6  UNL     1      -3.478  -0.759  -0.236  1.00  0.00     0.045 C 
HETATM    3  C7  UNL     1      -2.658  -1.976   0.093  1.00  0.00    -0.023 C 
HETATM    4  C8  UNL     1      -3.281  -2.727   1.232  1.00  0.00     0.017 C 
HETATM    5  C9  UNL     1      -2.679  -2.825  -1.188  1.00  0.00     0.017 C 
HETATM    6  C10 UNL     1      -1.213  -1.611   0.467  1.00  0.00     0.119 C 
HETATM    7  N2  UNL     1      -0.382  -2.655   0.040  1.00  0.00    -0.394 N 
ATOM      8  H2  UNL     1      -0.915  -3.499  -0.167  1.00  0.00     0.159 HD
HETATM    9  C11 UNL     1       0.863  -2.826  -0.157  1.00  0.00     0.068 C 
HETATM   10  C12 UNL     1       2.161  -2.170  -0.096  1.00  0.00     0.016 A 
HETATM   11  C13 UNL     1       3.040  -2.376   1.142  1.00  0.00     0.023 C 
HETATM   12  C14 UNL     1       2.914  -2.286  -1.451  1.00  0.00    -0.014 A 
HETATM   13  C15 UNL     1       4.371  -2.597  -1.339  1.00  0.00     0.018 C 
HETATM   14  C16 UNL     1       2.179  -2.791  -2.648  1.00  0.00     0.018 C 
HETATM   15  C17 UNL     1       2.429  -0.996  -0.900  1.00  0.00     0.044 A 
HETATM   16  C23 UNL     1       1.190  -0.321  -1.365  1.00  0.00     0.027 C 
HETATM   17  C24 UNL     1       0.455   0.175  -0.124  1.00  0.00     0.037 C 
HETATM   18  C25 UNL     1      -0.984  -0.268  -0.149  1.00  0.00     0.209 C 
HETATM   19  N5  UNL     1      -1.739   0.697   0.627  1.00  0.00    -0.063 N 
ATOM     20  H51 UNL     1      -1.419   0.723   1.595  1.00  0.00     0.278 HD
ATOM     21  H52 UNL     1      -1.508   1.652   0.354  1.00  0.00     0.278 HD
ENDROOT
BRANCH  15  22
HETATM   22  C18 UNL     1       3.460  -0.048  -0.403  1.00  0.00    -0.090 C 
HETATM   23  C19 UNL     1       4.315   0.709  -0.010  1.00  0.00    -0.078 C 
BRANCH  23  24
HETATM   24  C20 UNL     1       5.355   1.597   0.448  1.00  0.00     0.068 C 
HETATM   25  C21 UNL     1       5.170   2.902   0.453  1.00  0.00     0.053 C 
BRANCH  25  26
HETATM   26  C22 UNL     1       6.209   3.801   0.911  1.00  0.00     0.110 C 
HETATM   27  N3  UNL     1       6.025   5.086   0.916  1.00  0.00    -0.388 N 
ATOM     28  H32 UNL     1       5.126   5.439   0.587  1.00  0.00     0.157 HD
ATOM     29  H31 UNL     1       6.757   5.719   1.239  1.00  0.00     0.157 HD
HETATM   30  N4  UNL     1       7.453   3.313   1.367  1.00  0.00    -0.083 NA
ENDBRANCH  25  26
ENDBRANCH  23  24
ENDBRANCH  15  22
BRANCH   1  31
HETATM   31  C4  UNL     1      -3.858   1.623  -0.174  1.00  0.00     0.304 C 
BRANCH  31  32
HETATM   32  N1  UNL     1      -3.661   2.884   0.455  1.00  0.00     0.085 N 
HETATM   33  C3  UNL     1      -4.055   3.939  -0.441  1.00  0.00     0.309 C 
BRANCH  32  34
HETATM   34  C2  UNL     1      -4.326   2.989   1.731  1.00  0.00     0.267 C 
HETATM   35  C1  UNL     1      -5.817   2.722   1.638  1.00  0.00     0.037 C 
ENDBRANCH  32  34
ENDBRANCH  31  32
ENDBRANCH   1  31
TORSDOF 6
