REMARK  4 active torsions:
REMARK  status: ('A' for Active; 'I' for Inactive)
REMARK       I    between atoms: N1_2  and  C2_4 
REMARK       I    between atoms: C2_4  and  N7_30 
REMARK       I    between atoms: N2_5  and  C3_7 
REMARK       I    between atoms: C3_7  and  N3_9 
REMARK    1  A    between atoms: N3_9  and  C4_11 
REMARK    2  A    between atoms: C7_16  and  C8_17 
REMARK       I    between atoms: N5_22  and  C12_23 
REMARK       I    between atoms: C12_23  and  N6_25 
REMARK    3  A    between atoms: N6_25  and  C13_27 
REMARK    4  A    between atoms: N7_30  and  C16_32 
ROOT
HETATM    1  C4  UNL     1      -0.885  -0.604   1.421  1.00  0.00     0.294 C 
HETATM    2  C5  UNL     1      -1.235  -2.046   1.379  1.00  0.00     0.263 C 
HETATM    3  O2  UNL     1      -1.509  -2.554   2.502  1.00  0.00    -0.269 OA
HETATM    4  N4  UNL     1      -1.263  -2.810   0.176  1.00  0.00    -0.339 N 
HETATM    5  C6  UNL     1      -0.921  -4.227   0.321  1.00  0.00     0.153 C 
HETATM    6  C7  UNL     1      -1.608  -2.171  -1.024  1.00  0.00     0.182 C 
HETATM    7  C11 UNL     1      -1.109  -0.753  -1.000  1.00  0.00     0.253 C 
HETATM    8  O3  UNL     1      -0.576  -0.217  -2.033  1.00  0.00    -0.270 OA
HETATM    9  N5  UNL     1      -1.207   0.046   0.161  1.00  0.00    -0.237 N 
HETATM   10  C12 UNL     1      -1.587   1.389   0.166  1.00  0.00     0.327 C 
HETATM   11  O4  UNL     1      -1.627   1.999   1.272  1.00  0.00    -0.247 OA
HETATM   12  N6  UNL     1      -1.935   2.121  -0.974  1.00  0.00    -0.339 N 
ATOM     13  H6  UNL     1      -1.917   1.667  -1.887  1.00  0.00     0.164 HD
ENDROOT
BRANCH   1  14
HETATM   14  N3  UNL     1       0.511  -0.413   1.760  1.00  0.00    -0.312 N 
HETATM   15  C3  UNL     1       0.993   0.230   2.921  1.00  0.00     0.336 C 
HETATM   16  N2  UNL     1       2.353   0.383   3.187  1.00  0.00    -0.142 N 
HETATM   17  O1  UNL     1       0.192   0.708   3.795  1.00  0.00    -0.246 OA
HETATM   18  C2  UNL     1       3.292   0.719   2.408  1.00  0.00     0.677 C 
ATOM     19  H2  UNL     1       2.632   0.197   4.150  1.00  0.00     0.189 HD
HETATM   20  N1  UNL     1       4.607   0.808   2.908  1.00  0.00    -0.231 N 
HETATM   21  N7  UNL     1       3.041   1.014   1.050  1.00  0.00    -0.222 N 
HETATM   22  C1  UNL     1       4.968  -0.031   4.054  1.00  0.00     0.165 C 
ATOM     23  H1  UNL     1       5.288   1.438   2.484  1.00  0.00     0.177 HD
ATOM     24  H7  UNL     1       2.175   1.499   0.814  1.00  0.00     0.178 HD
ATOM     25  H3  UNL     1       1.204  -0.774   1.104  1.00  0.00     0.166 HD
BRANCH  21  26
HETATM   26  C16 UNL     1       3.940   0.668  -0.018  1.00  0.00     0.091 C 
HETATM   27  C17 UNL     1       3.439   1.119  -1.365  1.00  0.00     0.032 C 
HETATM   28  C18 UNL     1       4.253  -0.825  -0.026  1.00  0.00     0.032 C 
ENDBRANCH  21  26
ENDBRANCH   1  14
BRANCH   6  29
HETATM   29  C8  UNL     1      -3.002  -2.111  -1.462  1.00  0.00     0.009 C 
HETATM   30  C9  UNL     1      -3.042  -1.362  -2.784  1.00  0.00     0.012 C 
HETATM   31  C10 UNL     1      -3.779  -3.342  -1.654  1.00  0.00     0.012 C 
ENDBRANCH   6  29
BRANCH  12  32
HETATM   32  C13 UNL     1      -2.324   3.526  -0.878  1.00  0.00     0.078 C 
HETATM   33  C14 UNL     1      -1.529   4.436  -1.742  1.00  0.00     0.032 C 
HETATM   34  C15 UNL     1      -3.791   3.601  -1.216  1.00  0.00     0.032 C 
ENDBRANCH  12  32
TORSDOF 4
