REMARK  8 active torsions:
REMARK  status: ('A' for Active; 'I' for Inactive)
REMARK    1  A    between atoms: C3_3  and  C4_4 
REMARK    2  A    between atoms: C7_7  and  O1_8 
REMARK    3  A    between atoms: C10_12  and  C11_13 
REMARK    4  A    between atoms: C11_13  and  C12_14 
REMARK    5  A    between atoms: C12_14  and  C13_15 
REMARK    6  A    between atoms: C15_19  and  O4_20 
REMARK    7  A    between atoms: C16_22  and  C17_23 
REMARK    8  A    between atoms: C18_26  and  N1_27 
ROOT
HETATM    1  C4  UNL     1       3.258  -0.501   0.066  1.00  0.00    -0.016 A 
HETATM    2  C5  UNL     1       2.180  -1.283  -0.261  1.00  0.00     0.027 A 
HETATM    3  C6  UNL     1       0.847  -0.843  -0.196  1.00  0.00     0.012 A 
HETATM    4  C7  UNL     1      -0.152  -1.733  -0.533  1.00  0.00     0.088 A 
HETATM    5  C8  UNL     1      -1.447  -1.281  -0.438  1.00  0.00     0.014 A 
HETATM    6  C9  UNL     1      -1.751  -0.011  -0.031  1.00  0.00    -0.003 A 
HETATM    7  C10 UNL     1      -0.742   0.882   0.301  1.00  0.00    -0.034 A 
HETATM    8  C14 UNL     1       0.598   0.443   0.218  1.00  0.00     0.018 A 
HETATM    9  C15 UNL     1       1.652   1.285   0.566  1.00  0.00     0.095 A 
HETATM   10  C16 UNL     1       2.979   0.783   0.478  1.00  0.00     0.085 A 
HETATM   11  C18 UNL     1      -3.192   0.075  -0.014  1.00  0.00     0.247 A 
HETATM   12  C19 UNL     1      -3.678  -1.264  -0.529  1.00  0.00    -0.038 A 
HETATM   13  C20 UNL     1      -2.699  -2.017  -0.749  1.00  0.00    -0.039 A 
HETATM   14  C21 UNL     1      -3.506  -3.162  -1.182  1.00  0.00     0.044 A 
HETATM   15  C22 UNL     1      -4.650  -2.284  -0.958  1.00  0.00     0.042 A 
ENDROOT
BRANCH   7  16
HETATM   16  C11 UNL     1      -0.927   2.287   0.600  1.00  0.00     0.051 C 
BRANCH  16  17
HETATM   17  C12 UNL     1      -2.309   2.899   0.306  1.00  0.00     0.117 C 
BRANCH  17  18
HETATM   18  C13 UNL     1      -2.184   4.406   0.624  1.00  0.00     0.172 C 
HETATM   19  O2  UNL     1      -1.090   4.860   1.023  1.00  0.00    -0.648 OA
HETATM   20  O3  UNL     1      -3.300   5.210   0.455  1.00  0.00    -0.648 OA
ENDBRANCH  17  18
ENDBRANCH  16  17
ENDBRANCH   7  16
BRANCH  11  21
HETATM   21  N1  UNL     1      -3.701   0.028   1.395  1.00  0.00    -0.067 N 
ATOM     22  H13 UNL     1      -3.364  -0.795   1.894  1.00  0.00     0.275 HD
ATOM     23  H12 UNL     1      -3.271   0.745   1.979  1.00  0.00     0.275 HD
ATOM     24  H11 UNL     1      -4.719   0.089   1.407  1.00  0.00     0.275 HD
ENDBRANCH  11  21
BRANCH   9  25
HETATM   25  O4  UNL     1       1.392   2.507   0.966  1.00  0.00    -0.359 OA
ATOM     26  H4  UNL     1       2.111   3.081   1.203  1.00  0.00     0.217 HD
ENDBRANCH   9  25
BRANCH   4  27
HETATM   27  O1  UNL     1       0.211  -3.005  -0.940  1.00  0.00    -0.359 OA
ATOM     28  H1  UNL     1      -0.477  -3.618  -1.172  1.00  0.00     0.217 HD
ENDBRANCH   4  27
BRANCH  10  29
HETATM   29  C17 UNL     1       3.988   1.748   0.847  1.00  0.00     0.213 C 
HETATM   30  O5  UNL     1       3.657   2.938   1.213  1.00  0.00    -0.644 OA
HETATM   31  O6  UNL     1       5.335   1.556   0.860  1.00  0.00    -0.644 OA
ENDBRANCH  10  29
BRANCH   1  32
HETATM   32  C3  UNL     1       4.627  -0.997  -0.022  1.00  0.00     0.008 C 
HETATM   33  C2  UNL     1       5.135  -2.095  -0.414  1.00  0.00    -0.030 C 
HETATM   34  C1  UNL     1       4.541  -3.299  -0.934  1.00  0.00     0.036 C 
ENDBRANCH   1  32
TORSDOF 8
