REMARK  10 active torsions:
REMARK  status: ('A' for Active; 'I' for Inactive)
REMARK    1  A    between atoms: N1_1  and  C1_5 
REMARK    2  A    between atoms: C1_5  and  C2_6 
REMARK    3  A    between atoms: C2_6  and  N2_7 
REMARK    4  A    between atoms: C10_15  and  C11_16 
REMARK    5  A    between atoms: C11_16  and  C12_17 
REMARK    6  A    between atoms: C13_18  and  O1_19 
REMARK    7  A    between atoms: C14_23  and  O2_24 
REMARK    8  A    between atoms: C15_26  and  C16_27 
REMARK    9  A    between atoms: C19_30  and  O3_31 
REMARK   10  A    between atoms: C20_33  and  O4_34 
ROOT
HETATM    1  C12 UNL     1       1.285   1.646  -0.543  1.00  0.00     0.009 A 
HETATM    2  C13 UNL     1       1.024   2.742  -1.319  1.00  0.00     0.149 A 
HETATM    3  N3  UNL     1       2.058   2.954  -2.175  1.00  0.00    -0.317 N 
ATOM      4  H3  UNL     1       2.124   3.703  -2.864  1.00  0.00     0.170 HD
HETATM    5  C14 UNL     1       2.955   2.024  -1.956  1.00  0.00     0.153 A 
HETATM    6  C15 UNL     1       2.544   1.181  -0.962  1.00  0.00     0.036 A 
ENDROOT
BRANCH   1   7
HETATM    7  C11 UNL     1       0.509   1.034   0.515  1.00  0.00     0.059 C 
BRANCH   7   8
HETATM    8  C10 UNL     1      -0.677   0.191   0.176  1.00  0.00    -0.000 C 
HETATM    9  C5  UNL     1      -1.247  -0.343   1.488  1.00  0.00     0.004 C 
HETATM   10  C4  UNL     1      -2.507  -1.134   1.303  1.00  0.00     0.050 C 
HETATM   11  C6  UNL     1      -0.264  -1.289   2.151  1.00  0.00     0.006 C 
HETATM   12  C3  UNL     1      -3.395  -0.682   0.200  1.00  0.00     0.063 C 
HETATM   13  N2  UNL     1      -3.110   0.616  -0.215  1.00  0.00    -0.371 N 
HETATM   14  C22 UNL     1      -1.790   1.063  -0.392  1.00  0.00     0.073 C 
HETATM   15  C7  UNL     1       0.131  -2.411   1.264  1.00  0.00     0.000 C 
HETATM   16  C8  UNL     1      -0.063  -2.252  -0.190  1.00  0.00     0.001 C 
HETATM   17  C9  UNL     1      -0.400  -0.929  -0.739  1.00  0.00     0.015 C 
BRANCH  13  18
HETATM   18  C2  UNL     1      -4.051   1.632   0.176  1.00  0.00     0.154 C 
BRANCH  18  19
HETATM   19  C1  UNL     1      -5.342   1.412  -0.572  1.00  0.00     0.249 C 
BRANCH  19  20
HETATM   20  N1  UNL     1      -6.331   2.418  -0.206  1.00  0.00    -0.078 N 
ATOM     21  H13 UNL     1      -6.480   2.451   0.802  1.00  0.00     0.274 HD
ATOM     22  H12 UNL     1      -5.974   3.364  -0.340  1.00  0.00     0.274 HD
ATOM     23  H11 UNL     1      -7.204   2.269  -0.712  1.00  0.00     0.274 HD
ENDBRANCH  19  20
ENDBRANCH  18  19
ENDBRANCH  13  18
ENDBRANCH   7   8
ENDBRANCH   1   7
BRANCH   2  24
HETATM   24  O1  UNL     1      -0.066   3.608  -1.350  1.00  0.00    -0.346 OA
ATOM     25  H1  UNL     1      -0.247   4.369  -1.889  1.00  0.00     0.219 HD
ENDBRANCH   2  24
BRANCH   6  26
HETATM   26  C16 UNL     1       3.285   0.015  -0.428  1.00  0.00    -0.018 A 
HETATM   27  C17 UNL     1       3.815   0.021   0.844  1.00  0.00     0.015 A 
HETATM   28  C18 UNL     1       4.531  -1.055   1.337  1.00  0.00     0.040 A 
HETATM   29  C19 UNL     1       4.746  -2.188   0.566  1.00  0.00     0.098 A 
HETATM   30  C20 UNL     1       4.218  -2.195  -0.704  1.00  0.00     0.099 A 
HETATM   31  C21 UNL     1       3.497  -1.108  -1.194  1.00  0.00     0.051 A 
BRANCH  29  32
HETATM   32  O3  UNL     1       5.470  -3.263   1.078  1.00  0.00    -0.358 OA
ATOM     33  H3  UNL     1       5.617  -4.039   0.550  1.00  0.00     0.217 HD
ENDBRANCH  29  32
BRANCH  30  34
HETATM   34  O4  UNL     1       4.424  -3.318  -1.487  1.00  0.00    -0.358 OA
ATOM     35  H4  UNL     1       4.059  -3.323  -2.364  1.00  0.00     0.217 HD
ENDBRANCH  30  34
ENDBRANCH   6  26
BRANCH   5  36
HETATM   36  O2  UNL     1       4.174   1.904  -2.648  1.00  0.00    -0.345 OA
ATOM     37  H2  UNL     1       4.824   1.230  -2.489  1.00  0.00     0.219 HD
ENDBRANCH   5  36
TORSDOF 10
