REMARK  5 active torsions:
REMARK  status: ('A' for Active; 'I' for Inactive)
REMARK    1  A    between atoms: S1_2  and  N1_5 
REMARK    2  A    between atoms: N1_5  and  C2_7 
REMARK    3  A    between atoms: C3_10  and  N3_11 
REMARK    4  A    between atoms: C4_16  and  N5_17 
REMARK    5  A    between atoms: N5_17  and  N6_19 
ROOT
HETATM    1  C2  UNL     1       0.232   0.667   0.019  1.00  0.00     0.720 A 
HETATM    2  N2  UNL     1      -0.678   1.649   0.154  1.00  0.00    -0.021 N 
ATOM      3  H2  UNL     1      -0.378   2.623   0.189  1.00  0.00     0.203 HD
HETATM    4  C3  UNL     1      -1.984   1.343   0.243  1.00  0.00     0.705 A 
HETATM    5  N4  UNL     1      -2.360   0.057   0.197  1.00  0.00    -0.020 N 
ATOM      6  H4  UNL     1      -3.354  -0.162   0.267  1.00  0.00     0.203 HD
HETATM    7  C4  UNL     1      -1.486  -0.959   0.063  1.00  0.00     0.725 A 
HETATM    8  N7  UNL     1      -0.174  -0.613  -0.025  1.00  0.00    -0.019 N 
ATOM      9  H7  UNL     1       0.525  -1.349  -0.128  1.00  0.00     0.203 HD
ENDROOT
BRANCH   1  10
HETATM   10  N1  UNL     1       1.480   0.922  -0.069  1.00  0.00    -0.116 N 
ATOM     11  H1  UNL     1       1.767   1.900  -0.034  1.00  0.00     0.197 HD
BRANCH  10  12
HETATM   12  S1  UNL     1       2.704  -0.259  -0.242  1.00  0.00     0.240 S 
HETATM   13  C1  UNL     1       4.294   0.571  -0.290  1.00  0.00     0.186 C 
HETATM   14  O1  UNL     1       2.503  -1.033  -1.508  1.00  0.00    -0.206 OA
HETATM   15  O2  UNL     1       2.724  -1.241   0.909  1.00  0.00    -0.206 OA
ENDBRANCH  10  12
ENDBRANCH   1  10
BRANCH   4  16
HETATM   16  N3  UNL     1      -2.848   2.310   0.373  1.00  0.00    -0.234 N 
ATOM     17  H32 UNL     1      -2.562   3.288   0.408  1.00  0.00     0.174 HD
ATOM     18  H31 UNL     1      -3.839   2.078   0.441  1.00  0.00     0.174 HD
ENDBRANCH   4  16
BRANCH   7  19
HETATM   19  N5  UNL     1      -1.838  -2.201   0.017  1.00  0.00    -0.138 N 
ATOM     20  H5  UNL     1      -1.144  -2.942  -0.085  1.00  0.00     0.205 HD
BRANCH  19  21
HETATM   21  N6  UNL     1      -3.201  -2.496   0.112  1.00  0.00    -0.331 N 
ATOM     22  H62 UNL     1      -3.882  -1.744   0.214  1.00  0.00     0.177 HD
ATOM     23  H61 UNL     1      -3.479  -3.477   0.076  1.00  0.00     0.177 HD
ENDBRANCH  19  21
ENDBRANCH   7  19
TORSDOF 5
