REMARK  7 active torsions:
REMARK  status: ('A' for Active; 'I' for Inactive)
REMARK    1  A    between atoms: C2_2  and  O1_3 
REMARK    2  A    between atoms: C2_2  and  O2_5 
REMARK    3  A    between atoms: O2_5  and  C3_6 
REMARK    4  A    between atoms: C3_6  and  N1_7 
REMARK    5  A    between atoms: N3_10  and  O3_11 
REMARK    6  A    between atoms: C5_16  and  N5_17 
REMARK    7  A    between atoms: C6_22  and  N7_23 
ROOT
HETATM    1  N1  UNL     1      -0.013  -0.659  -0.967  1.00  0.00    -0.245 N 
HETATM    2  N2  UNL     1       0.293  -0.632  -2.255  1.00  0.00    -0.210 N 
ATOM      3  H2  UNL     1      -0.359  -0.878  -3.000  1.00  0.00     0.211 HD
HETATM    4  N3  UNL     1       1.534  -0.252  -2.461  1.00  0.00    -0.128 N 
HETATM    5  C4  UNL     1       2.062  -0.022  -1.266  1.00  0.00     0.200 A 
HETATM    6  N4  UNL     1       3.281   0.384  -0.860  1.00  0.00    -0.170 N 
ATOM      7  H4  UNL     1       4.013   0.578  -1.544  1.00  0.00     0.186 HD
HETATM    8  C5  UNL     1       3.523   0.531   0.449  1.00  0.00     0.679 A 
HETATM    9  N6  UNL     1       2.578   0.282   1.369  1.00  0.00    -0.175 N 
ATOM     10  H6  UNL     1       2.794   0.403   2.358  1.00  0.00     0.186 HD
HETATM   11  C6  UNL     1       1.339  -0.128   1.000  1.00  0.00     0.147 A 
HETATM   12  C7  UNL     1       1.080  -0.281  -0.322  1.00  0.00     0.147 A 
ENDROOT
BRANCH   1  13
HETATM   13  C3  UNL     1      -1.320  -1.050  -0.504  1.00  0.00     0.321 C 
BRANCH  13  14
HETATM   14  O2  UNL     1      -2.080   0.120  -0.434  1.00  0.00    -0.341 OA
BRANCH  14  15
HETATM   15  C2  UNL     1      -3.364  -0.078  -0.007  1.00  0.00     0.255 C 
HETATM   16  C1  UNL     1      -3.505   0.666   1.328  1.00  0.00     0.070 C 
BRANCH  15  17
HETATM   17  O1  UNL     1      -4.331   0.368  -0.897  1.00  0.00    -0.372 OA
ATOM     18  H1  UNL     1      -4.244  -0.093  -1.723  1.00  0.00     0.212 HD
ENDBRANCH  15  17
ENDBRANCH  14  15
ENDBRANCH  13  14
ENDBRANCH   1  13
BRANCH   4  19
HETATM   19  O3  UNL     1       2.195  -0.109  -3.663  1.00  0.00    -0.265 OA
ATOM     20  H3  UNL     1       3.092   0.166  -3.812  1.00  0.00     0.247 HD
ENDBRANCH   4  19
BRANCH  11  21
HETATM   21  N7  UNL     1       0.440  -0.363   1.865  1.00  0.00    -0.383 N 
ATOM     22  H72 UNL     1       0.635  -0.248   2.860  1.00  0.00     0.157 HD
ATOM     23  H71 UNL     1      -0.492  -0.671   1.587  1.00  0.00     0.157 HD
ENDBRANCH  11  21
BRANCH   8  24
HETATM   24  N5  UNL     1       4.676   0.918   0.896  1.00  0.00    -0.234 N 
ATOM     25  H52 UNL     1       5.394   1.107   0.197  1.00  0.00     0.174 HD
ATOM     26  H51 UNL     1       4.860   1.030   1.893  1.00  0.00     0.174 HD
ENDBRANCH   8  24
TORSDOF 7
