REMARK  12 active torsions:
REMARK  status: ('A' for Active; 'I' for Inactive)
REMARK    1  A    between atoms: C2_2  and  C3_3 
REMARK    2  A    between atoms: C3_3  and  C4_4 
REMARK    3  A    between atoms: C4_4  and  C5_5 
REMARK    4  A    between atoms: C5_5  and  C6_6 
REMARK    5  A    between atoms: C6_6  and  C7_7 
REMARK    6  A    between atoms: C7_7  and  C8_8 
REMARK    7  A    between atoms: C8_8  and  O2_10 
REMARK    8  A    between atoms: O2_10  and  C9_11 
REMARK    9  A    between atoms: C9_11  and  C10_12 
REMARK   10  A    between atoms: C13_17  and  O5_18 
REMARK   11  A    between atoms: C14_20  and  O6_21 
REMARK   12  A    between atoms: C19_27  and  O7_28 
ROOT
HETATM    1  C10 UNL     1      -0.725  -1.356   1.082  1.00  0.00     0.139 C 
HETATM    2  C11 UNL     1      -1.818  -0.771   1.881  1.00  0.00     0.268 C 
HETATM    3  O3  UNL     1      -1.494  -0.608   3.072  1.00  0.00    -0.265 OA
HETATM    4  O4  UNL     1      -3.101  -0.370   1.603  1.00  0.00    -0.309 OA
HETATM    5  C12 UNL     1      -4.129  -0.560   0.679  1.00  0.00     0.208 C 
HETATM    6  C13 UNL     1      -5.437  -0.446   1.415  1.00  0.00     0.180 C 
HETATM    7  C14 UNL     1      -6.579  -0.072   0.532  1.00  0.00     0.153 C 
HETATM    8  C15 UNL     1      -6.312   1.192  -0.228  1.00  0.00     0.020 C 
HETATM    9  C16 UNL     1      -6.916   1.062  -1.588  1.00  0.00     0.013 C 
HETATM   10  C17 UNL     1      -4.853   1.593  -0.236  1.00  0.00     0.035 C 
HETATM   11  C18 UNL     1      -4.678   2.722  -1.189  1.00  0.00     0.014 C 
HETATM   12  C19 UNL     1      -4.045   0.375  -0.527  1.00  0.00     0.178 C 
HETATM   13  C20 UNL     1      -2.615   0.609  -0.768  1.00  0.00     0.297 C 
HETATM   14  O8  UNL     1      -2.312   1.792  -0.982  1.00  0.00    -0.262 OA
HETATM   15  O9  UNL     1      -1.511  -0.212  -0.811  1.00  0.00    -0.313 OA
HETATM   16  C21 UNL     1      -1.100  -1.487  -0.359  1.00  0.00     0.143 C 
HETATM   17  C22 UNL     1       0.019  -2.007  -1.188  1.00  0.00     0.041 C 
ENDROOT
BRANCH   1  18
HETATM   18  C9  UNL     1       0.470  -0.439   1.220  1.00  0.00     0.196 C 
BRANCH  18  19
HETATM   19  O2  UNL     1       1.601  -0.881   0.512  1.00  0.00    -0.321 OA
BRANCH  19  20
HETATM   20  C8  UNL     1       2.805  -0.235   0.481  1.00  0.00     0.258 C 
HETATM   21  O1  UNL     1       2.936   0.837   1.123  1.00  0.00    -0.265 OA
BRANCH  20  22
HETATM   22  C7  UNL     1       3.992  -0.723  -0.276  1.00  0.00     0.111 C 
BRANCH  22  23
HETATM   23  C6  UNL     1       4.981  -1.410   0.637  1.00  0.00     0.010 C 
BRANCH  23  24
HETATM   24  C5  UNL     1       6.173  -1.899  -0.143  1.00  0.00     0.000 C 
BRANCH  24  25
HETATM   25  C4  UNL     1       6.920  -0.818  -0.842  1.00  0.00     0.000 C 
BRANCH  25  26
HETATM   26  C3  UNL     1       7.470   0.238   0.082  1.00  0.00    -0.000 C 
BRANCH  26  27
HETATM   27  C2  UNL     1       8.203   1.265  -0.776  1.00  0.00    -0.005 C 
HETATM   28  C1  UNL     1       8.780   2.360   0.105  1.00  0.00     0.005 C 
ENDBRANCH  26  27
ENDBRANCH  25  26
ENDBRANCH  24  25
ENDBRANCH  23  24
ENDBRANCH  22  23
ENDBRANCH  20  22
ENDBRANCH  19  20
ENDBRANCH  18  19
ENDBRANCH   1  18
BRANCH   6  29
HETATM   29  O5  UNL     1      -5.282   0.369   2.527  1.00  0.00    -0.390 OA
ATOM     30  H5  UNL     1      -6.108   0.441   2.992  1.00  0.00     0.210 HD
ENDBRANCH   6  29
BRANCH  12  31
HETATM   31  O7  UNL     1      -4.515  -0.294  -1.681  1.00  0.00    -0.377 OA
ATOM     32  H7  UNL     1      -4.463   0.287  -2.431  1.00  0.00     0.211 HD
ENDBRANCH  12  31
BRANCH   7  33
HETATM   33  O6  UNL     1      -6.907  -1.140  -0.296  1.00  0.00    -0.393 OA
ATOM     34  H6  UNL     1      -7.635  -0.902  -0.859  1.00  0.00     0.210 HD
ENDBRANCH   7  33
TORSDOF 12
