REMARK  12 active torsions:
REMARK  status: ('A' for Active; 'I' for Inactive)
REMARK    1  A    between atoms: C2_2  and  O1_5 
REMARK    2  A    between atoms: O1_5  and  C5_6 
REMARK       I    between atoms: C5_6  and  N1_8 
REMARK    3  A    between atoms: N1_8  and  C6_9 
REMARK    4  A    between atoms: C6_9  and  C7_10 
REMARK    5  A    between atoms: C8_15  and  S1_16 
REMARK    6  A    between atoms: S1_16  and  C9_17 
REMARK    7  A    between atoms: C9_17  and  C10_18 
REMARK    8  A    between atoms: C10_18  and  O3_19 
REMARK    9  A    between atoms: C10_18  and  N4_21 
REMARK   10  A    between atoms: N4_21  and  C11_22 
REMARK   11  A    between atoms: C11_22  and  C12_23 
REMARK   12  A    between atoms: N5_28  and  C15_29 
ROOT
HETATM    1  C7  UNL     1      -0.848  -0.486  -0.512  1.00  0.00     0.154 A 
HETATM    2  N2  UNL     1      -0.293   0.605  -0.001  1.00  0.00    -0.281 N 
ATOM      3  H2  UNL     1      -0.608   1.562  -0.162  1.00  0.00     0.188 HD
HETATM    4  N3  UNL     1       0.732   0.251   0.750  1.00  0.00    -0.278 N 
ATOM      5  H3  UNL     1       1.330   0.901   1.261  1.00  0.00     0.189 HD
HETATM    6  C8  UNL     1       0.876  -1.060   0.748  1.00  0.00     0.163 A 
HETATM    7  N5  UNL     1      -0.134  -1.535  -0.054  1.00  0.00    -0.305 N 
ENDROOT
BRANCH   6   8
HETATM    8  S1  UNL     1       2.068  -2.041   1.579  1.00  0.00    -0.083 SA
BRANCH   8   9
HETATM    9  C9  UNL     1       3.630  -2.285   0.773  1.00  0.00     0.182 C 
BRANCH   9  10
HETATM   10  C10 UNL     1       4.592  -1.140   1.040  1.00  0.00     0.198 C 
BRANCH  10  11
HETATM   11  O3  UNL     1       5.682  -1.540   1.663  1.00  0.00    -0.338 OA
ATOM     12  H3  UNL     1       6.284  -0.824   1.830  1.00  0.00     0.220 HD
ENDBRANCH  10  11
BRANCH  10  13
HETATM   13  N4  UNL     1       4.377   0.163   0.692  1.00  0.00    -0.398 NA
BRANCH  13  14
HETATM   14  C11 UNL     1       4.164   1.464   0.346  1.00  0.00     0.192 C 
BRANCH  14  15
HETATM   15  C12 UNL     1       5.217   2.084  -0.570  1.00  0.00     0.200 C 
HETATM   16  C13 UNL     1       6.582   2.131   0.079  1.00  0.00     0.209 C 
HETATM   17  O4  UNL     1       7.071   3.326  -0.491  1.00  0.00    -0.364 OA
HETATM   18  C14 UNL     1       5.953   4.167  -0.305  1.00  0.00     0.338 C 
HETATM   19  O5  UNL     1       4.876   3.412  -0.797  1.00  0.00    -0.353 OA
ENDBRANCH  14  15
ENDBRANCH  13  14
ENDBRANCH  10  13
ENDBRANCH   9  10
ENDBRANCH   8   9
ENDBRANCH   6   8
BRANCH   7  20
HETATM   20  C15 UNL     1      -0.387  -2.912  -0.303  1.00  0.00     0.094 C 
HETATM   21  C16 UNL     1       0.477  -3.551  -1.349  1.00  0.00     0.026 C 
HETATM   22  C17 UNL     1       0.230  -5.026  -1.077  1.00  0.00     0.002 C 
HETATM   23  C18 UNL     1       0.282  -5.053   0.445  1.00  0.00     0.002 C 
HETATM   24  C19 UNL     1      -0.436  -3.819   0.903  1.00  0.00     0.026 C 
ENDBRANCH   7  20
BRANCH   1  25
HETATM   25  C6  UNL     1      -2.026  -0.590  -1.447  1.00  0.00     0.238 C 
BRANCH  25  26
HETATM   26  N1  UNL     1      -3.140   0.174  -1.165  1.00  0.00    -0.355 NA
HETATM   27  C5  UNL     1      -4.290   0.882  -0.945  1.00  0.00     0.440 C 
HETATM   28  O2  UNL     1      -5.446   0.704  -1.487  1.00  0.00    -0.221 OA
BRANCH  27  29
HETATM   29  O1  UNL     1      -4.336   1.977  -0.018  1.00  0.00    -0.282 OA
BRANCH  29  30
HETATM   30  C2  UNL     1      -5.566   2.636   0.157  1.00  0.00     0.062 C 
HETATM   31  C1  UNL     1      -5.334   3.773   1.163  1.00  0.00     0.046 C 
HETATM   32  C3  UNL     1      -6.605   1.748   0.807  1.00  0.00     0.046 C 
HETATM   33  C4  UNL     1      -6.132   3.179  -1.146  1.00  0.00     0.046 C 
ENDBRANCH  29  30
ENDBRANCH  27  29
ENDBRANCH  25  26
ENDBRANCH   1  25
TORSDOF 12
