REMARK  9 active torsions:
REMARK  status: ('A' for Active; 'I' for Inactive)
REMARK    1  A    between atoms: C2_2  and  O1_3 
REMARK    2  A    between atoms: O1_3  and  C3_4 
REMARK    3  A    between atoms: C3_4  and  C4_6 
REMARK    4  A    between atoms: N2_12  and  C8_13 
REMARK    5  A    between atoms: C8_13  and  C9_14 
REMARK    6  A    between atoms: C8_13  and  C16_21 
REMARK    7  A    between atoms: C9_14  and  C10_15 
REMARK    8  A    between atoms: N6_28  and  C17_29 
REMARK    9  A    between atoms: C17_29  and  C18_30 
ROOT
HETATM    1  C8  UNL     1      -0.004   0.276   0.102  1.00  0.00     0.059 C 
ENDROOT
BRANCH   1   2
HETATM    2  N2  UNL     1       1.117   0.429   0.958  1.00  0.00    -0.343 N 
HETATM    3  C4  UNL     1       2.330  -0.204   0.848  1.00  0.00     0.105 C 
HETATM    4  C5  UNL     1       2.430  -1.553   1.606  1.00  0.00     0.178 C 
HETATM    5  N1  UNL     1       2.114  -1.334   2.975  1.00  0.00    -0.414 N 
HETATM    6  C6  UNL     1       0.925  -0.588   3.216  1.00  0.00     0.134 C 
ATOM      7  H1  UNL     1       2.699  -1.687   3.732  1.00  0.00     0.153 HD
HETATM    8  C7  UNL     1       0.720   0.602   2.357  1.00  0.00     0.148 C 
BRANCH   3   9
HETATM    9  C3  UNL     1       3.148  -0.236  -0.328  1.00  0.00     0.307 C 
HETATM   10  O2  UNL     1       3.053   0.410  -1.383  1.00  0.00    -0.258 OA
BRANCH   9  11
HETATM   11  O1  UNL     1       4.254  -1.134  -0.328  1.00  0.00    -0.317 OA
BRANCH  11  12
HETATM   12  C2  UNL     1       5.115  -1.234  -1.444  1.00  0.00     0.175 C 
HETATM   13  C1  UNL     1       6.166  -2.260  -1.123  1.00  0.00     0.034 C 
ENDBRANCH  11  12
ENDBRANCH   9  11
ENDBRANCH   3   9
ENDBRANCH   1   2
BRANCH   1  14
HETATM   14  C9  UNL     1      -0.546  -1.108   0.043  1.00  0.00     0.066 C 
BRANCH  14  15
HETATM   15  C10 UNL     1      -1.766  -1.381  -0.767  1.00  0.00    -0.009 C 
HETATM   16  C11 UNL     1      -2.161  -2.866  -0.657  1.00  0.00     0.005 C 
HETATM   17  C12 UNL     1      -3.661  -2.987  -0.815  1.00  0.00     0.000 C 
HETATM   18  C13 UNL     1      -4.159  -2.011  -1.864  1.00  0.00     0.000 C 
HETATM   19  C14 UNL     1      -3.979  -0.583  -1.418  1.00  0.00     0.000 C 
HETATM   20  C15 UNL     1      -2.973  -0.592  -0.283  1.00  0.00     0.005 C 
ENDBRANCH  14  15
ENDBRANCH   1  14
BRANCH   1  21
HETATM   21  C16 UNL     1       0.004   1.053  -1.149  1.00  0.00     0.162 A 
HETATM   22  N3  UNL     1      -0.190   0.530  -2.398  1.00  0.00    -0.267 N 
HETATM   23  N4  UNL     1      -0.128   1.478  -3.282  1.00  0.00    -0.226 N 
ATOM     24  H3  UNL     1      -0.358  -0.455  -2.603  1.00  0.00     0.190 HD
HETATM   25  N5  UNL     1       0.101   2.631  -2.697  1.00  0.00    -0.224 N 
ATOM     26  H4  UNL     1      -0.241   1.346  -4.287  1.00  0.00     0.210 HD
HETATM   27  N6  UNL     1       0.182   2.360  -1.369  1.00  0.00    -0.253 N 
ATOM     28  H5  UNL     1       0.198   3.541  -3.147  1.00  0.00     0.210 HD
BRANCH  27  29
HETATM   29  C17 UNL     1       0.415   3.381  -0.369  1.00  0.00     0.198 C 
BRANCH  29  30
HETATM   30  C18 UNL     1      -0.864   4.034   0.067  1.00  0.00     0.002 A 
HETATM   31  C19 UNL     1      -1.615   3.760   1.171  1.00  0.00     0.017 A 
HETATM   32  C20 UNL     1      -2.733   4.478   1.360  1.00  0.00     0.008 A 
HETATM   33  C21 UNL     1      -3.031   5.433   0.426  1.00  0.00     0.050 A 
HETATM   34  S1  UNL     1      -1.746   5.298  -0.683  1.00  0.00    -0.105 SA
ENDBRANCH  29  30
ENDBRANCH  27  29
ENDBRANCH   1  21
TORSDOF 9
