REMARK  3 active torsions:
REMARK  status: ('A' for Active; 'I' for Inactive)
REMARK    1  A    between atoms: C9_9  and  C10_10 
REMARK    2  A    between atoms: C10_10  and  C11_11 
REMARK    3  A    between atoms: C11_11  and  C12_12 
ROOT
HETATM    1  C1  UNL     1      -1.086   2.500   0.360  1.00  0.00     0.010 C 
HETATM    2  C2  UNL     1      -1.251   1.168  -0.395  1.00  0.00    -0.014 C 
HETATM    3  C3  UNL     1      -2.386   0.491   0.208  1.00  0.00     0.005 C 
HETATM    4  C4  UNL     1      -2.701  -0.898  -0.107  1.00  0.00     0.011 C 
HETATM    5  C5  UNL     1      -1.625  -1.815  -0.528  1.00  0.00     0.031 C 
HETATM    6  C6  UNL     1      -0.949  -1.496  -1.808  1.00  0.00     0.011 C 
HETATM    7  C7  UNL     1      -0.047  -0.361  -1.857  1.00  0.00     0.006 C 
HETATM    8  C8  UNL     1       0.045   0.504  -0.603  1.00  0.00    -0.006 C 
HETATM    9  C9  UNL     1       0.776  -0.116   0.483  1.00  0.00    -0.004 C 
HETATM   10  C13 UNL     1       0.046  -1.074   1.377  1.00  0.00     0.057 C 
HETATM   11  C14 UNL     1      -0.702  -2.063   0.606  1.00  0.00    -0.016 C 
HETATM   12  N1  UNL     1      -0.521  -3.274   0.975  1.00  0.00    -0.405 N 
ATOM     13  H11 UNL     1       0.114  -3.445   1.755  1.00  0.00     0.155 HD
ATOM     14  H12 UNL     1      -1.044  -3.965   0.436  1.00  0.00     0.155 HD
ENDROOT
BRANCH   9  15
HETATM   15  C10 UNL     1       1.587   0.781   1.387  1.00  0.00     0.016 C 
BRANCH  15  16
HETATM   16  C11 UNL     1       2.664   1.550   0.690  1.00  0.00     0.113 C 
BRANCH  16  17
HETATM   17  C12 UNL     1       3.646   0.658   0.016  1.00  0.00     0.172 C 
HETATM   18  O1  UNL     1       4.534   0.121   0.722  1.00  0.00    -0.648 OA
HETATM   19  O2  UNL     1       3.634   0.389  -1.343  1.00  0.00    -0.648 OA
ENDBRANCH  16  17
ENDBRANCH  15  16
ENDBRANCH   9  15
TORSDOF 3
