REMARK  11 active torsions:
REMARK  status: ('A' for Active; 'I' for Inactive)
REMARK    1  A    between atoms: C3_3  and  C4_4 
REMARK    2  A    between atoms: C5_5  and  N1_6 
REMARK    3  A    between atoms: N1_6  and  C6_8 
REMARK    4  A    between atoms: C6_8  and  O1_12 
REMARK    5  A    between atoms: O1_12  and  N3_13 
REMARK    6  A    between atoms: C9_18  and  N5_19 
REMARK    7  A    between atoms: N5_19  and  C10_21 
REMARK    8  A    between atoms: C10_21  and  C11_22 
REMARK    9  A    between atoms: C11_22  and  C12_23 
REMARK   10  A    between atoms: C12_23  and  C13_24 
REMARK   11  A    between atoms: C13_24  and  C14_25 
ROOT
HETATM    1  C1  UNL     1      10.225   1.951  -0.648  1.00  0.00     0.113 C 
HETATM    2  C2  UNL     1       8.806   1.855  -0.288  1.00  0.00    -0.097 C 
HETATM    3  C3  UNL     1       7.632   1.762   0.024  1.00  0.00    -0.014 C 
ENDROOT
BRANCH   3   4
HETATM    4  C4  UNL     1       6.271   1.658   0.411  1.00  0.00     0.008 C 
HETATM    5  C5  UNL     1       5.116   1.577   0.752  1.00  0.00     0.028 C 
BRANCH   5   6
HETATM    6  N1  UNL     1       3.788   1.472   1.161  1.00  0.00    -0.279 N 
ATOM      7  H1  UNL     1       3.479   1.880   2.043  1.00  0.00     0.180 HD
BRANCH   6   8
HETATM    8  C6  UNL     1       2.878   0.784   0.321  1.00  0.00     0.249 C 
HETATM    9  N2  UNL     1       2.515   1.202  -0.844  1.00  0.00    -0.363 N 
ATOM     10  H22 UNL     1       2.895   2.079  -1.200  1.00  0.00     0.159 HD
ATOM     11  H21 UNL     1       1.860   0.707  -1.449  1.00  0.00     0.159 HD
BRANCH   8  12
HETATM   12  O1  UNL     1       2.358  -0.417   0.808  1.00  0.00    -0.183 OA
BRANCH  12  13
HETATM   13  N3  UNL     1       1.873  -1.362  -0.069  1.00  0.00    -0.079 N 
HETATM   14  C7  UNL     1       2.541  -1.915  -1.230  1.00  0.00     0.196 C 
HETATM   15  C8  UNL     1       1.807  -3.201  -1.456  1.00  0.00     0.161 C 
HETATM   16  N4  UNL     1       0.557  -3.023  -0.779  1.00  0.00    -0.223 N 
HETATM   17  C9  UNL     1       0.595  -1.988   0.001  1.00  0.00     0.696 C 
ATOM     18  H4  UNL     1      -0.255  -3.630  -0.895  1.00  0.00     0.177 HD
BRANCH  17  19
HETATM   19  N5  UNL     1      -0.472  -1.533   0.812  1.00  0.00    -0.225 N 
ATOM     20  H5  UNL     1      -0.271  -1.068   1.697  1.00  0.00     0.177 HD
BRANCH  19  21
HETATM   21  C10 UNL     1      -1.832  -1.720   0.400  1.00  0.00     0.138 C 
BRANCH  21  22
HETATM   22  C11 UNL     1      -2.767  -1.133   1.465  1.00  0.00     0.020 C 
BRANCH  22  23
HETATM   23  C12 UNL     1      -4.192  -1.298   1.086  1.00  0.00     0.002 C 
BRANCH  23  24
HETATM   24  C13 UNL     1      -4.684  -0.631  -0.135  1.00  0.00     0.008 C 
BRANCH  24  25
HETATM   25  C14 UNL     1      -4.716   0.843  -0.199  1.00  0.00    -0.051 C 
HETATM   26  C15 UNL     1      -3.447   1.595  -0.063  1.00  0.00     0.014 C 
HETATM   27  C16 UNL     1      -5.349   1.227  -1.558  1.00  0.00     0.014 C 
HETATM   28  C17 UNL     1      -5.712   1.412   0.832  1.00  0.00     0.014 C 
ENDBRANCH  24  25
ENDBRANCH  23  24
ENDBRANCH  22  23
ENDBRANCH  21  22
ENDBRANCH  19  21
ENDBRANCH  17  19
ENDBRANCH  12  13
ENDBRANCH   8  12
ENDBRANCH   6   8
ENDBRANCH   5   6
ENDBRANCH   3   4
TORSDOF 11
