REMARK  7 active torsions:
REMARK  status: ('A' for Active; 'I' for Inactive)
REMARK    1  A    between atoms: C2_2  and  N1_4 
REMARK    2  A    between atoms: C6_9  and  N3_10 
REMARK    3  A    between atoms: C7_15  and  O1_16 
REMARK    4  A    between atoms: O1_16  and  C8_17 
REMARK    5  A    between atoms: C8_17  and  C9_18 
REMARK    6  A    between atoms: C9_18  and  C10_19 
REMARK    7  A    between atoms: C10_19  and  O2_20 
ROOT
HETATM    1  N1  UNL     1      -3.017  -0.358   0.429  1.00  0.00     0.142 N 
HETATM    2  C4  UNL     1      -3.524  -1.174  -0.701  1.00  0.00     0.336 C 
HETATM    3  C5  UNL     1      -2.293  -1.249  -1.549  1.00  0.00     0.070 A 
HETATM    4  N2  UNL     1      -2.077  -1.388  -2.858  1.00  0.00    -0.193 N 
ATOM      5  H2  UNL     1      -2.875  -1.481  -3.486  1.00  0.00     0.184 HD
HETATM    6  C6  UNL     1      -0.832  -1.409  -3.372  1.00  0.00     0.678 A 
HETATM    7  N4  UNL     1       0.228  -1.286  -2.555  1.00  0.00    -0.170 N 
ATOM      8  H4  UNL     1       1.166  -1.303  -2.956  1.00  0.00     0.186 HD
HETATM    9  C7  UNL     1       0.087  -1.138  -1.199  1.00  0.00     0.171 A 
HETATM   10  C14 UNL     1      -1.174  -1.120  -0.692  1.00  0.00     0.088 A 
HETATM   11  C15 UNL     1      -1.755  -1.034   0.647  1.00  0.00     0.329 C 
HETATM   12  C16 UNL     1      -0.937  -0.623   1.777  1.00  0.00     0.093 C 
HETATM   13  F1  UNL     1      -2.159  -2.379   0.939  1.00  0.00    -0.203 F 
ENDROOT
BRANCH   9  14
HETATM   14  O1  UNL     1       1.224  -1.014  -0.424  1.00  0.00    -0.334 OA
BRANCH  14  15
HETATM   15  C8  UNL     1       1.801   0.278  -0.346  1.00  0.00     0.189 C 
BRANCH  15  16
HETATM   16  C9  UNL     1       3.049   0.351   0.470  1.00  0.00     0.003 C 
HETATM   17  C11 UNL     1       2.950  -0.362   1.771  1.00  0.00     0.014 C 
HETATM   18  C12 UNL     1       4.318  -0.981   1.479  1.00  0.00     0.002 C 
HETATM   19  C13 UNL     1       4.148  -0.602   0.018  1.00  0.00     0.014 C 
BRANCH  16  20
HETATM   20  C10 UNL     1       3.641   1.746   0.546  1.00  0.00     0.175 C 
BRANCH  20  21
HETATM   21  O2  UNL     1       2.689   2.580   1.125  1.00  0.00    -0.400 OA
ATOM     22  H2  UNL     1       3.060   3.453   1.173  1.00  0.00     0.209 HD
ENDBRANCH  20  21
ENDBRANCH  16  20
ENDBRANCH  15  16
ENDBRANCH  14  15
ENDBRANCH   9  14
BRANCH   6  23
HETATM   23  N3  UNL     1      -0.589  -1.544  -4.638  1.00  0.00    -0.234 N 
ATOM     24  H32 UNL     1      -1.393  -1.637  -5.258  1.00  0.00     0.174 HD
ATOM     25  H31 UNL     1       0.354  -1.560  -5.027  1.00  0.00     0.174 HD
ENDBRANCH   6  23
BRANCH   1  26
HETATM   26  C2  UNL     1      -2.899   1.019   0.018  1.00  0.00     0.220 C 
HETATM   27  C1  UNL     1      -4.283   1.562  -0.401  1.00  0.00     0.042 C 
HETATM   28  C3  UNL     1      -2.534   1.852   1.226  1.00  0.00     0.042 C 
ENDBRANCH   1  26
TORSDOF 7
