REMARK  5 active torsions:
REMARK  status: ('A' for Active; 'I' for Inactive)
REMARK    1  A    between atoms: C4_5  and  N1_6 
REMARK    2  A    between atoms: N1_6  and  C5_8 
REMARK    3  A    between atoms: C5_8  and  C6_9 
REMARK    4  A    between atoms: C5_8  and  C11_16 
REMARK    5  A    between atoms: C11_16  and  C12_17 
ROOT
HETATM    1  C5  UNL     1       0.068   0.141  -0.387  1.00  0.00     0.102 C 
ENDROOT
BRANCH   1   2
HETATM    2  N1  UNL     1       1.016  -0.249   0.658  1.00  0.00    -0.384 N 
ATOM      3  H1  UNL     1       0.993   0.258   1.543  1.00  0.00     0.160 HD
BRANCH   2   4
HETATM    4  C4  UNL     1       1.962  -1.289   0.510  1.00  0.00     0.028 A 
HETATM    5  C3  UNL     1       2.463  -1.733  -0.694  1.00  0.00     0.032 A 
HETATM    6  C2  UNL     1       3.358  -2.765  -0.791  1.00  0.00     0.044 A 
HETATM    7  C1  UNL     1       3.790  -3.403   0.353  1.00  0.00     0.116 A 
HETATM    8  F1  UNL     1       4.689  -4.441   0.261  1.00  0.00    -0.206 F 
HETATM    9  C17 UNL     1       3.318  -2.997   1.584  1.00  0.00     0.044 A 
HETATM   10  C16 UNL     1       2.422  -1.953   1.620  1.00  0.00     0.032 A 
ENDBRANCH   2   4
ENDBRANCH   1   2
BRANCH   1  11
HETATM   11  C6  UNL     1      -1.331  -0.179   0.159  1.00  0.00     0.016 C 
HETATM   12  C7  UNL     1      -2.452   0.087  -0.760  1.00  0.00     0.051 C 
HETATM   13  C8  UNL     1      -3.482  -1.030  -0.794  1.00  0.00     0.056 C 
HETATM   14  N2  UNL     1      -3.725  -1.699   0.415  1.00  0.00    -0.402 N 
HETATM   15  C9  UNL     1      -2.803  -1.547   1.469  1.00  0.00     0.119 C 
ATOM     16  H2  UNL     1      -4.553  -2.284   0.529  1.00  0.00     0.158 HD
HETATM   17  C10 UNL     1      -1.394  -1.511   0.854  1.00  0.00     0.026 C 
ENDBRANCH   1  11
BRANCH   1  18
HETATM   18  C11 UNL     1       0.198   1.587  -0.722  1.00  0.00     0.041 C 
HETATM   19  C13 UNL     1      -0.366   2.064  -2.037  1.00  0.00     0.020 C 
HETATM   20  C14 UNL     1       0.887   2.941  -2.180  1.00  0.00     0.002 C 
HETATM   21  C15 UNL     1       1.574   1.905  -1.303  1.00  0.00     0.020 C 
BRANCH  18  22
HETATM   22  C12 UNL     1      -0.061   2.552   0.374  1.00  0.00     0.120 A 
HETATM   23  N3  UNL     1      -1.063   3.472   0.377  1.00  0.00    -0.270 N 
HETATM   24  N4  UNL     1      -0.988   4.154   1.512  1.00  0.00    -0.005 NA
ATOM     25  H3  UNL     1      -1.751   3.613  -0.363  1.00  0.00     0.185 HD
HETATM   26  N5  UNL     1       0.025   3.699   2.230  1.00  0.00    -0.225 N 
HETATM   27  N6  UNL     1       0.566   2.737   1.525  1.00  0.00    -0.274 N 
ATOM     28  H5  UNL     1       0.324   4.030   3.147  1.00  0.00     0.205 HD
ATOM     29  H6  UNL     1       1.375   2.194   1.827  1.00  0.00     0.189 HD
ENDBRANCH  18  22
ENDBRANCH   1  18
TORSDOF 5
