REMARK  8 active torsions:
REMARK  status: ('A' for Active; 'I' for Inactive)
REMARK    1  A    between atoms: C2_2  and  O2_4 
REMARK    2  A    between atoms: O2_4  and  C3_5 
REMARK    3  A    between atoms: C3_5  and  C4_6 
REMARK    4  A    between atoms: C13_16  and  O4_18 
REMARK    5  A    between atoms: C15_20  and  C16_21 
REMARK    6  A    between atoms: C16_21  and  O5_22 
REMARK    7  A    between atoms: C18_25  and  O6_26 
REMARK    8  A    between atoms: O6_26  and  C19_27 
ROOT
HETATM    1  C4  UNL     1       0.432  -0.567  -0.314  1.00  0.00     0.080 C 
HETATM    2  C5  UNL     1       0.851  -0.631  -1.766  1.00  0.00     0.141 C 
HETATM    3  O3  UNL     1       1.958  -0.949  -2.170  1.00  0.00    -0.297 OA
HETATM    4  C6  UNL     1      -0.267  -0.257  -2.627  1.00  0.00     0.080 C 
HETATM    5  C7  UNL     1      -1.118   0.518  -1.644  1.00  0.00     0.022 C 
HETATM    6  C8  UNL     1      -0.962  -0.192  -0.287  1.00  0.00     0.014 C 
HETATM    7  C9  UNL     1      -1.414   0.843   0.699  1.00  0.00     0.005 C 
HETATM    8  C10 UNL     1      -2.677   1.505   0.123  1.00  0.00     0.006 C 
HETATM    9  C11 UNL     1      -3.767   0.479   0.043  1.00  0.00     0.003 C 
HETATM   10  C12 UNL     1      -3.380  -0.802  -0.585  1.00  0.00     0.038 C 
HETATM   11  C13 UNL     1      -1.983  -1.297  -0.194  1.00  0.00     0.063 C 
HETATM   12  C14 UNL     1      -2.146  -1.881   1.173  1.00  0.00     0.046 C 
HETATM   13  C15 UNL     1      -0.370   1.868   1.027  1.00  0.00     0.016 C 
HETATM   14  C17 UNL     1       0.823   1.072   1.524  1.00  0.00     0.041 C 
HETATM   15  C18 UNL     1       1.395   0.471   0.250  1.00  0.00     0.151 C 
ENDROOT
BRANCH   1  16
HETATM   16  C3  UNL     1       0.877  -1.875   0.253  1.00  0.00     0.199 C 
BRANCH  16  17
HETATM   17  O2  UNL     1       2.306  -2.033   0.115  1.00  0.00    -0.320 OA
BRANCH  17  18
HETATM   18  C2  UNL     1       2.963  -3.141   0.553  1.00  0.00     0.254 C 
HETATM   19  C1  UNL     1       4.442  -3.265   0.392  1.00  0.00     0.126 C 
HETATM   20  O1  UNL     1       2.299  -4.058   1.096  1.00  0.00    -0.266 OA
ENDBRANCH  17  18
ENDBRANCH  16  17
ENDBRANCH   1  16
BRANCH  15  21
HETATM   21  O6  UNL     1       1.618   1.552  -0.628  1.00  0.00    -0.315 OA
BRANCH  21  22
HETATM   22  C19 UNL     1       2.905   1.932  -0.973  1.00  0.00     0.255 C 
HETATM   23  C20 UNL     1       3.179   3.069  -1.899  1.00  0.00     0.126 C 
HETATM   24  O7  UNL     1       3.859   1.279  -0.473  1.00  0.00    -0.266 OA
ENDBRANCH  21  22
ENDBRANCH  15  21
BRANCH  11  25
HETATM   25  O4  UNL     1      -1.732  -2.301  -1.163  1.00  0.00    -0.389 OA
ATOM     26  H4  UNL     1      -2.375  -2.997  -1.104  1.00  0.00     0.210 HD
ENDBRANCH  11  25
BRANCH  13  27
HETATM   27  C16 UNL     1      -0.734   2.826   2.084  1.00  0.00     0.169 C 
BRANCH  27  28
HETATM   28  O5  UNL     1      -1.017   2.262   3.315  1.00  0.00    -0.400 OA
ATOM     29  H5  UNL     1      -1.252   2.880   3.997  1.00  0.00     0.209 HD
ENDBRANCH  27  28
ENDBRANCH  13  27
TORSDOF 8
