REMARK  5 active torsions:
REMARK  status: ('A' for Active; 'I' for Inactive)
REMARK    1  A    between atoms: C2_2  and  C10_12 
REMARK    2  A    between atoms: C10_12  and  C11_13 
REMARK    3  A    between atoms: C10_12  and  N1_26 
REMARK    4  A    between atoms: C17_20  and  O4_21 
REMARK    5  A    between atoms: C17_20  and  C18_23 
ROOT
HETATM    1  C10 UNL     1      -0.225  -0.334   0.719  1.00  0.00     0.191 C 
ENDROOT
BRANCH   1   2
HETATM    2  C2  UNL     1       0.660   0.816   0.689  1.00  0.00    -0.023 C 
HETATM    3  C1  UNL     1       0.425   1.889   1.707  1.00  0.00     0.048 C 
HETATM    4  C3  UNL     1       1.662   1.015  -0.123  1.00  0.00     0.074 C 
HETATM    5  C4  UNL     1       2.475   2.280   0.028  1.00  0.00     0.232 C 
HETATM    6  O2  UNL     1       2.002   0.106  -1.112  1.00  0.00    -0.352 OA
HETATM    7  O1  UNL     1       3.719   1.868   0.529  1.00  0.00    -0.384 OA
HETATM    8  C5  UNL     1       4.556   1.369  -0.430  1.00  0.00     0.179 C 
HETATM    9  C6  UNL     1       4.381  -0.109  -0.685  1.00  0.00    -0.004 C 
HETATM   10  C7  UNL     1       5.633  -0.569  -1.410  1.00  0.00     0.019 C 
HETATM   11  C8  UNL     1       4.321  -0.900   0.609  1.00  0.00     0.019 C 
HETATM   12  C9  UNL     1       3.219  -0.408  -1.586  1.00  0.00     0.186 C 
ENDBRANCH   1   2
BRANCH   1  13
HETATM   13  C11 UNL     1      -1.701   0.097   0.659  1.00  0.00     0.026 A 
HETATM   14  C12 UNL     1      -2.040   0.865  -0.569  1.00  0.00     0.008 A 
HETATM   15  C13 UNL     1      -3.210   0.178  -1.229  1.00  0.00     0.011 A 
HETATM   16  C14 UNL     1      -3.483  -1.084  -0.470  1.00  0.00     0.066 A 
HETATM   17  C15 UNL     1      -2.544  -1.133   0.701  1.00  0.00     0.026 A 
HETATM   18  C17 UNL     1      -4.842  -1.109   0.184  1.00  0.00     0.257 C 
HETATM   19  C16 UNL     1      -3.442  -1.204   1.922  1.00  0.00     0.177 C 
HETATM   20  O3  UNL     1      -4.659  -1.665   1.448  1.00  0.00    -0.346 OA
BRANCH  18  21
HETATM   21  O4  UNL     1      -5.667  -1.940  -0.565  1.00  0.00    -0.357 OA
ATOM     22  H4  UNL     1      -6.523  -1.956  -0.153  1.00  0.00     0.213 HD
ENDBRANCH  18  21
BRANCH  18  23
HETATM   23  C18 UNL     1      -5.446   0.211   0.350  1.00  0.00     0.239 C 
HETATM   24  O5  UNL     1      -4.878   1.125   0.993  1.00  0.00    -0.644 OA
HETATM   25  O6  UNL     1      -6.681   0.480  -0.212  1.00  0.00    -0.644 OA
ENDBRANCH  18  23
ENDBRANCH   1  13
BRANCH   1  26
HETATM   26  N1  UNL     1      -0.052  -1.352  -0.260  1.00  0.00    -0.146 N 
HETATM   27  O7  UNL     1       0.399  -2.504   0.038  1.00  0.00    -0.536 OA
HETATM   28  O8  UNL     1      -0.336  -1.237  -1.612  1.00  0.00    -0.536 OA
ENDBRANCH   1  26
TORSDOF 5
