REMARK  6 active torsions:
REMARK  status: ('A' for Active; 'I' for Inactive)
REMARK    1  A    between atoms: C8_9  and  O2_10 
REMARK    2  A    between atoms: O2_10  and  C9_11 
REMARK    3  A    between atoms: C13_17  and  C14_18 
REMARK    4  A    between atoms: C18_23  and  C19_24 
REMARK    5  A    between atoms: C19_24  and  O6_25 
REMARK    6  A    between atoms: C20_27  and  O7_28 
ROOT
HETATM    1  C1  UNL     1       4.468  -0.324   0.139  1.00  0.00     0.036 C 
HETATM    2  C2  UNL     1       3.517  -1.455   0.275  1.00  0.00    -0.023 C 
HETATM    3  C3  UNL     1       2.265  -1.372  -0.132  1.00  0.00    -0.018 C 
HETATM    4  C4  UNL     1       1.071  -2.232  -0.169  1.00  0.00     0.184 C 
HETATM    5  O1  UNL     1       0.589  -1.494  -1.241  1.00  0.00    -0.363 OA
HETATM    6  C5  UNL     1       1.308  -0.421  -0.776  1.00  0.00     0.091 C 
HETATM    7  C6  UNL     1       2.015   0.326  -1.875  1.00  0.00     0.052 C 
HETATM    8  C7  UNL     1       0.688   0.372   0.308  1.00  0.00     0.078 C 
HETATM    9  C8  UNL     1      -0.261   1.445  -0.145  1.00  0.00     0.178 C 
HETATM   10  C11 UNL     1      -1.639   0.941  -0.515  1.00  0.00     0.124 A 
HETATM   11  C12 UNL     1      -2.085   1.045  -1.952  1.00  0.00     0.052 C 
HETATM   12  O4  UNL     1      -2.670   1.500   0.409  1.00  0.00    -0.352 OA
HETATM   13  C13 UNL     1      -2.265   0.089   0.382  1.00  0.00     0.159 A 
HETATM   14  C17 UNL     1      -1.376  -0.281   1.526  1.00  0.00     0.178 C 
HETATM   15  O5  UNL     1      -1.858  -0.388   2.617  1.00  0.00    -0.293 OA
HETATM   16  C18 UNL     1       0.088  -0.519   1.343  1.00  0.00     0.083 C 
HETATM   17  C20 UNL     1       0.236  -1.993   1.067  1.00  0.00     0.170 C 
ENDROOT
BRANCH   9  18
HETATM   18  O2  UNL     1       0.282   2.196  -1.211  1.00  0.00    -0.313 OA
BRANCH  18  19
HETATM   19  C9  UNL     1       0.638   3.539  -1.116  1.00  0.00     0.255 C 
HETATM   20  C10 UNL     1       1.194   4.202  -2.303  1.00  0.00     0.126 C 
HETATM   21  O3  UNL     1       0.456   4.095  -0.008  1.00  0.00    -0.266 OA
ENDBRANCH  18  19
ENDBRANCH   9  18
BRANCH  16  22
HETATM   22  C19 UNL     1       0.732  -0.156   2.691  1.00  0.00     0.184 C 
BRANCH  22  23
HETATM   23  O6  UNL     1       0.164  -0.987   3.643  1.00  0.00    -0.400 OA
ATOM     24  H6  UNL     1       0.562  -0.763   4.476  1.00  0.00     0.209 HD
ENDBRANCH  22  23
ENDBRANCH  16  22
BRANCH  13  25
HETATM   25  C14 UNL     1      -3.414  -0.776   0.059  1.00  0.00     0.023 C 
HETATM   26  C15 UNL     1      -3.825  -1.564   1.308  1.00  0.00     0.013 C 
HETATM   27  C16 UNL     1      -3.208  -1.740  -1.088  1.00  0.00     0.013 C 
ENDBRANCH  13  25
BRANCH  17  28
HETATM   28  O7  UNL     1       0.784  -2.678   2.160  1.00  0.00    -0.391 OA
ATOM     29  H7  UNL     1       0.259  -2.528   2.937  1.00  0.00     0.210 HD
ENDBRANCH  17  28
TORSDOF 6
