REMARK  8 active torsions:
REMARK  status: ('A' for Active; 'I' for Inactive)
REMARK    1  A    between atoms: C11_11  and  O1_12 
REMARK    2  A    between atoms: O1_12  and  C12_13 
REMARK    3  A    between atoms: C15_17  and  O3_18 
REMARK    4  A    between atoms: O3_18  and  C16_19 
REMARK    5  A    between atoms: C16_19  and  C17_21 
REMARK    6  A    between atoms: C20_24  and  O5_25 
REMARK    7  A    between atoms: C20_24  and  C21_27 
REMARK    8  A    between atoms: C21_27  and  O6_28 
ROOT
HETATM    1  C1  UNL     1       1.414  -1.740   2.385  1.00  0.00     0.017 C 
HETATM    2  C2  UNL     1       0.591  -1.510   1.370  1.00  0.00    -0.059 C 
HETATM    3  C3  UNL     1      -0.510  -2.486   1.168  1.00  0.00     0.043 C 
HETATM    4  C4  UNL     1      -1.520  -2.067   0.132  1.00  0.00     0.027 C 
HETATM    5  C5  UNL     1      -2.882  -1.773   0.653  1.00  0.00     0.009 C 
HETATM    6  C6  UNL     1      -3.040  -0.738   1.716  1.00  0.00     0.010 C 
HETATM    7  C7  UNL     1      -3.035   0.620   1.096  1.00  0.00     0.018 A 
HETATM    8  C8  UNL     1      -3.333   1.827   1.829  1.00  0.00    -0.025 A 
HETATM    9  C9  UNL     1      -2.092   2.260   1.863  1.00  0.00    -0.022 A 
HETATM   10  C10 UNL     1      -1.630   1.099   1.150  1.00  0.00     0.046 A 
HETATM   11  C11 UNL     1      -0.964   1.235  -0.159  1.00  0.00     0.150 C 
HETATM   12  C14 UNL     1      -0.163  -0.035  -0.515  1.00  0.00     0.087 C 
HETATM   13  C15 UNL     1       0.847  -0.315   0.547  1.00  0.00     0.170 C 
HETATM   14  C20 UNL     1      -0.981  -1.191  -0.932  1.00  0.00     0.091 C 
ENDROOT
BRANCH  13  15
HETATM   15  O3  UNL     1       2.170  -0.458   0.006  1.00  0.00    -0.308 OA
BRANCH  15  16
HETATM   16  C16 UNL     1       3.196   0.397   0.353  1.00  0.00     0.283 C 
HETATM   17  O4  UNL     1       2.960   1.325   1.163  1.00  0.00    -0.260 OA
BRANCH  16  18
HETATM   18  C17 UNL     1       4.535   0.267  -0.183  1.00  0.00     0.078 C 
HETATM   19  C18 UNL     1       5.477   1.110   0.181  1.00  0.00    -0.025 C 
HETATM   20  C19 UNL     1       6.870   1.030  -0.333  1.00  0.00     0.036 C 
ENDBRANCH  16  18
ENDBRANCH  15  16
ENDBRANCH  13  15
BRANCH  11  21
HETATM   21  O1  UNL     1      -1.810   1.583  -1.211  1.00  0.00    -0.315 OA
BRANCH  21  22
HETATM   22  C12 UNL     1      -1.632   2.737  -1.957  1.00  0.00     0.255 C 
HETATM   23  C13 UNL     1      -2.520   3.124  -3.079  1.00  0.00     0.126 C 
HETATM   24  O2  UNL     1      -0.645   3.465  -1.625  1.00  0.00    -0.266 OA
ENDBRANCH  21  22
ENDBRANCH  11  21
BRANCH  14  25
HETATM   25  O5  UNL     1      -2.048  -0.729  -1.725  1.00  0.00    -0.387 OA
ATOM     26  H5  UNL     1      -1.702  -0.167  -2.408  1.00  0.00     0.210 HD
ENDBRANCH  14  25
BRANCH  14  27
HETATM   27  C21 UNL     1      -0.158  -2.018  -1.922  1.00  0.00     0.202 C 
BRANCH  27  28
HETATM   28  O6  UNL     1       0.955  -2.613  -1.395  1.00  0.00    -0.398 OA
ATOM     29  H6  UNL     1       1.466  -3.126  -2.010  1.00  0.00     0.209 HD
ENDBRANCH  27  28
ENDBRANCH  14  27
TORSDOF 8
