REMARK  16 active torsions:
REMARK  status: ('A' for Active; 'I' for Inactive)
REMARK    1  A    between atoms: O1_2  and  C2_3 
REMARK    2  A    between atoms: C3_4  and  O2_5 
REMARK    3  A    between atoms: O2_5  and  C4_6 
REMARK    4  A    between atoms: C7_10  and  O4_11 
REMARK    5  A    between atoms: C8_13  and  O5_14 
REMARK    6  A    between atoms: C13_23  and  O9_24 
REMARK    7  A    between atoms: O9_24  and  C14_25 
REMARK    8  A    between atoms: C15_26  and  O10_27 
REMARK    9  A    between atoms: C16_29  and  O11_30 
REMARK   10  A    between atoms: C17_32  and  O12_33 
REMARK   11  A    between atoms: C18_35  and  O13_36 
REMARK   12  A    between atoms: O13_36  and  C19_37 
REMARK   13  A    between atoms: C21_40  and  C22_41 
REMARK   14  A    between atoms: C22_41  and  O15_42 
REMARK   15  A    between atoms: C23_44  and  O16_45 
REMARK   16  A    between atoms: C24_47  and  O17_48 
ROOT
HETATM    1  C2  UNL     1      -1.120  -0.490   1.524  1.00  0.00     0.207 C 
HETATM    2  C3  UNL     1      -1.739   0.643   0.794  1.00  0.00     0.294 C 
HETATM    3  O8  UNL     1      -0.722   1.586   0.545  1.00  0.00    -0.356 OA
HETATM    4  C12 UNL     1       0.494   1.001   0.239  1.00  0.00     0.205 C 
HETATM    5  C13 UNL     1       1.138   0.399   1.500  1.00  0.00     0.177 C 
HETATM    6  C24 UNL     1      -0.024   0.130   2.426  1.00  0.00     0.183 C 
ENDROOT
BRANCH   5   7
HETATM    7  O9  UNL     1       1.683  -0.802   1.116  1.00  0.00    -0.370 OA
BRANCH   7   8
HETATM    8  C14 UNL     1       3.062  -0.837   1.326  1.00  0.00     0.185 C 
HETATM    9  C15 UNL     1       3.365  -2.037   2.155  1.00  0.00     0.181 C 
HETATM   10  C16 UNL     1       3.095  -3.167   1.150  1.00  0.00     0.180 C 
HETATM   11  C17 UNL     1       3.709  -2.612  -0.114  1.00  0.00     0.181 C 
HETATM   12  C18 UNL     1       3.742  -1.117   0.015  1.00  0.00     0.187 C 
BRANCH   9  13
HETATM   13  O10 UNL     1       2.594  -2.191   3.284  1.00  0.00    -0.390 OA
ATOM     14  H10 UNL     1       2.787  -2.956   3.813  1.00  0.00     0.210 HD
ENDBRANCH   9  13
BRANCH  10  15
HETATM   15  O11 UNL     1       1.723  -3.340   0.996  1.00  0.00    -0.390 OA
ATOM     16  H11 UNL     1       1.556  -4.039   0.374  1.00  0.00     0.210 HD
ENDBRANCH  10  15
BRANCH  11  17
HETATM   17  O12 UNL     1       2.975  -3.031  -1.230  1.00  0.00    -0.390 OA
ATOM     18  H12 UNL     1       3.361  -2.682  -2.025  1.00  0.00     0.210 HD
ENDBRANCH  11  17
BRANCH  12  19
HETATM   19  O13 UNL     1       4.984  -0.568  -0.120  1.00  0.00    -0.347 OA
BRANCH  19  20
HETATM   20  C19 UNL     1       5.181   0.313  -1.120  1.00  0.00     0.298 C 
HETATM   21  O14 UNL     1       6.217  -0.212  -1.973  1.00  0.00    -0.329 OA
HETATM   22  C20 UNL     1       6.706   0.906  -2.678  1.00  0.00     0.146 C 
HETATM   23  C21 UNL     1       6.507   2.003  -1.974  1.00  0.00    -0.002 C 
HETATM   24  C23 UNL     1       5.845   1.606  -0.709  1.00  0.00     0.206 C 
BRANCH  23  25
HETATM   25  C22 UNL     1       6.889   3.381  -2.392  1.00  0.00     0.203 C 
BRANCH  25  26
HETATM   26  O15 UNL     1       7.788   3.919  -1.459  1.00  0.00    -0.397 OA
ATOM     27  H15 UNL     1       8.032   4.798  -1.726  1.00  0.00     0.209 HD
ENDBRANCH  25  26
ENDBRANCH  23  25
BRANCH  24  28
HETATM   28  O16 UNL     1       6.762   1.419   0.322  1.00  0.00    -0.386 OA
ATOM     29  H16 UNL     1       7.180   2.232   0.580  1.00  0.00     0.210 HD
ENDBRANCH  24  28
ENDBRANCH  19  20
ENDBRANCH  12  19
ENDBRANCH   7   8
ENDBRANCH   5   7
BRANCH   6  30
HETATM   30  O17 UNL     1      -0.504   1.348   2.895  1.00  0.00    -0.390 OA
ATOM     31  H17 UNL     1       0.168   1.728   3.448  1.00  0.00     0.210 HD
ENDBRANCH   6  30
BRANCH   1  32
HETATM   32  O1  UNL     1      -1.931  -1.194   2.376  1.00  0.00    -0.383 OA
HETATM   33  C1  UNL     1      -1.794  -2.554   2.114  1.00  0.00     0.202 C 
ENDBRANCH   1  32
BRANCH   2  34
HETATM   34  O2  UNL     1      -2.429   0.337  -0.355  1.00  0.00    -0.323 OA
BRANCH  34  35
HETATM   35  C4  UNL     1      -3.710   0.815  -0.304  1.00  0.00     0.328 C 
HETATM   36  O3  UNL     1      -3.947   1.812  -1.261  1.00  0.00    -0.348 OA
HETATM   37  C5  UNL     1      -5.107   2.486  -0.998  1.00  0.00     0.152 C 
HETATM   38  C6  UNL     1      -5.898   2.593  -2.291  1.00  0.00     0.042 C 
HETATM   39  C7  UNL     1      -5.939   1.935   0.107  1.00  0.00     0.181 C 
HETATM   40  C8  UNL     1      -6.072   0.424   0.068  1.00  0.00     0.216 C 
HETATM   41  C9  UNL     1      -4.800  -0.200  -0.501  1.00  0.00     0.244 A 
HETATM   42  O6  UNL     1      -5.024  -0.353  -1.860  1.00  0.00    -0.347 OA
HETATM   43  O7  UNL     1      -4.520  -1.414   0.039  1.00  0.00    -0.347 OA
HETATM   44  C10 UNL     1      -4.836  -1.663  -2.202  1.00  0.00     0.198 A 
HETATM   45  C11 UNL     1      -4.580  -2.386  -0.922  1.00  0.00     0.198 A 
BRANCH  39  46
HETATM   46  O4  UNL     1      -7.249   2.439  -0.063  1.00  0.00    -0.390 OA
ATOM     47  H4  UNL     1      -7.780   2.087   0.642  1.00  0.00     0.210 HD
ENDBRANCH  39  46
BRANCH  40  48
HETATM   48  O5  UNL     1      -6.258  -0.054   1.372  1.00  0.00    -0.387 OA
ATOM     49  H5  UNL     1      -6.341  -1.000   1.348  1.00  0.00     0.210 HD
ENDBRANCH  40  48
ENDBRANCH  34  35
ENDBRANCH   2  34
TORSDOF 16
