REMARK  16 active torsions:
REMARK  status: ('A' for Active; 'I' for Inactive)
REMARK    1  A    between atoms: O1_2  and  C2_3 
REMARK    2  A    between atoms: C5_8  and  O4_9 
REMARK    3  A    between atoms: O4_9  and  C6_10 
REMARK    4  A    between atoms: C7_11  and  N1_12 
REMARK    5  A    between atoms: C9_17  and  N2_18 
REMARK    6  A    between atoms: C10_22  and  O5_23 
REMARK    7  A    between atoms: O5_23  and  C11_24 
REMARK    8  A    between atoms: C12_26  and  O7_27 
REMARK    9  A    between atoms: O7_27  and  C13_28 
REMARK   10  A    between atoms: C16_32  and  N3_33 
REMARK   11  A    between atoms: C17_37  and  O9_38 
REMARK   12  A    between atoms: C18_40  and  O10_41 
REMARK   13  A    between atoms: C19_43  and  N4_44 
REMARK   14  A    between atoms: C21_49  and  N5_50 
REMARK   15  A    between atoms: C22_54  and  O11_55 
REMARK   16  A    between atoms: C23_57  and  O12_58 
ROOT
HETATM    1  C11 UNL     1      -1.432   0.551  -2.149  1.00  0.00     0.294 C 
HETATM    2  O6  UNL     1      -2.293   0.642  -1.051  1.00  0.00    -0.327 OA
HETATM    3  C12 UNL     1      -3.594   0.274  -1.303  1.00  0.00     0.296 C 
HETATM    4  C19 UNL     1      -3.942   0.211  -2.758  1.00  0.00     0.240 C 
HETATM    5  C20 UNL     1      -3.410   1.504  -3.374  1.00  0.00     0.075 C 
HETATM    6  C21 UNL     1      -1.920   1.586  -3.171  1.00  0.00     0.240 C 
ENDROOT
BRANCH   1   7
HETATM    7  O5  UNL     1      -0.201   0.814  -1.687  1.00  0.00    -0.349 OA
BRANCH   7   8
HETATM    8  C10 UNL     1       0.825  -0.019  -1.743  1.00  0.00     0.186 C 
HETATM    9  C9  UNL     1       2.076   0.385  -2.449  1.00  0.00     0.217 C 
HETATM   10  C8  UNL     1       2.675   1.659  -1.918  1.00  0.00     0.071 C 
HETATM   11  C7  UNL     1       2.349   1.753  -0.445  1.00  0.00     0.217 C 
HETATM   12  C6  UNL     1       2.299   0.439   0.254  1.00  0.00     0.186 C 
HETATM   13  C22 UNL     1       1.224  -0.426  -0.336  1.00  0.00     0.180 C 
BRANCH   9  14
HETATM   14  N2  UNL     1       1.969   0.364  -3.889  1.00  0.00    -0.072 N 
ATOM     15  H23 UNL     1       1.452   1.176  -4.226  1.00  0.00     0.274 HD
ATOM     16  H22 UNL     1       2.874   0.548  -4.323  1.00  0.00     0.274 HD
ATOM     17  H21 UNL     1       1.563  -0.500  -4.249  1.00  0.00     0.274 HD
ENDBRANCH   9  14
BRANCH  11  18
HETATM   18  N1  UNL     1       3.250   2.722   0.136  1.00  0.00    -0.072 N 
ATOM     19  H13 UNL     1       3.032   2.857   1.123  1.00  0.00     0.274 HD
ATOM     20  H12 UNL     1       4.188   2.328   0.212  1.00  0.00     0.274 HD
ATOM     21  H11 UNL     1       3.284   3.622  -0.343  1.00  0.00     0.274 HD
ENDBRANCH  11  18
BRANCH  12  22
HETATM   22  O4  UNL     1       3.539  -0.124   0.299  1.00  0.00    -0.348 OA
BRANCH  22  23
HETATM   23  C5  UNL     1       4.107  -0.346   1.514  1.00  0.00     0.297 C 
HETATM   24  O3  UNL     1       4.093  -1.767   1.641  1.00  0.00    -0.329 OA
HETATM   25  C3  UNL     1       5.062  -2.385   0.920  1.00  0.00     0.262 C 
HETATM   26  O2  UNL     1       5.930  -1.682   0.194  1.00  0.00    -0.329 OA
HETATM   27  C4  UNL     1       5.843  -3.277   1.870  1.00  0.00     0.071 C 
HETATM   28  C2  UNL     1       6.309  -0.440   0.534  1.00  0.00     0.295 C 
HETATM   29  C23 UNL     1       5.522   0.025   1.736  1.00  0.00     0.231 C 
BRANCH  28  30
HETATM   30  O1  UNL     1       7.656  -0.299   0.856  1.00  0.00    -0.363 OA
HETATM   31  C1  UNL     1       8.296   0.614   0.021  1.00  0.00     0.204 C 
ENDBRANCH  28  30
BRANCH  29  32
HETATM   32  O12 UNL     1       5.790   1.306   2.111  1.00  0.00    -0.381 OA
HETATM   33  C24 UNL     1       6.422   1.388   3.349  1.00  0.00     0.202 C 
ENDBRANCH  29  32
ENDBRANCH  22  23
ENDBRANCH  12  22
BRANCH  13  34
HETATM   34  O11 UNL     1       1.529  -1.765  -0.329  1.00  0.00    -0.390 OA
ATOM     35  H11 UNL     1       0.848  -2.313  -0.703  1.00  0.00     0.210 HD
ENDBRANCH  13  34
ENDBRANCH   7   8
ENDBRANCH   1   7
BRANCH   6  36
HETATM   36  N5  UNL     1      -1.485   2.915  -2.803  1.00  0.00    -0.070 N 
ATOM     37  H53 UNL     1      -1.772   3.157  -1.854  1.00  0.00     0.274 HD
ATOM     38  H52 UNL     1      -0.474   2.959  -2.674  1.00  0.00     0.274 HD
ATOM     39  H51 UNL     1      -1.809   3.603  -3.482  1.00  0.00     0.274 HD
ENDBRANCH   6  36
BRANCH   3  40
HETATM   40  O7  UNL     1      -3.868  -0.918  -0.610  1.00  0.00    -0.327 OA
BRANCH  40  41
HETATM   41  C13 UNL     1      -4.820  -0.771   0.367  1.00  0.00     0.294 C 
HETATM   42  O8  UNL     1      -4.288  -0.995   1.657  1.00  0.00    -0.351 OA
HETATM   43  C14 UNL     1      -5.125  -0.513   2.632  1.00  0.00     0.153 C 
HETATM   44  C15 UNL     1      -5.204  -1.446   3.825  1.00  0.00     0.042 C 
HETATM   45  C16 UNL     1      -6.506  -0.185   2.179  1.00  0.00     0.243 C 
HETATM   46  C17 UNL     1      -7.073  -1.147   1.174  1.00  0.00     0.184 C 
HETATM   47  C18 UNL     1      -5.997  -1.677   0.234  1.00  0.00     0.204 C 
BRANCH  45  48
HETATM   48  N3  UNL     1      -7.376  -0.214   3.364  1.00  0.00    -0.070 N 
ATOM     49  H33 UNL     1      -7.323  -1.095   3.875  1.00  0.00     0.274 HD
ATOM     50  H32 UNL     1      -7.048   0.394   4.114  1.00  0.00     0.274 HD
ATOM     51  H31 UNL     1      -8.321   0.011   3.054  1.00  0.00     0.274 HD
ENDBRANCH  45  48
BRANCH  46  52
HETATM   52  O9  UNL     1      -8.021  -0.443   0.422  1.00  0.00    -0.391 OA
ATOM     53  H9  UNL     1      -8.380  -1.051  -0.214  1.00  0.00     0.210 HD
ENDBRANCH  46  52
BRANCH  47  54
HETATM   54  O10 UNL     1      -5.621  -2.928   0.762  1.00  0.00    -0.388 OA
ATOM     55  H10 UNL     1      -6.371  -3.505   0.677  1.00  0.00     0.210 HD
ENDBRANCH  47  54
ENDBRANCH  40  41
ENDBRANCH   3  40
BRANCH   4  56
HETATM   56  N4  UNL     1      -5.380   0.134  -2.937  1.00  0.00    -0.070 N 
ATOM     57  H43 UNL     1      -5.785  -0.644  -2.417  1.00  0.00     0.274 HD
ATOM     58  H42 UNL     1      -5.862   0.900  -2.466  1.00  0.00     0.274 HD
ATOM     59  H41 UNL     1      -5.617   0.091  -3.928  1.00  0.00     0.274 HD
ENDBRANCH   4  56
TORSDOF 16
