REMARK  18 active torsions:
REMARK  status: ('A' for Active; 'I' for Inactive)
REMARK    1  A    between atoms: O1_2  and  C2_3 
REMARK    2  A    between atoms: C2_3  and  O2_4 
REMARK    3  A    between atoms: O2_4  and  C3_5 
REMARK    4  A    between atoms: C4_6  and  O3_7 
REMARK    5  A    between atoms: C5_9  and  O4_10 
REMARK    6  A    between atoms: C6_12  and  O5_13 
REMARK    7  A    between atoms: O5_13  and  C7_14 
REMARK    8  A    between atoms: C9_17  and  O7_18 
REMARK    9  A    between atoms: C10_20  and  O8_21 
REMARK   10  A    between atoms: C12_23  and  O9_24 
REMARK   11  A    between atoms: O9_24  and  C13_25 
REMARK   12  A    between atoms: C13_25  and  C14_27 
REMARK   13  A    between atoms: C18_31  and  O11_32 
REMARK   14  A    between atoms: O11_32  and  C19_33 
REMARK   15  A    between atoms: C21_36  and  O13_37 
REMARK   16  A    between atoms: C22_39  and  O14_40 
REMARK   17  A    between atoms: C23_42  and  O15_43 
REMARK   18  A    between atoms: C24_45  and  O16_46 
ROOT
HETATM    1  C3  UNL     1       1.912   2.031   2.277  1.00  0.00     0.186 C 
HETATM    2  C4  UNL     1       0.508   2.203   1.908  1.00  0.00     0.181 C 
HETATM    3  C5  UNL     1      -0.173   0.832   1.757  1.00  0.00     0.181 C 
HETATM    4  C6  UNL     1       0.492   0.277   0.493  1.00  0.00     0.187 C 
HETATM    5  C18 UNL     1       1.870  -0.118   0.897  1.00  0.00     0.187 C 
HETATM    6  C24 UNL     1       2.543   0.721   1.902  1.00  0.00     0.181 C 
ENDROOT
BRANCH   4   7
HETATM    7  O5  UNL     1      -0.255  -0.758   0.001  1.00  0.00    -0.348 OA
BRANCH   7   8
HETATM    8  C7  UNL     1      -0.661  -0.431  -1.288  1.00  0.00     0.292 C 
HETATM    9  O6  UNL     1       0.023  -1.359  -2.117  1.00  0.00    -0.356 OA
HETATM   10  C8  UNL     1      -0.041  -1.003  -3.447  1.00  0.00     0.205 C 
HETATM   11  C9  UNL     1      -1.495  -1.218  -3.879  1.00  0.00     0.173 C 
HETATM   12  C10 UNL     1      -2.327  -0.277  -3.044  1.00  0.00     0.185 C 
HETATM   13  C12 UNL     1      -2.104  -0.604  -1.573  1.00  0.00     0.218 C 
BRANCH  11  14
HETATM   14  O7  UNL     1      -1.575  -0.942  -5.225  1.00  0.00    -0.391 OA
ATOM     15  H7  UNL     1      -2.477  -1.075  -5.493  1.00  0.00     0.210 HD
ENDBRANCH  11  14
BRANCH  12  16
HETATM   16  O8  UNL     1      -1.976   1.020  -3.362  1.00  0.00    -0.385 OA
HETATM   17  C11 UNL     1      -3.049   1.761  -3.859  1.00  0.00     0.202 C 
ENDBRANCH  12  16
BRANCH  13  18
HETATM   18  O9  UNL     1      -2.995   0.177  -0.842  1.00  0.00    -0.308 OA
BRANCH  18  19
HETATM   19  C13 UNL     1      -4.034  -0.426  -0.164  1.00  0.00     0.267 C 
HETATM   20  O10 UNL     1      -4.129  -1.687  -0.233  1.00  0.00    -0.264 OA
BRANCH  19  21
HETATM   21  C14 UNL     1      -5.053   0.285   0.639  1.00  0.00     0.037 C 
HETATM   22  C15 UNL     1      -5.822   1.291  -0.219  1.00  0.00     0.025 C 
HETATM   23  C16 UNL     1      -4.361   1.049   1.730  1.00  0.00     0.025 C 
HETATM   24  C17 UNL     1      -6.090  -0.661   1.194  1.00  0.00     0.025 C 
ENDBRANCH  19  21
ENDBRANCH  18  19
ENDBRANCH  13  18
ENDBRANCH   7   8
ENDBRANCH   4   7
BRANCH   3  25
HETATM   25  O4  UNL     1       0.191   0.090   2.875  1.00  0.00    -0.390 OA
ATOM     26  H4  UNL     1      -0.230  -0.757   2.782  1.00  0.00     0.210 HD
ENDBRANCH   3  25
BRANCH   5  27
HETATM   27  O11 UNL     1       1.821  -1.454   1.322  1.00  0.00    -0.348 OA
BRANCH  27  28
HETATM   28  C19 UNL     1       2.514  -2.328   0.514  1.00  0.00     0.291 C 
HETATM   29  O12 UNL     1       1.784  -3.356  -0.015  1.00  0.00    -0.356 OA
HETATM   30  C20 UNL     1       2.436  -3.911  -1.073  1.00  0.00     0.205 C 
HETATM   31  C21 UNL     1       3.911  -3.850  -1.083  1.00  0.00     0.173 C 
HETATM   32  C22 UNL     1       4.587  -3.523   0.186  1.00  0.00     0.182 C 
HETATM   33  C23 UNL     1       3.673  -2.992   1.266  1.00  0.00     0.204 C 
BRANCH  31  34
HETATM   34  O13 UNL     1       4.292  -2.885  -2.045  1.00  0.00    -0.391 OA
ATOM     35  H13 UNL     1       5.241  -2.846  -2.051  1.00  0.00     0.210 HD
ENDBRANCH  31  34
BRANCH  32  36
HETATM   36  O14 UNL     1       5.277  -4.656   0.683  1.00  0.00    -0.390 OA
ATOM     37  H14 UNL     1       5.713  -4.445   1.501  1.00  0.00     0.210 HD
ENDBRANCH  32  36
BRANCH  33  38
HETATM   38  O15 UNL     1       3.153  -4.081   1.939  1.00  0.00    -0.388 OA
ATOM     39  H15 UNL     1       3.871  -4.493   2.405  1.00  0.00     0.210 HD
ENDBRANCH  33  38
ENDBRANCH  27  28
ENDBRANCH   5  27
BRANCH   2  40
HETATM   40  O3  UNL     1       0.310   2.909   0.719  1.00  0.00    -0.390 OA
ATOM     41  H3  UNL     1      -0.602   3.021   0.479  1.00  0.00     0.210 HD
ENDBRANCH   2  40
BRANCH   6  42
HETATM   42  O16 UNL     1       3.885   0.919   1.500  1.00  0.00    -0.390 OA
ATOM     43  H16 UNL     1       4.284   0.090   1.263  1.00  0.00     0.210 HD
ENDBRANCH   6  42
BRANCH   1  44
HETATM   44  O2  UNL     1       2.699   3.024   1.699  1.00  0.00    -0.356 OA
BRANCH  44  45
HETATM   45  C2  UNL     1       3.421   3.784   2.570  1.00  0.00     0.337 C 
BRANCH  45  46
HETATM   46  O1  UNL     1       2.761   4.522   3.504  1.00  0.00    -0.372 OA
HETATM   47  C1  UNL     1       1.920   5.486   3.029  1.00  0.00     0.204 C 
ENDBRANCH  45  46
ENDBRANCH  44  45
ENDBRANCH   1  44
TORSDOF 18
