REMARK  16 active torsions:
REMARK  status: ('A' for Active; 'I' for Inactive)
REMARK    1  A    between atoms: C3_4  and  O2_5 
REMARK    2  A    between atoms: O2_5  and  C4_6 
REMARK    3  A    between atoms: C6_8  and  C7_9 
REMARK    4  A    between atoms: C7_9  and  O3_10 
REMARK    5  A    between atoms: O3_10  and  C8_11 
REMARK    6  A    between atoms: C9_13  and  C10_14 
REMARK    7  A    between atoms: C10_14  and  O5_15 
REMARK    8  A    between atoms: O5_15  and  C11_16 
REMARK    9  A    between atoms: C12_17  and  O6_18 
REMARK   10  A    between atoms: C16_26  and  O10_27 
REMARK   11  A    between atoms: C17_29  and  O11_30 
REMARK   12  A    between atoms: C18_32  and  O12_33 
REMARK   13  A    between atoms: C19_35  and  O13_36 
REMARK   14  A    between atoms: C21_40  and  O15_41 
REMARK   15  A    between atoms: C22_43  and  O16_44 
REMARK   16  A    between atoms: C23_46  and  O17_47 
ROOT
HETATM    1  C8  UNL     1       1.295  -1.204  -0.178  1.00  0.00     0.291 C 
HETATM    2  O4  UNL     1       2.586  -0.801  -0.025  1.00  0.00    -0.348 OA
HETATM    3  C9  UNL     1       3.345  -0.750  -1.175  1.00  0.00     0.179 C 
HETATM    4  C17 UNL     1       2.575  -0.991  -2.451  1.00  0.00     0.180 C 
HETATM    5  C18 UNL     1       1.708  -2.211  -2.384  1.00  0.00     0.183 C 
HETATM    6  C19 UNL     1       1.221  -2.473  -0.975  1.00  0.00     0.204 C 
ENDROOT
BRANCH   1   7
HETATM    7  O3  UNL     1       0.501  -0.215  -0.758  1.00  0.00    -0.358 OA
BRANCH   7   8
HETATM    8  C7  UNL     1      -0.567   0.139   0.056  1.00  0.00     0.178 C 
BRANCH   8   9
HETATM    9  C6  UNL     1      -1.367   1.207  -0.620  1.00  0.00     0.038 C 
HETATM   10  C5  UNL     1      -2.555   1.657   0.189  1.00  0.00     0.069 C 
HETATM   11  C4  UNL     1      -3.659   0.832  -0.428  1.00  0.00     0.263 C 
HETATM   12  O14 UNL     1      -3.315   0.561  -1.721  1.00  0.00    -0.361 OA
HETATM   13  C20 UNL     1      -1.976   0.786  -1.907  1.00  0.00     0.178 C 
BRANCH  11  14
HETATM   14  O2  UNL     1      -4.913   1.389  -0.277  1.00  0.00    -0.329 OA
BRANCH  14  15
HETATM   15  C3  UNL     1      -5.774   0.611   0.475  1.00  0.00     0.294 C 
HETATM   16  O1  UNL     1      -6.814   0.177  -0.364  1.00  0.00    -0.351 OA
HETATM   17  C2  UNL     1      -7.489  -0.821   0.356  1.00  0.00     0.152 C 
HETATM   18  C1  UNL     1      -8.438  -1.538  -0.576  1.00  0.00     0.042 C 
HETATM   19  C23 UNL     1      -8.287  -0.139   1.424  1.00  0.00     0.178 C 
HETATM   20  C22 UNL     1      -7.445   0.704   2.343  1.00  0.00     0.183 C 
HETATM   21  C21 UNL     1      -6.301   1.371   1.664  1.00  0.00     0.204 C 
BRANCH  19  22
HETATM   22  O17 UNL     1      -9.205   0.707   0.797  1.00  0.00    -0.390 OA
ATOM     23  H17 UNL     1      -9.711   1.140   1.475  1.00  0.00     0.210 HD
ENDBRANCH  19  22
BRANCH  20  24
HETATM   24  O16 UNL     1      -6.914  -0.166   3.310  1.00  0.00    -0.390 OA
ATOM     25  H16 UNL     1      -7.644  -0.592   3.743  1.00  0.00     0.210 HD
ENDBRANCH  20  24
BRANCH  21  26
HETATM   26  O15 UNL     1      -6.740   2.619   1.212  1.00  0.00    -0.388 OA
ATOM     27  H15 UNL     1      -7.072   3.098   1.962  1.00  0.00     0.210 HD
ENDBRANCH  21  26
ENDBRANCH  14  15
ENDBRANCH  11  14
ENDBRANCH   8   9
ENDBRANCH   7   8
ENDBRANCH   1   7
BRANCH   6  28
HETATM   28  O13 UNL     1      -0.104  -2.924  -1.093  1.00  0.00    -0.388 OA
ATOM     29  H13 UNL     1      -0.151  -3.728  -1.598  1.00  0.00     0.210 HD
ENDBRANCH   6  28
BRANCH   3  30
HETATM   30  C10 UNL     1       4.512  -1.743  -1.104  1.00  0.00     0.203 C 
BRANCH  30  31
HETATM   31  O5  UNL     1       5.294  -1.434  -0.040  1.00  0.00    -0.376 OA
BRANCH  31  32
HETATM   32  C11 UNL     1       5.916  -0.225  -0.009  1.00  0.00     0.208 C 
HETATM   33  C12 UNL     1       7.429  -0.328  -0.017  1.00  0.00     0.291 C 
HETATM   34  O7  UNL     1       7.873   0.934  -0.414  1.00  0.00    -0.326 OA
HETATM   35  C13 UNL     1       7.680   1.881   0.587  1.00  0.00     0.297 C 
HETATM   36  O8  UNL     1       8.772   2.077   1.372  1.00  0.00    -0.334 OA
HETATM   37  C15 UNL     1       6.533   1.661   1.482  1.00  0.00     0.210 C 
HETATM   38  C14 UNL     1       8.395   1.809   2.663  1.00  0.00     0.342 C 
HETATM   39  O9  UNL     1       7.170   1.188   2.665  1.00  0.00    -0.354 OA
HETATM   40  C16 UNL     1       5.515   0.655   1.124  1.00  0.00     0.185 C 
BRANCH  33  41
HETATM   41  O6  UNL     1       7.798  -1.253  -0.968  1.00  0.00    -0.368 OA
ATOM     42  H6  UNL     1       8.746  -1.318  -0.973  1.00  0.00     0.212 HD
ENDBRANCH  33  41
BRANCH  40  43
HETATM   43  O10 UNL     1       5.083  -0.097   2.235  1.00  0.00    -0.390 OA
ATOM     44  H10 UNL     1       4.827   0.464   2.958  1.00  0.00     0.210 HD
ENDBRANCH  40  43
ENDBRANCH  31  32
ENDBRANCH  30  31
ENDBRANCH   3  30
BRANCH   5  45
HETATM   45  O12 UNL     1       0.698  -2.174  -3.313  1.00  0.00    -0.390 OA
ATOM     46  H12 UNL     1       0.148  -2.948  -3.271  1.00  0.00     0.210 HD
ENDBRANCH   5  45
BRANCH   4  47
HETATM   47  O11 UNL     1       3.455  -1.163  -3.532  1.00  0.00    -0.390 OA
ATOM     48  H11 UNL     1       2.970  -1.315  -4.335  1.00  0.00     0.210 HD
ENDBRANCH   4  47
TORSDOF 16
