REMARK  16 active torsions:
REMARK  status: ('A' for Active; 'I' for Inactive)
REMARK    1  A    between atoms: O1_2  and  C2_3 
REMARK    2  A    between atoms: C3_4  and  O2_5 
REMARK    3  A    between atoms: O2_5  and  C4_6 
REMARK    4  A    between atoms: C6_9  and  O4_10 
REMARK    5  A    between atoms: O4_10  and  C7_11 
REMARK    6  A    between atoms: C7_11  and  C8_12 
REMARK    7  A    between atoms: C9_14  and  O6_15 
REMARK    8  A    between atoms: O6_15  and  C10_16 
REMARK    9  A    between atoms: C15_23  and  O9_24 
REMARK   10  A    between atoms: C16_26  and  O10_27 
REMARK   11  A    between atoms: C17_29  and  O11_30 
REMARK   12  A    between atoms: C18_32  and  O12_33 
REMARK   13  A    between atoms: C19_35  and  O13_36 
REMARK   14  A    between atoms: C20_38  and  O14_39 
REMARK   15  A    between atoms: C23_44  and  O16_45 
REMARK   16  A    between atoms: C24_47  and  O17_48 
ROOT
HETATM    1  O4  UNL     1       0.598   0.104   2.168  1.00  0.00    -0.378 OA
ENDROOT
BRANCH   1   2
HETATM    2  C6  UNL     1       0.239   1.165   1.420  1.00  0.00     0.176 C 
HETATM    3  C5  UNL     1       0.374   0.953  -0.071  1.00  0.00     0.205 C 
HETATM    4  O3  UNL     1       1.254   1.901  -0.573  1.00  0.00    -0.356 OA
HETATM    5  C4  UNL     1       2.522   1.823  -0.008  1.00  0.00     0.294 C 
HETATM    6  C20 UNL     1       2.461   2.309   1.446  1.00  0.00     0.204 C 
HETATM    7  C19 UNL     1       0.988   2.443   1.769  1.00  0.00     0.182 C 
BRANCH   5   8
HETATM    8  O2  UNL     1       2.949   0.502  -0.074  1.00  0.00    -0.326 OA
BRANCH   8   9
HETATM    9  C3  UNL     1       4.127   0.462  -0.811  1.00  0.00     0.295 C 
HETATM   10  C2  UNL     1       5.221  -0.267  -0.082  1.00  0.00     0.207 C 
HETATM   11  C24 UNL     1       5.939  -1.280  -0.913  1.00  0.00     0.183 C 
HETATM   12  C23 UNL     1       6.007  -0.947  -2.372  1.00  0.00     0.178 C 
HETATM   13  C21 UNL     1       4.894  -0.065  -2.845  1.00  0.00     0.152 C 
HETATM   14  O15 UNL     1       3.811  -0.257  -1.989  1.00  0.00    -0.351 OA
HETATM   15  C22 UNL     1       4.486  -0.391  -4.276  1.00  0.00     0.042 C 
BRANCH  10  16
HETATM   16  O1  UNL     1       6.157   0.570   0.493  1.00  0.00    -0.383 OA
HETATM   17  C1  UNL     1       6.217   0.497   1.864  1.00  0.00     0.202 C 
ENDBRANCH  10  16
BRANCH  11  18
HETATM   18  O17 UNL     1       7.275  -1.387  -0.461  1.00  0.00    -0.390 OA
ATOM     19  H17 UNL     1       7.732  -2.031  -0.989  1.00  0.00     0.210 HD
ENDBRANCH  11  18
BRANCH  12  20
HETATM   20  O16 UNL     1       5.913  -2.154  -3.092  1.00  0.00    -0.390 OA
ATOM     21  H16 UNL     1       6.619  -2.714  -2.792  1.00  0.00     0.210 HD
ENDBRANCH  12  20
ENDBRANCH   8   9
ENDBRANCH   5   8
BRANCH   6  22
HETATM   22  O14 UNL     1       3.066   3.546   1.586  1.00  0.00    -0.388 OA
ATOM     23  H14 UNL     1       3.028   3.847   2.486  1.00  0.00     0.210 HD
ENDBRANCH   6  22
BRANCH   7  24
HETATM   24  O13 UNL     1       0.755   2.859   3.063  1.00  0.00    -0.390 OA
ATOM     25  H13 UNL     1       1.223   3.657   3.281  1.00  0.00     0.210 HD
ENDBRANCH   7  24
ENDBRANCH   1   2
BRANCH   1  26
HETATM   26  C7  UNL     1      -0.277  -0.551   2.946  1.00  0.00     0.203 C 
BRANCH  26  27
HETATM   27  C8  UNL     1      -1.367  -1.246   2.185  1.00  0.00     0.179 C 
HETATM   28  O5  UNL     1      -2.181  -0.478   1.417  1.00  0.00    -0.348 OA
HETATM   29  C9  UNL     1      -3.430  -1.088   1.266  1.00  0.00     0.292 C 
HETATM   30  C16 UNL     1      -3.323  -2.564   1.051  1.00  0.00     0.204 C 
HETATM   31  C17 UNL     1      -1.964  -2.836   0.441  1.00  0.00     0.183 C 
HETATM   32  C18 UNL     1      -0.836  -2.390   1.344  1.00  0.00     0.180 C 
BRANCH  29  33
HETATM   33  O6  UNL     1      -3.991  -0.531   0.117  1.00  0.00    -0.349 OA
BRANCH  33  34
HETATM   34  C10 UNL     1      -5.158   0.151   0.361  1.00  0.00     0.177 C 
HETATM   35  C11 UNL     1      -4.902   1.611  -0.039  1.00  0.00     0.206 C 
HETATM   36  O7  UNL     1      -6.052   2.372   0.029  1.00  0.00    -0.350 OA
HETATM   37  C12 UNL     1      -6.995   1.966  -0.884  1.00  0.00     0.188 A 
HETATM   38  C13 UNL     1      -7.100   2.417  -2.240  1.00  0.00     0.240 A 
HETATM   39  O8  UNL     1      -8.000   2.867  -1.267  1.00  0.00    -0.348 OA
HETATM   40  C14 UNL     1      -7.459   0.577  -0.541  1.00  0.00     0.105 C 
HETATM   41  C15 UNL     1      -6.289  -0.385  -0.486  1.00  0.00     0.154 C 
BRANCH  41  42
HETATM   42  O9  UNL     1      -5.871  -0.600  -1.788  1.00  0.00    -0.393 OA
ATOM     43  H9  UNL     1      -6.582  -0.937  -2.320  1.00  0.00     0.210 HD
ENDBRANCH  41  42
ENDBRANCH  33  34
ENDBRANCH  29  33
BRANCH  30  44
HETATM   44  O10 UNL     1      -4.289  -2.941   0.122  1.00  0.00    -0.388 OA
ATOM     45  H10 UNL     1      -4.221  -3.879  -0.015  1.00  0.00     0.210 HD
ENDBRANCH  30  44
BRANCH  31  46
HETATM   46  O11 UNL     1      -1.881  -2.038  -0.714  1.00  0.00    -0.390 OA
ATOM     47  H11 UNL     1      -1.028  -2.209  -1.097  1.00  0.00     0.210 HD
ENDBRANCH  31  46
BRANCH  32  48
HETATM   48  O12 UNL     1      -0.520  -3.481   2.157  1.00  0.00    -0.390 OA
ATOM     49  H12 UNL     1      -0.187  -4.198   1.630  1.00  0.00     0.210 HD
ENDBRANCH  32  48
ENDBRANCH  26  27
ENDBRANCH   1  26
TORSDOF 16
