REMARK  5 active torsions:
REMARK  status: ('A' for Active; 'I' for Inactive)
REMARK    1  A    between atoms: N1_2  and  C2_4 
REMARK    2  A    between atoms: N2_7  and  C5_8 
REMARK    3  A    between atoms: C5_8  and  C6_9 
REMARK    4  A    between atoms: C6_9  and  C7_10 
REMARK    5  A    between atoms: C13_16  and  N3_17 
ROOT
HETATM    1  C7  UNL     1      -1.573   0.069   0.699  1.00  0.00     0.051 C 
HETATM    2  C8  UNL     1      -2.256   1.427   0.674  1.00  0.00    -0.023 C 
HETATM    3  C9  UNL     1      -3.675   1.589   0.740  1.00  0.00    -0.029 C 
HETATM    4  C10 UNL     1      -4.591   1.623  -0.471  1.00  0.00     0.038 C 
HETATM    5  C11 UNL     1      -4.465   0.321  -1.338  1.00  0.00     0.086 C 
HETATM    6  C12 UNL     1      -3.267  -0.292  -0.927  1.00  0.00    -0.150 C 
HETATM    7  C13 UNL     1      -2.068  -0.856  -0.460  1.00  0.00     0.257 C 
ENDROOT
BRANCH   1   8
HETATM    8  C6  UNL     1      -0.105   0.228   0.682  1.00  0.00     0.041 C 
BRANCH   8   9
HETATM    9  C5  UNL     1       0.694  -1.018   0.704  1.00  0.00     0.273 C 
BRANCH   9  10
HETATM   10  N2  UNL     1       2.109  -0.696   0.683  1.00  0.00     0.090 N 
HETATM   11  C4  UNL     1       2.918  -1.872   0.708  1.00  0.00     0.274 C 
HETATM   12  C3  UNL     1       3.885  -1.831  -0.427  1.00  0.00     0.056 C 
HETATM   13  C2  UNL     1       3.864  -0.363  -0.871  1.00  0.00     0.106 C 
HETATM   14  C14 UNL     1       2.491   0.110  -0.445  1.00  0.00     0.296 C 
BRANCH  13  15
HETATM   15  N1  UNL     1       4.934   0.296  -0.192  1.00  0.00    -0.419 N 
HETATM   16  C1  UNL     1       5.067   1.687  -0.481  1.00  0.00     0.140 C 
ATOM     17  H1  UNL     1       5.557  -0.192   0.452  1.00  0.00     0.153 HD
ENDBRANCH  13  15
ENDBRANCH   9  10
ENDBRANCH   8   9
ENDBRANCH   1   8
BRANCH   7  18
HETATM   18  N3  UNL     1      -2.208  -2.218   0.058  1.00  0.00    -0.065 N 
ATOM     19  H33 UNL     1      -1.352  -2.561   0.493  1.00  0.00     0.275 HD
ATOM     20  H32 UNL     1      -2.811  -2.264   0.880  1.00  0.00     0.275 HD
ATOM     21  H31 UNL     1      -2.531  -2.822  -0.698  1.00  0.00     0.275 HD
ENDBRANCH   7  18
TORSDOF 5
