REMARK  4 active torsions:
REMARK  status: ('A' for Active; 'I' for Inactive)
REMARK    1  A    between atoms: N1_1  and  C1_5 
REMARK    2  A    between atoms: C4_11  and  C5_12 
REMARK    3  A    between atoms: C5_12  and  C6_13 
REMARK    4  A    between atoms: C6_13  and  C7_14 
ROOT
HETATM    1  C1  UNL     1      -4.076  -0.569   0.914  1.00  0.00     0.485 C 
HETATM    2  N2  UNL     1      -4.805   0.439   0.180  1.00  0.00    -0.311 N 
ATOM      3  H2  UNL     1      -5.820   0.358   0.123  1.00  0.00     0.166 HD
HETATM    4  C2  UNL     1      -4.180   1.536  -0.466  1.00  0.00     0.222 C 
HETATM    5  O1  UNL     1      -4.897   2.472  -0.885  1.00  0.00    -0.273 OA
HETATM    6  C3  UNL     1      -2.703   1.484  -0.596  1.00  0.00     0.136 C 
HETATM    7  C4  UNL     1      -2.312   0.039  -0.595  1.00  0.00     0.199 C 
HETATM    8  N3  UNL     1      -2.664  -0.552   0.660  1.00  0.00    -0.024 N 
ATOM      9  H31 UNL     1      -2.273  -1.491   0.738  1.00  0.00     0.282 HD
ATOM     10  H32 UNL     1      -2.166  -0.096   1.425  1.00  0.00     0.282 HD
ENDROOT
BRANCH   7  11
HETATM   11  C5  UNL     1      -0.841  -0.182  -0.860  1.00  0.00     0.034 C 
BRANCH  11  12
HETATM   12  C6  UNL     1       0.030   0.474   0.155  1.00  0.00     0.007 C 
BRANCH  12  13
HETATM   13  C7  UNL     1       1.510   0.300  -0.059  1.00  0.00    -0.014 C 
HETATM   14  C8  UNL     1       2.173   1.071   1.101  1.00  0.00     0.004 C 
HETATM   15  C9  UNL     1       3.586   1.357   0.659  1.00  0.00     0.000 C 
HETATM   16  C10 UNL     1       4.368   0.059   0.838  1.00  0.00     0.000 C 
HETATM   17  C11 UNL     1       4.369  -0.645  -0.475  1.00  0.00     0.000 C 
HETATM   18  C12 UNL     1       3.160  -1.450  -0.770  1.00  0.00     0.000 C 
HETATM   19  C13 UNL     1       1.953  -1.112   0.067  1.00  0.00     0.004 C 
ENDBRANCH  12  13
ENDBRANCH  11  12
ENDBRANCH   7  11
BRANCH   1  20
HETATM   20  N1  UNL     1      -4.604  -1.869   0.491  1.00  0.00    -0.033 N 
ATOM     21  H13 UNL     1      -5.615  -1.946   0.600  1.00  0.00     0.278 HD
ATOM     22  H12 UNL     1      -4.572  -2.006  -0.519  1.00  0.00     0.278 HD
ATOM     23  H11 UNL     1      -4.089  -2.581   1.009  1.00  0.00     0.278 HD
ENDBRANCH   1  20
TORSDOF 4
