REMARK  10 active torsions:
REMARK  status: ('A' for Active; 'I' for Inactive)
REMARK    1  A    between atoms: C2_2  and  C3_3 
REMARK    2  A    between atoms: C3_3  and  C4_4 
REMARK    3  A    between atoms: C4_4  and  C5_5 
REMARK    4  A    between atoms: C4_4  and  N1_7 
REMARK    5  A    between atoms: N1_7  and  C7_9 
REMARK    6  A    between atoms: C8_12  and  C9_13 
REMARK    7  A    between atoms: C9_13  and  O1_15 
REMARK    8  A    between atoms: C12_20  and  N4_21 
REMARK    9  A    between atoms: N5_24  and  C15_25 
REMARK   10  A    between atoms: C18_30  and  N7_31 
ROOT
HETATM    1  C7  UNL     1      -1.677   0.462  -0.663  1.00  0.00     0.133 A 
HETATM    2  N2  UNL     1      -1.530   1.111   0.493  1.00  0.00    -0.328 N 
ATOM      3  H2  UNL     1      -2.349   1.487   0.970  1.00  0.00     0.169 HD
HETATM    4  C8  UNL     1      -0.323   1.271   1.028  1.00  0.00     0.112 A 
HETATM    5  N3  UNL     1       0.763   0.782   0.409  1.00  0.00    -0.339 N 
ATOM      6  H3  UNL     1       1.677   0.920   0.841  1.00  0.00     0.167 HD
HETATM    7  C11 UNL     1       0.693   0.120  -0.754  1.00  0.00     0.110 A 
HETATM    8  C12 UNL     1       1.802  -0.367  -1.387  1.00  0.00     0.150 A 
HETATM    9  N6  UNL     1       1.641  -1.015  -2.567  1.00  0.00    -0.175 N 
ATOM     10  H6  UNL     1       2.464  -1.381  -3.045  1.00  0.00     0.186 HD
HETATM   11  C18 UNL     1       0.431  -1.191  -3.127  1.00  0.00     0.678 A 
HETATM   12  N8  UNL     1      -0.650  -0.708  -2.498  1.00  0.00    -0.186 N 
ATOM     13  H8  UNL     1      -1.571  -0.836  -2.917  1.00  0.00     0.184 HD
HETATM   14  C19 UNL     1      -0.543  -0.049  -1.309  1.00  0.00     0.123 A 
ENDROOT
BRANCH   1  15
HETATM   15  N1  UNL     1      -2.767   0.262  -1.270  1.00  0.00    -0.370 N 
ATOM     16  H1  UNL     1      -2.704  -0.258  -2.145  1.00  0.00     0.161 HD
BRANCH  15  17
HETATM   17  C4  UNL     1      -4.048   0.666  -0.888  1.00  0.00     0.082 C 
BRANCH  17  18
HETATM   18  C3  UNL     1      -4.818  -0.120   0.100  1.00  0.00     0.024 C 
BRANCH  18  19
HETATM   19  C2  UNL     1      -4.302  -0.229   1.484  1.00  0.00    -0.002 C 
HETATM   20  C1  UNL     1      -5.357  -1.056   2.257  1.00  0.00     0.005 C 
ENDBRANCH  18  19
ENDBRANCH  17  18
BRANCH  17  21
HETATM   21  C5  UNL     1      -4.900   0.551  -2.198  1.00  0.00     0.021 C 
HETATM   22  C6  UNL     1      -4.977  -0.926  -2.539  1.00  0.00     0.007 C 
ENDBRANCH  17  21
ENDBRANCH  15  17
ENDBRANCH   1  15
BRANCH   4  23
HETATM   23  C9  UNL     1      -0.235   1.971   2.345  1.00  0.00     0.181 C 
HETATM   24  C10 UNL     1      -0.648   1.000   3.429  1.00  0.00     0.047 C 
BRANCH  23  25
HETATM   25  O1  UNL     1      -1.051   3.082   2.429  1.00  0.00    -0.388 OA
ATOM     26  H1  UNL     1      -0.995   3.527   3.266  1.00  0.00     0.210 HD
ENDBRANCH  23  25
ENDBRANCH   4  23
BRANCH   8  27
HETATM   27  N4  UNL     1       3.093  -0.195  -0.806  1.00  0.00    -0.338 N 
HETATM   28  C13 UNL     1       3.898   1.013  -0.769  1.00  0.00     0.156 C 
HETATM   29  C14 UNL     1       4.786   0.817   0.418  1.00  0.00     0.294 C 
HETATM   30  N5  UNL     1       4.887  -0.603   0.623  1.00  0.00     0.107 N 
HETATM   31  C17 UNL     1       3.868  -1.232  -0.156  1.00  0.00     0.399 C 
BRANCH  30  32
HETATM   32  C15 UNL     1       6.216  -1.061   0.270  1.00  0.00     0.270 C 
HETATM   33  C16 UNL     1       7.197  -0.513   1.265  1.00  0.00     0.037 C 
ENDBRANCH  30  32
ENDBRANCH   8  27
BRANCH  11  34
HETATM   34  N7  UNL     1       0.377  -1.827  -4.244  1.00  0.00    -0.234 N 
ATOM     35  H72 UNL     1       1.199  -2.194  -4.723  1.00  0.00     0.174 HD
ATOM     36  H71 UNL     1      -0.541  -1.960  -4.669  1.00  0.00     0.174 HD
ENDBRANCH  11  34
TORSDOF 10
