REMARK  11 active torsions:
REMARK  status: ('A' for Active; 'I' for Inactive)
REMARK    1  A    between atoms: C2_2  and  C3_3 
REMARK    2  A    between atoms: C2_2  and  C14_27 
REMARK    3  A    between atoms: C3_3  and  O1_7 
REMARK    4  A    between atoms: O1_7  and  C4_8 
REMARK    5  A    between atoms: C4_8  and  N2_9 
REMARK       I    between atoms: N2_9  and  C5_11 
REMARK       I    between atoms: C5_11  and  N3_13 
REMARK    6  A    between atoms: N3_13  and  S1_15 
REMARK    7  A    between atoms: S1_15  and  N4_18 
REMARK    8  A    between atoms: N4_18  and  C6_19 
REMARK    9  A    between atoms: N4_18  and  C10_23 
REMARK   10  A    between atoms: C14_27  and  O5_28 
REMARK   11  A    between atoms: N5_30  and  O6_32 
ROOT
HETATM    1  N2  UNL     1       1.784   0.921   0.063  1.00  0.00    -0.321 N 
ATOM      2  H2  UNL     1       2.067  -0.031   0.296  1.00  0.00     0.166 HD
HETATM    3  C5  UNL     1       0.513   1.137  -0.539  1.00  0.00     0.332 C 
HETATM    4  O2  UNL     1       0.206   2.318  -0.811  1.00  0.00    -0.246 OA
HETATM    5  N3  UNL     1      -0.389   0.099  -0.835  1.00  0.00    -0.219 N 
ATOM      6  H3  UNL     1      -0.150  -0.867  -0.613  1.00  0.00     0.185 HD
ENDROOT
BRANCH   1   7
HETATM    7  C4  UNL     1       2.688   2.015   0.355  1.00  0.00     0.304 C 
BRANCH   7   8
HETATM    8  O1  UNL     1       3.885   1.588   0.929  1.00  0.00    -0.319 OA
BRANCH   8   9
HETATM    9  C3  UNL     1       4.777   0.707   0.291  1.00  0.00     0.125 C 
HETATM   10  N1  UNL     1       4.643   0.462  -0.946  1.00  0.00    -0.383 N 
ATOM     11  H12 UNL     1       5.290  -0.177  -1.409  1.00  0.00     0.158 HD
ATOM     12  H11 UNL     1       3.896   0.895  -1.489  1.00  0.00     0.158 HD
BRANCH   9  13
HETATM   13  C2  UNL     1       5.854   0.082   1.075  1.00  0.00     0.132 C 
HETATM   14  C1  UNL     1       5.262  -0.723   2.224  1.00  0.00     0.027 C 
BRANCH  13  15
HETATM   15  C14 UNL     1       6.699  -0.816   0.267  1.00  0.00     0.147 C 
HETATM   16  N5  UNL     1       7.969  -0.575   0.043  1.00  0.00    -0.250 N 
ATOM     17  H5  UNL     1       8.535  -1.210  -0.519  1.00  0.00     0.196 HD
BRANCH  15  18
HETATM   18  O5  UNL     1       6.221  -1.986  -0.318  1.00  0.00    -0.348 OA
ATOM     19  H5  UNL     1       6.766  -2.565  -0.839  1.00  0.00     0.219 HD
ENDBRANCH  15  18
BRANCH  16  20
HETATM   20  O6  UNL     1       8.508   0.559   0.590  1.00  0.00    -0.288 OA
ATOM     21  H6  UNL     1       9.428   0.734   0.428  1.00  0.00     0.244 HD
ENDBRANCH  16  20
ENDBRANCH  13  15
ENDBRANCH   9  13
ENDBRANCH   8   9
ENDBRANCH   7   8
ENDBRANCH   1   7
BRANCH   5  22
HETATM   22  S1  UNL     1      -1.916   0.475  -1.583  1.00  0.00     0.326 S 
HETATM   23  O3  UNL     1      -1.935   1.984  -1.765  1.00  0.00    -0.182 OA
HETATM   24  O4  UNL     1      -1.822  -0.042  -3.020  1.00  0.00    -0.182 OA
BRANCH  22  25
HETATM   25  N4  UNL     1      -3.247  -0.043  -0.754  1.00  0.00    -0.280 N 
BRANCH  25  26
HETATM   26  C6  UNL     1      -3.869  -1.273  -1.029  1.00  0.00     0.098 C 
HETATM   27  C7  UNL     1      -4.276  -1.670  -2.400  1.00  0.00     0.026 C 
HETATM   28  C8  UNL     1      -3.881  -3.110  -2.009  1.00  0.00     0.004 C 
HETATM   29  C9  UNL     1      -2.925  -2.444  -1.015  1.00  0.00     0.026 C 
ENDBRANCH  25  26
BRANCH  25  30
HETATM   30  C10 UNL     1      -3.963   0.824   0.106  1.00  0.00     0.034 C 
HETATM   31  C11 UNL     1      -4.168   0.195   1.500  1.00  0.00     0.038 C 
HETATM   32  C12 UNL     1      -3.374   2.173   0.372  1.00  0.00     0.038 C 
HETATM   33  C13 UNL     1      -5.379   1.076  -0.432  1.00  0.00     0.038 C 
ENDBRANCH  25  30
ENDBRANCH  22  25
ENDBRANCH   5  22
TORSDOF 11
