REMARK  10 active torsions:
REMARK  status: ('A' for Active; 'I' for Inactive)
REMARK    1  A    between atoms: C2_2  and  C3_3 
REMARK    2  A    between atoms: C3_3  and  C4_4 
REMARK    3  A    between atoms: C4_4  and  C5_5 
REMARK    4  A    between atoms: C4_4  and  S1_26 
REMARK    5  A    between atoms: C5_5  and  C6_6 
REMARK       I    between atoms: C6_6  and  N1_8 
REMARK    6  A    between atoms: N1_8  and  C7_10 
REMARK    7  A    between atoms: C8_13  and  N3_14 
REMARK    8  A    between atoms: C10_21  and  N6_22 
REMARK    9  A    between atoms: N6_22  and  O2_24 
REMARK   10  A    between atoms: S1_26  and  C11_29 
ROOT
HETATM    1  C6  UNL     1       1.237  -1.110   1.168  1.00  0.00     0.224 C 
HETATM    2  O1  UNL     1       1.583  -1.330   2.362  1.00  0.00    -0.273 OA
HETATM    3  N1  UNL     1       1.852   0.035   0.584  1.00  0.00    -0.311 N 
ATOM      4  H1  UNL     1       1.236   0.782   0.263  1.00  0.00     0.170 HD
ENDROOT
BRANCH   3   5
HETATM    5  C7  UNL     1       3.095   0.205   0.430  1.00  0.00     0.155 A 
HETATM    6  N2  UNL     1       4.033  -0.684   0.799  1.00  0.00    -0.174 N 
HETATM    7  C8  UNL     1       5.348  -0.453   0.612  1.00  0.00     0.678 A 
ATOM      8  H2  UNL     1       3.741  -1.560   1.233  1.00  0.00     0.186 HD
HETATM    9  N4  UNL     1       5.764   0.684   0.045  1.00  0.00    -0.177 N 
HETATM   10  C9  UNL     1       4.896   1.620  -0.351  1.00  0.00     0.164 A 
ATOM     11  H4  UNL     1       6.763   0.840  -0.088  1.00  0.00     0.185 HD
HETATM   12  N5  UNL     1       5.370   2.820  -0.951  1.00  0.00    -0.080 NA
HETATM   13  C10 UNL     1       3.531   1.376  -0.154  1.00  0.00     0.140 A 
BRANCH   7  14
HETATM   14  N3  UNL     1       6.205  -1.341   0.985  1.00  0.00    -0.234 N 
ATOM     15  H32 UNL     1       5.888  -2.208   1.418  1.00  0.00     0.174 HD
ATOM     16  H31 UNL     1       7.200  -1.166   0.844  1.00  0.00     0.174 HD
ENDBRANCH   7  14
BRANCH  13  17
HETATM   17  N6  UNL     1       2.628   2.388  -0.584  1.00  0.00    -0.262 N 
ATOM     18  H6  UNL     1       2.115   2.958   0.089  1.00  0.00     0.194 HD
BRANCH  17  19
HETATM   19  O2  UNL     1       2.484   2.556  -1.822  1.00  0.00    -0.289 OA
ATOM     20  H2  UNL     1       1.881   3.232  -2.109  1.00  0.00     0.244 HD
ENDBRANCH  17  19
ENDBRANCH  13  17
ENDBRANCH   3   5
BRANCH   1  21
HETATM   21  C5  UNL     1       0.296  -1.979   0.502  1.00  0.00     0.123 C 
BRANCH  21  22
HETATM   22  C4  UNL     1      -1.081  -1.550   0.229  1.00  0.00     0.125 C 
BRANCH  22  23
HETATM   23  C3  UNL     1      -1.970  -1.183   1.354  1.00  0.00     0.047 C 
BRANCH  23  24
HETATM   24  C2  UNL     1      -1.599  -0.081   2.223  1.00  0.00    -0.036 C 
HETATM   25  C1  UNL     1      -1.541  -0.237   3.535  1.00  0.00     0.007 C 
ENDBRANCH  23  24
ENDBRANCH  22  23
BRANCH  22  26
HETATM   26  S1  UNL     1      -1.211  -0.401  -1.135  1.00  0.00     0.181 S 
HETATM   27  O3  UNL     1      -0.528  -0.941  -2.331  1.00  0.00    -0.222 OA
HETATM   28  O4  UNL     1      -0.627   0.939  -0.809  1.00  0.00    -0.222 OA
BRANCH  26  29
HETATM   29  C11 UNL     1      -2.907  -0.212  -1.516  1.00  0.00     0.076 A 
HETATM   30  C12 UNL     1      -3.648  -0.959  -2.401  1.00  0.00     0.111 A 
HETATM   31  N7  UNL     1      -4.911  -0.485  -2.396  1.00  0.00    -0.368 N 
HETATM   32  C13 UNL     1      -5.036   0.548  -1.543  1.00  0.00     0.006 A 
ATOM     33  H7  UNL     1      -5.671  -0.860  -2.964  1.00  0.00     0.165 HD
HETATM   34  C14 UNL     1      -6.237   1.364  -1.223  1.00  0.00     0.068 C 
HETATM   35  C15 UNL     1      -3.771   0.719  -0.989  1.00  0.00     0.049 A 
ENDBRANCH  26  29
ENDBRANCH  22  26
ENDBRANCH  21  22
ENDBRANCH   1  21
TORSDOF 10
