REMARK  5 active torsions:
REMARK  status: ('A' for Active; 'I' for Inactive)
REMARK    1  A    between atoms: C2_2  and  N1_3 
REMARK    2  A    between atoms: C2_2  and  C3_7 
REMARK    3  A    between atoms: C3_7  and  O1_8 
REMARK    4  A    between atoms: C3_7  and  C4_10 
REMARK    5  A    between atoms: C6_13  and  N2_14 
ROOT
HETATM    1  C4  UNL     1      -0.324  -0.901   0.140  1.00  0.00     0.395 C 
HETATM    2  O2  UNL     1       0.593  -1.842  -0.234  1.00  0.00    -0.351 OA
HETATM    3  C5  UNL     1       1.853  -1.387   0.117  1.00  0.00     0.245 C 
HETATM    4  C6  UNL     1       1.613  -0.120   0.848  1.00  0.00     0.376 C 
HETATM    5  C7  UNL     1       2.558   0.979   0.564  1.00  0.00     0.323 A 
HETATM    6  C8  UNL     1       3.357   1.121  -0.619  1.00  0.00     0.316 A 
HETATM    7  N3  UNL     1       2.022   1.613  -0.704  1.00  0.00     0.130 N 
HETATM    8  C9  UNL     1       0.923   0.764  -1.080  1.00  0.00     0.550 C 
HETATM    9  N4  UNL     1       0.373   0.369   0.206  1.00  0.00     0.189 N 
ENDROOT
BRANCH   1  10
HETATM   10  C3  UNL     1      -1.607  -0.882  -0.610  1.00  0.00     0.207 C 
BRANCH  10  11
HETATM   11  C2  UNL     1      -2.670  -0.056   0.079  1.00  0.00     0.212 C 
HETATM   12  C1  UNL     1      -2.384   1.400   0.171  1.00  0.00     0.042 C 
BRANCH  11  13
HETATM   13  N1  UNL     1      -3.881  -0.225  -0.724  1.00  0.00    -0.073 N 
ATOM     14  H13 UNL     1      -4.671   0.311  -0.366  1.00  0.00     0.274 HD
ATOM     15  H12 UNL     1      -3.816   0.224  -1.638  1.00  0.00     0.274 HD
ATOM     16  H11 UNL     1      -4.077  -1.224  -0.787  1.00  0.00     0.274 HD
ENDBRANCH  11  13
ENDBRANCH  10  11
BRANCH  10  17
HETATM   17  O1  UNL     1      -2.125  -2.206  -0.595  1.00  0.00    -0.389 OA
ATOM     18  H1  UNL     1      -1.457  -2.725  -1.028  1.00  0.00     0.210 HD
ENDBRANCH  10  17
ENDBRANCH   1  10
BRANCH   4  19
HETATM   19  N2  UNL     1       1.360  -0.340   2.253  1.00  0.00    -0.037 N 
ATOM     20  H23 UNL     1       0.592  -0.997   2.391  1.00  0.00     0.277 HD
ATOM     21  H22 UNL     1       2.112  -0.878   2.684  1.00  0.00     0.277 HD
ATOM     22  H21 UNL     1       1.195   0.532   2.756  1.00  0.00     0.277 HD
ENDBRANCH   4  19
TORSDOF 5
