REMARK  4 active torsions:
REMARK  status: ('A' for Active; 'I' for Inactive)
REMARK    1  A    between atoms: C1_2  and  N1_3 
REMARK    2  A    between atoms: N1_3  and  N2_5 
REMARK    3  A    between atoms: N4_13  and  N5_14 
REMARK    4  A    between atoms: N5_14  and  C5_16 
ROOT
HETATM    1  N2  UNL     1      -1.711   1.861  -0.824  1.00  0.00    -0.284 N 
ATOM      2  H2  UNL     1      -0.937   2.519  -0.737  1.00  0.00     0.188 HD
HETATM    3  C2  UNL     1      -1.608   0.668  -0.312  1.00  0.00     0.145 A 
HETATM    4  C3  UNL     1      -2.666  -0.372  -0.373  1.00  0.00     0.186 A 
HETATM    5  C4  UNL     1      -2.010  -1.567   0.187  1.00  0.00     0.244 A 
HETATM    6  O2  UNL     1      -2.547  -2.719   0.190  1.00  0.00    -0.271 OA
HETATM    7  N3  UNL     1      -0.732  -1.233   0.704  1.00  0.00    -0.247 N 
ATOM      8  H3  UNL     1      -0.098  -1.855   1.206  1.00  0.00     0.192 HD
HETATM    9  N4  UNL     1      -0.507   0.111   0.395  1.00  0.00    -0.177 N 
ENDROOT
BRANCH   9  10
HETATM   10  N5  UNL     1       0.642   0.848   0.723  1.00  0.00    -0.248 N 
ATOM     11  H5  UNL     1       0.574   1.843   0.936  1.00  0.00     0.192 HD
BRANCH  10  12
HETATM   12  C5  UNL     1       1.915   0.183   0.755  1.00  0.00     0.192 C 
HETATM   13  N6  UNL     1       2.770   0.073  -0.206  1.00  0.00    -0.360 N 
HETATM   14  C6  UNL     1       3.923  -0.660   0.201  1.00  0.00     0.142 C 
ATOM     15  H6  UNL     1       2.637   0.462  -1.140  1.00  0.00     0.162 HD
HETATM   16  C7  UNL     1       3.540  -1.242   1.526  1.00  0.00     0.142 C 
HETATM   17  N7  UNL     1       2.398  -0.467   1.917  1.00  0.00    -0.360 N 
ATOM     18  H7  UNL     1       2.007  -0.397   2.856  1.00  0.00     0.162 HD
ENDBRANCH  10  12
ENDBRANCH   9  10
BRANCH   1  19
HETATM   19  N1  UNL     1      -2.878   2.244  -1.492  1.00  0.00    -0.276 N 
ATOM     20  H1  UNL     1      -3.601   2.750  -0.980  1.00  0.00     0.189 HD
BRANCH  19  21
HETATM   21  C1  UNL     1      -3.079   1.949  -2.853  1.00  0.00     0.368 C 
HETATM   22  O1  UNL     1      -2.202   1.330  -3.491  1.00  0.00    -0.282 OA
ENDBRANCH  19  21
ENDBRANCH   1  19
TORSDOF 4
