REMARK  3 active torsions:
REMARK  status: ('A' for Active; 'I' for Inactive)
REMARK    1  A    between atoms: C3_9  and  N3_10 
REMARK    2  A    between atoms: N3_10  and  N4_12 
REMARK    3  A    between atoms: C4_14  and  C5_15 
ROOT
HETATM    1  N3  UNL     1      -0.525   0.035  -1.359  1.00  0.00    -0.132 N 
ATOM      2  H3  UNL     1      -0.532   0.432  -2.299  1.00  0.00     0.205 HD
ENDROOT
BRANCH   1   3
HETATM    3  C3  UNL     1      -1.641  -0.061  -0.699  1.00  0.00     0.704 A 
HETATM    4  N2  UNL     1      -2.777   0.368  -1.279  1.00  0.00    -0.139 N 
HETATM    5  C2  UNL     1      -3.940   0.275  -0.607  1.00  0.00     0.342 A 
ATOM      6  H2  UNL     1      -2.757   0.761  -2.220  1.00  0.00     0.189 HD
HETATM    7  N1  UNL     1      -4.017  -0.233   0.635  1.00  0.00    -0.260 N 
HETATM    8  O2  UNL     1      -5.021   0.672  -1.133  1.00  0.00    -0.246 OA
HETATM    9  C1  UNL     1      -2.888  -0.660   1.216  1.00  0.00     0.342 A 
ATOM     10  H1  UNL     1      -4.911  -0.292   1.122  1.00  0.00     0.175 HD
HETATM   11  O1  UNL     1      -2.845  -1.154   2.376  1.00  0.00    -0.246 OA
HETATM   12  N8  UNL     1      -1.712  -0.570   0.544  1.00  0.00    -0.139 N 
ATOM     13  H8  UNL     1      -0.858  -0.898   0.995  1.00  0.00     0.189 HD
ENDBRANCH   1   3
BRANCH   1  14
HETATM   14  N4  UNL     1       0.680  -0.394  -0.806  1.00  0.00    -0.295 N 
HETATM   15  C4  UNL     1       1.687   0.405  -0.644  1.00  0.00     0.139 C 
ATOM     16  H4  UNL     1       0.772  -1.369  -0.519  1.00  0.00     0.186 HD
BRANCH  15  17
HETATM   17  C5  UNL     1       2.941  -0.029  -0.071  1.00  0.00     0.079 A 
HETATM   18  C6  UNL     1       4.046   0.751   0.131  1.00  0.00     0.137 A 
HETATM   19  N5  UNL     1       5.033   0.003   0.688  1.00  0.00    -0.293 N 
HETATM   20  N6  UNL     1       4.544  -1.216   0.825  1.00  0.00    -0.022 NA
ATOM     21  H5  UNL     1       5.967   0.320   0.949  1.00  0.00     0.183 HD
HETATM   22  N7  UNL     1       3.284  -1.257   0.374  1.00  0.00    -0.282 N 
ATOM     23  H7  UNL     1       2.682  -2.080   0.368  1.00  0.00     0.184 HD
ENDBRANCH  15  17
ENDBRANCH   1  14
TORSDOF 3
