REMARK  4 active torsions:
REMARK  status: ('A' for Active; 'I' for Inactive)
REMARK    1  A    between atoms: N3_4  and  O1_6 
REMARK    2  A    between atoms: O1_6  and  C2_7 
REMARK    3  A    between atoms: C2_7  and  C3_8 
REMARK    4  A    between atoms: C3_8  and  C4_9 
ROOT
HETATM    1  C4  UNL     1       1.168  -0.666   0.319  1.00  0.00    -0.040 A 
HETATM    2  C5  UNL     1       1.890  -1.694  -0.230  1.00  0.00     0.012 A 
HETATM    3  C6  UNL     1       3.132  -1.377  -0.790  1.00  0.00     0.050 A 
HETATM    4  C7  UNL     1       3.598  -0.082  -0.784  1.00  0.00     0.111 A 
HETATM    5  N4  UNL     1       4.739   0.438  -1.256  1.00  0.00    -0.351 N 
ATOM      6  H4  UNL     1       5.479  -0.087  -1.721  1.00  0.00     0.166 HD
HETATM    7  C8  UNL     1       4.754   1.781  -1.016  1.00  0.00     0.107 A 
HETATM    8  C9  UNL     1       3.588   2.070  -0.382  1.00  0.00     0.115 A 
HETATM    9  N5  UNL     1       2.894   0.926  -0.247  1.00  0.00    -0.317 N 
HETATM   10  C10 UNL     1       1.695   0.603   0.291  1.00  0.00     0.105 A 
ENDROOT
BRANCH   1  11
HETATM   11  C3  UNL     1      -0.161  -0.846   0.947  1.00  0.00     0.068 C 
BRANCH  11  12
HETATM   12  C2  UNL     1      -1.301  -0.695   0.007  1.00  0.00     0.206 C 
BRANCH  12  13
HETATM   13  O1  UNL     1      -2.500  -0.891   0.734  1.00  0.00    -0.278 OA
BRANCH  13  14
HETATM   14  N3  UNL     1      -3.714  -0.810   0.120  1.00  0.00    -0.241 N 
HETATM   15  C1  UNL     1      -4.691  -0.085   0.482  1.00  0.00     0.221 C 
HETATM   16  N1  UNL     1      -4.697   0.784   1.605  1.00  0.00    -0.065 NA
HETATM   17  N2  UNL     1      -5.885  -0.149  -0.308  1.00  0.00    -0.065 NA
ATOM     18  H3  UNL     1      -3.851  -1.387  -0.710  1.00  0.00     0.196 HD
ENDBRANCH  13  14
ENDBRANCH  12  13
ENDBRANCH  11  12
ENDBRANCH   1  11
TORSDOF 4
