REMARK  6 active torsions:
REMARK  status: ('A' for Active; 'I' for Inactive)
REMARK    1  A    between atoms: N1_1  and  N2_4 
REMARK    2  A    between atoms: N2_4  and  C1_6 
REMARK    3  A    between atoms: N3_7  and  C2_9 
REMARK    4  A    between atoms: C2_9  and  C3_10 
REMARK    5  A    between atoms: C3_10  and  N4_11 
REMARK    6  A    between atoms: N4_11  and  C4_13 
ROOT
HETATM    1  N4  UNL     1      -0.246   0.688  -0.365  1.00  0.00    -0.388 N 
ATOM      2  H4  UNL     1      -0.577   1.642  -0.508  1.00  0.00     0.159 HD
ENDROOT
BRANCH   1   3
HETATM    3  C3  UNL     1       1.162   0.358  -0.464  1.00  0.00     0.139 C 
BRANCH   3   4
HETATM    4  C2  UNL     1       2.009   1.588  -0.700  1.00  0.00     0.140 C 
BRANCH   4   5
HETATM    5  N3  UNL     1       3.405   1.280  -0.800  1.00  0.00    -0.384 N 
HETATM    6  C1  UNL     1       4.000   0.339  -0.189  1.00  0.00     0.192 C 
ATOM      7  H3  UNL     1       3.969   1.867  -1.415  1.00  0.00     0.160 HD
BRANCH   6   8
HETATM    8  N2  UNL     1       5.396   0.156  -0.390  1.00  0.00    -0.303 N 
ATOM      9  H2  UNL     1       5.737  -0.230  -1.270  1.00  0.00     0.187 HD
BRANCH   8  10
HETATM   10  N1  UNL     1       6.307   0.506   0.622  1.00  0.00    -0.344 N 
ATOM     11  H12 UNL     1       5.950   0.891   1.496  1.00  0.00     0.176 HD
ATOM     12  H11 UNL     1       7.308   0.375   0.478  1.00  0.00     0.176 HD
ENDBRANCH   8  10
ENDBRANCH   6   8
ENDBRANCH   4   5
ENDBRANCH   3   4
ENDBRANCH   1   3
BRANCH   1  13
HETATM   13  C4  UNL     1      -1.062  -0.266  -0.091  1.00  0.00     0.042 A 
HETATM   14  C5  UNL     1      -0.657  -1.578   0.111  1.00  0.00     0.047 A 
HETATM   15  C6  UNL     1      -1.605  -2.514   0.397  1.00  0.00     0.090 A 
HETATM   16  N5  UNL     1      -2.929  -2.229   0.495  1.00  0.00    -0.365 N 
HETATM   17  C7  UNL     1      -3.354  -0.967   0.305  1.00  0.00     0.044 A 
ATOM     18  H5  UNL     1      -3.598  -2.968   0.712  1.00  0.00     0.165 HD
HETATM   19  C8  UNL     1      -4.696  -0.677   0.404  1.00  0.00     0.030 A 
HETATM   20  C12 UNL     1      -2.419  -0.006   0.016  1.00  0.00     0.017 A 
HETATM   21  C9  UNL     1      -5.133   0.631   0.207  1.00  0.00     0.002 A 
HETATM   22  C10 UNL     1      -4.196   1.609  -0.085  1.00  0.00     0.001 A 
HETATM   23  C11 UNL     1      -2.833   1.309  -0.185  1.00  0.00     0.016 A 
ENDBRANCH   1  13
TORSDOF 6
