REMARK  3 active torsions:
REMARK  status: ('A' for Active; 'I' for Inactive)
REMARK    1  A    between atoms: C2_2  and  S1_3 
REMARK    2  A    between atoms: S1_3  and  C3_4 
REMARK       I    between atoms: C3_4  and  N1_6 
REMARK    3  A    between atoms: N1_6  and  C4_8 
ROOT
HETATM    1  C4  UNL     1       0.029  -0.125  -0.840  1.00  0.00     0.086 C 
HETATM    2  C5  UNL     1      -0.402   1.102  -0.074  1.00  0.00     0.034 C 
HETATM    3  C6  UNL     1      -1.766   0.940   0.521  1.00  0.00    -0.041 C 
HETATM    4  C7  UNL     1      -2.404   2.177   1.027  1.00  0.00     0.015 C 
HETATM    5  C8  UNL     1      -1.873  -0.262   1.430  1.00  0.00     0.018 C 
HETATM    6  C9  UNL     1      -2.011  -1.099   0.173  1.00  0.00    -0.041 C 
HETATM    7  C10 UNL     1      -2.972  -2.221   0.215  1.00  0.00     0.015 C 
HETATM    8  C11 UNL     1      -0.625  -1.385  -0.333  1.00  0.00     0.034 C 
HETATM    9  C12 UNL     1      -2.597   0.149  -0.496  1.00  0.00     0.018 C 
ENDROOT
BRANCH   1  10
HETATM   10  N1  UNL     1       1.468  -0.198  -0.735  1.00  0.00    -0.347 N 
HETATM   11  C3  UNL     1       2.242  -0.167  -1.925  1.00  0.00     0.280 C 
HETATM   12  O1  UNL     1       1.660  -0.076  -3.052  1.00  0.00    -0.260 OA
ATOM     13  H1  UNL     1       1.919  -0.270   0.177  1.00  0.00     0.163 HD
BRANCH  11  14
HETATM   14  S1  UNL     1       4.028  -0.248  -1.935  1.00  0.00    -0.070 SA
BRANCH  14  15
HETATM   15  C2  UNL     1       4.630  -0.346  -0.230  1.00  0.00     0.079 C 
HETATM   16  C1  UNL     1       4.318   0.950   0.472  1.00  0.00     0.016 C 
ENDBRANCH  14  15
ENDBRANCH  11  14
ENDBRANCH   1  10
TORSDOF 3
