REMARK  2 active torsions:
REMARK  status: ('A' for Active; 'I' for Inactive)
REMARK    1  A    between atoms: C2_4  and  O1_5 
REMARK    2  A    between atoms: C2_4  and  C4_7 
ROOT
HETATM    1  C4  UNL     1       0.652  -0.215   0.147  1.00  0.00     0.060 C 
HETATM    2  C5  UNL     1       0.520  -1.434   1.031  1.00  0.00     0.013 C 
HETATM    3  C6  UNL     1      -0.900  -1.805   1.300  1.00  0.00     0.001 C 
HETATM    4  C7  UNL     1      -1.734  -0.697   1.863  1.00  0.00     0.000 C 
HETATM    5  C8  UNL     1      -3.002  -0.456   1.035  1.00  0.00     0.000 C 
HETATM    6  C9  UNL     1      -3.003   0.933   0.511  1.00  0.00     0.000 C 
HETATM    7  C10 UNL     1      -3.167   1.055  -0.966  1.00  0.00     0.000 C 
HETATM    8  C11 UNL     1      -2.227   0.217  -1.766  1.00  0.00     0.000 C 
HETATM    9  C12 UNL     1      -0.798   0.682  -1.693  1.00  0.00     0.001 C 
HETATM   10  C13 UNL     1       0.122  -0.458  -1.251  1.00  0.00     0.013 C 
ENDROOT
BRANCH   1  11
HETATM   11  C2  UNL     1       2.132   0.071   0.020  1.00  0.00     0.116 C 
HETATM   12  N1  UNL     1       3.002  -0.618   0.585  1.00  0.00    -0.378 N 
HETATM   13  C1  UNL     1       4.400  -0.609   0.659  1.00  0.00     0.148 C 
ATOM     14  H1  UNL     1       2.595  -1.378   1.129  1.00  0.00     0.160 HD
BRANCH  11  15
HETATM   15  O1  UNL     1       2.469   1.151  -0.765  1.00  0.00    -0.344 OA
HETATM   16  C3  UNL     1       3.658   1.876  -0.712  1.00  0.00     0.211 C 
ENDBRANCH  11  15
ENDBRANCH   1  11
TORSDOF 2
