REMARK  1 active torsions:
REMARK  status: ('A' for Active; 'I' for Inactive)
REMARK    1  A    between atoms: C10_10  and  C11_11 
ROOT
HETATM    1  C11 UNL     1       2.519  -0.240  -0.123  1.00  0.00     0.097 C 
HETATM    2  C12 UNL     1       3.014  -1.611   0.183  1.00  0.00     0.026 C 
HETATM    3  C13 UNL     1       3.063   0.706   0.853  1.00  0.00     0.064 C 
HETATM    4  N1  UNL     1       3.495   1.465   1.636  1.00  0.00    -0.197 NA
ENDROOT
BRANCH   1   5
HETATM    5  C10 UNL     1       1.028  -0.100  -0.113  1.00  0.00    -0.023 C 
HETATM    6  C9  UNL     1       0.467  -0.461   1.265  1.00  0.00     0.016 C 
HETATM    7  C8  UNL     1      -1.020  -0.239   1.291  1.00  0.00    -0.009 C 
HETATM    8  C2  UNL     1      -1.763  -1.000   0.240  1.00  0.00    -0.010 C 
HETATM    9  C7  UNL     1      -1.246   1.251   1.001  1.00  0.00     0.014 C 
HETATM   10  C1  UNL     1      -1.955  -2.454   0.559  1.00  0.00     0.011 C 
HETATM   11  C3  UNL     1      -1.131  -0.750  -1.094  1.00  0.00    -0.009 C 
HETATM   12  C4  UNL     1      -1.405   0.712  -1.448  1.00  0.00     0.014 C 
HETATM   13  C14 UNL     1       0.354  -1.032  -1.097  1.00  0.00     0.016 C 
HETATM   14  C5  UNL     1      -0.788   1.578  -0.385  1.00  0.00    -0.043 C 
HETATM   15  C6  UNL     1      -1.102   3.009  -0.682  1.00  0.00     0.015 C 
HETATM   16  C15 UNL     1       0.713   1.359  -0.445  1.00  0.00     0.020 C 
ENDBRANCH   1   5
TORSDOF 1
