REMARK  5 active torsions:
REMARK  status: ('A' for Active; 'I' for Inactive)
REMARK    1  A    between atoms: C3_3  and  C4_4 
REMARK    2  A    between atoms: C5_5  and  C6_6 
REMARK    3  A    between atoms: C7_7  and  C8_8 
REMARK    4  A    between atoms: N1_12  and  C12_13 
REMARK    5  A    between atoms: C12_13  and  N2_15 
REMARK       I    between atoms: N2_15  and  C13_17 
REMARK       I    between atoms: C13_17  and  N3_19 
ROOT
HETATM    1  C1  UNL     1       9.431  -2.139   0.580  1.00  0.00     0.013 C 
HETATM    2  C2  UNL     1       8.301  -2.559   0.634  1.00  0.00    -0.105 C 
HETATM    3  C3  UNL     1       6.907  -3.058   0.691  1.00  0.00     0.187 C 
ENDROOT
BRANCH   3   4
HETATM    4  C4  UNL     1       5.956  -1.946   0.572  1.00  0.00    -0.081 C 
HETATM    5  C5  UNL     1       5.184  -1.011   0.468  1.00  0.00    -0.014 C 
BRANCH   5   6
HETATM    6  C6  UNL     1       4.271   0.068   0.333  1.00  0.00    -0.013 C 
HETATM    7  C7  UNL     1       3.494   0.987   0.205  1.00  0.00    -0.067 C 
BRANCH   7   8
HETATM    8  C8  UNL     1       2.561   2.111   0.036  1.00  0.00     0.167 C 
HETATM    9  C9  UNL     1       2.933   2.922  -1.157  1.00  0.00     0.040 C 
HETATM   10  C10 UNL     1       2.599   1.932  -2.264  1.00  0.00     0.023 C 
HETATM   11  C11 UNL     1       1.305   1.283  -1.773  1.00  0.00     0.127 C 
HETATM   12  N1  UNL     1       1.278   1.487  -0.349  1.00  0.00    -0.343 N 
BRANCH  12  13
HETATM   13  C12 UNL     1       0.319   1.223   0.638  1.00  0.00     0.178 C 
HETATM   14  S1  UNL     1       0.794   1.746   2.188  1.00  0.00    -0.041 SA
BRANCH  13  15
HETATM   15  N2  UNL     1      -0.938   0.652   0.610  1.00  0.00    -0.285 N 
HETATM   16  C13 UNL     1      -1.752   0.083  -0.374  1.00  0.00     0.324 C 
HETATM   17  O1  UNL     1      -1.414  -0.017  -1.562  1.00  0.00    -0.247 OA
HETATM   18  N3  UNL     1      -3.069  -0.431  -0.027  1.00  0.00    -0.331 N 
HETATM   19  C14 UNL     1      -3.928  -1.020  -1.014  1.00  0.00     0.147 C 
HETATM   20  C18 UNL     1      -3.518  -0.347   1.336  1.00  0.00     0.147 C 
HETATM   21  C15 UNL     1      -5.319  -0.526  -0.765  1.00  0.00     0.136 C 
HETATM   22  N4  UNL     1      -5.794  -0.882   0.525  1.00  0.00    -0.414 N 
HETATM   23  C16 UNL     1      -6.962  -0.139   0.944  1.00  0.00     0.143 C 
HETATM   24  C17 UNL     1      -4.828  -1.058   1.551  1.00  0.00     0.136 C 
ATOM     25  H2  UNL     1      -1.379   0.643   1.530  1.00  0.00     0.173 HD
ENDBRANCH  13  15
ENDBRANCH  12  13
ENDBRANCH   7   8
ENDBRANCH   5   6
ENDBRANCH   3   4
TORSDOF 5
