REMARK  5 active torsions:
REMARK  status: ('A' for Active; 'I' for Inactive)
REMARK    1  A    between atoms: N1_1  and  C1_5 
REMARK    2  A    between atoms: N2_11  and  C7_12 
REMARK    3  A    between atoms: C7_12  and  O1_13 
REMARK    4  A    between atoms: C7_12  and  C8_15 
REMARK    5  A    between atoms: C23_32  and  C24_33 
ROOT
HETATM    1  C1  UNL     1      -1.106  -5.245   0.350  1.00  0.00     0.274 C 
HETATM    2  C2  UNL     1      -1.065  -4.022  -0.540  1.00  0.00     0.042 C 
HETATM    3  C3  UNL     1       0.339  -3.738  -0.978  1.00  0.00     0.002 C 
HETATM    4  C4  UNL     1       0.407  -2.348  -1.605  1.00  0.00     0.002 C 
HETATM    5  C5  UNL     1       1.829  -1.830  -1.621  1.00  0.00     0.020 C 
HETATM    6  C6  UNL     1       2.052  -1.116  -0.295  1.00  0.00     0.124 C 
HETATM    7  N2  UNL     1       3.263  -0.303  -0.321  1.00  0.00    -0.364 N 
HETATM    8  C17 UNL     1       3.147   0.993  -0.897  1.00  0.00     0.124 C 
HETATM    9  C18 UNL     1       1.729   1.461  -1.153  1.00  0.00     0.020 C 
HETATM   10  C19 UNL     1       1.150   2.184   0.034  1.00  0.00     0.002 C 
HETATM   11  C20 UNL     1      -0.138   2.892  -0.332  1.00  0.00     0.000 C 
HETATM   12  C21 UNL     1      -0.347   4.011   0.659  1.00  0.00     0.001 C 
HETATM   13  C22 UNL     1      -1.735   3.868   1.237  1.00  0.00     0.015 C 
HETATM   14  C23 UNL     1      -2.639   4.848   0.533  1.00  0.00     0.087 C 
HETATM   15  C25 UNL     1      -4.076   4.377   0.623  1.00  0.00     0.015 C 
HETATM   16  C26 UNL     1      -4.242   3.284  -0.417  1.00  0.00     0.001 C 
HETATM   17  C27 UNL     1      -4.962   2.096   0.165  1.00  0.00     0.000 C 
HETATM   18  C28 UNL     1      -6.396   2.019  -0.321  1.00  0.00     0.000 C 
HETATM   19  C29 UNL     1      -6.721   0.602  -0.696  1.00  0.00     0.000 C 
HETATM   20  C30 UNL     1      -6.666  -0.320   0.502  1.00  0.00     0.000 C 
HETATM   21  C31 UNL     1      -6.760  -1.748   0.017  1.00  0.00     0.000 C 
HETATM   22  C32 UNL     1      -5.942  -2.673   0.903  1.00  0.00     0.002 C 
HETATM   23  C33 UNL     1      -5.530  -3.920   0.178  1.00  0.00     0.020 C 
HETATM   24  C34 UNL     1      -4.001  -4.003   0.078  1.00  0.00     0.122 C 
HETATM   25  N3  UNL     1      -3.591  -5.347  -0.276  1.00  0.00    -0.359 N 
ATOM     26  H3  UNL     1      -4.195  -5.884  -0.898  1.00  0.00     0.162 HD
HETATM   27  C35 UNL     1      -2.399  -5.960   0.192  1.00  0.00     0.248 C 
HETATM   28  O6  UNL     1      -2.411  -7.180   0.500  1.00  0.00    -0.271 OA
ENDROOT
BRANCH   7  29
HETATM   29  C7  UNL     1       4.437  -0.827   0.186  1.00  0.00     0.130 C 
BRANCH  29  30
HETATM   30  O1  UNL     1       4.335  -2.048   0.635  1.00  0.00    -0.349 OA
ATOM     31  H1  UNL     1       5.142  -2.408   0.984  1.00  0.00     0.219 HD
ENDBRANCH  29  30
BRANCH  29  32
HETATM   32  C8  UNL     1       5.792  -0.215   0.300  1.00  0.00     0.088 C 
HETATM   33  C9  UNL     1       6.262   0.356  -0.945  1.00  0.00     0.058 C 
HETATM   34  C10 UNL     1       7.664   0.560  -1.275  1.00  0.00     0.126 C 
HETATM   35  C11 UNL     1       8.281   1.834  -0.762  1.00  0.00     0.064 C 
HETATM   36  O3  UNL     1       8.643  -0.159  -0.685  1.00  0.00    -0.380 OA
HETATM   37  C12 UNL     1       8.901   0.867   0.196  1.00  0.00     0.125 C 
HETATM   38  C13 UNL     1       8.335   0.796   1.532  1.00  0.00     0.044 C 
HETATM   39  C14 UNL     1       7.128   0.039   1.832  1.00  0.00     0.060 C 
HETATM   40  C15 UNL     1       6.734  -1.125   1.045  1.00  0.00     0.038 C 
HETATM   41  C16 UNL     1       5.833   0.695   1.469  1.00  0.00     0.147 C 
HETATM   42  O2  UNL     1       5.184   1.586   1.989  1.00  0.00    -0.296 OA
ENDBRANCH  29  32
ENDBRANCH   7  29
BRANCH   1  43
HETATM   43  N1  UNL     1      -0.052  -6.186  -0.009  1.00  0.00    -0.067 N 
ATOM     44  H13 UNL     1      -0.092  -6.437  -0.997  1.00  0.00     0.275 HD
ATOM     45  H12 UNL     1       0.867  -5.744   0.001  1.00  0.00     0.275 HD
ATOM     46  H11 UNL     1      -0.080  -7.010   0.591  1.00  0.00     0.275 HD
ENDBRANCH   1  43
BRANCH  14  47
HETATM   47  C24 UNL     1      -2.542   6.181   1.137  1.00  0.00     0.177 C 
HETATM   48  O4  UNL     1      -1.774   6.362   2.106  1.00  0.00    -0.648 OA
HETATM   49  O5  UNL     1      -3.294   7.236   0.642  1.00  0.00    -0.648 OA
ENDBRANCH  14  47
TORSDOF 5
