REMARK  2 active torsions:
REMARK  status: ('A' for Active; 'I' for Inactive)
REMARK       I    between atoms: N1_12  and  C11_13 
REMARK    1  A    between atoms: C11_13  and  C12_15 
REMARK    2  A    between atoms: C34_43  and  O5_44 
ROOT
HETATM    1  O1  UNL     1       3.705   6.945  -0.661  1.00  0.00    -0.265 OA
HETATM    2  C1  UNL     1       3.695   5.749  -0.282  1.00  0.00     0.258 C 
HETATM    3  C2  UNL     1       2.439   5.120   0.182  1.00  0.00     0.111 C 
HETATM    4  C3  UNL     1       1.257   5.998  -0.214  1.00  0.00     0.010 C 
HETATM    5  C4  UNL     1       0.006   5.154  -0.057  1.00  0.00     0.000 C 
HETATM    6  C5  UNL     1      -1.234   5.979   0.073  1.00  0.00     0.000 C 
HETATM    7  C6  UNL     1      -2.121   5.412   1.162  1.00  0.00     0.004 C 
HETATM    8  C7  UNL     1      -2.775   4.144   0.655  1.00  0.00     0.027 C 
HETATM    9  C8  UNL     1      -2.018   2.963   1.171  1.00  0.00    -0.029 C 
HETATM   10  C9  UNL     1      -2.010   1.777   0.623  1.00  0.00    -0.011 C 
HETATM   11  C10 UNL     1      -2.738   1.366  -0.601  1.00  0.00     0.153 C 
HETATM   12  N1  UNL     1      -4.069   0.783  -0.275  1.00  0.00    -0.335 N 
HETATM   13  C11 UNL     1      -5.099   1.135  -1.167  1.00  0.00     0.225 C 
HETATM   14  O2  UNL     1      -4.771   1.923  -2.145  1.00  0.00    -0.273 OA
HETATM   15  C15 UNL     1      -4.152  -0.056   0.889  1.00  0.00     0.185 C 
HETATM   16  C16 UNL     1      -5.370   0.143   1.696  1.00  0.00     0.241 C 
HETATM   17  O3  UNL     1      -5.916   1.223   1.993  1.00  0.00    -0.271 OA
HETATM   18  N2  UNL     1      -5.834  -1.140   2.092  1.00  0.00    -0.359 N 
ATOM     19  H2  UNL     1      -6.387  -1.353   2.922  1.00  0.00     0.162 HD
HETATM   20  C17 UNL     1      -5.373  -2.096   1.090  1.00  0.00     0.130 C 
HETATM   21  C18 UNL     1      -4.079  -1.513   0.652  1.00  0.00     0.036 C 
HETATM   22  C19 UNL     1      -3.701  -1.889  -0.762  1.00  0.00     0.009 C 
HETATM   23  C20 UNL     1      -3.788  -3.417  -0.841  1.00  0.00     0.001 C 
HETATM   24  C21 UNL     1      -2.563  -4.079  -0.278  1.00  0.00     0.000 C 
HETATM   25  C22 UNL     1      -1.448  -4.232  -1.277  1.00  0.00     0.000 C 
HETATM   26  C23 UNL     1      -0.706  -5.538  -1.094  1.00  0.00     0.000 C 
HETATM   27  C24 UNL     1       0.201  -5.542   0.094  1.00  0.00     0.000 C 
HETATM   28  C25 UNL     1       1.632  -5.172  -0.243  1.00  0.00     0.000 C 
HETATM   29  C26 UNL     1       2.416  -5.171   1.054  1.00  0.00     0.000 C 
HETATM   30  C27 UNL     1       3.896  -5.025   0.774  1.00  0.00     0.000 C 
HETATM   31  C28 UNL     1       4.128  -3.767  -0.013  1.00  0.00     0.000 C 
HETATM   32  C29 UNL     1       5.383  -3.063   0.461  1.00  0.00     0.000 C 
HETATM   33  C30 UNL     1       6.186  -2.666  -0.769  1.00  0.00     0.002 C 
HETATM   34  C31 UNL     1       7.080  -1.511  -0.425  1.00  0.00     0.020 C 
HETATM   35  C32 UNL     1       6.305  -0.232  -0.537  1.00  0.00     0.122 C 
HETATM   36  N3  UNL     1       7.060   0.857   0.086  1.00  0.00    -0.359 N 
ATOM     37  H3  UNL     1       7.931   0.631   0.566  1.00  0.00     0.162 HD
HETATM   38  C33 UNL     1       6.641   2.199   0.054  1.00  0.00     0.248 C 
HETATM   39  O4  UNL     1       7.527   3.095  -0.047  1.00  0.00    -0.271 OA
HETATM   40  C34 UNL     1       5.236   2.642   0.130  1.00  0.00     0.234 C 
HETATM   41  C35 UNL     1       5.163   4.040   0.714  1.00  0.00     0.220 C 
HETATM   42  O6  UNL     1       4.853   4.995  -0.289  1.00  0.00    -0.318 OA
ENDROOT
BRANCH  13  43
HETATM   43  C12 UNL     1      -6.508   0.742  -1.160  1.00  0.00     0.078 A 
HETATM   44  C13 UNL     1      -7.525   1.749  -1.705  1.00  0.00     0.015 A 
HETATM   45  C14 UNL     1      -7.153   0.647  -2.590  1.00  0.00     0.015 A 
ENDBRANCH  13  43
BRANCH  40  46
HETATM   46  O5  UNL     1       4.471   1.801   0.946  1.00  0.00    -0.384 OA
ATOM     47  H5  UNL     1       3.566   2.086   0.995  1.00  0.00     0.210 HD
ENDBRANCH  40  46
TORSDOF 2
