REMARK  4 active torsions:
REMARK  status: ('A' for Active; 'I' for Inactive)
REMARK       I    between atoms: C2_2  and  N1_4 
REMARK       I    between atoms: N1_4  and  C3_6 
REMARK    1  A    between atoms: C3_6  and  C4_8 
REMARK    2  A    between atoms: C10_14  and  C11_15 
REMARK    3  A    between atoms: C22_28  and  O5_29 
REMARK    4  A    between atoms: C29_37  and  O6_38 
ROOT
HETATM    1  C4  UNL     1      -1.738   1.512  -0.424  1.00  0.00     0.052 C 
HETATM    2  C5  UNL     1      -2.269   1.099  -1.789  1.00  0.00     0.020 C 
HETATM    3  C6  UNL     1      -2.439  -0.396  -1.905  1.00  0.00     0.007 C 
HETATM    4  C7  UNL     1      -3.634  -0.702  -1.010  1.00  0.00     0.005 C 
HETATM    5  C8  UNL     1      -3.459  -0.198   0.377  1.00  0.00    -0.003 C 
HETATM    6  C9  UNL     1      -3.548  -1.277   1.446  1.00  0.00     0.025 C 
HETATM    7  C10 UNL     1      -4.650  -2.243   1.244  1.00  0.00     0.125 C 
HETATM    8  C13 UNL     1      -4.970  -2.522  -0.178  1.00  0.00     0.146 C 
HETATM    9  O4  UNL     1      -6.019  -3.040  -0.506  1.00  0.00    -0.296 OA
HETATM   10  C14 UNL     1      -3.961  -2.143  -1.177  1.00  0.00     0.018 C 
HETATM   11  C15 UNL     1      -2.774  -3.068  -1.208  1.00  0.00     0.023 C 
HETATM   12  C16 UNL     1      -4.603  -2.297  -2.569  1.00  0.00     0.023 C 
HETATM   13  C17 UNL     1      -2.246   0.591   0.662  1.00  0.00     0.009 C 
HETATM   14  C18 UNL     1      -1.068  -0.211   1.177  1.00  0.00     0.016 C 
HETATM   15  C19 UNL     1       0.052   0.760   0.978  1.00  0.00    -0.029 C 
HETATM   16  C20 UNL     1       0.028   1.808   2.059  1.00  0.00     0.016 C 
HETATM   17  C21 UNL     1      -0.290   1.304  -0.375  1.00  0.00     0.041 C 
HETATM   18  C22 UNL     1       0.641   2.392  -0.694  1.00  0.00     0.124 C 
HETATM   19  C23 UNL     1       2.000   2.276  -0.151  1.00  0.00     0.038 C 
HETATM   20  C24 UNL     1       2.480   1.000   0.445  1.00  0.00     0.005 C 
HETATM   21  C25 UNL     1       3.513   0.302  -0.419  1.00  0.00    -0.035 C 
HETATM   22  C26 UNL     1       3.117   0.186  -1.846  1.00  0.00     0.016 C 
HETATM   23  C27 UNL     1       4.775   1.143  -0.346  1.00  0.00     0.012 C 
HETATM   24  C28 UNL     1       5.905   0.529  -1.123  1.00  0.00     0.033 C 
HETATM   25  C29 UNL     1       6.270  -0.754  -0.477  1.00  0.00     0.126 C 
HETATM   26  C30 UNL     1       5.132  -1.646  -0.093  1.00  0.00    -0.017 C 
HETATM   27  C31 UNL     1       5.063  -2.767  -1.105  1.00  0.00     0.018 C 
HETATM   28  C32 UNL     1       5.632  -2.374   1.182  1.00  0.00     0.018 C 
HETATM   29  C33 UNL     1       3.862  -0.994   0.263  1.00  0.00     0.004 C 
HETATM   30  C34 UNL     1       2.686  -1.902   0.130  1.00  0.00     0.007 C 
HETATM   31  C35 UNL     1       1.352  -1.254   0.343  1.00  0.00     0.011 C 
HETATM   32  C36 UNL     1       1.417   0.101   1.006  1.00  0.00    -0.032 C 
HETATM   33  C37 UNL     1       1.640  -0.212   2.503  1.00  0.00     0.016 C 
ENDROOT
BRANCH   1  34
HETATM   34  C3  UNL     1      -2.262   2.882  -0.210  1.00  0.00     0.233 C 
HETATM   35  N1  UNL     1      -2.210   3.940  -1.145  1.00  0.00    -0.297 N 
HETATM   36  C2  UNL     1      -2.711   5.228  -0.887  1.00  0.00     0.220 C 
ATOM     37  H1  UNL     1      -1.787   3.760  -2.055  1.00  0.00     0.171 HD
HETATM   38  C1  UNL     1      -3.339   5.588   0.388  1.00  0.00     0.117 C 
HETATM   39  O1  UNL     1      -2.630   6.143  -1.783  1.00  0.00    -0.274 OA
HETATM   40  O2  UNL     1      -2.800   3.141   0.888  1.00  0.00    -0.272 OA
ENDBRANCH   1  34
BRANCH  18  41
HETATM   41  O5  UNL     1       0.711   2.455  -2.115  1.00  0.00    -0.395 OA
ATOM     42  H5  UNL     1       1.314   3.160  -2.322  1.00  0.00     0.210 HD
ENDBRANCH  18  41
BRANCH   7  43
HETATM   43  C11 UNL     1      -5.891  -1.882   2.013  1.00  0.00     0.134 C 
HETATM   44  C12 UNL     1      -5.868  -1.775   3.497  1.00  0.00     0.091 C 
HETATM   45  O3  UNL     1      -6.953  -1.665   1.455  1.00  0.00    -0.298 OA
ENDBRANCH   7  43
BRANCH  25  46
HETATM   46  O6  UNL     1       7.145  -1.438  -1.347  1.00  0.00    -0.395 OA
ATOM     47  H6  UNL     1       7.379  -2.260  -0.933  1.00  0.00     0.210 HD
ENDBRANCH  25  46
TORSDOF 4
