REMARK  12 active torsions:
REMARK  status: ('A' for Active; 'I' for Inactive)
REMARK    1  A    between atoms: C2_2  and  O1_3 
REMARK    2  A    between atoms: O1_3  and  C3_4 
REMARK    3  A    between atoms: C3_4  and  C4_6 
REMARK    4  A    between atoms: C4_6  and  N1_7 
REMARK    5  A    between atoms: C4_6  and  C18_33 
REMARK    6  A    between atoms: N1_7  and  C5_9 
REMARK    7  A    between atoms: C5_9  and  O3_10 
REMARK    8  A    between atoms: C5_9  and  C6_12 
REMARK    9  A    between atoms: N2_17  and  O4_18 
REMARK   10  A    between atoms: C11_20  and  N3_21 
REMARK   11  A    between atoms: N3_21  and  S1_23 
REMARK   12  A    between atoms: S1_23  and  C12_26 
ROOT
HETATM    1  C6  UNL     1       1.060  -0.710   1.179  1.00  0.00     0.067 A 
HETATM    2  C7  UNL     1       1.103  -1.927   1.800  1.00  0.00    -0.042 A 
HETATM    3  C8  UNL     1      -0.063  -2.816   1.931  1.00  0.00     0.049 C 
HETATM    4  C9  UNL     1       2.280  -2.413   2.395  1.00  0.00     0.027 A 
HETATM    5  C10 UNL     1       3.390  -1.613   2.329  1.00  0.00     0.125 A 
HETATM    6  N2  UNL     1       3.341  -0.408   1.713  1.00  0.00    -0.218 N 
HETATM    7  C11 UNL     1       2.247   0.070   1.143  1.00  0.00     0.157 A 
ENDROOT
BRANCH   1   8
HETATM    8  C5  UNL     1      -0.154  -0.141   0.653  1.00  0.00     0.151 C 
BRANCH   8   9
HETATM    9  N1  UNL     1      -1.425  -0.647   0.416  1.00  0.00    -0.356 N 
ATOM     10  H1  UNL     1      -1.638  -1.623   0.625  1.00  0.00     0.162 HD
BRANCH   9  11
HETATM   11  C4  UNL     1      -2.474   0.246  -0.145  1.00  0.00     0.186 C 
BRANCH  11  12
HETATM   12  C3  UNL     1      -3.615   0.330   0.789  1.00  0.00     0.282 C 
HETATM   13  O2  UNL     1      -3.559  -0.317   1.864  1.00  0.00    -0.263 OA
BRANCH  12  14
HETATM   14  O1  UNL     1      -4.742   1.092   0.532  1.00  0.00    -0.320 OA
BRANCH  14  15
HETATM   15  C2  UNL     1      -5.805   1.118   1.494  1.00  0.00     0.174 C 
HETATM   16  C1  UNL     1      -6.911   2.001   1.006  1.00  0.00     0.034 C 
ENDBRANCH  14  15
ENDBRANCH  12  14
ENDBRANCH  11  12
BRANCH  11  17
HETATM   17  C18 UNL     1      -2.961  -0.282  -1.459  1.00  0.00     0.010 C 
HETATM   18  C19 UNL     1      -3.575  -1.656  -1.339  1.00  0.00     0.012 C 
HETATM   19  C20 UNL     1      -4.000   0.620  -2.085  1.00  0.00     0.012 C 
ENDBRANCH  11  17
ENDBRANCH   9  11
ENDBRANCH   8   9
BRANCH   8  20
HETATM   20  O3  UNL     1      -0.054   1.141   0.313  1.00  0.00    -0.346 OA
ATOM     21  H3  UNL     1       0.816   1.487   0.475  1.00  0.00     0.219 HD
ENDBRANCH   8  20
ENDBRANCH   1   8
BRANCH   7  22
HETATM   22  N3  UNL     1       2.302   1.287   0.474  1.00  0.00    -0.263 N 
ATOM     23  H3  UNL     1       2.022   2.106   1.014  1.00  0.00     0.180 HD
BRANCH  22  24
HETATM   24  S1  UNL     1       2.779   1.582  -1.135  1.00  0.00     0.264 S 
HETATM   25  O5  UNL     1       1.994   0.820  -2.169  1.00  0.00    -0.200 OA
HETATM   26  O6  UNL     1       2.696   3.042  -1.479  1.00  0.00    -0.200 OA
BRANCH  24  27
HETATM   27  C12 UNL     1       4.467   1.127  -1.431  1.00  0.00     0.080 A 
HETATM   28  C13 UNL     1       5.486   2.042  -1.268  1.00  0.00     0.026 A 
HETATM   29  C14 UNL     1       6.794   1.691  -1.506  1.00  0.00     0.020 A 
HETATM   30  C15 UNL     1       7.151   0.412  -1.918  1.00  0.00     0.011 A 
HETATM   31 BR1  UNL     1       8.975  -0.036  -2.239  1.00  0.00    -0.051 Br
HETATM   32  C16 UNL     1       6.118  -0.486  -2.076  1.00  0.00     0.020 A 
HETATM   33  C17 UNL     1       4.801  -0.145  -1.839  1.00  0.00     0.026 A 
ENDBRANCH  24  27
ENDBRANCH  22  24
ENDBRANCH   7  22
BRANCH   6  34
HETATM   34  O4  UNL     1       4.528   0.295   1.741  1.00  0.00    -0.281 OA
ATOM     35  H4  UNL     1       4.494   1.140   1.309  1.00  0.00     0.245 HD
ENDBRANCH   6  34
TORSDOF 12
