REMARK  10 active torsions:
REMARK  status: ('A' for Active; 'I' for Inactive)
REMARK    1  A    between atoms: O1_2  and  C2_3 
REMARK    2  A    between atoms: C2_3  and  C3_5 
REMARK    3  A    between atoms: C3_5  and  N1_6 
REMARK    4  A    between atoms: C3_5  and  C21_33 
REMARK       I    between atoms: N1_6  and  C4_8 
REMARK    5  A    between atoms: C4_8  and  C5_10 
REMARK       I    between atoms: N2_13  and  C7_14 
REMARK    6  A    between atoms: C7_14  and  C8_16 
REMARK    7  A    between atoms: C8_16  and  N3_18 
REMARK       I    between atoms: N3_18  and  C10_20 
REMARK    8  A    between atoms: C10_20  and  O6_22 
REMARK    9  A    between atoms: O6_22  and  C11_23 
REMARK   10  A    between atoms: C11_23  and  C12_24 
ROOT
HETATM    1  C5  UNL     1      -2.151  -0.665  -0.970  1.00  0.00     0.139 A 
HETATM    2 BR1  UNL     1      -2.736  -1.217  -2.736  1.00  0.00    -0.071 Br
HETATM    3  C6  UNL     1      -0.958  -1.457  -0.498  1.00  0.00     0.160 A 
HETATM    4  N2  UNL     1      -0.114  -0.314  -0.504  1.00  0.00    -0.338 N 
HETATM    5  C7  UNL     1       1.236  -0.042  -0.208  1.00  0.00     0.243 C 
HETATM    6  O4  UNL     1       1.687   1.137  -0.323  1.00  0.00    -0.271 OA
HETATM    7  C18 UNL     1      -1.225   0.492  -0.950  1.00  0.00     0.056 A 
HETATM    8  C19 UNL     1      -1.533   1.554   0.080  1.00  0.00     0.040 C 
HETATM    9  C20 UNL     1      -0.899   1.115  -2.288  1.00  0.00     0.040 C 
ENDROOT
BRANCH   5  10
HETATM   10  C8  UNL     1       2.122  -1.153   0.238  1.00  0.00     0.175 C 
HETATM   11  C9  UNL     1       1.595  -1.784   1.514  1.00  0.00     0.042 C 
BRANCH  10  12
HETATM   12  N3  UNL     1       3.444  -0.660   0.484  1.00  0.00    -0.324 N 
HETATM   13  C10 UNL     1       4.532  -1.153  -0.288  1.00  0.00     0.361 C 
HETATM   14  O5  UNL     1       4.375  -2.012  -1.185  1.00  0.00    -0.238 OA
ATOM     15  H3  UNL     1       3.604   0.040   1.208  1.00  0.00     0.165 HD
BRANCH  13  16
HETATM   16  O6  UNL     1       5.795  -0.674  -0.045  1.00  0.00    -0.299 OA
BRANCH  16  17
HETATM   17  C11 UNL     1       6.887  -1.157  -0.807  1.00  0.00     0.219 C 
BRANCH  17  18
HETATM   18  C12 UNL     1       8.110  -0.474  -0.334  1.00  0.00    -0.034 A 
HETATM   19  C13 UNL     1       8.914  -0.937   0.670  1.00  0.00     0.009 A 
HETATM   20  C14 UNL     1      10.055  -0.254   1.077  1.00  0.00     0.001 A 
HETATM   21  C15 UNL     1      10.389   0.920   0.454  1.00  0.00     0.000 A 
HETATM   22  C16 UNL     1       9.597   1.404  -0.555  1.00  0.00     0.001 A 
HETATM   23  C17 UNL     1       8.468   0.718  -0.950  1.00  0.00     0.009 A 
ENDBRANCH  17  18
ENDBRANCH  16  17
ENDBRANCH  13  16
ENDBRANCH  10  12
ENDBRANCH   5  10
BRANCH   1  24
HETATM   24  C4  UNL     1      -3.232  -0.666   0.037  1.00  0.00     0.242 C 
HETATM   25  N1  UNL     1      -4.399   0.136  -0.090  1.00  0.00    -0.345 N 
ATOM     26  H1  UNL     1      -4.509   0.742  -0.903  1.00  0.00     0.163 HD
HETATM   27  O3  UNL     1      -3.139  -1.396   1.054  1.00  0.00    -0.272 OA
BRANCH  25  28
HETATM   28  C3  UNL     1      -5.432   0.101   0.923  1.00  0.00     0.187 C 
BRANCH  28  29
HETATM   29  C2  UNL     1      -5.643   1.442   1.535  1.00  0.00     0.281 C 
HETATM   30  O2  UNL     1      -4.964   2.430   1.161  1.00  0.00    -0.263 OA
BRANCH  29  31
HETATM   31  O1  UNL     1      -6.581   1.642   2.525  1.00  0.00    -0.325 OA
HETATM   32  C1  UNL     1      -6.832   2.877   3.146  1.00  0.00     0.213 C 
ENDBRANCH  29  31
ENDBRANCH  28  29
BRANCH  28  33
HETATM   33  C21 UNL     1      -6.737  -0.437   0.375  1.00  0.00     0.010 C 
HETATM   34  C22 UNL     1      -6.499  -1.788  -0.237  1.00  0.00     0.012 C 
HETATM   35  C23 UNL     1      -7.407   0.523  -0.557  1.00  0.00     0.012 C 
ENDBRANCH  28  33
ENDBRANCH  25  28
ENDBRANCH   1  24
TORSDOF 10
