REMARK  9 active torsions:
REMARK  status: ('A' for Active; 'I' for Inactive)
REMARK    1  A    between atoms: C2_2  and  C3_3 
REMARK       I    between atoms: C3_3  and  N1_5 
REMARK    2  A    between atoms: N1_5  and  N2_7 
REMARK    3  A    between atoms: C4_9  and  C5_10 
REMARK    4  A    between atoms: C11_16  and  C12_17 
REMARK       I    between atoms: N4_24  and  C17_25 
REMARK    5  A    between atoms: C17_25  and  C18_27 
REMARK    6  A    between atoms: C18_27  and  C19_28 
REMARK    7  A    between atoms: C18_27  and  N5_36 
REMARK    8  A    between atoms: C19_28  and  C20_29 
REMARK    9  A    between atoms: N5_36  and  S1_38 
ROOT
HETATM    1  C1  UNL     1       0.174  -0.789   3.352  1.00  0.00     0.052 C 
HETATM    2  C2  UNL     1       0.325   0.203   2.183  1.00  0.00     0.139 A 
HETATM    3  C11 UNL     1       0.182   1.676   2.522  1.00  0.00     0.160 A 
HETATM    4  N4  UNL     1      -0.837   0.921   1.783  1.00  0.00    -0.318 N 
HETATM    5  C17 UNL     1      -2.110   1.032   1.169  1.00  0.00     0.245 C 
HETATM    6  O2  UNL     1      -2.731   2.132   1.137  1.00  0.00    -0.271 OA
ENDROOT
BRANCH   2   7
HETATM    7  C3  UNL     1       1.464  -0.094   1.318  1.00  0.00     0.266 C 
HETATM    8  O1  UNL     1       2.458  -0.776   1.713  1.00  0.00    -0.269 OA
HETATM    9  N1  UNL     1       1.534   0.361  -0.025  1.00  0.00    -0.268 N 
ATOM     10  H1  UNL     1       0.759   0.915  -0.391  1.00  0.00     0.190 HD
BRANCH   9  11
HETATM   11  N2  UNL     1       2.610   0.088  -0.868  1.00  0.00    -0.308 N 
HETATM   12  C4  UNL     1       3.826   0.363  -0.667  1.00  0.00     0.118 C 
ATOM     13  H2  UNL     1       2.391  -0.386  -1.744  1.00  0.00     0.186 HD
BRANCH  12  14
HETATM   14  C5  UNL     1       4.838   0.008  -1.654  1.00  0.00    -0.019 A 
HETATM   15  C6  UNL     1       4.482  -0.643  -2.830  1.00  0.00     0.013 A 
HETATM   16  C7  UNL     1       5.463  -0.961  -3.733  1.00  0.00     0.001 A 
HETATM   17  C8  UNL     1       6.772  -0.646  -3.487  1.00  0.00     0.000 A 
HETATM   18  C9  UNL     1       7.139  -0.003  -2.329  1.00  0.00     0.001 A 
HETATM   19  C10 UNL     1       6.167   0.322  -1.413  1.00  0.00     0.013 A 
ENDBRANCH  12  14
ENDBRANCH   9  11
ENDBRANCH   2   7
BRANCH   3  20
HETATM   20  C12 UNL     1       1.021   2.674   1.872  1.00  0.00    -0.017 A 
HETATM   21  C13 UNL     1       0.607   3.664   1.013  1.00  0.00     0.012 A 
HETATM   22  C14 UNL     1       1.521   4.541   0.481  1.00  0.00     0.018 A 
HETATM   23  C15 UNL     1       2.871   4.456   0.789  1.00  0.00     0.087 A 
HETATM   24  N3  UNL     1       3.265   3.489   1.626  1.00  0.00    -0.375 N 
HETATM   25  C16 UNL     1       2.376   2.640   2.141  1.00  0.00     0.096 A 
ATOM     26  H3  UNL     1       4.251   3.401   1.871  1.00  0.00     0.164 HD
ENDBRANCH   3  20
BRANCH   5  27
HETATM   27  C18 UNL     1      -2.829  -0.097   0.522  1.00  0.00     0.189 C 
BRANCH  27  28
HETATM   28  C19 UNL     1      -2.012  -0.867  -0.436  1.00  0.00     0.074 C 
BRANCH  28  29
HETATM   29  C20 UNL     1      -2.655  -1.991  -1.110  1.00  0.00    -0.056 A 
HETATM   30  C21 UNL     1      -2.689  -3.279  -0.616  1.00  0.00     0.010 A 
HETATM   31  C22 UNL     1      -3.287  -4.342  -1.258  1.00  0.00     0.043 A 
HETATM   32  C23 UNL     1      -3.901  -4.121  -2.482  1.00  0.00     0.116 A 
HETATM   33  F1  UNL     1      -4.496  -5.160  -3.127  1.00  0.00    -0.206 F 
HETATM   34  C24 UNL     1      -3.882  -2.852  -2.997  1.00  0.00     0.043 A 
HETATM   35  C25 UNL     1      -3.268  -1.788  -2.327  1.00  0.00     0.010 A 
ENDBRANCH  28  29
ENDBRANCH  27  28
BRANCH  27  36
HETATM   36  N5  UNL     1      -4.088   0.301   0.006  1.00  0.00    -0.306 N 
ATOM     37  H5  UNL     1      -4.145   0.930  -0.795  1.00  0.00     0.173 HD
BRANCH  36  38
HETATM   38  S1  UNL     1      -5.482  -0.281   0.736  1.00  0.00     0.223 S 
HETATM   39  C26 UNL     1      -5.652   0.196   2.438  1.00  0.00     0.185 C 
HETATM   40  O3  UNL     1      -5.719  -1.744   0.653  1.00  0.00    -0.206 OA
HETATM   41  O4  UNL     1      -6.664   0.367   0.019  1.00  0.00    -0.206 OA
ENDBRANCH  36  38
ENDBRANCH  27  36
ENDBRANCH   5  27
TORSDOF 9
