REMARK  9 active torsions:
REMARK  status: ('A' for Active; 'I' for Inactive)
REMARK    1  A    between atoms: O1_2  and  C2_3 
REMARK    2  A    between atoms: C5_6  and  S1_7 
REMARK    3  A    between atoms: S1_7  and  N1_10 
REMARK    4  A    between atoms: N1_10  and  C6_11 
REMARK    5  A    between atoms: N1_10  and  C14_28 
REMARK    6  A    between atoms: C6_11  and  C7_12 
REMARK       I    between atoms: C7_12  and  N2_14 
REMARK    7  A    between atoms: N2_14  and  C8_16 
REMARK    8  A    between atoms: C11_19  and  S2_20 
REMARK    9  A    between atoms: S2_20  and  N3_21 
ROOT
HETATM    1  N1  UNL     1      -1.372  -1.041   0.755  1.00  0.00    -0.260 N 
ENDROOT
BRANCH   1   2
HETATM    2  S1  UNL     1      -2.154   0.168   1.709  1.00  0.00     0.265 S 
HETATM    3  O2  UNL     1      -3.084  -0.475   2.726  1.00  0.00    -0.200 OA
HETATM    4  O3  UNL     1      -1.145   0.930   2.497  1.00  0.00    -0.200 OA
BRANCH   2   5
HETATM    5  C5  UNL     1      -3.138   1.225   0.724  1.00  0.00     0.080 A 
HETATM    6  C4  UNL     1      -2.650   2.382   0.155  1.00  0.00     0.028 A 
HETATM    7  C3  UNL     1      -3.424   3.216  -0.622  1.00  0.00     0.038 A 
HETATM    8  C2  UNL     1      -4.748   2.918  -0.865  1.00  0.00     0.068 A 
HETATM    9  C22 UNL     1      -5.253   1.766  -0.305  1.00  0.00     0.038 A 
HETATM   10  C21 UNL     1      -4.466   0.943   0.469  1.00  0.00     0.028 A 
BRANCH   8  11
HETATM   11  O1  UNL     1      -5.521   3.764  -1.649  1.00  0.00    -0.356 OA
HETATM   12  C1  UNL     1      -5.010   4.932  -2.218  1.00  0.00     0.210 C 
ENDBRANCH   8  11
ENDBRANCH   2   5
ENDBRANCH   1   2
BRANCH   1  13
HETATM   13  C6  UNL     1      -0.448  -0.643  -0.267  1.00  0.00     0.245 C 
BRANCH  13  14
HETATM   14  C7  UNL     1       0.878  -0.241   0.222  1.00  0.00     0.241 C 
HETATM   15  O4  UNL     1       1.182  -0.221   1.421  1.00  0.00    -0.271 OA
HETATM   16  N2  UNL     1       1.869   0.148  -0.726  1.00  0.00    -0.326 N 
ATOM     17  H2  UNL     1       1.582   0.125  -1.704  1.00  0.00     0.169 HD
BRANCH  16  18
HETATM   18  C8  UNL     1       3.186   0.558  -0.486  1.00  0.00     0.034 A 
HETATM   19  C9  UNL     1       3.858   1.178  -1.531  1.00  0.00     0.031 A 
HETATM   20  C10 UNL     1       5.153   1.603  -1.414  1.00  0.00     0.027 A 
HETATM   21  C11 UNL     1       5.825   1.417  -0.227  1.00  0.00     0.079 A 
HETATM   22  C12 UNL     1       5.210   0.813   0.834  1.00  0.00     0.027 A 
HETATM   23  C13 UNL     1       3.882   0.386   0.687  1.00  0.00     0.031 A 
BRANCH  21  24
HETATM   24  S2  UNL     1       7.495   1.966  -0.074  1.00  0.00     0.256 S 
HETATM   25  O5  UNL     1       7.721   2.404   1.328  1.00  0.00    -0.201 OA
HETATM   26  O6  UNL     1       7.660   3.144  -1.008  1.00  0.00    -0.201 OA
BRANCH  24  27
HETATM   27  N3  UNL     1       8.570   0.696  -0.547  1.00  0.00    -0.324 N 
ATOM     28  H32 UNL     1       8.269  -0.225  -0.864  1.00  0.00     0.169 HD
ATOM     29  H31 UNL     1       9.535   1.013  -0.459  1.00  0.00     0.169 HD
ENDBRANCH  24  27
ENDBRANCH  21  24
ENDBRANCH  16  18
ENDBRANCH  13  14
ENDBRANCH   1  13
BRANCH   1  30
HETATM   30  C14 UNL     1      -1.700  -2.407   0.865  1.00  0.00     0.084 A 
HETATM   31  C15 UNL     1      -2.690  -2.929   0.019  1.00  0.00     0.033 A 
HETATM   32  C16 UNL     1      -3.060  -4.256   0.041  1.00  0.00     0.003 A 
HETATM   33  C17 UNL     1      -2.437  -5.106   0.924  1.00  0.00     0.010 A 
HETATM   34  C18 UNL     1      -1.477  -4.635   1.756  1.00  0.00    -0.021 A 
HETATM   35  C19 UNL     1      -0.813  -5.566   2.706  1.00  0.00     0.051 C 
HETATM   36  C20 UNL     1      -1.114  -3.267   1.715  1.00  0.00     0.149 A 
HETATM   37  F1  UNL     1      -0.176  -2.910   2.593  1.00  0.00    -0.203 F 
ENDBRANCH   1  30
TORSDOF 9
