REMARK  7 active torsions:
REMARK  status: ('A' for Active; 'I' for Inactive)
REMARK    1  A    between atoms: N1_7  and  C5_8 
REMARK    2  A    between atoms: C8_12  and  C9_13 
REMARK    3  A    between atoms: C9_13  and  S1_14 
REMARK    4  A    between atoms: S1_14  and  N2_17 
REMARK    5  A    between atoms: C12_20  and  N3_21 
REMARK    6  A    between atoms: C12_20  and  C16_26 
REMARK    7  A    between atoms: N3_21  and  C13_23 
ROOT
HETATM    1  C9  UNL     1      -0.235  -1.048  -0.306  1.00  0.00     0.167 C 
ENDROOT
BRANCH   1   2
HETATM    2  C8  UNL     1      -1.719  -1.038  -0.193  1.00  0.00    -0.023 C 
HETATM    3  C7  UNL     1      -2.437  -0.459  -1.359  1.00  0.00     0.049 C 
HETATM    4  C6  UNL     1      -3.918  -0.384  -1.250  1.00  0.00     0.194 C 
HETATM    5  C5  UNL     1      -4.513  -0.631   0.098  1.00  0.00     0.125 C 
HETATM    6  F1  UNL     1      -4.387   0.828  -1.723  1.00  0.00    -0.247 F 
HETATM    7  C22 UNL     1      -3.563  -0.822   1.204  1.00  0.00     0.012 C 
HETATM    8  C21 UNL     1      -3.191  -2.287   1.295  1.00  0.00     0.007 C 
HETATM    9  C23 UNL     1      -2.197  -0.194   1.006  1.00  0.00     0.017 C 
HETATM   10  C20 UNL     1      -2.189  -2.425   0.163  1.00  0.00     0.011 C 
BRANCH   5  11
HETATM   11  N1  UNL     1      -5.500   0.407   0.429  1.00  0.00    -0.341 N 
HETATM   12  C1  UNL     1      -6.902   0.097   0.457  1.00  0.00     0.244 C 
HETATM   13  O1  UNL     1      -7.300  -1.072   0.217  1.00  0.00    -0.271 OA
HETATM   14  C2  UNL     1      -7.931   1.117   0.760  1.00  0.00     0.270 C 
HETATM   15  O2  UNL     1      -7.449   2.378   0.983  1.00  0.00    -0.380 OA
HETATM   16  C3  UNL     1      -6.280   2.662   0.305  1.00  0.00     0.188 C 
HETATM   17  C4  UNL     1      -5.138   1.760   0.772  1.00  0.00     0.152 C 
ENDBRANCH   5  11
ENDBRANCH   1   2
BRANCH   1  18
HETATM   18  S1  UNL     1       0.574   0.480  -0.448  1.00  0.00     0.212 S 
HETATM   19  O3  UNL     1       0.328   1.377   0.751  1.00  0.00    -0.211 OA
HETATM   20  O4  UNL     1       0.161   1.264  -1.702  1.00  0.00    -0.211 OA
BRANCH  18  21
HETATM   21  N2  UNL     1       2.250   0.296  -0.598  1.00  0.00    -0.208 NA
HETATM   22  C10 UNL     1       2.651  -0.422  -1.765  1.00  0.00     0.110 C 
HETATM   23  C11 UNL     1       4.122  -0.666  -1.554  1.00  0.00     0.048 C 
HETATM   24  C12 UNL     1       4.449  -0.100  -0.194  1.00  0.00     0.043 C 
HETATM   25  C19 UNL     1       2.984  -0.243   0.490  1.00  0.00     0.138 C 
BRANCH  24  26
HETATM   26  N3  UNL     1       4.662   1.253  -0.111  1.00  0.00    -0.407 N 
ATOM     27  H3  UNL     1       4.009   1.754   0.492  1.00  0.00     0.154 HD
BRANCH  26  28
HETATM   28  C13 UNL     1       5.619   2.044  -0.713  1.00  0.00     0.077 A 
HETATM   29  C14 UNL     1       6.411   2.924   0.290  1.00  0.00     0.027 A 
HETATM   30  C15 UNL     1       7.075   2.014  -0.667  1.00  0.00     0.027 A 
ENDBRANCH  26  28
ENDBRANCH  24  26
BRANCH  24  31
HETATM   31  C16 UNL     1       5.299  -0.963   0.662  1.00  0.00     0.015 A 
HETATM   32  C17 UNL     1       6.615  -1.486   0.209  1.00  0.00     0.007 A 
HETATM   33  C18 UNL     1       5.498  -2.400   0.506  1.00  0.00     0.007 A 
ENDBRANCH  24  31
ENDBRANCH  18  21
ENDBRANCH   1  18
TORSDOF 7
