REMARK  7 active torsions:
REMARK  status: ('A' for Active; 'I' for Inactive)
REMARK    1  A    between atoms: C2_2  and  C4_5 
REMARK    2  A    between atoms: C4_5  and  C5_7 
REMARK    3  A    between atoms: C6_8  and  C7_9 
REMARK       I    between atoms: C7_9  and  N1_11 
REMARK    4  A    between atoms: N2_14  and  S1_15 
REMARK    5  A    between atoms: S1_15  and  C10_18 
REMARK    6  A    between atoms: C10_18  and  C11_19 
REMARK    7  A    between atoms: C16_24  and  C18_26 
ROOT
HETATM    1  C7  UNL     1       2.632  -0.218   1.133  1.00  0.00     0.243 C 
HETATM    2  O2  UNL     1       2.694   0.631   2.055  1.00  0.00    -0.268 OA
HETATM    3  N1  UNL     1       1.447  -0.997   1.027  1.00  0.00    -0.342 N 
HETATM    4  C8  UNL     1       0.337  -0.837   1.933  1.00  0.00     0.171 C 
HETATM    5  C9  UNL     1      -0.994  -0.777   1.211  1.00  0.00     0.096 C 
HETATM    6  N2  UNL     1      -1.069  -1.586   0.078  1.00  0.00    -0.287 N 
HETATM    7  C19 UNL     1      -0.015  -2.570  -0.045  1.00  0.00     0.160 C 
HETATM    8  C20 UNL     1       1.353  -1.981  -0.024  1.00  0.00     0.147 C 
ENDROOT
BRANCH   6   9
HETATM    9  S1  UNL     1      -1.710  -1.043  -1.357  1.00  0.00     0.232 S 
HETATM   10  O3  UNL     1      -1.513  -2.197  -2.383  1.00  0.00    -0.205 OA
HETATM   11  O4  UNL     1      -0.768   0.034  -1.919  1.00  0.00    -0.205 OA
BRANCH   9  12
HETATM   12  C10 UNL     1      -3.351  -0.569  -1.434  1.00  0.00     0.174 C 
BRANCH  12  13
HETATM   13  C11 UNL     1      -3.975   0.499  -0.709  1.00  0.00    -0.008 C 
HETATM   14  C12 UNL     1      -3.470   1.917  -0.836  1.00  0.00     0.012 C 
HETATM   15  C13 UNL     1      -4.670   2.670  -0.264  1.00  0.00     0.007 C 
HETATM   16  C14 UNL     1      -5.627   1.510  -0.100  1.00  0.00     0.006 C 
HETATM   17  C15 UNL     1      -5.416   0.788  -1.367  1.00  0.00     0.017 C 
HETATM   18  C16 UNL     1      -4.710   0.459   0.550  1.00  0.00     0.057 C 
HETATM   19  C17 UNL     1      -4.069   1.079   1.803  1.00  0.00     0.028 C 
BRANCH  18  20
HETATM   20  C18 UNL     1      -5.428  -0.745   0.972  1.00  0.00     0.182 C 
HETATM   21  O5  UNL     1      -5.011  -1.393   1.965  1.00  0.00    -0.647 OA
HETATM   22  O6  UNL     1      -6.547  -1.229   0.348  1.00  0.00    -0.647 OA
ENDBRANCH  18  20
ENDBRANCH  12  13
ENDBRANCH   9  12
ENDBRANCH   6   9
BRANCH   1  23
HETATM   23  C6  UNL     1       3.746  -0.403   0.196  1.00  0.00     0.078 C 
HETATM   24  C5  UNL     1       4.852   0.309   0.279  1.00  0.00     0.057 C 
BRANCH  24  25
HETATM   25  C4  UNL     1       5.923   0.081  -0.680  1.00  0.00     0.172 C 
HETATM   26  O1  UNL     1       5.790  -0.789  -1.579  1.00  0.00    -0.291 OA
BRANCH  25  27
HETATM   27  C2  UNL     1       7.190   0.866  -0.619  1.00  0.00     0.094 C 
HETATM   28  C1  UNL     1       7.823   0.598   0.748  1.00  0.00     0.041 C 
HETATM   29  C3  UNL     1       8.130   0.420  -1.691  1.00  0.00     0.041 C 
HETATM   30 CL1  UNL     1       6.868   2.603  -0.785  1.00  0.00    -0.111 Cl
ENDBRANCH  25  27
ENDBRANCH  24  25
ENDBRANCH   1  23
TORSDOF 7
