REMARK  9 active torsions:
REMARK  status: ('A' for Active; 'I' for Inactive)
REMARK    1  A    between atoms: N1_2  and  S1_4 
REMARK    2  A    between atoms: S1_4  and  C3_7 
REMARK    3  A    between atoms: C6_10  and  C7_11 
REMARK    4  A    between atoms: C7_11  and  O3_12 
REMARK    5  A    between atoms: C7_11  and  N2_14 
REMARK    6  A    between atoms: N2_14  and  N3_15 
REMARK    7  A    between atoms: N2_14  and  S2_23 
REMARK    8  A    between atoms: N3_15  and  C8_17 
REMARK    9  A    between atoms: S2_23  and  C14_26 
ROOT
HETATM    1  N2  UNL     1      -1.755  -0.070   0.423  1.00  0.00    -0.152 N 
ENDROOT
BRANCH   1   2
HETATM    2  C7  UNL     1      -0.580  -0.285   1.126  1.00  0.00     0.183 C 
BRANCH   2   3
HETATM    3  C6  UNL     1       0.778   0.129   0.876  1.00  0.00     0.017 A 
HETATM    4  C5  UNL     1       1.239   0.810  -0.224  1.00  0.00     0.017 A 
HETATM    5  C4  UNL     1       2.568   1.203  -0.396  1.00  0.00     0.026 A 
HETATM    6  C3  UNL     1       3.469   0.894   0.585  1.00  0.00     0.074 A 
HETATM    7  C21 UNL     1       3.080   0.217   1.708  1.00  0.00     0.026 A 
HETATM    8  C20 UNL     1       1.763  -0.153   1.842  1.00  0.00     0.017 A 
BRANCH   6   9
HETATM    9  S1  UNL     1       5.152   1.364   0.411  1.00  0.00     0.242 S 
HETATM   10  O1  UNL     1       5.728   1.804   1.704  1.00  0.00    -0.206 OA
HETATM   11  O2  UNL     1       5.223   2.553  -0.532  1.00  0.00    -0.206 OA
BRANCH   9  12
HETATM   12  N1  UNL     1       6.033   0.096  -0.323  1.00  0.00    -0.215 NA
HETATM   13  C1  UNL     1       5.572  -0.227  -1.637  1.00  0.00     0.129 C 
HETATM   14  C2  UNL     1       6.166  -1.041   0.536  1.00  0.00     0.129 C 
ENDBRANCH   9  12
ENDBRANCH   6   9
ENDBRANCH   2   3
BRANCH   2  15
HETATM   15  O3  UNL     1      -0.732  -0.990   2.212  1.00  0.00    -0.344 OA
ATOM     16  H3  UNL     1      -1.627  -1.263   2.377  1.00  0.00     0.219 HD
ENDBRANCH   2  15
ENDBRANCH   1   2
BRANCH   1  17
HETATM   17  N3  UNL     1      -1.820   0.673  -0.747  1.00  0.00    -0.282 N 
ATOM     18  H3  UNL     1      -1.517   0.243  -1.621  1.00  0.00     0.188 HD
BRANCH  17  19
HETATM   19  C8  UNL     1      -2.298   2.024  -0.769  1.00  0.00     0.049 A 
HETATM   20  C9  UNL     1      -2.665   2.722   0.352  1.00  0.00     0.031 A 
HETATM   21  C10 UNL     1      -3.135   4.025   0.288  1.00  0.00     0.002 A 
HETATM   22  C11 UNL     1      -3.240   4.646  -0.919  1.00  0.00     0.000 A 
HETATM   23  C12 UNL     1      -2.874   3.962  -2.068  1.00  0.00     0.002 A 
HETATM   24  C13 UNL     1      -2.407   2.661  -1.986  1.00  0.00     0.031 A 
ENDBRANCH  17  19
ENDBRANCH   1  17
BRANCH   1  25
HETATM   25  S2  UNL     1      -3.238  -0.783   1.026  1.00  0.00     0.284 S 
HETATM   26  O4  UNL     1      -4.406   0.121   0.791  1.00  0.00    -0.198 OA
HETATM   27  O5  UNL     1      -3.076  -0.993   2.499  1.00  0.00    -0.198 OA
BRANCH  25  28
HETATM   28  C14 UNL     1      -3.510  -2.338   0.279  1.00  0.00     0.084 A 
HETATM   29  C15 UNL     1      -3.021  -3.507   0.821  1.00  0.00     0.025 A 
HETATM   30  C16 UNL     1      -3.253  -4.725   0.204  1.00  0.00     0.005 A 
HETATM   31  C17 UNL     1      -3.974  -4.795  -0.959  1.00  0.00     0.042 A 
HETATM   32  C18 UNL     1      -4.468  -3.655  -1.516  1.00  0.00     0.117 A 
HETATM   33  F1  UNL     1      -5.180  -3.735  -2.668  1.00  0.00    -0.206 F 
HETATM   34  C19 UNL     1      -4.234  -2.432  -0.895  1.00  0.00     0.067 A 
ENDBRANCH  25  28
ENDBRANCH   1  25
TORSDOF 9
