REMARK  6 active torsions:
REMARK  status: ('A' for Active; 'I' for Inactive)
REMARK    1  A    between atoms: N1_2  and  C2_3 
REMARK    2  A    between atoms: N1_2  and  S2_18 
REMARK    3  A    between atoms: C2_3  and  C3_4 
REMARK       I    between atoms: C3_4  and  N2_6 
REMARK    4  A    between atoms: N2_6  and  C4_8 
REMARK    5  A    between atoms: C7_11  and  S1_12 
REMARK    6  A    between atoms: S2_18  and  C11_21 
ROOT
HETATM    1  C3  UNL     1      -0.066  -0.652   1.276  1.00  0.00     0.240 C 
HETATM    2  O1  UNL     1      -0.559  -1.669   1.817  1.00  0.00    -0.271 OA
HETATM    3  N2  UNL     1      -0.817   0.166   0.430  1.00  0.00    -0.326 N 
ATOM      4  H2  UNL     1      -0.321   0.967   0.038  1.00  0.00     0.169 HD
ENDROOT
BRANCH   1   5
HETATM    5  C2  UNL     1       1.378  -0.352   1.580  1.00  0.00     0.237 C 
BRANCH   5   6
HETATM    6  N1  UNL     1       1.856   0.816   0.918  1.00  0.00    -0.302 N 
HETATM    7  C1  UNL     1       2.546   1.765   1.726  1.00  0.00     0.163 C 
BRANCH   6   8
HETATM    8  S2  UNL     1       2.558   0.491  -0.594  1.00  0.00     0.260 S 
HETATM    9  O4  UNL     1       1.741  -0.606  -1.263  1.00  0.00    -0.200 OA
HETATM   10  O5  UNL     1       2.559   1.688  -1.478  1.00  0.00    -0.200 OA
BRANCH   8  11
HETATM   11  C11 UNL     1       4.180  -0.192  -0.437  1.00  0.00     0.079 A 
HETATM   12  C12 UNL     1       4.379  -1.554  -0.352  1.00  0.00     0.026 A 
HETATM   13  C13 UNL     1       5.639  -2.111  -0.229  1.00  0.00     0.020 A 
HETATM   14  C14 UNL     1       6.753  -1.298  -0.188  1.00  0.00     0.011 A 
HETATM   15 BR1  UNL     1       8.504  -2.046  -0.019  1.00  0.00    -0.051 Br
HETATM   16  C15 UNL     1       6.564   0.070  -0.273  1.00  0.00     0.020 A 
HETATM   17  C16 UNL     1       5.289   0.625  -0.397  1.00  0.00     0.026 A 
ENDBRANCH   8  11
ENDBRANCH   6   8
ENDBRANCH   5   6
ENDBRANCH   1   5
BRANCH   3  18
HETATM   18  C4  UNL     1      -2.157   0.038   0.046  1.00  0.00     0.034 A 
HETATM   19  C5  UNL     1      -3.051  -0.841   0.587  1.00  0.00     0.031 A 
HETATM   20  C6  UNL     1      -4.388  -0.945   0.160  1.00  0.00     0.025 A 
HETATM   21  C7  UNL     1      -4.832  -0.135  -0.844  1.00  0.00     0.059 A 
HETATM   22  C9  UNL     1      -3.966   0.765  -1.417  1.00  0.00     0.025 A 
HETATM   23  C10 UNL     1      -2.663   0.850  -0.985  1.00  0.00     0.031 A 
BRANCH  21  24
HETATM   24  S1  UNL     1      -6.470  -0.216  -1.414  1.00  0.00     0.171 S 
HETATM   25  C8  UNL     1      -7.507   0.908  -0.487  1.00  0.00     0.167 C 
HETATM   26  O2  UNL     1      -6.480   0.196  -2.876  1.00  0.00    -0.223 OA
HETATM   27  O3  UNL     1      -7.028  -1.602  -1.359  1.00  0.00    -0.223 OA
ENDBRANCH  21  24
ENDBRANCH   3  18
TORSDOF 6
