REMARK  6 active torsions:
REMARK  status: ('A' for Active; 'I' for Inactive)
REMARK    1  A    between atoms: C2_2  and  C3_3 
REMARK       I    between atoms: C3_3  and  N1_5 
REMARK    2  A    between atoms: N2_8  and  S1_9 
REMARK    3  A    between atoms: S1_9  and  C6_12 
REMARK    4  A    between atoms: C10_16  and  N3_17 
REMARK       I    between atoms: N3_17  and  C11_18 
REMARK    5  A    between atoms: C11_18  and  C12_20 
REMARK    6  A    between atoms: C14_23  and  C15_24 
ROOT
HETATM    1  C12 UNL     1       5.059   1.331  -0.356  1.00  0.00     0.127 C 
HETATM    2  C13 UNL     1       6.440   1.586  -0.628  1.00  0.00     0.106 C 
HETATM    3  N4  UNL     1       7.540   1.808  -0.843  1.00  0.00    -0.191 NA
HETATM    4  C14 UNL     1       4.707   0.147   0.062  1.00  0.00     0.044 C 
ENDROOT
BRANCH   1   5
HETATM    5  C11 UNL     1       4.101   2.466  -0.557  1.00  0.00     0.337 C 
HETATM    6  N3  UNL     1       2.820   2.369  -0.373  1.00  0.00    -0.366 NA
HETATM    7  O4  UNL     1       4.741   3.522  -0.932  1.00  0.00    -0.250 OA
BRANCH   6   8
HETATM    8  C10 UNL     1       1.428   2.264  -0.173  1.00  0.00     0.112 A 
HETATM    9  C9  UNL     1       0.681   3.258   0.456  1.00  0.00     0.045 A 
HETATM   10  C8  UNL     1      -0.687   3.150   0.636  1.00  0.00     0.005 A 
HETATM   11  C7  UNL     1      -1.338   1.997   0.159  1.00  0.00     0.025 A 
HETATM   12  C6  UNL     1      -0.643   1.012  -0.461  1.00  0.00     0.083 A 
HETATM   13  C21 UNL     1       0.721   1.163  -0.613  1.00  0.00     0.070 A 
BRANCH  12  14
HETATM   14  S1  UNL     1      -1.351  -0.441  -1.056  1.00  0.00     0.264 S 
HETATM   15  O2  UNL     1      -1.144  -0.488  -2.558  1.00  0.00    -0.200 OA
HETATM   16  O3  UNL     1      -0.405  -1.584  -0.567  1.00  0.00    -0.200 OA
BRANCH  14  17
HETATM   17  N2  UNL     1      -2.872  -0.880  -0.583  1.00  0.00    -0.283 N 
HETATM   18  C5  UNL     1      -3.893   0.054  -0.953  1.00  0.00     0.160 C 
HETATM   19  C4  UNL     1      -5.181  -0.800  -1.232  1.00  0.00     0.147 C 
HETATM   20  N1  UNL     1      -5.520  -1.247   0.119  1.00  0.00    -0.342 N 
HETATM   21  C3  UNL     1      -6.720  -0.962   0.788  1.00  0.00     0.242 C 
HETATM   22  C23 UNL     1      -4.490  -2.043   0.771  1.00  0.00     0.171 C 
HETATM   23  O1  UNL     1      -6.871  -1.428   1.974  1.00  0.00    -0.268 OA
HETATM   24  C22 UNL     1      -3.103  -1.425   0.695  1.00  0.00     0.096 C 
BRANCH  21  25
HETATM   25  C2  UNL     1      -7.767  -0.171   0.185  1.00  0.00     0.064 C 
HETATM   26  C1  UNL     1      -8.872   0.061   0.879  1.00  0.00     0.017 C 
ENDBRANCH  21  25
ENDBRANCH  14  17
ENDBRANCH  12  14
ENDBRANCH   6   8
ENDBRANCH   1   5
BRANCH   4  27
HETATM   27  C15 UNL     1       5.768  -0.861   0.207  1.00  0.00     0.004 A 
HETATM   28  C16 UNL     1       6.457  -1.380  -0.843  1.00  0.00     0.014 A 
HETATM   29  C17 UNL     1       7.523  -2.247  -0.647  1.00  0.00     0.001 A 
HETATM   30  C18 UNL     1       7.925  -2.620   0.623  1.00  0.00     0.003 A 
HETATM   31  C19 UNL     1       7.207  -2.084   1.694  1.00  0.00     0.043 A 
HETATM   32  C20 UNL     1       6.141  -1.215   1.484  1.00  0.00     0.126 A 
HETATM   33  F1  UNL     1       5.512  -0.736   2.598  1.00  0.00    -0.205 F 
ENDBRANCH   4  27
TORSDOF 6
