REMARK  11 active torsions:
REMARK  status: ('A' for Active; 'I' for Inactive)
REMARK       I    between atoms: C1_2  and  N1_3 
REMARK       I    between atoms: C1_2  and  N2_15 
REMARK    1  A    between atoms: N1_3  and  C2_5 
REMARK    2  A    between atoms: C2_5  and  C3_6 
REMARK    3  A    between atoms: C3_6  and  C4_7 
REMARK    4  A    between atoms: C4_7  and  C5_9 
REMARK    5  A    between atoms: C6_10  and  C7_11 
REMARK    6  A    between atoms: C7_11  and  C8_12 
REMARK    7  A    between atoms: N3_18  and  C12_19 
REMARK    8  A    between atoms: C12_19  and  O2_20 
REMARK    9  A    between atoms: C12_19  and  N4_22 
REMARK   10  A    between atoms: C16_26  and  C17_27 
REMARK   11  A    between atoms: C17_27  and  O3_28 
ROOT
HETATM    1  O1  UNL     1       1.949  -1.010  -2.129  1.00  0.00    -0.247 OA
HETATM    2  C1  UNL     1       1.398  -0.014  -1.639  1.00  0.00     0.322 C 
HETATM    3  N1  UNL     1       1.984   1.225  -1.395  1.00  0.00    -0.323 N 
ATOM      4  H1  UNL     1       1.343   1.911  -0.997  1.00  0.00     0.169 HD
HETATM    5  N2  UNL     1      -0.011  -0.168  -1.287  1.00  0.00    -0.328 N 
HETATM    6  C10 UNL     1      -0.731   0.916  -0.734  1.00  0.00     0.172 C 
HETATM    7  C11 UNL     1      -2.207   0.603  -0.510  1.00  0.00     0.087 C 
HETATM    8  N3  UNL     1      -2.484  -0.709  -0.084  1.00  0.00    -0.324 N 
HETATM    9  C18 UNL     1      -1.374  -1.712  -0.136  1.00  0.00     0.151 C 
HETATM   10  C19 UNL     1      -0.696  -1.436  -1.487  1.00  0.00     0.148 C 
ENDROOT
BRANCH   3  11
HETATM   11  C2  UNL     1       3.296   1.718  -1.591  1.00  0.00     0.067 C 
BRANCH  11  12
HETATM   12  C3  UNL     1       4.449   1.209  -0.859  1.00  0.00     0.073 C 
BRANCH  12  13
HETATM   13  C4  UNL     1       4.913  -0.181  -1.048  1.00  0.00     0.141 C 
HETATM   14 BR1  UNL     1       5.450  -0.526  -2.884  1.00  0.00    -0.077 Br
BRANCH  13  15
HETATM   15  C5  UNL     1       6.178  -0.336  -0.231  1.00  0.00    -0.090 C 
HETATM   16  C6  UNL     1       7.186  -0.477   0.407  1.00  0.00    -0.102 C 
BRANCH  16  17
HETATM   17  C7  UNL     1       8.418  -0.667   1.166  1.00  0.00     0.122 C 
BRANCH  17  18
HETATM   18  C8  UNL     1       8.362   0.025   2.482  1.00  0.00    -0.003 C 
HETATM   19  C9  UNL     1       8.487  -0.697   3.585  1.00  0.00     0.081 C 
HETATM   20 CL1  UNL     1       8.434   0.031   5.181  1.00  0.00    -0.097 Cl
ENDBRANCH  17  18
ENDBRANCH  16  17
ENDBRANCH  13  15
ENDBRANCH  12  13
ENDBRANCH  11  12
ENDBRANCH   3  11
BRANCH   8  21
HETATM   21  C12 UNL     1      -3.714  -1.174   0.386  1.00  0.00     0.221 C 
BRANCH  21  22
HETATM   22  O2  UNL     1      -3.633  -2.467   0.788  1.00  0.00    -0.332 OA
ATOM     23  H2  UNL     1      -4.470  -2.783   1.108  1.00  0.00     0.221 HD
ENDBRANCH  21  22
BRANCH  21  24
HETATM   24  N4  UNL     1      -4.981  -0.690   0.556  1.00  0.00    -0.341 N 
HETATM   25  C13 UNL     1      -6.016  -1.583   1.267  1.00  0.00     0.127 C 
HETATM   26  C14 UNL     1      -6.506  -0.583   2.306  1.00  0.00     0.022 C 
HETATM   27  C15 UNL     1      -6.160   0.816   1.755  1.00  0.00     0.029 C 
HETATM   28  C16 UNL     1      -5.824   0.408   0.316  1.00  0.00     0.111 C 
BRANCH  28  29
HETATM   29  C17 UNL     1      -5.570   1.491  -0.615  1.00  0.00     0.189 C 
BRANCH  29  30
HETATM   30  O3  UNL     1      -5.477   0.937  -1.916  1.00  0.00    -0.399 OA
ATOM     31  H3  UNL     1      -5.311   1.646  -2.526  1.00  0.00     0.209 HD
ENDBRANCH  29  30
ENDBRANCH  28  29
ENDBRANCH  21  24
ENDBRANCH   8  21
TORSDOF 11
