REMARK  4 active torsions:
REMARK  status: ('A' for Active; 'I' for Inactive)
REMARK    1  A    between atoms: C5_5  and  C6_6 
REMARK       I    between atoms: C6_6  and  N1_8 
REMARK    2  A    between atoms: N1_8  and  C7_10 
REMARK    3  A    between atoms: C10_14  and  N3_15 
REMARK    4  A    between atoms: C16_27  and  N5_28 
ROOT
HETATM    1  C7  UNL     1       5.021  -0.482   0.853  1.00  0.00     0.146 A 
HETATM    2  C8  UNL     1       5.258  -1.284   2.058  1.00  0.00     0.093 C 
HETATM    3  N2  UNL     1       5.432  -1.915   3.024  1.00  0.00    -0.194 NA
HETATM    4  C9  UNL     1       6.176  -0.177  -0.052  1.00  0.00     0.079 A 
HETATM    5  C10 UNL     1       5.658   0.870   0.864  1.00  0.00     0.145 A 
ENDROOT
BRANCH   1   6
HETATM    6  N1  UNL     1       3.737  -0.653   0.203  1.00  0.00    -0.337 N 
HETATM    7  C6  UNL     1       2.513  -0.385   0.862  1.00  0.00     0.228 C 
HETATM    8  O1  UNL     1       2.564   0.015   2.053  1.00  0.00    -0.273 OA
ATOM      9  H1  UNL     1       3.714  -0.978  -0.764  1.00  0.00     0.164 HD
BRANCH   7  10
HETATM   10  C5  UNL     1       1.226  -0.563   0.188  1.00  0.00     0.042 C 
HETATM   11  C4  UNL     1       1.037   0.273  -1.037  1.00  0.00     0.020 C 
HETATM   12  C3  UNL     1       0.052   1.315  -0.751  1.00  0.00     0.008 C 
HETATM   13  C2  UNL     1      -1.404   1.042  -1.009  1.00  0.00     0.025 C 
HETATM   14  C1  UNL     1      -1.563   1.165  -2.497  1.00  0.00     0.012 C 
HETATM   15  C16 UNL     1      -2.107  -0.042  -0.260  1.00  0.00     0.208 C 
HETATM   16  C15 UNL     1      -2.723  -1.105  -1.132  1.00  0.00     0.278 C 
HETATM   17  C21 UNL     1      -1.159  -0.896   0.562  1.00  0.00     0.035 C 
HETATM   18  C14 UNL     1      -1.826  -1.840  -2.053  1.00  0.00     0.082 C 
HETATM   19  F1  UNL     1      -3.858  -0.813  -1.791  1.00  0.00    -0.203 F 
HETATM   20  F2  UNL     1      -3.090  -2.190  -0.287  1.00  0.00    -0.203 F 
HETATM   21  C13 UNL     1      -1.038  -2.809  -1.192  1.00  0.00     0.011 C 
HETATM   22  C12 UNL     1      -0.591  -2.132   0.014  1.00  0.00    -0.006 C 
HETATM   23  C11 UNL     1       0.932  -1.978  -0.152  1.00  0.00     0.024 C 
HETATM   24  C22 UNL     1       0.051  -0.332   1.158  1.00  0.00     0.027 C 
BRANCH  15  25
HETATM   25  N5  UNL     1      -3.156   0.574   0.555  1.00  0.00    -0.009 N 
HETATM   26  C17 UNL     1      -3.788   1.688  -0.154  1.00  0.00     0.282 C 
HETATM   27  C18 UNL     1      -2.454   1.273   1.667  1.00  0.00     0.257 C 
HETATM   28  C19 UNL     1      -3.520   1.944   2.520  1.00  0.00     0.110 C 
HETATM   29  S1  UNL     1      -4.317   0.316   2.934  1.00  0.00    -0.091 SA
HETATM   30  C20 UNL     1      -4.219  -0.086   1.119  1.00  0.00     0.241 C 
HETATM   31  S2  UNL     1      -5.332  -0.922   0.909  1.00  0.00    -0.045 SA
ENDBRANCH  15  25
ENDBRANCH   7  10
ENDBRANCH   1   6
BRANCH   5  32
HETATM   32  N3  UNL     1       4.953   2.001   0.340  1.00  0.00    -0.335 N 
HETATM   33  N4  UNL     1       4.516   2.838   1.147  1.00  0.00    -0.349 N 
ATOM     34  H42 UNL     1       4.663   2.709   2.148  1.00  0.00     0.176 HD
ATOM     35  H41 UNL     1       4.014   3.644   0.774  1.00  0.00     0.176 HD
ATOM     36  H3  UNL     1       4.814   2.116  -0.664  1.00  0.00     0.180 HD
ENDBRANCH   5  32
TORSDOF 4
