REMARK  7 active torsions:
REMARK  status: ('A' for Active; 'I' for Inactive)
REMARK    1  A    between atoms: C2_2  and  C3_4 
REMARK       I    between atoms: N3_11  and  C6_13 
REMARK    2  A    between atoms: C6_13  and  O2_15 
REMARK    3  A    between atoms: O2_15  and  C7_16 
REMARK    4  A    between atoms: C7_16  and  C8_17 
REMARK    5  A    between atoms: C9_18  and  C10_19 
REMARK    6  A    between atoms: C10_19  and  O3_20 
REMARK    7  A    between atoms: O3_20  and  C11_21 
ROOT
HETATM    1  C3  UNL     1      -2.264  -0.050   1.809  1.00  0.00     0.022 C 
HETATM    2  C4  UNL     1      -0.988   0.053   1.051  1.00  0.00     0.068 A 
HETATM    3  N1  UNL     1       0.082   0.828   1.247  1.00  0.00    -0.298 N 
ATOM      4  H1  UNL     1       0.181   1.511   1.998  1.00  0.00     0.187 HD
HETATM    5  N2  UNL     1       0.995   0.577   0.322  1.00  0.00    -0.284 N 
ATOM      6  H2  UNL     1       1.901   1.041   0.257  1.00  0.00     0.188 HD
HETATM    7  C5  UNL     1       0.560  -0.373  -0.517  1.00  0.00     0.133 A 
HETATM    8  N3  UNL     1       1.127  -0.909  -1.547  1.00  0.00    -0.287 N 
ATOM      9  H3  UNL     1       0.624  -1.629  -2.066  1.00  0.00     0.172 HD
HETATM   10  C6  UNL     1       2.418  -0.534  -1.980  1.00  0.00     0.367 C 
HETATM   11  O1  UNL     1       3.187  -1.465  -2.371  1.00  0.00    -0.238 OA
HETATM   12  C12 UNL     1      -0.712  -0.711  -0.053  1.00  0.00     0.020 A 
HETATM   13  C13 UNL     1      -1.710  -1.686  -0.549  1.00  0.00     0.029 C 
HETATM   14  C14 UNL     1      -2.479  -0.975  -1.643  1.00  0.00     0.037 C 
HETATM   15  C15 UNL     1      -3.426   0.055  -1.093  1.00  0.00     0.238 C 
HETATM   16  N4  UNL     1      -4.104  -0.364   0.118  1.00  0.00    -0.066 N 
HETATM   17  C16 UNL     1      -5.073   0.634   0.440  1.00  0.00     0.272 C 
HETATM   18  C17 UNL     1      -4.890  -1.551  -0.327  1.00  0.00     0.272 C 
HETATM   19  C18 UNL     1      -3.293  -0.854   1.151  1.00  0.00     0.227 C 
HETATM   20  C19 UNL     1      -2.576  -2.103   0.592  1.00  0.00     0.048 C 
ENDROOT
BRANCH  10  21
HETATM   21  O2  UNL     1       2.906   0.746  -2.012  1.00  0.00    -0.292 OA
BRANCH  21  22
HETATM   22  C7  UNL     1       4.230   1.002  -2.472  1.00  0.00     0.274 C 
BRANCH  22  23
HETATM   23  C8  UNL     1       5.226   0.315  -1.668  1.00  0.00    -0.078 C 
HETATM   24  C9  UNL     1       6.062  -0.283  -0.998  1.00  0.00    -0.078 C 
BRANCH  24  25
HETATM   25  C10 UNL     1       7.019  -1.031  -0.206  1.00  0.00     0.262 C 
BRANCH  25  26
HETATM   26  O3  UNL     1       7.800  -0.366   0.642  1.00  0.00    -0.369 OA
BRANCH  26  27
HETATM   27  C11 UNL     1       8.689   0.518   0.161  1.00  0.00     0.253 C 
HETATM   28 BR1  UNL     1       7.857   1.997  -0.725  1.00  0.00    -0.068 Br
ENDBRANCH  26  27
ENDBRANCH  25  26
ENDBRANCH  24  25
ENDBRANCH  22  23
ENDBRANCH  21  22
ENDBRANCH  10  21
BRANCH   1  29
HETATM   29  C2  UNL     1      -2.647   1.201   2.468  1.00  0.00     0.035 C 
HETATM   30  C1  UNL     1      -3.003   1.251   3.744  1.00  0.00     0.037 C 
HETATM   31 CL1  UNL     1      -2.651   2.714   1.581  1.00  0.00    -0.085 Cl
ENDBRANCH   1  29
TORSDOF 7
