REMARK  6 active torsions:
REMARK  status: ('A' for Active; 'I' for Inactive)
REMARK    1  A    between atoms: O1_1  and  C1_3 
REMARK    2  A    between atoms: C1_3  and  C2_4 
REMARK    3  A    between atoms: C2_4  and  N1_5 
REMARK    4  A    between atoms: C8_11  and  N2_12 
REMARK    5  A    between atoms: C9_14  and  C10_15 
REMARK    6  A    between atoms: C9_14  and  N5_25 
ROOT
HETATM    1  N2  UNL     1      -1.195  -0.880  -0.123  1.00  0.00    -0.372 N 
ATOM      2  H2  UNL     1      -0.946  -1.869  -0.159  1.00  0.00     0.161 HD
HETATM    3  C9  UNL     1      -2.422  -0.569   0.071  1.00  0.00     0.127 C 
ENDROOT
BRANCH   1   4
HETATM    4  C8  UNL     1      -0.140   0.102  -0.294  1.00  0.00     0.088 C 
HETATM    5  C5  UNL     1       0.610   0.164   1.002  1.00  0.00     0.011 C 
HETATM    6  C4  UNL     1       1.259   1.529   1.097  1.00  0.00     0.034 C 
HETATM    7  C6  UNL     1       1.646  -0.884   1.188  1.00  0.00     0.034 C 
HETATM    8  C3  UNL     1       2.063   1.716  -0.162  1.00  0.00     0.238 C 
HETATM    9  N1  UNL     1       2.777   0.481  -0.424  1.00  0.00    -0.065 N 
HETATM   10  C7  UNL     1       2.992  -0.296   0.789  1.00  0.00     0.238 C 
HETATM   11  C17 UNL     1       2.109  -0.366  -1.363  1.00  0.00     0.239 C 
HETATM   12  C16 UNL     1       0.653  -0.188  -1.496  1.00  0.00     0.053 C 
BRANCH   9  13
HETATM   13  C2  UNL     1       4.069   0.875  -0.961  1.00  0.00     0.263 C 
BRANCH  13  14
HETATM   14  C1  UNL     1       5.169  -0.101  -0.632  1.00  0.00     0.192 C 
BRANCH  14  15
HETATM   15  O1  UNL     1       6.338   0.403  -1.207  1.00  0.00    -0.399 OA
ATOM     16  H1  UNL     1       7.031  -0.212  -1.000  1.00  0.00     0.209 HD
ENDBRANCH  14  15
ENDBRANCH  13  14
ENDBRANCH   9  13
ENDBRANCH   1   4
BRANCH   3  17
HETATM   17  C10 UNL     1      -3.480  -1.585   0.243  1.00  0.00     0.354 C 
HETATM   18  N3  UNL     1      -4.470  -1.424  -0.793  1.00  0.00    -0.365 N 
HETATM   19  C11 UNL     1      -4.742  -2.520  -1.352  1.00  0.00     0.120 C 
ATOM     20  H3  UNL     1      -4.898  -0.532  -1.043  1.00  0.00     0.161 HD
HETATM   21  C12 UNL     1      -3.922  -3.586  -0.719  1.00  0.00     0.273 C 
HETATM   22 BR1  UNL     1      -5.134  -4.754   0.232  1.00  0.00    -0.035 Br
HETATM   23 BR2  UNL     1      -2.999  -4.543  -2.107  1.00  0.00    -0.035 Br
HETATM   24  N4  UNL     1      -2.989  -2.928   0.153  1.00  0.00    -0.014 N 
ATOM     25  H42 UNL     1      -2.016  -2.999  -0.145  1.00  0.00     0.283 HD
ATOM     26  H41 UNL     1      -2.863  -3.388   1.054  1.00  0.00     0.283 HD
ENDBRANCH   3  17
BRANCH   3  27
HETATM   27  N5  UNL     1      -2.770   0.800   0.123  1.00  0.00    -0.368 N 
HETATM   28  C13 UNL     1      -2.785   1.768   1.210  1.00  0.00     0.126 C 
HETATM   29  C14 UNL     1      -3.925   2.465   0.466  1.00  0.00     0.040 C 
HETATM   30  C15 UNL     1      -3.241   1.851  -0.760  1.00  0.00     0.126 C 
ENDBRANCH   3  27
TORSDOF 6
