REMARK  3 active torsions:
REMARK  status: ('A' for Active; 'I' for Inactive)
REMARK       I    between atoms: C1_2  and  N1_3 
REMARK    1  A    between atoms: C1_2  and  C8_13 
REMARK    2  A    between atoms: N1_3  and  C2_5 
REMARK    3  A    between atoms: C13_18  and  C14_19 
REMARK       I    between atoms: C14_19  and  N3_21 
ROOT
HETATM    1  C8  UNL     1       0.845   1.594   1.433  1.00  0.00     0.091 C 
HETATM    2  C9  UNL     1       0.667   2.877   0.650  1.00  0.00     0.015 C 
HETATM    3  C10 UNL     1       1.225   2.774  -0.757  1.00  0.00     0.001 C 
HETATM    4  C11 UNL     1       2.716   2.532  -0.767  1.00  0.00     0.001 C 
HETATM    5  C12 UNL     1       3.046   1.757   0.474  1.00  0.00     0.015 C 
HETATM    6  C13 UNL     1       1.882   0.775   0.690  1.00  0.00     0.091 C 
ENDROOT
BRANCH   1   7
HETATM    7  C1  UNL     1      -0.403   0.882   1.684  1.00  0.00     0.223 C 
HETATM    8  O1  UNL     1      -0.787   0.655   2.869  1.00  0.00    -0.273 OA
HETATM    9  N1  UNL     1      -1.266   0.398   0.651  1.00  0.00    -0.355 N 
ATOM     10  H1  UNL     1      -0.995   0.558  -0.319  1.00  0.00     0.162 HD
BRANCH   9  11
HETATM   11  C2  UNL     1      -2.491  -0.300   0.907  1.00  0.00     0.101 C 
HETATM   12  C3  UNL     1      -2.597  -1.624   0.210  1.00  0.00     0.027 C 
HETATM   13  C4  UNL     1      -2.789  -1.407  -1.246  1.00  0.00     0.004 C 
HETATM   14  C5  UNL     1      -4.171  -1.184  -1.704  1.00  0.00     0.019 C 
HETATM   15  C6  UNL     1      -5.202  -0.966  -0.675  1.00  0.00     0.113 C 
HETATM   16  N2  UNL     1      -4.820  -0.244   0.481  1.00  0.00    -0.419 N 
HETATM   17  C7  UNL     1      -3.630   0.556   0.336  1.00  0.00     0.139 C 
ATOM     18  H2  UNL     1      -5.348  -0.287   1.353  1.00  0.00     0.153 HD
ENDBRANCH   9  11
ENDBRANCH   1   7
BRANCH   6  19
HETATM   19  C14 UNL     1       2.363  -0.369   1.487  1.00  0.00     0.225 C 
HETATM   20  O2  UNL     1       2.025  -0.508   2.685  1.00  0.00    -0.273 OA
HETATM   21  N3  UNL     1       3.220  -1.345   0.932  1.00  0.00    -0.347 N 
HETATM   22  C15 UNL     1       3.798  -1.517  -0.383  1.00  0.00     0.160 A 
HETATM   23  C17 UNL     1       3.884  -2.566   1.392  1.00  0.00     0.160 A 
HETATM   24  C16 UNL     1       4.589  -2.707   0.088  1.00  0.00     0.108 A 
HETATM   25 BR1  UNL     1       4.189  -4.291  -0.926  1.00  0.00    -0.069 Br
HETATM   26 BR2  UNL     1       6.494  -2.323   0.154  1.00  0.00    -0.069 Br
ENDBRANCH   6  19
TORSDOF 3
