REMARK  7 active torsions:
REMARK  status: ('A' for Active; 'I' for Inactive)
REMARK    1  A    between atoms: N1_2  and  C2_4 
REMARK    2  A    between atoms: C4_6  and  C5_7 
REMARK    3  A    between atoms: C9_13  and  N3_14 
REMARK       I    between atoms: N3_14  and  C10_16 
REMARK    4  A    between atoms: C10_16  and  C11_18 
REMARK    5  A    between atoms: C11_18  and  C12_19 
REMARK    6  A    between atoms: C11_18  and  C14_22 
REMARK    7  A    between atoms: C14_22  and  C15_24 
ROOT
HETATM    1  C2  UNL     1      -1.619   1.886   0.365  1.00  0.00     0.118 A 
HETATM    2  C3  UNL     1      -2.726   1.124   0.060  1.00  0.00     0.075 A 
HETATM    3  C4  UNL     1      -2.588  -0.245   0.035  1.00  0.00     0.037 A 
HETATM    4  N2  UNL     1      -1.400  -0.803   0.304  1.00  0.00    -0.194 N 
ATOM      5  H2  UNL     1      -1.299  -1.818   0.286  1.00  0.00     0.184 HD
HETATM    6  C9  UNL     1      -0.345  -0.032   0.597  1.00  0.00     0.686 A 
HETATM    7  N4  UNL     1      -0.442   1.301   0.630  1.00  0.00    -0.177 N 
ATOM      8  H4  UNL     1       0.374   1.869   0.855  1.00  0.00     0.186 HD
ENDROOT
BRANCH   6   9
HETATM    9  N3  UNL     1       0.782  -0.640   0.852  1.00  0.00    -0.158 N 
HETATM   10  C10 UNL     1       1.947   0.119   1.171  1.00  0.00     0.254 C 
HETATM   11  O1  UNL     1       2.071   0.656   2.290  1.00  0.00    -0.271 OA
ATOM     12  H3  UNL     1       0.829  -1.658   0.823  1.00  0.00     0.187 HD
BRANCH  10  13
HETATM   13  C11 UNL     1       2.973   0.209   0.074  1.00  0.00     0.219 C 
BRANCH  13  14
HETATM   14  C12 UNL     1       4.009   1.121   0.546  1.00  0.00     0.143 C 
HETATM   15  C13 UNL     1       4.868   0.931   1.722  1.00  0.00     0.092 C 
HETATM   16  O2  UNL     1       4.196   2.166  -0.099  1.00  0.00    -0.297 OA
ENDBRANCH  13  14
BRANCH  13  17
HETATM   17  C14 UNL     1       3.434  -1.172  -0.235  1.00  0.00     0.176 C 
HETATM   18  O3  UNL     1       2.979  -2.093   0.428  1.00  0.00    -0.294 OA
BRANCH  17  19
HETATM   19  C15 UNL     1       4.405  -1.522  -1.287  1.00  0.00     0.133 C 
HETATM   20  C16 UNL     1       5.773  -0.906  -1.112  1.00  0.00     0.049 C 
HETATM   21 BR1  UNL     1       3.684  -0.970  -3.023  1.00  0.00    -0.065 Br
HETATM   22 BR2  UNL     1       4.615  -3.446  -1.321  1.00  0.00    -0.065 Br
ENDBRANCH  17  19
ENDBRANCH  13  17
ENDBRANCH  10  13
ENDBRANCH   6   9
BRANCH   3  23
HETATM   23  C5  UNL     1      -3.728  -1.129  -0.280  1.00  0.00    -0.008 C 
HETATM   24  C6  UNL     1      -4.958  -0.314  -0.609  1.00  0.00     0.021 C 
HETATM   25  C7  UNL     1      -3.326  -2.027  -1.416  1.00  0.00     0.021 C 
HETATM   26  C8  UNL     1      -3.987  -1.978   0.961  1.00  0.00     0.021 C 
ENDBRANCH   3  23
BRANCH   1  27
HETATM   27  N1  UNL     1      -1.717   3.156   0.395  1.00  0.00    -0.380 N 
HETATM   28  C1  UNL     1      -2.982   3.798   0.111  1.00  0.00     0.147 C 
ATOM     29  H1  UNL     1      -0.900   3.723   0.620  1.00  0.00     0.160 HD
ENDBRANCH   1  27
TORSDOF 7
