REMARK  6 active torsions:
REMARK  status: ('A' for Active; 'I' for Inactive)
REMARK    1  A    between atoms: O1_2  and  C2_3 
REMARK    2  A    between atoms: C2_3  and  C3_4 
REMARK    3  A    between atoms: C3_4  and  C4_5 
REMARK    4  A    between atoms: C4_5  and  N1_6 
REMARK    5  A    between atoms: C11_15  and  C12_16 
REMARK       I    between atoms: C12_16  and  N3_18 
REMARK    6  A    between atoms: C21_27  and  O3_28 
ROOT
HETATM    1  N1  UNL     1       2.114  -0.297   0.084  1.00  0.00    -0.067 N 
HETATM    2  C5  UNL     1       1.916  -1.445   0.924  1.00  0.00     0.243 C 
HETATM    3  C6  UNL     1       0.716  -1.441   1.820  1.00  0.00     0.085 C 
HETATM    4  C7  UNL     1      -0.552  -1.232   1.021  1.00  0.00     0.019 A 
HETATM    5  N2  UNL     1      -1.477  -2.191   1.045  1.00  0.00    -0.360 N 
ATOM      6  H2  UNL     1      -1.401  -3.054   1.584  1.00  0.00     0.165 HD
HETATM    7  C8  UNL     1      -2.521  -1.872   0.267  1.00  0.00     0.039 A 
HETATM    8  C9  UNL     1      -2.263  -0.626  -0.303  1.00  0.00    -0.024 A 
HETATM    9  C10 UNL     1      -1.044  -0.245   0.176  1.00  0.00    -0.009 A 
HETATM   10  C11 UNL     1      -0.437   1.030  -0.192  1.00  0.00     0.073 C 
HETATM   11  C15 UNL     1       0.566   1.494   0.850  1.00  0.00     0.052 C 
HETATM   12  C16 UNL     1       1.939   0.955   0.698  1.00  0.00     0.239 C 
HETATM   13  C17 UNL     1       0.425   0.726  -1.428  1.00  0.00     0.052 C 
HETATM   14  C18 UNL     1       1.430  -0.353  -1.179  1.00  0.00     0.239 C 
HETATM   15  C19 UNL     1      -3.281  -0.056  -1.237  1.00  0.00     0.044 C 
HETATM   16  C20 UNL     1      -3.884  -1.198  -2.040  1.00  0.00     0.044 C 
HETATM   17  C21 UNL     1      -4.495  -2.254  -1.189  1.00  0.00     0.083 A 
HETATM   18  C22 UNL     1      -5.048  -1.922   0.171  1.00  0.00     0.070 A 
HETATM   19  C23 UNL     1      -3.752  -2.623   0.009  1.00  0.00     0.094 A 
HETATM   20 BR1  UNL     1      -3.773  -4.498   0.476  1.00  0.00    -0.075 Br
ENDROOT
BRANCH   1  21
HETATM   21  C4  UNL     1       3.565  -0.421  -0.298  1.00  0.00     0.239 C 
BRANCH  21  22
HETATM   22  C3  UNL     1       4.437   0.105   0.761  1.00  0.00     0.054 C 
BRANCH  22  23
HETATM   23  C2  UNL     1       5.891  -0.060   0.477  1.00  0.00     0.168 C 
BRANCH  23  24
HETATM   24  O1  UNL     1       6.537   0.522  -0.505  1.00  0.00    -0.396 OA
HETATM   25  C1  UNL     1       6.265   0.394  -1.789  1.00  0.00     0.201 C 
ENDBRANCH  23  24
ENDBRANCH  22  23
ENDBRANCH  21  22
ENDBRANCH   1  21
BRANCH  10  26
HETATM   26  C12 UNL     1      -1.291   2.166  -0.469  1.00  0.00     0.232 C 
HETATM   27  O2  UNL     1      -1.137   2.713  -1.629  1.00  0.00    -0.272 OA
HETATM   28  N3  UNL     1      -2.258   2.755   0.346  1.00  0.00    -0.360 N 
HETATM   29  C13 UNL     1      -2.598   2.344   1.688  1.00  0.00     0.152 C 
HETATM   30  C14 UNL     1      -3.034   3.900  -0.148  1.00  0.00     0.152 C 
ENDBRANCH  10  26
BRANCH  17  31
HETATM   31  O3  UNL     1      -5.111  -3.274  -1.927  1.00  0.00    -0.388 OA
ATOM     32  H3  UNL     1      -5.501  -3.948  -1.384  1.00  0.00     0.210 HD
ENDBRANCH  17  31
TORSDOF 6
