REMARK  4 active torsions:
REMARK  status: ('A' for Active; 'I' for Inactive)
REMARK    1  A    between atoms: C2_2  and  C3_3 
REMARK    2  A    between atoms: C3_3  and  N1_4 
REMARK       I    between atoms: N2_16  and  C15_17 
REMARK       I    between atoms: C15_17  and  N3_19 
REMARK    3  A    between atoms: N3_19  and  C16_21 
REMARK    4  A    between atoms: C16_21  and  C17_23 
REMARK       I    between atoms: C17_23  and  N4_25 
REMARK       I    between atoms: N4_25  and  C18_27 
ROOT
HETATM    1  N1  UNL     1      -3.379  -0.813  -0.811  1.00  0.00    -0.379 N 
HETATM    2  C4  UNL     1      -2.566  -0.142  -1.748  1.00  0.00     0.093 C 
HETATM    3  C5  UNL     1      -1.130  -0.718  -1.523  1.00  0.00     0.038 C 
HETATM    4  C6  UNL     1      -0.813   0.261  -0.412  1.00  0.00    -0.008 C 
HETATM    5  C7  UNL     1      -0.994   1.420  -1.302  1.00  0.00     0.023 C 
HETATM    6  C8  UNL     1      -2.452   1.331  -1.571  1.00  0.00     0.038 C 
HETATM    7  C9  UNL     1      -3.048   2.010  -0.365  1.00  0.00    -0.072 C 
HETATM    8  C10 UNL     1      -2.263   3.183   0.113  1.00  0.00     0.003 C 
HETATM    9  C11 UNL     1      -1.328   3.228   1.211  1.00  0.00     0.000 C 
HETATM   10  C12 UNL     1      -0.140   2.490   1.532  1.00  0.00    -0.002 C 
HETATM   11  C13 UNL     1       0.816   1.769   0.712  1.00  0.00    -0.001 C 
HETATM   12  C14 UNL     1       0.570   0.455   0.044  1.00  0.00     0.121 C 
HETATM   13  N2  UNL     1       1.056  -0.718   0.711  1.00  0.00    -0.320 N 
HETATM   14  C15 UNL     1       2.459  -0.900   0.818  1.00  0.00     0.320 C 
HETATM   15  O1  UNL     1       2.895  -1.928   1.450  1.00  0.00    -0.247 OA
HETATM   16  N3  UNL     1       3.432  -0.040   0.279  1.00  0.00    -0.317 N 
ATOM     17  H3  UNL     1       3.116   0.783  -0.234  1.00  0.00     0.166 HD
HETATM   18  C20 UNL     1       0.212  -1.754   1.253  1.00  0.00     0.094 C 
HETATM   19  C21 UNL     1      -0.058  -1.482   2.715  1.00  0.00     0.026 C 
HETATM   20  C22 UNL     1      -1.460  -1.995   2.476  1.00  0.00     0.009 C 
HETATM   21  C23 UNL     1      -1.229  -1.646   0.989  1.00  0.00     0.015 C 
HETATM   22  C24 UNL     1      -1.628  -0.185   0.670  1.00  0.00     0.026 C 
HETATM   23  C25 UNL     1      -3.137  -0.286   0.456  1.00  0.00     0.093 C 
HETATM   24  C26 UNL     1      -3.608   1.130   0.683  1.00  0.00     0.060 C 
ENDROOT
BRANCH  16  25
HETATM   25  C16 UNL     1       4.853  -0.257   0.411  1.00  0.00     0.276 C 
HETATM   26 CL1  UNL     1       5.591   1.207   1.142  1.00  0.00    -0.092 Cl
BRANCH  25  27
HETATM   27  C17 UNL     1       5.479  -0.409  -0.948  1.00  0.00     0.262 C 
HETATM   28  O2  UNL     1       4.780  -0.340  -1.970  1.00  0.00    -0.269 OA
HETATM   29  N4  UNL     1       6.875  -0.632  -1.048  1.00  0.00    -0.295 N 
HETATM   30  C18 UNL     1       7.467  -0.777  -2.330  1.00  0.00     0.220 C 
ATOM     31  H4  UNL     1       7.449  -0.688  -0.207  1.00  0.00     0.171 HD
HETATM   32  C19 UNL     1       8.924  -1.012  -2.485  1.00  0.00     0.117 C 
HETATM   33  O3  UNL     1       6.783  -0.711  -3.397  1.00  0.00    -0.274 OA
ENDBRANCH  25  27
ENDBRANCH  16  25
BRANCH   1  34
HETATM   34  C3  UNL     1      -4.677  -1.179  -1.185  1.00  0.00     0.085 C 
BRANCH  34  35
HETATM   35  C2  UNL     1      -5.345  -1.867  -0.043  1.00  0.00     0.007 C 
HETATM   36  C1  UNL     1      -5.789  -3.124  -0.145  1.00  0.00     0.012 C 
ENDBRANCH  34  35
ENDBRANCH   1  34
TORSDOF 4
