REMARK  6 active torsions:
REMARK  status: ('A' for Active; 'I' for Inactive)
REMARK    1  A    between atoms: C2_2  and  C3_3 
REMARK       I    between atoms: N1_9  and  C8_10 
REMARK    2  A    between atoms: C8_10  and  C9_12 
REMARK    3  A    between atoms: C9_12  and  N2_13 
REMARK    4  A    between atoms: C14_18  and  C15_19 
REMARK    5  A    between atoms: C15_19  and  C16_20 
REMARK    6  A    between atoms: C21_30  and  O3_31 
ROOT
HETATM    1  C3  UNL     1      -0.922   3.039   0.514  1.00  0.00     0.005 C 
HETATM    2  C4  UNL     1      -0.081   3.538   1.711  1.00  0.00     0.022 C 
HETATM    3  C5  UNL     1      -1.925   2.134   1.074  1.00  0.00     0.088 C 
HETATM    4  C6  UNL     1      -3.338   2.316   0.473  1.00  0.00     0.021 C 
HETATM    5  C7  UNL     1      -1.636   0.694   1.191  1.00  0.00     0.235 C 
HETATM    6  O1  UNL     1      -2.263   0.094   2.081  1.00  0.00    -0.272 OA
HETATM    7  N1  UNL     1      -0.719  -0.132   0.406  1.00  0.00    -0.252 N 
HETATM    8  C8  UNL     1      -1.258  -1.371   0.005  1.00  0.00     0.257 C 
HETATM    9  O2  UNL     1      -0.711  -2.120  -0.840  1.00  0.00    -0.271 OA
HETATM   10  C13 UNL     1       0.533   0.395  -0.012  1.00  0.00     0.049 C 
HETATM   11  C14 UNL     1       1.788  -0.285  -0.091  1.00  0.00     0.006 C 
HETATM   12  C21 UNL     1       0.153   1.367  -1.132  1.00  0.00     0.188 C 
HETATM   13  C22 UNL     1      -0.140   2.748  -0.681  1.00  0.00     0.057 C 
HETATM   14  C23 UNL     1       1.233   3.463  -0.673  1.00  0.00     0.032 C 
HETATM   15 BR1  UNL     1      -0.987   3.580  -2.264  1.00  0.00    -0.082 Br
ENDROOT
BRANCH  11  16
HETATM   16  C15 UNL     1       2.201  -1.445  -0.846  1.00  0.00     0.071 C 
BRANCH  16  17
HETATM   17  C16 UNL     1       3.700  -1.626  -0.601  1.00  0.00    -0.011 A 
HETATM   18  C17 UNL     1       4.604  -1.195  -1.543  1.00  0.00     0.012 A 
HETATM   19  C18 UNL     1       5.957  -1.345  -1.316  1.00  0.00     0.018 A 
HETATM   20  C19 UNL     1       6.405  -1.933  -0.134  1.00  0.00     0.089 A 
HETATM   21  N3  UNL     1       5.519  -2.346   0.769  1.00  0.00    -0.352 N 
HETATM   22  C20 UNL     1       4.202  -2.196   0.540  1.00  0.00     0.105 A 
ATOM     23  H3  UNL     1       5.839  -2.777   1.636  1.00  0.00     0.166 HD
HETATM   24  N4  UNL     1       3.389  -2.628   1.441  1.00  0.00    -0.385 N 
ATOM     25  H42 UNL     1       2.390  -2.514   1.267  1.00  0.00     0.157 HD
ATOM     26  H41 UNL     1       3.763  -3.052   2.290  1.00  0.00     0.157 HD
ENDBRANCH  16  17
ENDBRANCH  11  16
BRANCH  12  27
HETATM   27  O3  UNL     1       1.155   1.452  -2.096  1.00  0.00    -0.388 OA
ATOM     28  H3  UNL     1       0.919   2.055  -2.791  1.00  0.00     0.210 HD
ENDBRANCH  12  27
BRANCH   8  29
HETATM   29  C9  UNL     1      -2.535  -1.906   0.551  1.00  0.00     0.339 C 
BRANCH  29  30
HETATM   30  N2  UNL     1      -2.865  -3.195  -0.065  1.00  0.00    -0.070 N 
HETATM   31  C10 UNL     1      -3.072  -3.069  -1.491  1.00  0.00     0.272 C 
HETATM   32  C11 UNL     1      -4.135  -3.586   0.522  1.00  0.00     0.272 C 
HETATM   33  C12 UNL     1      -1.894  -4.212   0.276  1.00  0.00     0.272 C 
ENDBRANCH  29  30
ENDBRANCH   8  29
BRANCH   1  34
HETATM   34  C2  UNL     1      -1.724   4.301   0.151  1.00  0.00    -0.025 C 
HETATM   35  C1  UNL     1      -1.301   5.512   0.419  1.00  0.00     0.008 C 
ENDBRANCH   1  34
TORSDOF 6
