REMARK  7 active torsions:
REMARK  status: ('A' for Active; 'I' for Inactive)
REMARK    1  A    between atoms: C2_2  and  C3_3 
REMARK       I    between atoms: N1_7  and  C7_8 
REMARK       I    between atoms: C7_8  and  N2_10 
REMARK    2  A    between atoms: N2_10  and  C8_12 
REMARK       I    between atoms: N3_15  and  C11_16 
REMARK       I    between atoms: C11_16  and  N4_18 
REMARK    3  A    between atoms: N4_18  and  C12_20 
REMARK    4  A    between atoms: C12_20  and  C13_21 
REMARK    5  A    between atoms: C12_20  and  C22_34 
REMARK    6  A    between atoms: C13_21  and  O3_22 
REMARK    7  A    between atoms: C13_21  and  N5_24 
ROOT
HETATM    1  C8  UNL     1       2.956   2.487   0.125  1.00  0.00     0.105 C 
HETATM    2  C9  UNL     1       2.676   3.417   1.287  1.00  0.00     0.047 C 
HETATM    3  C10 UNL     1       1.951   2.462   2.236  1.00  0.00     0.129 C 
HETATM    4  N3  UNL     1       1.093   1.696   1.333  1.00  0.00    -0.332 N 
HETATM    5  C11 UNL     1      -0.048   0.954   1.715  1.00  0.00     0.319 C 
HETATM    6  O2  UNL     1      -0.385   0.930   2.919  1.00  0.00    -0.247 OA
HETATM    7  N4  UNL     1      -0.789   0.260   0.762  1.00  0.00    -0.331 N 
ATOM      8  H4  UNL     1      -0.480   0.308  -0.209  1.00  0.00     0.165 HD
HETATM    9  C25 UNL     1       1.608   1.820  -0.039  1.00  0.00     0.152 C 
ENDROOT
BRANCH   7  10
HETATM   10  C12 UNL     1      -1.999  -0.546   1.065  1.00  0.00     0.164 C 
BRANCH  10  11
HETATM   11  C13 UNL     1      -3.162   0.140   0.531  1.00  0.00     0.137 C 
BRANCH  11  12
HETATM   12  O3  UNL     1      -3.130   1.418   0.891  1.00  0.00    -0.348 OA
ATOM     13  H3  UNL     1      -3.891   1.867   0.542  1.00  0.00     0.219 HD
ENDBRANCH  11  12
BRANCH  11  14
HETATM   14  N5  UNL     1      -4.258  -0.183  -0.234  1.00  0.00    -0.363 N 
HETATM   15  C14 UNL     1      -4.618  -1.400  -0.906  1.00  0.00     0.128 C 
HETATM   16  C15 UNL     1      -5.369  -1.119  -2.209  1.00  0.00     0.064 C 
HETATM   17  C16 UNL     1      -6.616  -0.328  -2.031  1.00  0.00     0.110 C 
HETATM   18  C17 UNL     1      -7.895  -1.087  -2.274  1.00  0.00     0.053 C 
HETATM   19  F1  UNL     1      -6.603   0.734  -2.954  1.00  0.00    -0.242 F 
HETATM   20  C18 UNL     1      -6.637   0.358  -0.667  1.00  0.00     0.004 C 
HETATM   21  C19 UNL     1      -7.564   1.548  -0.810  1.00  0.00     0.020 C 
HETATM   22  C20 UNL     1      -7.194  -0.517   0.406  1.00  0.00     0.020 C 
HETATM   23  C21 UNL     1      -5.274   0.899  -0.392  1.00  0.00     0.136 C 
ENDBRANCH  11  14
ENDBRANCH  10  11
BRANCH  10  24
HETATM   24  C22 UNL     1      -1.704  -1.948   0.755  1.00  0.00     0.008 C 
HETATM   25  C23 UNL     1      -0.427  -2.402   1.543  1.00  0.00     0.012 C 
HETATM   26  C24 UNL     1      -2.786  -2.832   1.439  1.00  0.00     0.012 C 
ENDBRANCH  10  24
ENDBRANCH   7  10
BRANCH   1  27
HETATM   27  N2  UNL     1       4.019   1.572   0.398  1.00  0.00    -0.337 N 
HETATM   28  C7  UNL     1       5.188   1.496  -0.428  1.00  0.00     0.319 C 
HETATM   29  N1  UNL     1       6.236   0.577  -0.135  1.00  0.00    -0.330 N 
HETATM   30  O1  UNL     1       5.324   2.235  -1.435  1.00  0.00    -0.247 OA
HETATM   31  C3  UNL     1       7.461   0.403  -0.885  1.00  0.00     0.088 C 
HETATM   32  C6  UNL     1       6.231  -0.344   0.993  1.00  0.00     0.128 C 
HETATM   33  C4  UNL     1       8.440   0.023   0.188  1.00  0.00     0.027 C 
HETATM   34  C5  UNL     1       7.640  -0.858   1.120  1.00  0.00     0.022 C 
ATOM     35  H2  UNL     1       3.944   0.954   1.206  1.00  0.00     0.164 HD
BRANCH  31  36
HETATM   36  C2  UNL     1       7.316  -0.715  -1.909  1.00  0.00     0.021 C 
HETATM   37  C1  UNL     1       8.676  -0.953  -2.520  1.00  0.00     0.007 C 
ENDBRANCH  31  36
ENDBRANCH   1  27
TORSDOF 7
