REMARK  6 active torsions:
REMARK  status: ('A' for Active; 'I' for Inactive)
REMARK    1  A    between atoms: C4_4  and  N1_5 
REMARK       I    between atoms: N1_5  and  C5_7 
REMARK    2  A    between atoms: C5_7  and  C6_9 
REMARK    3  A    between atoms: C7_10  and  C8_11 
REMARK       I    between atoms: C8_11  and  N2_13 
REMARK    4  A    between atoms: N2_13  and  C9_14 
REMARK    5  A    between atoms: N2_13  and  C13_18 
REMARK    6  A    between atoms: C9_14  and  C10_15 
ROOT
HETATM    1  C8  UNL     1      -0.944   0.362   0.726  1.00  0.00     0.249 C 
HETATM    2  O2  UNL     1      -0.352  -0.471   1.501  1.00  0.00    -0.268 OA
HETATM    3  N2  UNL     1      -2.360   0.299   0.679  1.00  0.00    -0.300 N 
ENDROOT
BRANCH   1   4
HETATM    4  C7  UNL     1      -0.186   1.290  -0.043  1.00  0.00     0.080 C 
HETATM    5  C6  UNL     1       1.093   1.482  -0.089  1.00  0.00     0.080 C 
BRANCH   5   6
HETATM    6  C5  UNL     1       2.171   0.862   0.586  1.00  0.00     0.246 C 
HETATM    7  N1  UNL     1       3.515   1.317   0.298  1.00  0.00    -0.308 N 
ATOM      8  H1  UNL     1       3.723   2.316   0.297  1.00  0.00     0.170 HD
HETATM    9  O1  UNL     1       2.119  -0.043   1.415  1.00  0.00    -0.268 OA
BRANCH   7  10
HETATM   10  C4  UNL     1       4.451   0.466   0.042  1.00  0.00     0.124 A 
HETATM   11  C3  UNL     1       5.756   0.849  -0.240  1.00  0.00     0.076 A 
HETATM   12  C2  UNL     1       6.523  -0.282  -0.471  1.00  0.00     0.025 A 
HETATM   13  C1  UNL     1       7.973  -0.337  -0.806  1.00  0.00     0.070 C 
HETATM   14  N5  UNL     1       5.677  -1.316  -0.326  1.00  0.00    -0.304 N 
HETATM   15  N4  UNL     1       4.453  -0.866  -0.023  1.00  0.00    -0.285 N 
ATOM     16  H5  UNL     1       5.930  -2.299  -0.431  1.00  0.00     0.186 HD
ATOM     17  H4  UNL     1       3.638  -1.458   0.136  1.00  0.00     0.188 HD
ENDBRANCH   7  10
ENDBRANCH   5   6
ENDBRANCH   1   4
BRANCH   3  18
HETATM   18  C9  UNL     1      -2.948  -0.929   1.205  1.00  0.00     0.137 C 
BRANCH  18  19
HETATM   19  C10 UNL     1      -3.102  -2.026   0.204  1.00  0.00    -0.004 C 
HETATM   20  C11 UNL     1      -3.734  -3.250   0.899  1.00  0.00     0.011 C 
HETATM   21  C12 UNL     1      -1.751  -2.561  -0.299  1.00  0.00     0.011 C 
ENDBRANCH  18  19
ENDBRANCH   3  18
BRANCH   3  22
HETATM   22  C13 UNL     1      -3.169   1.331   0.162  1.00  0.00     0.111 A 
HETATM   23  C14 UNL     1      -4.450   1.088  -0.347  1.00  0.00     0.050 A 
HETATM   24  C15 UNL     1      -5.246   2.125  -0.819  1.00  0.00     0.026 A 
HETATM   25  C16 UNL     1      -4.782   3.419  -0.791  1.00  0.00     0.045 A 
HETATM   26 BR1  UNL     1      -5.816   4.899  -1.421  1.00  0.00    -0.048 Br
HETATM   27  C17 UNL     1      -3.519   3.648  -0.287  1.00  0.00     0.098 A 
HETATM   28 BR2  UNL     1      -2.767   5.402  -0.199  1.00  0.00    -0.030 Br
HETATM   29  N3  UNL     1      -2.811   2.629   0.144  1.00  0.00    -0.335 N 
ATOM     30  H3  UNL     1      -1.883   2.846   0.507  1.00  0.00     0.168 HD
ENDBRANCH   3  22
TORSDOF 6
