REMARK  5 active torsions:
REMARK  status: ('A' for Active; 'I' for Inactive)
REMARK    1  A    between atoms: C2_2  and  N1_4 
REMARK       I    between atoms: N1_4  and  C4_6 
REMARK    2  A    between atoms: C4_6  and  C5_8 
REMARK    3  A    between atoms: C12_15  and  N2_16 
REMARK       I    between atoms: N2_16  and  C13_18 
REMARK    4  A    between atoms: C13_18  and  C14_20 
REMARK    5  A    between atoms: C14_20  and  C15_22 
ROOT
HETATM    1  C5  UNL     1      -2.439  -0.813  -0.690  1.00  0.00     0.042 C 
HETATM    2  C6  UNL     1      -2.292  -1.904  -1.716  1.00  0.00     0.024 C 
HETATM    3  C7  UNL     1      -1.517  -2.691  -0.717  1.00  0.00    -0.012 C 
HETATM    4  C8  UNL     1      -0.024  -2.512  -0.759  1.00  0.00     0.012 C 
HETATM    5  C9  UNL     1       0.376  -1.234  -1.344  1.00  0.00     0.015 A 
HETATM    6  C10 UNL     1      -0.090  -0.204  -0.259  1.00  0.00     0.016 A 
HETATM    7  C11 UNL     1      -1.383   0.247  -0.765  1.00  0.00     0.026 C 
HETATM    8  C12 UNL     1       1.238  -0.183  -0.844  1.00  0.00     0.093 A 
HETATM    9  C19 UNL     1      -2.216  -1.884   0.333  1.00  0.00     0.024 C 
ENDROOT
BRANCH   8  10
HETATM   10  N2  UNL     1       2.373  -0.501  -0.018  1.00  0.00    -0.349 N 
HETATM   11  C13 UNL     1       3.576   0.235  -0.088  1.00  0.00     0.288 C 
HETATM   12  O2  UNL     1       3.714   1.218  -0.889  1.00  0.00    -0.264 OA
ATOM     13  H2  UNL     1       2.306  -1.280   0.637  1.00  0.00     0.163 HD
BRANCH  11  14
HETATM   14  C14 UNL     1       4.710  -0.115   0.766  1.00  0.00     0.227 C 
HETATM   15  O3  UNL     1       4.582  -1.081   1.556  1.00  0.00    -0.286 OA
BRANCH  14  16
HETATM   16  C15 UNL     1       5.995   0.608   0.746  1.00  0.00     0.056 A 
HETATM   17  C16 UNL     1       6.194   1.767  -0.181  1.00  0.00     0.026 C 
HETATM   18  C17 UNL     1       6.754   0.681   2.099  1.00  0.00     0.054 A 
HETATM   19  C18 UNL     1       7.226  -0.212   1.036  1.00  0.00     0.091 A 
HETATM   20 BR1  UNL     1       8.895   0.280   0.184  1.00  0.00    -0.072 Br
HETATM   21 BR2  UNL     1       7.009  -2.129   1.257  1.00  0.00    -0.072 Br
ENDBRANCH  14  16
ENDBRANCH  11  14
ENDBRANCH   8  10
BRANCH   1  22
HETATM   22  C4  UNL     1      -3.797  -0.217  -0.685  1.00  0.00     0.226 C 
HETATM   23  N1  UNL     1      -4.182   0.819   0.205  1.00  0.00    -0.357 N 
ATOM     24  H1  UNL     1      -3.498   1.173   0.874  1.00  0.00     0.162 HD
HETATM   25  O1  UNL     1      -4.658  -0.635  -1.497  1.00  0.00    -0.273 OA
BRANCH  23  26
HETATM   26  C2  UNL     1      -5.500   1.386   0.197  1.00  0.00     0.076 C 
HETATM   27  C1  UNL     1      -6.218   1.163   1.524  1.00  0.00     0.032 C 
HETATM   28  C3  UNL     1      -5.388   2.857  -0.070  1.00  0.00     0.032 C 
ENDBRANCH  23  26
ENDBRANCH   1  22
TORSDOF 5
