REMARK  5 active torsions:
REMARK  status: ('A' for Active; 'I' for Inactive)
REMARK    1  A    between atoms: C7_7  and  C8_8 
REMARK       I    between atoms: C8_8  and  N1_10 
REMARK    2  A    between atoms: N1_10  and  C9_12 
REMARK    3  A    between atoms: C17_20  and  C18_21 
REMARK       I    between atoms: C18_21  and  N2_23 
REMARK    4  A    between atoms: N2_23  and  C19_25 
REMARK       I    between atoms: N3_28  and  C22_29 
REMARK    5  A    between atoms: C22_29  and  C23_31 
ROOT
HETATM    1  C9  UNL     1      -1.322  -1.552   0.138  1.00  0.00     0.106 C 
HETATM    2  C10 UNL     1      -2.115  -2.612   0.879  1.00  0.00     0.010 C 
HETATM    3  C11 UNL     1      -1.908  -3.912   0.178  1.00  0.00     0.011 C 
HETATM    4  C12 UNL     1      -0.435  -4.247   0.239  1.00  0.00    -0.013 C 
HETATM    5  C13 UNL     1      -0.072  -4.449   1.677  1.00  0.00     0.009 C 
HETATM    6  C14 UNL     1      -0.329  -3.168   2.425  1.00  0.00    -0.013 C 
HETATM    7  C15 UNL     1      -1.781  -2.724   2.324  1.00  0.00     0.011 C 
HETATM    8  C16 UNL     1       0.491  -2.055   1.803  1.00  0.00     0.026 C 
HETATM    9  C17 UNL     1       0.119  -1.825   0.341  1.00  0.00     0.062 C 
HETATM   10  C26 UNL     1       0.422  -3.163  -0.354  1.00  0.00     0.026 C 
ENDROOT
BRANCH   9  11
HETATM   11  C18 UNL     1       1.029  -0.793  -0.172  1.00  0.00     0.228 C 
HETATM   12  O2  UNL     1       0.553   0.226  -0.723  1.00  0.00    -0.273 OA
HETATM   13  N2  UNL     1       2.440  -0.898  -0.069  1.00  0.00    -0.356 N 
ATOM     14  H2  UNL     1       2.832  -1.726   0.379  1.00  0.00     0.162 HD
BRANCH  13  15
HETATM   15  C19 UNL     1       3.348   0.103  -0.564  1.00  0.00     0.087 C 
HETATM   16  C20 UNL     1       4.333  -0.468  -1.564  1.00  0.00     0.045 C 
HETATM   17  C21 UNL     1       5.108   0.660  -2.201  1.00  0.00     0.128 C 
HETATM   18  N3  UNL     1       5.571   1.643  -1.248  1.00  0.00    -0.347 N 
HETATM   19  C22 UNL     1       6.678   2.449  -1.624  1.00  0.00     0.284 C 
HETATM   20  C24 UNL     1       4.985   1.853   0.045  1.00  0.00     0.128 C 
HETATM   21  O3  UNL     1       7.121   3.321  -0.828  1.00  0.00    -0.267 OA
HETATM   22  C25 UNL     1       4.192   0.693   0.561  1.00  0.00     0.045 C 
BRANCH  19  23
HETATM   23  C23 UNL     1       7.337   2.292  -2.943  1.00  0.00     0.444 C 
HETATM   24  F1  UNL     1       6.473   2.517  -3.997  1.00  0.00    -0.204 F 
HETATM   25  F2  UNL     1       8.402   3.149  -3.044  1.00  0.00    -0.204 F 
ENDBRANCH  19  23
ENDBRANCH  13  15
ENDBRANCH   9  11
BRANCH   1  26
HETATM   26  N1  UNL     1      -1.798  -0.266   0.496  1.00  0.00    -0.355 N 
HETATM   27  C8  UNL     1      -2.510   0.533  -0.420  1.00  0.00     0.222 C 
HETATM   28  O1  UNL     1      -2.721   0.084  -1.569  1.00  0.00    -0.273 OA
ATOM     29  H1  UNL     1      -1.621   0.088   1.436  1.00  0.00     0.162 HD
BRANCH  27  30
HETATM   30  C7  UNL     1      -3.015   1.862  -0.097  1.00  0.00     0.082 C 
HETATM   31  C6  UNL     1      -3.999   1.869   1.037  1.00  0.00     0.003 C 
HETATM   32  C2  UNL     1      -5.350   2.146   0.358  1.00  0.00    -0.010 C 
HETATM   33  C5  UNL     1      -3.836   3.241   1.712  1.00  0.00     0.006 C 
HETATM   34  C1  UNL     1      -5.903   0.997  -0.387  1.00  0.00     0.011 C 
HETATM   35  C3  UNL     1      -4.824   3.279  -0.519  1.00  0.00    -0.010 C 
HETATM   36  C4  UNL     1      -4.171   4.153   0.531  1.00  0.00     0.005 C 
HETATM   37  C27 UNL     1      -3.714   2.545  -1.253  1.00  0.00     0.019 C 
ENDBRANCH  27  30
ENDBRANCH   1  26
TORSDOF 5
