REMARK  7 active torsions:
REMARK  status: ('A' for Active; 'I' for Inactive)
REMARK    1  A    between atoms: C2_2  and  C3_3 
REMARK    2  A    between atoms: C2_2  and  C18_27 
REMARK    3  A    between atoms: C3_3  and  N1_4 
REMARK       I    between atoms: N1_4  and  C4_6 
REMARK    4  A    between atoms: C4_6  and  C5_8 
REMARK       I    between atoms: N2_11  and  C8_12 
REMARK       I    between atoms: C8_12  and  N3_14 
REMARK    5  A    between atoms: N3_14  and  C9_16 
REMARK    6  A    between atoms: C18_27  and  O3_28 
REMARK    7  A    between atoms: C18_27  and  N4_30 
ROOT
HETATM    1  C5  UNL     1       1.633  -0.135   0.106  1.00  0.00     0.090 C 
HETATM    2  C6  UNL     1       2.098  -1.573   0.294  1.00  0.00     0.026 C 
HETATM    3  C7  UNL     1       3.570  -1.474   0.656  1.00  0.00     0.134 C 
HETATM    4  N2  UNL     1       4.174  -0.416  -0.114  1.00  0.00    -0.333 N 
HETATM    5  C8  UNL     1       5.394   0.148   0.336  1.00  0.00     0.318 C 
HETATM    6  O2  UNL     1       5.921  -0.275   1.397  1.00  0.00    -0.247 OA
HETATM    7  N3  UNL     1       6.052   1.181  -0.369  1.00  0.00    -0.338 N 
ATOM      8  H3  UNL     1       5.641   1.538  -1.232  1.00  0.00     0.164 HD
HETATM    9  C13 UNL     1       3.574   0.098  -1.340  1.00  0.00     0.134 C 
HETATM   10  C14 UNL     1       2.108  -0.287  -1.348  1.00  0.00     0.026 C 
HETATM   11  C15 UNL     1       1.985  -1.743  -1.173  1.00  0.00    -0.028 A 
HETATM   12  C16 UNL     1       1.017  -2.608  -1.841  1.00  0.00     0.011 A 
HETATM   13  C17 UNL     1       2.554  -2.780  -1.989  1.00  0.00     0.011 A 
ENDROOT
BRANCH   1  14
HETATM   14  C4  UNL     1       0.127  -0.104   0.218  1.00  0.00     0.222 C 
HETATM   15  N1  UNL     1      -0.505  -0.530   1.410  1.00  0.00    -0.360 N 
ATOM     16  H1  UNL     1       0.092  -0.848   2.174  1.00  0.00     0.162 HD
HETATM   17  O1  UNL     1      -0.465   0.316  -0.802  1.00  0.00    -0.273 OA
BRANCH  15  18
HETATM   18  C3  UNL     1      -1.936  -0.547   1.625  1.00  0.00     0.135 C 
BRANCH  18  19
HETATM   19  C2  UNL     1      -2.551  -1.487   0.616  1.00  0.00     0.074 C 
HETATM   20  C1  UNL     1      -1.944  -2.886   0.825  1.00  0.00     0.020 C 
BRANCH  19  21
HETATM   21  C18 UNL     1      -4.032  -1.572   0.710  1.00  0.00     0.118 C 
BRANCH  21  22
HETATM   22  O3  UNL     1      -4.509  -2.693   1.164  1.00  0.00    -0.349 OA
ATOM     23  H3  UNL     1      -5.456  -2.747   1.224  1.00  0.00     0.219 HD
ENDBRANCH  21  22
BRANCH  21  24
HETATM   24  N4  UNL     1      -4.973  -0.590   0.370  1.00  0.00    -0.365 N 
HETATM   25  C19 UNL     1      -6.298  -1.063   0.670  1.00  0.00     0.124 C 
HETATM   26  C20 UNL     1      -7.337  -0.043   0.965  1.00  0.00     0.020 C 
HETATM   27  C21 UNL     1      -6.875   1.301   1.361  1.00  0.00     0.002 C 
HETATM   28  C22 UNL     1      -6.600   2.255   0.259  1.00  0.00     0.000 C 
HETATM   29  C23 UNL     1      -6.454   1.683  -1.093  1.00  0.00     0.002 C 
HETATM   30  C24 UNL     1      -5.133   1.079  -1.434  1.00  0.00     0.020 C 
HETATM   31  C25 UNL     1      -4.356   0.596  -0.196  1.00  0.00     0.124 C 
ENDBRANCH  21  24
ENDBRANCH  19  21
ENDBRANCH  18  19
ENDBRANCH  15  18
ENDBRANCH   1  14
BRANCH   7  32
HETATM   32  C9  UNL     1       7.282   1.735   0.104  1.00  0.00     0.097 C 
HETATM   33  C10 UNL     1       8.413   1.724  -0.929  1.00  0.00     0.104 C 
HETATM   34  C11 UNL     1       8.771   3.113  -0.428  1.00  0.00     0.247 C 
HETATM   35  F1  UNL     1       9.131   4.006  -1.403  1.00  0.00    -0.206 F 
HETATM   36  F2  UNL     1       9.642   3.033   0.632  1.00  0.00    -0.206 F 
HETATM   37  C12 UNL     1       7.329   3.244   0.029  1.00  0.00     0.104 C 
ENDBRANCH   7  32
TORSDOF 7
