REMARK  9 active torsions:
REMARK  status: ('A' for Active; 'I' for Inactive)
REMARK    1  A    between atoms: C3_3  and  C4_4 
REMARK    2  A    between atoms: C5_5  and  C6_6 
REMARK    3  A    between atoms: C11_12  and  C12_13 
REMARK    4  A    between atoms: C12_13  and  C13_14 
REMARK       I    between atoms: C13_14  and  N1_16 
REMARK    5  A    between atoms: N1_16  and  C14_18 
REMARK    6  A    between atoms: C14_18  and  C15_19 
REMARK    7  A    between atoms: N2_23  and  C17_24 
REMARK    8  A    between atoms: C17_24  and  O4_25 
REMARK    9  A    between atoms: C17_24  and  C18_27 
ROOT
HETATM    1  C1  UNL     1      -7.344   3.034   0.319  1.00  0.00     0.113 C 
HETATM    2  C2  UNL     1      -6.002   2.417   0.413  1.00  0.00    -0.097 C 
HETATM    3  C3  UNL     1      -4.902   1.910   0.502  1.00  0.00    -0.015 C 
ENDROOT
BRANCH   3   4
HETATM    4  C4  UNL     1      -3.621   1.328   0.620  1.00  0.00    -0.009 C 
HETATM    5  C5  UNL     1      -2.521   0.813   0.740  1.00  0.00    -0.049 C 
BRANCH   5   6
HETATM    6  C6  UNL     1      -1.240   0.270   0.978  1.00  0.00     0.064 A 
HETATM    7  C7  UNL     1      -0.649   0.671   2.191  1.00  0.00     0.032 A 
HETATM    8 BR1  UNL     1      -1.617   1.878   3.345  1.00  0.00    -0.049 Br
HETATM    9  C8  UNL     1       0.577   0.227   2.556  1.00  0.00     0.021 A 
HETATM   10  C9  UNL     1       1.284  -0.622   1.769  1.00  0.00     0.016 A 
HETATM   11  C10 UNL     1       0.711  -1.018   0.579  1.00  0.00     0.001 A 
HETATM   12  C11 UNL     1       1.176  -1.852  -0.394  1.00  0.00    -0.021 A 
HETATM   13  C19 UNL     1      -0.549  -0.589   0.159  1.00  0.00     0.071 A 
HETATM   14  C16 UNL     1       0.245  -1.919  -1.349  1.00  0.00     0.107 A 
HETATM   15  N2  UNL     1      -0.865  -1.126  -1.028  1.00  0.00    -0.303 N 
BRANCH  12  16
HETATM   16  C12 UNL     1       2.520  -2.522  -0.332  1.00  0.00     0.143 C 
BRANCH  16  17
HETATM   17  C13 UNL     1       3.536  -1.517  -0.718  1.00  0.00     0.222 C 
HETATM   18  O1  UNL     1       3.395  -0.958  -1.831  1.00  0.00    -0.273 OA
HETATM   19  N1  UNL     1       4.616  -1.198   0.125  1.00  0.00    -0.351 N 
ATOM     20  H1  UNL     1       4.675  -1.687   1.018  1.00  0.00     0.163 HD
BRANCH  19  21
HETATM   21  C14 UNL     1       5.642  -0.239  -0.173  1.00  0.00     0.235 C 
BRANCH  21  22
HETATM   22  C15 UNL     1       5.068   1.106  -0.353  1.00  0.00     0.191 C 
HETATM   23  O2  UNL     1       3.841   1.300  -0.199  1.00  0.00    -0.647 OA
HETATM   24  O3  UNL     1       5.899   2.192  -0.703  1.00  0.00    -0.647 OA
ENDBRANCH  21  22
ENDBRANCH  19  21
ENDBRANCH  16  17
ENDBRANCH  12  16
BRANCH  15  25
HETATM   25  C17 UNL     1      -1.937  -1.074  -1.928  1.00  0.00     0.132 C 
BRANCH  25  26
HETATM   26  O4  UNL     1      -1.688  -1.847  -3.014  1.00  0.00    -0.348 OA
ATOM     27  H4  UNL     1      -2.415  -1.812  -3.624  1.00  0.00     0.219 HD
ENDBRANCH  25  26
BRANCH  25  28
HETATM   28  C18 UNL     1      -3.217  -0.484  -2.108  1.00  0.00     0.169 C 
HETATM   29 BR2  UNL     1      -3.948  -1.088  -3.871  1.00  0.00    -0.088 Br
ENDBRANCH  25  28
ENDBRANCH  15  25
ENDBRANCH   5   6
ENDBRANCH   3   4
TORSDOF 9
