REMARK  14 active torsions:
REMARK  status: ('A' for Active; 'I' for Inactive)
REMARK    1  A    between atoms: C2_2  and  C3_3 
REMARK    2  A    between atoms: C3_3  and  C4_4 
REMARK    3  A    between atoms: C3_3  and  N4_32 
REMARK    4  A    between atoms: C4_4  and  N1_5 
REMARK       I    between atoms: N1_5  and  C5_7 
REMARK    5  A    between atoms: C5_7  and  C6_9 
REMARK    6  A    between atoms: C6_9  and  N2_10 
REMARK    7  A    between atoms: C6_9  and  C20_28 
REMARK       I    between atoms: N2_10  and  C7_11 
REMARK    8  A    between atoms: N2_10  and  C14_22 
REMARK    9  A    between atoms: C7_11  and  C8_13 
REMARK   10  A    between atoms: C8_13  and  N3_14 
REMARK   11  A    between atoms: C8_13  and  C10_18 
REMARK       I    between atoms: N4_32  and  C24_34 
REMARK   12  A    between atoms: C24_34  and  C25_36 
REMARK   13  A    between atoms: C25_36  and  O4_37 
REMARK   14  A    between atoms: O4_37  and  C26_38 
ROOT
HETATM    1  C6  UNL     1      -1.348   1.004  -1.192  1.00  0.00     0.187 C 
ENDROOT
BRANCH   1   2
HETATM    2  C5  UNL     1      -0.042   1.537  -0.674  1.00  0.00     0.241 C 
HETATM    3  N1  UNL     1       1.164   0.884  -0.469  1.00  0.00    -0.357 N 
ATOM      4  H1  UNL     1       1.220  -0.108  -0.698  1.00  0.00     0.162 HD
HETATM    5  O1  UNL     1      -0.003   2.795  -0.366  1.00  0.00    -0.271 OA
BRANCH   3   6
HETATM    6  C4  UNL     1       2.346   1.533   0.051  1.00  0.00     0.147 C 
BRANCH   6   7
HETATM    7  C3  UNL     1       3.493   0.550   0.134  1.00  0.00     0.102 C 
BRANCH   7   8
HETATM    8  C2  UNL     1       3.835  -0.011  -1.235  1.00  0.00     0.022 C 
HETATM    9  C1  UNL     1       4.241   1.093  -2.191  1.00  0.00     0.007 C 
ENDBRANCH   7   8
BRANCH   7  10
HETATM   10  N4  UNL     1       4.642   1.130   0.781  1.00  0.00    -0.353 N 
HETATM   11  C24 UNL     1       5.186   0.539   1.982  1.00  0.00     0.242 C 
HETATM   12  O3  UNL     1       4.675  -0.489   2.486  1.00  0.00    -0.271 OA
ATOM     13  H4  UNL     1       5.075   1.965   0.388  1.00  0.00     0.163 HD
BRANCH  11  14
HETATM   14  C25 UNL     1       6.364   1.137   2.647  1.00  0.00     0.281 C 
BRANCH  14  15
HETATM   15  O4  UNL     1       6.842   0.377   3.733  1.00  0.00    -0.312 OA
BRANCH  15  16
HETATM   16  C26 UNL     1       7.339  -0.892   3.501  1.00  0.00     0.255 C 
HETATM   17  C27 UNL     1       7.862  -1.780   4.589  1.00  0.00     0.126 C 
HETATM   18  O5  UNL     1       7.355  -1.325   2.325  1.00  0.00    -0.266 OA
ENDBRANCH  15  16
ENDBRANCH  14  15
ENDBRANCH  11  14
ENDBRANCH   7  10
ENDBRANCH   6   7
ENDBRANCH   3   6
ENDBRANCH   1   2
BRANCH   1  19
HETATM   19  N2  UNL     1      -1.762  -0.218  -0.534  1.00  0.00    -0.331 N 
HETATM   20  C7  UNL     1      -2.768  -0.197   0.529  1.00  0.00     0.252 C 
HETATM   21  O2  UNL     1      -3.100  -1.316   1.030  1.00  0.00    -0.271 OA
BRANCH  20  22
HETATM   22  C8  UNL     1      -3.428   0.964   1.097  1.00  0.00     0.284 C 
BRANCH  22  23
HETATM   23  N3  UNL     1      -3.307   0.763   2.589  1.00  0.00    -0.066 N 
HETATM   24  C9  UNL     1      -1.899   0.775   2.940  1.00  0.00     0.267 C 
ATOM     25  H32 UNL     1      -3.850   1.443   3.122  1.00  0.00     0.277 HD
ATOM     26  H31 UNL     1      -3.784  -0.079   2.911  1.00  0.00     0.277 HD
ENDBRANCH  22  23
BRANCH  22  27
HETATM   27  C10 UNL     1      -4.932   0.985   0.917  1.00  0.00    -0.014 C 
HETATM   28  C11 UNL     1      -5.294   0.948  -0.525  1.00  0.00     0.017 C 
HETATM   29  C12 UNL     1      -5.446   2.384   1.405  1.00  0.00     0.017 C 
HETATM   30  C13 UNL     1      -5.679   0.010   1.760  1.00  0.00     0.017 C 
ENDBRANCH  22  27
ENDBRANCH  20  22
BRANCH  19  31
HETATM   31  C14 UNL     1      -1.240  -1.534  -0.835  1.00  0.00     0.088 C 
HETATM   32  C15 UNL     1      -2.234  -2.500  -1.455  1.00  0.00     0.025 C 
HETATM   33  C16 UNL     1      -1.408  -3.714  -1.866  1.00  0.00     0.002 C 
HETATM   34  C17 UNL     1      -0.648  -4.339  -0.742  1.00  0.00     0.000 C 
HETATM   35  C18 UNL     1       0.347  -3.280  -0.237  1.00  0.00     0.002 C 
HETATM   36  C19 UNL     1      -0.586  -2.208   0.364  1.00  0.00     0.025 C 
ENDBRANCH  19  31
ENDBRANCH   1  19
BRANCH   1  37
HETATM   37  C20 UNL     1      -1.421   1.102  -2.655  1.00  0.00    -0.022 C 
HETATM   38  C21 UNL     1      -0.397   0.350  -3.463  1.00  0.00     0.017 C 
HETATM   39  C22 UNL     1      -1.173   2.631  -2.973  1.00  0.00     0.017 C 
HETATM   40  C23 UNL     1      -2.773   0.877  -3.228  1.00  0.00     0.017 C 
ENDBRANCH   1  37
TORSDOF 14
