REMARK  11 active torsions:
REMARK  status: ('A' for Active; 'I' for Inactive)
REMARK    1  A    between atoms: N1_1  and  C1_5 
REMARK    2  A    between atoms: C1_5  and  C2_6 
REMARK    3  A    between atoms: C2_6  and  C3_7 
REMARK    4  A    between atoms: C3_7  and  C4_8 
REMARK    5  A    between atoms: C4_8  and  N2_9 
REMARK    6  A    between atoms: C5_10  and  O1_11 
REMARK    7  A    between atoms: C6_13  and  C7_14 
REMARK    8  A    between atoms: C7_14  and  N3_15 
REMARK    9  A    between atoms: N3_15  and  N4_17 
REMARK       I    between atoms: N4_17  and  C8_19 
REMARK   10  A    between atoms: C9_22  and  N7_23 
REMARK   11  A    between atoms: N7_23  and  N8_25 
ROOT
HETATM    1  N2  UNL     1      -1.097   0.225  -0.720  1.00  0.00    -0.279 N 
HETATM    2  C5  UNL     1       0.137  -0.293  -0.603  1.00  0.00     0.162 A 
HETATM    3  C6  UNL     1       1.274   0.499  -0.607  1.00  0.00     0.077 A 
HETATM    4  C9  UNL     1       1.114   1.867  -0.736  1.00  0.00     0.139 A 
HETATM    5  N9  UNL     1      -0.141   2.329  -0.848  1.00  0.00    -0.292 N 
ATOM      6  H9  UNL     1      -0.271   3.336  -0.942  1.00  0.00     0.172 HD
HETATM    7  C10 UNL     1      -1.238   1.553  -0.844  1.00  0.00     0.330 A 
HETATM    8  O2  UNL     1      -2.399   2.087  -0.957  1.00  0.00    -0.246 OA
ENDROOT
BRANCH   1   9
HETATM    9  C4  UNL     1      -2.242  -0.660  -0.709  1.00  0.00     0.136 C 
BRANCH   9  10
HETATM   10  C3  UNL     1      -2.784  -0.900   0.659  1.00  0.00     0.022 C 
BRANCH  10  11
HETATM   11  C2  UNL     1      -3.964  -1.833   0.558  1.00  0.00     0.029 C 
BRANCH  11  12
HETATM   12  C1  UNL     1      -5.073  -1.268  -0.298  1.00  0.00     0.229 C 
BRANCH  12  13
HETATM   13  N1  UNL     1      -5.571  -0.011   0.232  1.00  0.00    -0.079 N 
ATOM     14  H13 UNL     1      -5.863  -0.107   1.205  1.00  0.00     0.274 HD
ATOM     15  H12 UNL     1      -4.817   0.664   0.358  1.00  0.00     0.274 HD
ATOM     16  H11 UNL     1      -6.320   0.371  -0.346  1.00  0.00     0.274 HD
ENDBRANCH  12  13
ENDBRANCH  11  12
ENDBRANCH  10  11
ENDBRANCH   9  10
ENDBRANCH   1   9
BRANCH   2  17
HETATM   17  O1  UNL     1       0.320  -1.663  -0.473  1.00  0.00    -0.345 OA
ATOM     18  H1  UNL     1       1.193  -2.029  -0.390  1.00  0.00     0.219 HD
ENDBRANCH   2  17
BRANCH   3  19
HETATM   19  C7  UNL     1       2.613  -0.061  -0.481  1.00  0.00     0.127 C 
BRANCH  19  20
HETATM   20  N3  UNL     1       3.673   0.642  -0.481  1.00  0.00    -0.309 N 
ATOM     21  H3  UNL     1       3.604   1.655  -0.573  1.00  0.00     0.186 HD
BRANCH  20  22
HETATM   22  N4  UNL     1       4.915   0.054  -0.358  1.00  0.00    -0.276 N 
HETATM   23  C8  UNL     1       5.218  -0.660   0.662  1.00  0.00     0.215 C 
HETATM   24  N5  UNL     1       6.501  -1.267   0.788  1.00  0.00    -0.065 NA
HETATM   25  N6  UNL     1       4.257  -0.851   1.692  1.00  0.00    -0.065 NA
ATOM     26  H4  UNL     1       5.607   0.191  -1.095  1.00  0.00     0.189 HD
ENDBRANCH  20  22
ENDBRANCH  19  20
ENDBRANCH   3  19
BRANCH   4  27
HETATM   27  N7  UNL     1       2.158   2.612  -0.740  1.00  0.00    -0.291 N 
ATOM     28  H7  UNL     1       3.064   2.152  -0.647  1.00  0.00     0.188 HD
BRANCH  27  29
HETATM   29  N8  UNL     1       2.152   3.983  -0.860  1.00  0.00    -0.344 N 
ATOM     30  H82 UNL     1       1.238   4.425  -0.952  1.00  0.00     0.176 HD
ATOM     31  H81 UNL     1       2.982   4.575  -0.863  1.00  0.00     0.176 HD
ENDBRANCH  27  29
ENDBRANCH   4  27
TORSDOF 11
