REMARK  10 active torsions:
REMARK  status: ('A' for Active; 'I' for Inactive)
REMARK    1  A    between atoms: N1_1  and  C1_4 
REMARK    2  A    between atoms: C3_6  and  N2_7 
REMARK    3  A    between atoms: N2_7  and  N3_9 
REMARK    4  A    between atoms: C5_15  and  N5_16 
REMARK    5  A    between atoms: N5_16  and  C6_18 
REMARK    6  A    between atoms: C6_18  and  C7_19 
REMARK    7  A    between atoms: C7_19  and  O1_20 
REMARK    8  A    between atoms: O1_20  and  C8_21 
REMARK    9  A    between atoms: C8_21  and  C9_22 
REMARK   10  A    between atoms: C9_22  and  O2_23 
ROOT
HETATM    1  C1  UNL     1      -4.889  -1.353  -0.199  1.00  0.00     0.103 C 
HETATM    2  C2  UNL     1      -4.602  -0.019   0.055  1.00  0.00     0.081 C 
HETATM    3  C3  UNL     1      -3.376   0.515   0.352  1.00  0.00     0.080 C 
HETATM    4  C4  UNL     1      -2.161  -0.122   0.443  1.00  0.00     0.110 A 
HETATM    5  N4  UNL     1      -0.952   0.448   0.471  1.00  0.00    -0.187 N 
ATOM      6  H4  UNL     1      -0.794   1.455   0.426  1.00  0.00     0.184 HD
HETATM    7  C5  UNL     1       0.029  -0.462   0.566  1.00  0.00     0.679 A 
HETATM    8  N6  UNL     1      -0.584  -1.658   0.599  1.00  0.00    -0.184 N 
ATOM      9  H6  UNL     1      -0.107  -2.557   0.669  1.00  0.00     0.184 HD
HETATM   10  C10 UNL     1      -1.917  -1.499   0.527  1.00  0.00     0.146 A 
HETATM   11  C11 UNL     1      -2.857  -2.498   0.536  1.00  0.00     0.276 C 
HETATM   12  O3  UNL     1      -2.468  -3.602   0.961  1.00  0.00    -0.266 OA
HETATM   13  N7  UNL     1      -4.134  -2.440   0.148  1.00  0.00    -0.308 N 
ATOM     14  H7  UNL     1      -4.617  -3.337   0.104  1.00  0.00     0.170 HD
ENDROOT
BRANCH   7  15
HETATM   15  N5  UNL     1       1.316  -0.321   0.623  1.00  0.00    -0.224 N 
ATOM     16  H5  UNL     1       1.876  -1.170   0.694  1.00  0.00     0.177 HD
BRANCH  15  17
HETATM   17  C6  UNL     1       2.014   0.920   0.595  1.00  0.00     0.164 C 
BRANCH  17  18
HETATM   18  C7  UNL     1       3.315   0.654  -0.196  1.00  0.00     0.188 C 
BRANCH  18  19
HETATM   19  O1  UNL     1       3.970  -0.323   0.518  1.00  0.00    -0.387 OA
BRANCH  19  20
HETATM   20  C8  UNL     1       5.151  -0.748  -0.001  1.00  0.00     0.193 C 
BRANCH  20  21
HETATM   21  C9  UNL     1       6.130   0.395  -0.084  1.00  0.00     0.190 C 
BRANCH  21  22
HETATM   22  O2  UNL     1       6.320   0.882   1.217  1.00  0.00    -0.399 OA
ATOM     23  H2  UNL     1       6.937   1.602   1.165  1.00  0.00     0.209 HD
ENDBRANCH  21  22
ENDBRANCH  20  21
ENDBRANCH  19  20
ENDBRANCH  18  19
ENDBRANCH  17  18
ENDBRANCH  15  17
ENDBRANCH   7  15
BRANCH   3  24
HETATM   24  N2  UNL     1      -3.351   1.910   0.604  1.00  0.00    -0.305 N 
ATOM     25  H2  UNL     1      -3.449   2.305   1.539  1.00  0.00     0.186 HD
BRANCH  24  26
HETATM   26  N3  UNL     1      -3.183   2.686  -0.521  1.00  0.00    -0.345 N 
ATOM     27  H32 UNL     1      -3.086   2.276  -1.450  1.00  0.00     0.176 HD
ATOM     28  H31 UNL     1      -3.165   3.690  -0.340  1.00  0.00     0.176 HD
ENDBRANCH  24  26
ENDBRANCH   3  24
BRANCH   1  29
HETATM   29  N1  UNL     1      -5.974  -1.634  -0.827  1.00  0.00    -0.385 N 
ATOM     30  H12 UNL     1      -6.537  -0.824  -1.086  1.00  0.00     0.157 HD
ATOM     31  H11 UNL     1      -6.185  -2.614  -1.014  1.00  0.00     0.157 HD
ENDBRANCH   1  29
TORSDOF 10
