REMARK  8 active torsions:
REMARK  status: ('A' for Active; 'I' for Inactive)
REMARK    1  A    between atoms: C3_5  and  C4_6 
REMARK    2  A    between atoms: C4_6  and  C5_7 
REMARK    3  A    between atoms: N2_9  and  C7_10 
REMARK    4  A    between atoms: C7_10  and  O1_11 
REMARK    5  A    between atoms: O1_11  and  C8_12 
REMARK    6  A    between atoms: C8_12  and  C9_13 
REMARK    7  A    between atoms: C9_13  and  O2_14 
REMARK    8  A    between atoms: C12_24  and  N6_25 
ROOT
HETATM    1  C4  UNL     1      -1.437   1.030   1.604  1.00  0.00     0.079 C 
ENDROOT
BRANCH   1   2
HETATM    2  C3  UNL     1      -2.523   0.722   0.938  1.00  0.00     0.109 A 
HETATM    3  N1  UNL     1      -2.516  -0.231  -0.005  1.00  0.00    -0.341 N 
HETATM    4  C2  UNL     1      -3.632  -0.571  -0.713  1.00  0.00     0.054 A 
ATOM      5  H1  UNL     1      -1.643  -0.721  -0.201  1.00  0.00     0.167 HD
HETATM    6  C1  UNL     1      -3.539  -1.518  -1.622  1.00  0.00     0.045 C 
HETATM    7  C12 UNL     1      -4.819   0.065  -0.476  1.00  0.00     0.093 A 
HETATM    8  C11 UNL     1      -4.817   1.061   0.512  1.00  0.00     0.146 A 
HETATM    9  N4  UNL     1      -3.679   1.337   1.164  1.00  0.00    -0.329 N 
HETATM   10  N5  UNL     1      -6.022   1.756   0.800  1.00  0.00    -0.080 NA
ATOM     11  H4  UNL     1      -3.702   2.065   1.878  1.00  0.00     0.168 HD
BRANCH   7  12
HETATM   12  N6  UNL     1      -5.910  -0.206  -1.108  1.00  0.00    -0.395 N 
ATOM     13  H62 UNL     1      -5.911  -0.930  -1.826  1.00  0.00     0.156 HD
ATOM     14  H61 UNL     1      -6.795   0.268  -0.931  1.00  0.00     0.156 HD
ENDBRANCH   7  12
ENDBRANCH   1   2
BRANCH   1  15
HETATM   15  C5  UNL     1      -0.148   0.381   1.389  1.00  0.00     0.055 A 
HETATM   16  C6  UNL     1       1.003   0.911   0.845  1.00  0.00     0.127 A 
HETATM   17  N2  UNL     1       1.986  -0.007   0.816  1.00  0.00    -0.286 N 
HETATM   18  C10 UNL     1       1.455  -1.125   1.344  1.00  0.00     0.328 A 
HETATM   19  O3  UNL     1       2.089  -2.195   1.476  1.00  0.00    -0.246 OA
HETATM   20  N3  UNL     1       0.173  -0.904   1.692  1.00  0.00    -0.307 N 
ATOM     21  H3  UNL     1      -0.454  -1.589   2.114  1.00  0.00     0.170 HD
BRANCH  17  22
HETATM   22  C7  UNL     1       3.359   0.179   0.309  1.00  0.00     0.302 C 
BRANCH  22  23
HETATM   23  O1  UNL     1       3.444  -0.126  -1.023  1.00  0.00    -0.369 OA
BRANCH  23  24
HETATM   24  C8  UNL     1       4.725   0.068  -1.489  1.00  0.00     0.196 C 
BRANCH  24  25
HETATM   25  C9  UNL     1       5.782  -0.756  -0.820  1.00  0.00     0.190 C 
BRANCH  25  26
HETATM   26  O2  UNL     1       7.023  -0.432  -1.424  1.00  0.00    -0.399 OA
ATOM     27  H2  UNL     1       7.693  -0.955  -1.000  1.00  0.00     0.209 HD
ENDBRANCH  25  26
ENDBRANCH  24  25
ENDBRANCH  23  24
ENDBRANCH  22  23
ENDBRANCH  17  22
ENDBRANCH   1  15
TORSDOF 8
