REMARK  10 active torsions:
REMARK  status: ('A' for Active; 'I' for Inactive)
REMARK    1  A    between atoms: N1_1  and  C1_5 
REMARK    2  A    between atoms: C1_5  and  C2_6 
REMARK    3  A    between atoms: C2_6  and  C3_7 
REMARK    4  A    between atoms: C3_7  and  C4_8 
REMARK    5  A    between atoms: C4_8  and  N2_9 
REMARK    6  A    between atoms: N2_9  and  S1_11 
REMARK    7  A    between atoms: S1_11  and  N3_12 
REMARK    8  A    between atoms: N4_17  and  N5_19 
REMARK    9  A    between atoms: N5_19  and  C5_21 
REMARK   10  A    between atoms: N7_27  and  N8_28 
ROOT
HETATM    1  C3  UNL     1       0.994  -1.037   0.110  1.00  0.00     0.024 C 
HETATM    2  N4  UNL     1      -0.100  -1.576  -0.287  1.00  0.00    -0.293 N 
ATOM      3  H4  UNL     1      -0.259  -2.549  -0.027  1.00  0.00     0.187 HD
ENDROOT
BRANCH   1   4
HETATM    4  C2  UNL     1       1.951  -1.824   0.903  1.00  0.00     0.083 C 
BRANCH   4   5
HETATM    5  C1  UNL     1       3.303  -1.990   0.301  1.00  0.00     0.235 C 
BRANCH   5   6
HETATM    6  N1  UNL     1       3.239  -2.649  -0.994  1.00  0.00    -0.079 N 
ATOM      7  H13 UNL     1       2.747  -3.540  -0.933  1.00  0.00     0.274 HD
ATOM      8  H12 UNL     1       2.607  -2.161  -1.629  1.00  0.00     0.274 HD
ATOM      9  H11 UNL     1       4.165  -2.763  -1.406  1.00  0.00     0.274 HD
ENDBRANCH   5   6
ENDBRANCH   4   5
ENDBRANCH   1   4
BRANCH   1  10
HETATM   10  C4  UNL     1       1.276   0.356  -0.232  1.00  0.00     0.187 C 
BRANCH  10  11
HETATM   11  N2  UNL     1       2.408   0.575  -1.083  1.00  0.00    -0.298 N 
ATOM     12  H2  UNL     1       3.025  -0.141  -1.466  1.00  0.00     0.174 HD
BRANCH  11  13
HETATM   13  S1  UNL     1       2.534   2.290  -1.341  1.00  0.00     0.313 S 
HETATM   14  O1  UNL     1       1.188   2.908  -1.390  1.00  0.00    -0.183 OA
HETATM   15  O2  UNL     1       3.264   2.473  -2.658  1.00  0.00    -0.183 OA
BRANCH  13  16
HETATM   16  N3  UNL     1       3.534   3.012  -0.125  1.00  0.00    -0.312 N 
ATOM     17  H32 UNL     1       3.979   2.491   0.630  1.00  0.00     0.170 HD
ATOM     18  H31 UNL     1       3.608   4.018  -0.276  1.00  0.00     0.170 HD
ENDBRANCH  13  16
ENDBRANCH  11  13
ENDBRANCH  10  11
ENDBRANCH   1  10
BRANCH   2  19
HETATM   19  N5  UNL     1      -1.080  -0.958  -1.033  1.00  0.00    -0.131 N 
ATOM     20  H5  UNL     1      -1.046  -1.075  -2.046  1.00  0.00     0.205 HD
BRANCH  19  21
HETATM   21  C5  UNL     1      -2.142  -0.165  -0.495  1.00  0.00     0.709 C 
HETATM   22  N6  UNL     1      -2.634   0.844  -1.116  1.00  0.00    -0.223 N 
HETATM   23  C6  UNL     1      -3.701   1.639  -0.574  1.00  0.00     0.140 C 
ATOM     24  H6  UNL     1      -2.253   1.091  -2.029  1.00  0.00     0.177 HD
HETATM   25  C7  UNL     1      -4.269   1.159   0.715  1.00  0.00     0.042 C 
HETATM   26  C8  UNL     1      -3.258   0.460   1.593  1.00  0.00     0.169 C 
HETATM   27  N7  UNL     1      -2.629  -0.556   0.775  1.00  0.00    -0.129 N 
BRANCH  27  28
HETATM   28  N8  UNL     1      -2.520  -1.868   1.251  1.00  0.00    -0.329 N 
ATOM     29  H82 UNL     1      -2.077  -2.584   0.675  1.00  0.00     0.177 HD
ATOM     30  H81 UNL     1      -2.871  -2.150   2.166  1.00  0.00     0.177 HD
ENDBRANCH  27  28
ENDBRANCH  19  21
ENDBRANCH   2  19
TORSDOF 10
