REMARK  6 active torsions:
REMARK  status: ('A' for Active; 'I' for Inactive)
REMARK    1  A    between atoms: N3_4  and  C2_6 
REMARK    2  A    between atoms: C2_6  and  C3_7 
REMARK    3  A    between atoms: C3_7  and  C4_8 
REMARK    4  A    between atoms: C4_8  and  C5_9 
REMARK    5  A    between atoms: C7_14  and  C8_15 
REMARK    6  A    between atoms: C8_15  and  N5_16 
ROOT
HETATM    1  C5  UNL     1       0.817  -2.305   0.556  1.00  0.00     0.177 C 
HETATM    2  N4  UNL     1       0.253  -1.015   0.787  1.00  0.00    -0.346 N 
ATOM      3  H4  UNL     1       0.761  -0.559   1.545  1.00  0.00     0.163 HD
HETATM    4  C6  UNL     1      -0.766  -0.151   0.329  1.00  0.00     0.242 C 
HETATM    5  O1  UNL     1      -1.048   0.716   1.188  1.00  0.00    -0.271 OA
HETATM    6  C7  UNL     1      -1.578   0.001  -0.878  1.00  0.00     0.194 C 
HETATM    7  N8  UNL     1      -2.464  -1.128  -1.108  1.00  0.00    -0.349 N 
ATOM      8  H8  UNL     1      -3.444  -0.864  -1.205  1.00  0.00     0.163 HD
HETATM    9  C10 UNL     1      -2.258  -2.398  -1.214  1.00  0.00     0.191 C 
HETATM   10  N9  UNL     1      -3.413  -3.182  -1.442  1.00  0.00    -0.063 NA
HETATM   11  N10 UNL     1      -1.048  -3.174  -1.142  1.00  0.00    -0.299 N 
ATOM     12  H10 UNL     1      -1.160  -4.075  -1.606  1.00  0.00     0.171 HD
HETATM   13  C11 UNL     1       0.246  -3.034  -0.609  1.00  0.00     0.246 C 
HETATM   14  O2  UNL     1       1.096  -3.672  -1.273  1.00  0.00    -0.271 OA
ENDROOT
BRANCH   1  15
HETATM   15  C4  UNL     1       2.296  -2.341   0.548  1.00  0.00     0.036 C 
BRANCH  15  16
HETATM   16  C3  UNL     1       3.049  -1.564  -0.443  1.00  0.00     0.022 C 
BRANCH  16  17
HETATM   17  C2  UNL     1       2.949  -0.090  -0.460  1.00  0.00     0.122 C 
BRANCH  17  18
HETATM   18  N3  UNL     1       3.395   0.545   0.779  1.00  0.00    -0.367 N 
HETATM   19  C1  UNL     1       3.843   1.756   0.797  1.00  0.00     0.196 C 
HETATM   20  N1  UNL     1       3.938   2.559  -0.370  1.00  0.00    -0.067 NA
HETATM   21  N2  UNL     1       4.248   2.270   2.060  1.00  0.00    -0.067 NA
ATOM     22  H3  UNL     1       3.351   0.018   1.651  1.00  0.00     0.161 HD
ENDBRANCH  17  18
ENDBRANCH  16  17
ENDBRANCH  15  16
ENDBRANCH   1  15
BRANCH   6  23
HETATM   23  C8  UNL     1      -2.338   1.297  -0.862  1.00  0.00     0.156 C 
BRANCH  23  24
HETATM   24  N5  UNL     1      -3.233   1.421   0.245  1.00  0.00    -0.364 N 
HETATM   25  C9  UNL     1      -3.874   2.532   0.385  1.00  0.00     0.197 C 
HETATM   26  N6  UNL     1      -3.746   3.640  -0.490  1.00  0.00    -0.067 NA
HETATM   27  N7  UNL     1      -4.760   2.643   1.488  1.00  0.00    -0.067 NA
ATOM     28  H5  UNL     1      -3.361   0.654   0.905  1.00  0.00     0.161 HD
ENDBRANCH  23  24
ENDBRANCH   6  23
TORSDOF 6
