REMARK  9 active torsions:
REMARK  status: ('A' for Active; 'I' for Inactive)
REMARK    1  A    between atoms: C1_4  and  C2_5 
REMARK    2  A    between atoms: C1_4  and  N7_30 
REMARK    3  A    between atoms: C2_5  and  C3_6 
REMARK    4  A    between atoms: C3_6  and  N2_7 
REMARK       I    between atoms: N2_7  and  C4_9 
REMARK    5  A    between atoms: C4_9  and  C5_11 
REMARK    6  A    between atoms: C9_21  and  N5_22 
REMARK    7  A    between atoms: N7_30  and  C11_32 
REMARK    8  A    between atoms: C11_32  and  C12_33 
REMARK    9  A    between atoms: C12_33  and  N8_34 
ROOT
HETATM    1  C5  UNL     1      -2.300  -1.075  -0.063  1.00  0.00     0.379 C 
HETATM    2  N3  UNL     1      -3.330  -2.099  -0.058  1.00  0.00    -0.044 N 
ATOM      3  H31 UNL     1      -2.954  -2.991   0.265  1.00  0.00     0.280 HD
ATOM      4  H32 UNL     1      -3.587  -2.360  -1.010  1.00  0.00     0.280 HD
HETATM    5  C6  UNL     1      -4.498  -1.727   0.706  1.00  0.00     0.255 C 
HETATM    6  C7  UNL     1      -5.436  -0.835  -0.069  1.00  0.00     0.150 C 
HETATM    7  N4  UNL     1      -5.358   0.484   0.460  1.00  0.00    -0.357 N 
ATOM      8  H4  UNL     1      -6.131   0.769   1.061  1.00  0.00     0.162 HD
HETATM    9  C8  UNL     1      -4.349   1.446   0.259  1.00  0.00     0.257 C 
HETATM   10  O2  UNL     1      -4.064   2.154   1.293  1.00  0.00    -0.271 OA
HETATM   11  C9  UNL     1      -3.595   1.740  -0.949  1.00  0.00     0.365 C 
HETATM   12  C10 UNL     1      -3.155   0.609  -1.765  1.00  0.00     0.259 C 
HETATM   13  O3  UNL     1      -3.580   0.571  -2.973  1.00  0.00    -0.271 OA
HETATM   14  N6  UNL     1      -2.320  -0.431  -1.361  1.00  0.00    -0.324 N 
ATOM     15  H6  UNL     1      -1.653  -0.775  -2.052  1.00  0.00     0.165 HD
ENDROOT
BRANCH   1  16
HETATM   16  C4  UNL     1      -0.975  -1.696   0.183  1.00  0.00     0.268 C 
HETATM   17  N2  UNL     1       0.165  -0.873   0.218  1.00  0.00    -0.357 N 
ATOM     18  H2  UNL     1       0.064   0.132   0.075  1.00  0.00     0.162 HD
HETATM   19  O1  UNL     1      -0.835  -2.929   0.362  1.00  0.00    -0.269 OA
BRANCH  17  20
HETATM   20  C3  UNL     1       1.473  -1.427   0.453  1.00  0.00     0.130 C 
BRANCH  20  21
HETATM   21  C2  UNL     1       2.514  -0.340   0.440  1.00  0.00     0.095 C 
BRANCH  21  22
HETATM   22  C1  UNL     1       3.872  -0.854   0.678  1.00  0.00     0.072 C 
HETATM   23  N1  UNL     1       4.063  -2.102   0.877  1.00  0.00    -0.389 N 
ATOM     24  H12 UNL     1       3.244  -2.709   0.862  1.00  0.00     0.157 HD
ATOM     25  H11 UNL     1       5.004  -2.458   1.042  1.00  0.00     0.157 HD
BRANCH  22  26
HETATM   26  N7  UNL     1       5.013  -0.008   0.699  1.00  0.00    -0.379 N 
ATOM     27  H7  UNL     1       5.517   0.185   1.564  1.00  0.00     0.160 HD
BRANCH  26  28
HETATM   28  C11 UNL     1       5.429   0.569  -0.565  1.00  0.00     0.148 C 
BRANCH  28  29
HETATM   29  C12 UNL     1       6.647   1.429  -0.345  1.00  0.00     0.249 C 
BRANCH  29  30
HETATM   30  N8  UNL     1       6.333   2.496   0.592  1.00  0.00    -0.078 N 
ATOM     31  H83 UNL     1       5.526   3.043   0.294  1.00  0.00     0.274 HD
ATOM     32  H82 UNL     1       5.953   2.138   1.468  1.00  0.00     0.274 HD
ATOM     33  H81 UNL     1       7.157   3.078   0.741  1.00  0.00     0.274 HD
ENDBRANCH  29  30
ENDBRANCH  28  29
ENDBRANCH  26  28
ENDBRANCH  22  26
ENDBRANCH  21  22
ENDBRANCH  20  21
ENDBRANCH  17  20
ENDBRANCH   1  16
BRANCH  11  34
HETATM   34  N5  UNL     1      -2.360   2.477  -0.622  1.00  0.00    -0.058 N 
ATOM     35  H53 UNL     1      -2.554   3.320  -0.082  1.00  0.00     0.275 HD
ATOM     36  H52 UNL     1      -1.794   1.981   0.067  1.00  0.00     0.275 HD
ATOM     37  H51 UNL     1      -1.831   2.683  -1.469  1.00  0.00     0.275 HD
ENDBRANCH  11  34
TORSDOF 9
