REMARK  6 active torsions:
REMARK  status: ('A' for Active; 'I' for Inactive)
REMARK    1  A    between atoms: N2_7  and  C3_8 
REMARK    2  A    between atoms: C3_8  and  C4_9 
REMARK    3  A    between atoms: C4_9  and  C5_10 
REMARK    4  A    between atoms: C5_10  and  C6_11 
REMARK    5  A    between atoms: C6_11  and  C7_12 
REMARK    6  A    between atoms: C7_12  and  C8_13 
ROOT
HETATM    1  O1  UNL     1      -6.648   1.626  -1.586  1.00  0.00    -0.246 OA
HETATM    2  C1  UNL     1      -5.526   1.254  -1.112  1.00  0.00     0.332 A 
HETATM    3  N1  UNL     1      -4.415   1.416  -1.822  1.00  0.00    -0.260 N 
ATOM      4  H1  UNL     1      -4.452   1.839  -2.750  1.00  0.00     0.175 HD
HETATM    5  C2  UNL     1      -3.236   1.014  -1.300  1.00  0.00     0.334 A 
HETATM    6  O2  UNL     1      -2.212   1.190  -2.012  1.00  0.00    -0.246 OA
HETATM    7  N2  UNL     1      -3.142   0.453  -0.086  1.00  0.00    -0.251 N 
HETATM    8  C14 UNL     1      -4.257   0.284   0.639  1.00  0.00     0.334 A 
HETATM    9  O3  UNL     1      -4.252  -0.235   1.787  1.00  0.00    -0.246 OA
HETATM   10  N3  UNL     1      -5.440   0.688   0.113  1.00  0.00    -0.260 N 
ATOM     11  H3  UNL     1      -6.292   0.561   0.659  1.00  0.00     0.175 HD
ENDROOT
BRANCH   7  12
HETATM   12  C3  UNL     1      -1.847   0.047   0.406  1.00  0.00     0.139 C 
BRANCH  12  13
HETATM   13  C4  UNL     1      -1.489  -1.351   0.051  1.00  0.00     0.020 C 
BRANCH  13  14
HETATM   14  C5  UNL     1      -0.146  -1.707   0.613  1.00  0.00     0.002 C 
BRANCH  14  15
HETATM   15  C6  UNL     1       0.950  -0.821   0.085  1.00  0.00     0.005 C 
BRANCH  15  16
HETATM   16  C7  UNL     1       2.294  -1.246   0.679  1.00  0.00     0.038 C 
BRANCH  16  17
HETATM   17  C8  UNL     1       3.372  -0.383   0.166  1.00  0.00    -0.058 A 
HETATM   18  C9  UNL     1       4.051  -0.717  -0.986  1.00  0.00     0.007 A 
HETATM   19  C10 UNL     1       5.064   0.075  -1.485  1.00  0.00     0.001 A 
HETATM   20  C11 UNL     1       5.398   1.220  -0.815  1.00  0.00     0.000 A 
HETATM   21  C12 UNL     1       4.737   1.596   0.355  1.00  0.00     0.001 A 
HETATM   22  C13 UNL     1       3.731   0.786   0.829  1.00  0.00     0.007 A 
ENDBRANCH  16  17
ENDBRANCH  15  16
ENDBRANCH  14  15
ENDBRANCH  13  14
ENDBRANCH  12  13
ENDBRANCH   7  12
TORSDOF 6
