REMARK  9 active torsions:
REMARK  status: ('A' for Active; 'I' for Inactive)
REMARK    1  A    between atoms: N1_2  and  C2_4 
REMARK    2  A    between atoms: C5_9  and  N3_10 
REMARK    3  A    between atoms: N3_10  and  C6_12 
REMARK    4  A    between atoms: C6_12  and  C7_13 
REMARK    5  A    between atoms: C7_13  and  C8_14 
REMARK    6  A    between atoms: C8_14  and  C9_15 
REMARK    7  A    between atoms: N4_19  and  C13_20 
REMARK    8  A    between atoms: C13_20  and  C14_21 
REMARK    9  A    between atoms: C14_21  and  O1_22 
ROOT
HETATM    1  N3  UNL     1       2.214  -1.989   0.330  1.00  0.00    -0.376 N 
ATOM      2  H3  UNL     1       2.841  -2.793   0.356  1.00  0.00     0.161 HD
ENDROOT
BRANCH   1   3
HETATM    3  C5  UNL     1       2.730  -0.812   0.428  1.00  0.00     0.118 A 
HETATM    4  C4  UNL     1       1.987   0.351   0.405  1.00  0.00     0.066 A 
HETATM    5  C3  UNL     1       2.647   1.549   0.518  1.00  0.00     0.110 A 
HETATM    6  N2  UNL     1       3.974   1.593   0.646  1.00  0.00    -0.202 N 
HETATM    7  C2  UNL     1       4.707   0.476   0.669  1.00  0.00     0.679 A 
ATOM      8  H2  UNL     1       4.438   2.497   0.728  1.00  0.00     0.183 HD
HETATM    9  N5  UNL     1       4.061  -0.704   0.559  1.00  0.00    -0.177 N 
ATOM     10  H5  UNL     1       4.615  -1.560   0.576  1.00  0.00     0.185 HD
BRANCH   7  11
HETATM   11  N1  UNL     1       5.972   0.477   0.790  1.00  0.00    -0.230 N 
HETATM   12  C1  UNL     1       6.770   1.665   0.915  1.00  0.00     0.165 C 
ATOM     13  H1  UNL     1       6.451  -0.423   0.799  1.00  0.00     0.177 HD
ENDBRANCH   7  11
ENDBRANCH   1   3
BRANCH   1  14
HETATM   14  C6  UNL     1       0.794  -2.233   0.185  1.00  0.00     0.121 C 
BRANCH  14  15
HETATM   15  C7  UNL     1       0.342  -2.031  -1.248  1.00  0.00     0.024 C 
BRANCH  15  16
HETATM   16  C8  UNL     1      -1.115  -2.275  -1.432  1.00  0.00     0.041 C 
BRANCH  16  17
HETATM   17  C9  UNL     1      -1.992  -1.411  -0.641  1.00  0.00    -0.043 A 
HETATM   18  C10 UNL     1      -2.365  -1.837   0.620  1.00  0.00     0.010 A 
HETATM   19  C11 UNL     1      -3.199  -1.058   1.421  1.00  0.00     0.018 A 
HETATM   20  C12 UNL     1      -3.642   0.165   0.905  1.00  0.00     0.090 A 
HETATM   21  N4  UNL     1      -3.279   0.576  -0.317  1.00  0.00    -0.364 N 
HETATM   22  C15 UNL     1      -2.478  -0.190  -1.068  1.00  0.00     0.097 A 
BRANCH  21  23
HETATM   23  C13 UNL     1      -3.760   1.842  -0.808  1.00  0.00     0.153 C 
BRANCH  23  24
HETATM   24  C14 UNL     1      -5.068   1.723  -1.551  1.00  0.00     0.184 C 
BRANCH  24  25
HETATM   25  O1  UNL     1      -6.090   1.208  -0.766  1.00  0.00    -0.399 OA
ATOM     26  H1  UNL     1      -6.913   1.133  -1.234  1.00  0.00     0.209 HD
ENDBRANCH  24  25
ENDBRANCH  23  24
ENDBRANCH  21  23
ENDBRANCH  16  17
ENDBRANCH  15  16
ENDBRANCH  14  15
ENDBRANCH   1  14
TORSDOF 9
