REMARK  7 active torsions:
REMARK  status: ('A' for Active; 'I' for Inactive)
REMARK    1  A    between atoms: C2_2  and  C3_3 
REMARK    2  A    between atoms: C2_2  and  N1_10 
REMARK    3  A    between atoms: C3_3  and  C4_4 
REMARK    4  A    between atoms: N1_10  and  C10_12 
REMARK    5  A    between atoms: C13_19  and  N4_20 
REMARK    6  A    between atoms: N4_20  and  C14_22 
REMARK    7  A    between atoms: N5_23  and  N6_25 
ROOT
HETATM    1  C10 UNL     1       0.852  -0.414  -1.353  1.00  0.00     0.131 A 
HETATM    2  N2  UNL     1       0.624  -1.237  -2.391  1.00  0.00    -0.337 N 
ATOM      3  H2  UNL     1      -0.253  -1.161  -2.906  1.00  0.00     0.168 HD
HETATM    4  C11 UNL     1       1.535  -2.164  -2.765  1.00  0.00     0.182 A 
HETATM    5  N3  UNL     1       2.691  -2.265  -2.085  1.00  0.00    -0.360 N 
ATOM      6  H3  UNL     1       3.369  -2.968  -2.379  1.00  0.00     0.166 HD
HETATM    7  C12 UNL     1       2.996  -1.477  -1.030  1.00  0.00     0.122 A 
HETATM    8  C13 UNL     1       2.043  -0.534  -0.668  1.00  0.00     0.093 A 
ENDROOT
BRANCH   1   9
HETATM    9  N1  UNL     1       0.014   0.484  -0.960  1.00  0.00    -0.370 N 
ATOM     10  H1  UNL     1       0.262   1.069  -0.162  1.00  0.00     0.161 HD
BRANCH   9  11
HETATM   11  C2  UNL     1      -1.266   0.696  -1.606  1.00  0.00     0.083 C 
HETATM   12  C1  UNL     1      -1.739   2.111  -1.481  1.00  0.00     0.032 C 
BRANCH  11  13
HETATM   13  C3  UNL     1      -2.294  -0.312  -1.179  1.00  0.00     0.063 C 
BRANCH  13  14
HETATM   14  C4  UNL     1      -2.714  -0.171   0.217  1.00  0.00    -0.056 A 
HETATM   15  C5  UNL     1      -3.774   0.627   0.576  1.00  0.00     0.007 A 
HETATM   16  C6  UNL     1      -4.177   0.767   1.886  1.00  0.00     0.001 A 
HETATM   17  C7  UNL     1      -3.526   0.105   2.891  1.00  0.00     0.000 A 
HETATM   18  C8  UNL     1      -2.459  -0.703   2.563  1.00  0.00     0.001 A 
HETATM   19  C9  UNL     1      -2.058  -0.837   1.227  1.00  0.00     0.007 A 
ENDBRANCH  13  14
ENDBRANCH  11  13
ENDBRANCH   9  11
ENDBRANCH   1   9
BRANCH   8  20
HETATM   20  N4  UNL     1       2.295   0.330   0.430  1.00  0.00    -0.347 N 
ATOM     21  H4  UNL     1       1.591   1.021   0.690  1.00  0.00     0.167 HD
BRANCH  20  22
HETATM   22  C14 UNL     1       3.501   0.257   1.176  1.00  0.00     0.199 C 
HETATM   23  N5  UNL     1       4.108   1.317   1.576  1.00  0.00    -0.282 N 
ATOM     24  H5  UNL     1       3.699   2.222   1.344  1.00  0.00     0.189 HD
BRANCH  23  25
HETATM   25  N6  UNL     1       5.283   1.299   2.303  1.00  0.00    -0.248 N 
HETATM   26  N7  UNL     1       6.243   2.103   2.124  1.00  0.00    -0.331 N 
ATOM     27  H72 UNL     1       6.126   2.804   1.392  1.00  0.00     0.178 HD
ATOM     28  H71 UNL     1       7.110   2.090   2.661  1.00  0.00     0.178 HD
ATOM     29  H6  UNL     1       5.383   0.592   3.031  1.00  0.00     0.207 HD
ENDBRANCH  23  25
ENDBRANCH  20  22
ENDBRANCH   8  20
TORSDOF 7
