REMARK  8 active torsions:
REMARK  status: ('A' for Active; 'I' for Inactive)
REMARK    1  A    between atoms: N1_1  and  C1_5 
REMARK    2  A    between atoms: C1_5  and  C2_6 
REMARK    3  A    between atoms: C2_6  and  C3_7 
REMARK    4  A    between atoms: C3_7  and  C4_8 
REMARK    5  A    between atoms: C3_7  and  N2_15 
REMARK    6  A    between atoms: C4_8  and  C5_9 
REMARK    7  A    between atoms: C13_19  and  C14_20 
REMARK    8  A    between atoms: N3_22  and  N4_23 
ROOT
HETATM    1  C3  UNL     1      -0.531   1.038   0.377  1.00  0.00     0.088 C 
ENDROOT
BRANCH   1   2
HETATM    2  C2  UNL     1      -1.476   2.058  -0.265  1.00  0.00     0.052 C 
BRANCH   2   3
HETATM    3  C1  UNL     1      -0.682   2.977  -1.174  1.00  0.00     0.231 C 
BRANCH   3   4
HETATM    4  N1  UNL     1      -1.488   3.961  -1.814  1.00  0.00    -0.079 N 
ATOM      5  H13 UNL     1      -2.259   3.526  -2.320  1.00  0.00     0.274 HD
ATOM      6  H12 UNL     1      -2.020   4.498  -1.129  1.00  0.00     0.274 HD
ATOM      7  H11 UNL     1      -0.954   4.579  -2.425  1.00  0.00     0.274 HD
ENDBRANCH   3   4
ENDBRANCH   2   3
ENDBRANCH   1   2
BRANCH   1   8
HETATM    8  C4  UNL     1      -1.267   0.104   1.286  1.00  0.00     0.063 C 
BRANCH   8   9
HETATM    9  C5  UNL     1      -2.314  -0.679   0.618  1.00  0.00    -0.056 A 
HETATM   10  C6  UNL     1      -2.035  -1.907   0.057  1.00  0.00     0.007 A 
HETATM   11  C7  UNL     1      -2.952  -2.686  -0.576  1.00  0.00     0.001 A 
HETATM   12  C8  UNL     1      -4.249  -2.238  -0.675  1.00  0.00     0.000 A 
HETATM   13  C9  UNL     1      -4.572  -1.014  -0.128  1.00  0.00     0.001 A 
HETATM   14  C10 UNL     1      -3.617  -0.233   0.516  1.00  0.00     0.007 A 
ENDBRANCH   8   9
ENDBRANCH   1   8
BRANCH   1  15
HETATM   15  N2  UNL     1       0.290   0.395  -0.600  1.00  0.00    -0.371 N 
HETATM   16  C11 UNL     1       1.459  -0.079  -0.408  1.00  0.00     0.104 A 
HETATM   17  C12 UNL     1       2.137  -0.050   0.790  1.00  0.00     0.083 A 
HETATM   18  N5  UNL     1       2.098  -0.657  -1.443  1.00  0.00    -0.337 N 
HETATM   19  C13 UNL     1       3.400  -0.584   0.919  1.00  0.00     0.098 A 
HETATM   20  N3  UNL     1       4.005  -1.155  -0.150  1.00  0.00    -0.255 N 
HETATM   21  C15 UNL     1       3.317  -1.168  -1.304  1.00  0.00     0.208 A 
ATOM     22  H5  UNL     1       1.637  -0.704  -2.352  1.00  0.00     0.168 HD
ATOM     23  H2  UNL     1      -0.095   0.307  -1.540  1.00  0.00     0.161 HD
BRANCH  19  24
HETATM   24  C14 UNL     1       4.122  -0.556   2.183  1.00  0.00     0.290 C 
HETATM   25  O1  UNL     1       5.263  -1.038   2.299  1.00  0.00    -0.300 OA
ENDBRANCH  19  24
BRANCH  20  26
HETATM   26  N4  UNL     1       5.287  -1.705  -0.049  1.00  0.00    -0.337 N 
ATOM     27  H42 UNL     1       5.809  -1.695   0.827  1.00  0.00     0.177 HD
ATOM     28  H41 UNL     1       5.743  -2.135  -0.854  1.00  0.00     0.177 HD
ENDBRANCH  20  26
ENDBRANCH   1  15
TORSDOF 8
