REMARK  16 active torsions:
REMARK  status: ('A' for Active; 'I' for Inactive)
REMARK    1  A    between atoms: N1_2  and  C3_5 
REMARK    2  A    between atoms: C4_6  and  O1_7 
REMARK    3  A    between atoms: C5_9  and  C6_10 
REMARK    4  A    between atoms: C6_10  and  O2_11 
REMARK    5  A    between atoms: C6_10  and  O3_13 
REMARK    6  A    between atoms: C7_17  and  N4_18 
REMARK    7  A    between atoms: N4_18  and  C8_19 
REMARK    8  A    between atoms: N4_18  and  C15_40 
REMARK    9  A    between atoms: C8_19  and  C9_20 
REMARK   10  A    between atoms: C12_27  and  N7_28 
REMARK   11  A    between atoms: C13_33  and  N9_34 
REMARK   12  A    between atoms: C15_40  and  C16_41 
REMARK   13  A    between atoms: C16_41  and  O4_42 
REMARK   14  A    between atoms: C16_41  and  C17_44 
REMARK   15  A    between atoms: C17_44  and  O5_45 
REMARK   16  A    between atoms: C18_47  and  O6_48 
ROOT
HETATM    1  C1  UNL     1      -1.728  -3.965   0.256  1.00  0.00     0.169 C 
HETATM    2  N1  UNL     1      -2.193  -2.841   1.063  1.00  0.00    -0.284 N 
HETATM    3  C2  UNL     1      -2.555  -3.097   2.392  1.00  0.00     0.184 C 
HETATM    4  N2  UNL     1      -2.844  -3.298   3.500  1.00  0.00    -0.172 NA
ENDROOT
BRANCH   2   5
HETATM    5  C3  UNL     1      -2.275  -1.512   0.509  1.00  0.00     0.116 A 
HETATM    6  C4  UNL     1      -3.424  -1.091  -0.099  1.00  0.00     0.124 A 
HETATM    7  C5  UNL     1      -3.445   0.191  -0.610  1.00  0.00     0.102 A 
HETATM    8  N3  UNL     1      -2.387   0.996  -0.520  1.00  0.00    -0.337 N 
HETATM    9  C7  UNL     1      -1.206   0.631   0.077  1.00  0.00     0.140 A 
ATOM     10  H3  UNL     1      -2.458   1.933  -0.916  1.00  0.00     0.167 HD
HETATM   11  C18 UNL     1      -1.197  -0.648   0.584  1.00  0.00     0.140 A 
BRANCH   6  12
HETATM   12  O1  UNL     1      -4.516  -1.942  -0.184  1.00  0.00    -0.356 OA
ATOM     13  H1  UNL     1      -5.315  -1.649  -0.607  1.00  0.00     0.218 HD
ENDBRANCH   6  12
BRANCH   7  14
HETATM   14  C6  UNL     1      -4.704   0.672  -1.283  1.00  0.00     0.308 C 
BRANCH  14  15
HETATM   15  O2  UNL     1      -4.962   1.964  -0.813  1.00  0.00    -0.366 OA
ATOM     16  H2  UNL     1      -5.756   2.267  -1.237  1.00  0.00     0.213 HD
ENDBRANCH  14  15
BRANCH  14  17
HETATM   17  O3  UNL     1      -5.753  -0.192  -0.958  1.00  0.00    -0.366 OA
ATOM     18  H3  UNL     1      -6.547   0.111  -1.382  1.00  0.00     0.213 HD
ENDBRANCH  14  17
ENDBRANCH   7  14
BRANCH   9  19
HETATM   19  N4  UNL     1      -0.135   1.545   0.097  1.00  0.00    -0.357 N 
BRANCH  19  20
HETATM   20  C8  UNL     1       0.980   1.602  -0.772  1.00  0.00     0.183 C 
BRANCH  20  21
HETATM   21  C9  UNL     1       1.881   0.459  -0.844  1.00  0.00     0.043 A 
HETATM   22  C10 UNL     1       1.736  -0.515  -1.824  1.00  0.00     0.116 A 
HETATM   23  N5  UNL     1       2.536  -1.573  -1.950  1.00  0.00    -0.348 N 
HETATM   24  C11 UNL     1       3.550  -1.723  -1.086  1.00  0.00     0.151 A 
ATOM     25  H5  UNL     1       2.380  -2.257  -2.691  1.00  0.00     0.167 HD
HETATM   26  N6  UNL     1       4.373  -2.788  -1.196  1.00  0.00    -0.174 N 
HETATM   27  C14 UNL     1       3.728  -0.777  -0.098  1.00  0.00     0.122 A 
HETATM   28  C12 UNL     1       5.392  -2.952  -0.340  1.00  0.00     0.679 A 
ATOM     29  H6  UNL     1       4.218  -3.473  -1.936  1.00  0.00     0.186 HD
HETATM   30  N8  UNL     1       5.611  -2.048   0.652  1.00  0.00    -0.175 N 
HETATM   31  C13 UNL     1       4.794  -0.989   0.763  1.00  0.00     0.145 A 
ATOM     32  H8  UNL     1       6.386  -2.173   1.303  1.00  0.00     0.186 HD
HETATM   33  N10 UNL     1       2.913   0.285   0.018  1.00  0.00    -0.351 N 
ATOM     34  H10 UNL     1       3.072   0.966   0.761  1.00  0.00     0.166 HD
BRANCH  28  35
HETATM   35  N7  UNL     1       6.181  -3.960  -0.436  1.00  0.00    -0.234 N 
ATOM     36  H72 UNL     1       6.017  -4.638  -1.180  1.00  0.00     0.174 HD
ATOM     37  H71 UNL     1       6.956  -4.085   0.215  1.00  0.00     0.174 HD
ENDBRANCH  28  35
BRANCH  31  38
HETATM   38  N9  UNL     1       5.001  -0.138   1.698  1.00  0.00    -0.383 N 
ATOM     39  H92 UNL     1       5.785  -0.294   2.331  1.00  0.00     0.157 HD
ATOM     40  H91 UNL     1       4.380   0.667   1.782  1.00  0.00     0.157 HD
ENDBRANCH  31  38
ENDBRANCH  20  21
ENDBRANCH  19  20
BRANCH  19  41
HETATM   41  C15 UNL     1      -0.198   2.561   1.164  1.00  0.00     0.158 C 
BRANCH  41  42
HETATM   42  C16 UNL     1      -0.430   3.935   0.610  1.00  0.00     0.159 C 
BRANCH  42  43
HETATM   43  O4  UNL     1      -1.607   4.055  -0.101  1.00  0.00    -0.392 OA
ATOM     44  H4  UNL     1      -1.754   4.925  -0.452  1.00  0.00     0.210 HD
ENDBRANCH  42  43
BRANCH  42  45
HETATM   45  C17 UNL     1      -0.462   4.895   1.788  1.00  0.00     0.197 C 
BRANCH  45  46
HETATM   46  O5  UNL     1      -0.596   6.183   1.278  1.00  0.00    -0.398 OA
ATOM     47  H5  UNL     1      -0.616   6.783   2.014  1.00  0.00     0.209 HD
ENDBRANCH  45  46
ENDBRANCH  42  45
ENDBRANCH  41  42
ENDBRANCH  19  41
ENDBRANCH   9  19
BRANCH  11  48
HETATM   48  O6  UNL     1      -0.066  -1.106   1.205  1.00  0.00    -0.355 OA
ATOM     49  H6  UNL     1       0.674  -0.513   1.256  1.00  0.00     0.218 HD
ENDBRANCH  11  48
ENDBRANCH   2   5
TORSDOF 16
