REMARK  14 active torsions:
REMARK  status: ('A' for Active; 'I' for Inactive)
REMARK    1  A    between atoms: C2_2  and  N1_3 
REMARK    2  A    between atoms: C4_5  and  C5_6 
REMARK    3  A    between atoms: C5_6  and  O1_7 
REMARK    4  A    between atoms: C5_6  and  N2_9 
REMARK    5  A    between atoms: N2_9  and  C6_11 
REMARK    6  A    between atoms: C7_12  and  C8_13 
REMARK    7  A    between atoms: C8_13  and  O2_14 
REMARK    8  A    between atoms: C8_13  and  C9_16 
REMARK    9  A    between atoms: C9_16  and  O3_17 
REMARK   10  A    between atoms: C9_16  and  O4_19 
REMARK   11  A    between atoms: C11_29  and  C12_30 
REMARK   12  A    between atoms: C14_32  and  N7_33 
REMARK   13  A    between atoms: N7_33  and  C15_35 
REMARK   14  A    between atoms: C18_44  and  N11_45 
ROOT
HETATM    1  N1  UNL     1      -0.191   2.024  -0.949  1.00  0.00    -0.316 N 
HETATM    2  C3  UNL     1       1.088   1.502  -1.104  1.00  0.00     0.127 A 
HETATM    3  C4  UNL     1       1.028   0.157  -0.910  1.00  0.00     0.075 A 
HETATM    4  N6  UNL     1      -0.246  -0.127  -0.645  1.00  0.00    -0.339 N 
ATOM      5  H6  UNL     1      -0.608  -1.061  -0.454  1.00  0.00     0.167 HD
HETATM    6  C11 UNL     1      -1.006   1.027  -0.667  1.00  0.00     0.139 A 
ENDROOT
BRANCH   3   7
HETATM    7  C5  UNL     1       2.176  -0.798  -0.966  1.00  0.00     0.271 C 
BRANCH   7   8
HETATM    8  O1  UNL     1       2.068  -1.755   0.020  1.00  0.00    -0.371 OA
ATOM      9  H1  UNL     1       2.798  -2.362  -0.016  1.00  0.00     0.212 HD
ENDBRANCH   7   8
BRANCH   7  10
HETATM   10  N2  UNL     1       3.444  -0.113  -0.989  1.00  0.00    -0.354 N 
ATOM     11  H2  UNL     1       3.443   0.907  -0.997  1.00  0.00     0.162 HD
BRANCH  10  12
HETATM   12  C6  UNL     1       4.690  -0.784  -1.001  1.00  0.00     0.100 A 
HETATM   13  C7  UNL     1       5.578  -1.017   0.015  1.00  0.00     0.089 A 
HETATM   14  N3  UNL     1       6.631  -1.732  -0.500  1.00  0.00    -0.298 N 
HETATM   15  N4  UNL     1       6.431  -1.948  -1.779  1.00  0.00    -0.286 N 
ATOM     16  H3  UNL     1       7.444  -2.047   0.030  1.00  0.00     0.186 HD
HETATM   17  C10 UNL     1       5.264  -1.390  -2.130  1.00  0.00     0.159 A 
ATOM     18  H4  UNL     1       7.059  -2.456  -2.402  1.00  0.00     0.188 HD
HETATM   19  N5  UNL     1       4.639  -1.368  -3.404  1.00  0.00    -0.079 NA
BRANCH  13  20
HETATM   20  C8  UNL     1       5.486  -0.586   1.420  1.00  0.00     0.226 C 
BRANCH  20  21
HETATM   21  O2  UNL     1       4.554  -1.319   2.114  1.00  0.00    -0.384 OA
ATOM     22  H2  UNL     1       4.495  -1.041   3.020  1.00  0.00     0.210 HD
ENDBRANCH  20  21
BRANCH  20  23
HETATM   23  C9  UNL     1       6.824  -0.830   2.112  1.00  0.00     0.288 C 
BRANCH  23  24
HETATM   24  O3  UNL     1       6.757  -0.413   3.444  1.00  0.00    -0.368 OA
ATOM     25  H3  UNL     1       7.590  -0.565   3.875  1.00  0.00     0.212 HD
ENDBRANCH  23  24
BRANCH  23  26
HETATM   26  O4  UNL     1       7.856  -0.129   1.497  1.00  0.00    -0.368 OA
ATOM     27  H4  UNL     1       8.689  -0.281   1.928  1.00  0.00     0.212 HD
ENDBRANCH  23  26
ENDBRANCH  20  23
ENDBRANCH  13  20
ENDBRANCH  10  12
ENDBRANCH   7  10
ENDBRANCH   3   7
BRANCH   1  28
HETATM   28  C2  UNL     1      -0.434   3.407  -1.100  1.00  0.00     0.088 C 
HETATM   29  C1  UNL     1       0.565   4.241  -0.751  1.00  0.00     0.030 C 
ENDBRANCH   1  28
BRANCH   6  30
HETATM   30  C12 UNL     1      -2.440   1.016  -0.403  1.00  0.00     0.097 A 
HETATM   31  C13 UNL     1      -3.041  -0.232  -0.171  1.00  0.00     0.083 A 
HETATM   32  C14 UNL     1      -4.392  -0.353   0.062  1.00  0.00     0.125 A 
HETATM   33  N10 UNL     1      -5.128   0.771   0.063  1.00  0.00    -0.177 N 
HETATM   34  C18 UNL     1      -4.601   1.980  -0.152  1.00  0.00     0.678 A 
ATOM     35  H10 UNL     1      -6.131   0.698   0.235  1.00  0.00     0.185 HD
HETATM   36  N12 UNL     1      -3.258   2.051  -0.379  1.00  0.00    -0.188 N 
ATOM     37  H12 UNL     1      -2.856   2.974  -0.543  1.00  0.00     0.184 HD
BRANCH  32  38
HETATM   38  N7  UNL     1      -4.934  -1.504   0.274  1.00  0.00    -0.314 N 
ATOM     39  H7  UNL     1      -4.361  -2.348   0.272  1.00  0.00     0.170 HD
BRANCH  38  40
HETATM   40  C15 UNL     1      -6.333  -1.591   0.511  1.00  0.00     0.176 C 
HETATM   41  N8  UNL     1      -6.812  -1.759   1.698  1.00  0.00    -0.361 N 
HETATM   42  C16 UNL     1      -8.238  -1.816   1.683  1.00  0.00     0.142 C 
ATOM     43  H8  UNL     1      -6.243  -1.841   2.541  1.00  0.00     0.162 HD
HETATM   44  C17 UNL     1      -8.601  -1.302   0.309  1.00  0.00     0.142 C 
HETATM   45  N9  UNL     1      -7.383  -1.516  -0.442  1.00  0.00    -0.361 N 
ATOM     46  H9  UNL     1      -7.296  -1.597  -1.455  1.00  0.00     0.162 HD
ENDBRANCH  38  40
ENDBRANCH  32  38
BRANCH  34  47
HETATM   47  N11 UNL     1      -5.332   3.037  -0.145  1.00  0.00    -0.234 N 
ATOM     48 2H11 UNL     1      -6.336   2.984   0.025  1.00  0.00     0.174 HD
ATOM     49 1H11 UNL     1      -4.930   3.960  -0.309  1.00  0.00     0.174 HD
ENDBRANCH  34  47
ENDBRANCH   6  30
TORSDOF 14
