REMARK  5 active torsions:
REMARK  status: ('A' for Active; 'I' for Inactive)
REMARK    1  A    between atoms: O1_2  and  C2_3 
REMARK    2  A    between atoms: C2_3  and  C3_5 
REMARK    3  A    between atoms: C3_5  and  C4_6 
REMARK    4  A    between atoms: C6_8  and  C7_9 
REMARK    5  A    between atoms: C8_14  and  C9_15 
REMARK       I    between atoms: C9_15  and  N3_17 
REMARK       I    between atoms: N3_17  and  C10_19 
ROOT
HETATM    1  C7  UNL     1      -0.617  -0.256   0.344  1.00  0.00     0.150 A 
HETATM    2  N1  UNL     1      -0.845  -1.364  -0.379  1.00  0.00    -0.282 N 
ATOM      3  H1  UNL     1      -0.115  -2.007  -0.684  1.00  0.00     0.188 HD
HETATM    4  N2  UNL     1      -2.121  -1.520  -0.646  1.00  0.00    -0.279 N 
ATOM      5  H2  UNL     1      -2.544  -2.280  -1.178  1.00  0.00     0.189 HD
HETATM    6  C8  UNL     1      -2.760  -0.483  -0.081  1.00  0.00     0.191 A 
HETATM    7  N6  UNL     1      -1.825   0.297   0.531  1.00  0.00    -0.320 N 
ATOM      8  H6  UNL     1      -2.012   1.158   1.045  1.00  0.00     0.169 HD
ENDROOT
BRANCH   1   9
HETATM    9  C6  UNL     1       0.666   0.243   0.826  1.00  0.00     0.096 A 
HETATM   10  C5  UNL     1       1.848  -0.418   0.569  1.00  0.00     0.061 A 
HETATM   11  C4  UNL     1       3.068   0.060   1.030  1.00  0.00     0.038 A 
HETATM   12  N9  UNL     1       3.070   1.193   1.739  1.00  0.00    -0.290 N 
HETATM   13  N8  UNL     1       1.924   1.835   1.989  1.00  0.00    -0.242 N 
ATOM     14  H9  UNL     1       3.950   1.570   2.091  1.00  0.00     0.188 HD
HETATM   15  N7  UNL     1       0.747   1.375   1.546  1.00  0.00    -0.283 N 
ATOM     16  H8  UNL     1       1.947   2.698   2.532  1.00  0.00     0.208 HD
ATOM     17  H7  UNL     1      -0.105   1.894   1.759  1.00  0.00     0.188 HD
BRANCH  11  18
HETATM   18  C3  UNL     1       4.358  -0.613   0.779  1.00  0.00     0.169 C 
BRANCH  18  19
HETATM   19  C2  UNL     1       4.998  -0.151  -0.461  1.00  0.00     0.264 C 
HETATM   20  O2  UNL     1       4.460   0.721  -1.185  1.00  0.00    -0.265 OA
BRANCH  19  21
HETATM   21  O1  UNL     1       6.225  -0.719  -0.803  1.00  0.00    -0.326 OA
HETATM   22  C1  UNL     1       6.915  -0.338  -1.976  1.00  0.00     0.213 C 
ENDBRANCH  19  21
ENDBRANCH  18  19
ENDBRANCH  11  18
ENDBRANCH   1   9
BRANCH   6  23
HETATM   23  C9  UNL     1      -4.193  -0.264  -0.134  1.00  0.00     0.293 C 
HETATM   24  O3  UNL     1      -4.916  -1.086  -0.744  1.00  0.00    -0.264 OA
HETATM   25  N3  UNL     1      -4.730   0.887   0.516  1.00  0.00    -0.295 N 
HETATM   26  C10 UNL     1      -6.125   1.128   0.482  1.00  0.00     0.188 C 
ATOM     27  H3  UNL     1      -4.111   1.534   1.004  1.00  0.00     0.171 HD
HETATM   28  N4  UNL     1      -6.622   2.178   1.074  1.00  0.00    -0.373 N 
HETATM   29  N5  UNL     1      -6.967   0.220  -0.198  1.00  0.00    -0.064 NA
ATOM     30  H42 UNL     1      -6.014   2.834   1.565  1.00  0.00     0.158 HD
ATOM     31  H41 UNL     1      -7.627   2.352   1.050  1.00  0.00     0.158 HD
ENDBRANCH   6  23
TORSDOF 5
