REMARK  8 active torsions:
REMARK  status: ('A' for Active; 'I' for Inactive)
REMARK    1  A    between atoms: N1_1  and  N2_4 
REMARK    2  A    between atoms: N2_4  and  C1_6 
REMARK    3  A    between atoms: C4_13  and  N5_14 
REMARK    4  A    between atoms: N5_14  and  C5_16 
REMARK    5  A    between atoms: C5_16  and  C6_17 
REMARK    6  A    between atoms: C5_16  and  N7_23 
REMARK    7  A    between atoms: C6_17  and  O1_18 
REMARK    8  A    between atoms: C6_17  and  N6_20 
ROOT
HETATM    1  C1  UNL     1      -3.248  -0.628   0.177  1.00  0.00     0.150 A 
HETATM    2  N3  UNL     1      -3.274  -1.102  -1.078  1.00  0.00    -0.336 N 
ATOM      3  H3  UNL     1      -4.147  -1.496  -1.429  1.00  0.00     0.168 HD
HETATM    4  C2  UNL     1      -2.204  -1.084  -1.900  1.00  0.00     0.182 A 
HETATM    5  N4  UNL     1      -1.047  -0.566  -1.443  1.00  0.00    -0.347 N 
ATOM      6  H4  UNL     1      -0.235  -0.550  -2.060  1.00  0.00     0.167 HD
HETATM    7  C3  UNL     1      -0.931  -0.071  -0.202  1.00  0.00     0.108 A 
HETATM    8  C4  UNL     1       0.287   0.469   0.262  1.00  0.00     0.133 A 
HETATM    9  N8  UNL     1       0.330   0.949   1.520  1.00  0.00    -0.337 N 
ATOM     10  H8  UNL     1       1.197   1.345   1.884  1.00  0.00     0.168 HD
HETATM   11  C7  UNL     1      -0.774   0.907   2.301  1.00  0.00     0.182 A 
HETATM   12  N9  UNL     1      -1.933   0.395   1.863  1.00  0.00    -0.347 N 
ATOM     13  H9  UNL     1      -2.746   0.379   2.479  1.00  0.00     0.167 HD
HETATM   14  C8  UNL     1      -2.028  -0.097   0.617  1.00  0.00     0.110 A 
ENDROOT
BRANCH   8  15
HETATM   15  N5  UNL     1       1.225   0.445  -0.564  1.00  0.00    -0.344 N 
ATOM     16  H5  UNL     1       0.935   0.029  -1.449  1.00  0.00     0.163 HD
BRANCH  15  17
HETATM   17  C5  UNL     1       2.567   0.838  -0.594  1.00  0.00     0.310 C 
BRANCH  17  18
HETATM   18  C6  UNL     1       3.426   0.007   0.320  1.00  0.00     0.337 C 
BRANCH  18  19
HETATM   19  O1  UNL     1       4.738   0.480   0.210  1.00  0.00    -0.368 OA
ATOM     20  H1  UNL     1       5.280  -0.045   0.787  1.00  0.00     0.212 HD
ENDBRANCH  18  19
BRANCH  18  21
HETATM   21  N6  UNL     1       3.424  -1.392  -0.044  1.00  0.00    -0.120 N 
HETATM   22  O2  UNL     1       2.790  -1.850  -0.995  1.00  0.00    -0.534 OA
HETATM   23  O3  UNL     1       4.180  -2.241   0.730  1.00  0.00    -0.534 OA
ENDBRANCH  18  21
ENDBRANCH  17  18
BRANCH  17  24
HETATM   24  N7  UNL     1       2.841   2.238  -0.394  1.00  0.00    -0.126 N 
HETATM   25  O4  UNL     1       1.892   3.029  -0.292  1.00  0.00    -0.535 OA
HETATM   26  O5  UNL     1       4.119   2.726  -0.328  1.00  0.00    -0.535 OA
ENDBRANCH  17  24
ENDBRANCH  15  17
ENDBRANCH   8  15
BRANCH   1  27
HETATM   27  N2  UNL     1      -4.219  -0.617   0.992  1.00  0.00    -0.290 N 
ATOM     28  H2  UNL     1      -4.042  -0.220   1.915  1.00  0.00     0.188 HD
BRANCH  27  29
HETATM   29  N1  UNL     1      -5.490  -1.090   0.751  1.00  0.00    -0.344 N 
ATOM     30  H12 UNL     1      -5.648  -1.483  -0.177  1.00  0.00     0.176 HD
ATOM     31  H11 UNL     1      -6.271  -1.081   1.407  1.00  0.00     0.176 HD
ENDBRANCH  27  29
ENDBRANCH   1  27
TORSDOF 8
