REMARK  10 active torsions:
REMARK  status: ('A' for Active; 'I' for Inactive)
REMARK    1  A    between atoms: O1_2  and  C2_3 
REMARK    2  A    between atoms: C7_10  and  O4_11 
REMARK    3  A    between atoms: C7_10  and  C8_13 
REMARK    4  A    between atoms: C9_14  and  C10_15 
REMARK    5  A    between atoms: C10_15  and  C12_18 
REMARK    6  A    between atoms: C10_15  and  N2_21 
REMARK    7  A    between atoms: C12_18  and  O5_19 
REMARK    8  A    between atoms: N2_21  and  O6_22 
REMARK    9  A    between atoms: O6_22  and  C13_23 
REMARK   10  A    between atoms: C13_23  and  O7_24 
ROOT
HETATM    1  C10 UNL     1       2.844  -1.054   0.029  1.00  0.00     0.228 C 
HETATM    2  C11 UNL     1       3.554  -1.066  -1.236  1.00  0.00     0.105 C 
HETATM    3  N1  UNL     1       4.113  -1.079  -2.228  1.00  0.00    -0.194 NA
ENDROOT
BRANCH   1   4
HETATM    4  C9  UNL     1       1.392  -0.960  -0.133  1.00  0.00    -0.053 C 
HETATM    5  C8  UNL     1       0.198  -0.880  -0.246  1.00  0.00    -0.028 C 
BRANCH   5   6
HETATM    6  C7  UNL     1      -1.269  -0.772  -0.361  1.00  0.00     0.286 C 
HETATM    7  C3  UNL     1      -1.701   0.648  -0.327  1.00  0.00     0.147 C 
HETATM    8  C2  UNL     1      -1.047   1.670  -0.845  1.00  0.00     0.173 C 
HETATM    9  O2  UNL     1      -2.910   0.643   0.355  1.00  0.00    -0.310 OA
HETATM   10  C4  UNL     1      -3.124  -0.709   0.785  1.00  0.00     0.168 C 
HETATM   11  C5  UNL     1      -3.709  -0.651   2.164  1.00  0.00     0.079 C 
HETATM   12  C6  UNL     1      -4.004  -1.454  -0.177  1.00  0.00     0.079 C 
HETATM   13  O3  UNL     1      -1.848  -1.290   0.775  1.00  0.00    -0.303 OA
BRANCH   8  14
HETATM   14  O1  UNL     1      -1.500   2.973  -0.782  1.00  0.00    -0.365 OA
HETATM   15  C1  UNL     1      -2.710   3.347  -0.180  1.00  0.00     0.209 C 
ENDBRANCH   8  14
BRANCH   6  16
HETATM   16  O4  UNL     1      -1.736  -1.341  -1.538  1.00  0.00    -0.350 OA
ATOM     17  H4  UNL     1      -1.460  -2.250  -1.560  1.00  0.00     0.214 HD
ENDBRANCH   6  16
ENDBRANCH   5   6
ENDBRANCH   1   4
BRANCH   1  18
HETATM   18  C12 UNL     1       3.215  -2.330   0.794  1.00  0.00     0.222 C 
BRANCH  18  19
HETATM   19  O5  UNL     1       2.855  -3.440   0.052  1.00  0.00    -0.397 OA
ATOM     20  H5  UNL     1       3.085  -4.231   0.526  1.00  0.00     0.209 HD
ENDBRANCH  18  19
ENDBRANCH   1  18
BRANCH   1  21
HETATM   21  N2  UNL     1       3.245   0.068   0.857  1.00  0.00    -0.057 NA
BRANCH  21  22
HETATM   22  O6  UNL     1       2.933   1.240   0.301  1.00  0.00    -0.258 OA
BRANCH  22  23
HETATM   23  C13 UNL     1       4.021   2.042   0.013  1.00  0.00     0.361 C 
BRANCH  23  24
HETATM   24  O7  UNL     1       4.774   2.372   1.118  1.00  0.00    -0.375 OA
ATOM     25  H7  UNL     1       5.522   2.923   0.920  1.00  0.00     0.212 HD
ENDBRANCH  23  24
ENDBRANCH  22  23
ENDBRANCH  21  22
ENDBRANCH   1  21
TORSDOF 10
