REMARK  4 active torsions:
REMARK  status: ('A' for Active; 'I' for Inactive)
REMARK       I    between atoms: C2_2  and  N1_4 
REMARK    1  A    between atoms: N2_7  and  C5_8 
REMARK    2  A    between atoms: C6_9  and  C7_10 
REMARK    3  A    between atoms: C7_10  and  O2_11 
REMARK    4  A    between atoms: N3_13  and  N4_15 
ROOT
HETATM    1  C1  UNL     1      -4.316   1.245   0.172  1.00  0.00     0.117 C 
HETATM    2  C2  UNL     1      -3.486   0.419  -0.726  1.00  0.00     0.222 C 
HETATM    3  O1  UNL     1      -3.850   0.256  -1.908  1.00  0.00    -0.273 OA
HETATM    4  N1  UNL     1      -2.296  -0.166  -0.213  1.00  0.00    -0.289 N 
HETATM    5  C3  UNL     1      -1.917   0.053   1.165  1.00  0.00     0.156 C 
HETATM    6  C4  UNL     1      -0.662  -0.663   1.529  1.00  0.00     0.168 C 
HETATM    7  N2  UNL     1       0.228  -0.583   0.362  1.00  0.00    -0.299 N 
HETATM    8  N5  UNL     1      -0.261  -1.155  -0.796  1.00  0.00    -0.271 N 
ATOM      9  H5  UNL     1       0.347  -1.714  -1.394  1.00  0.00     0.190 HD
HETATM   10  C8  UNL     1      -1.499  -0.971  -1.110  1.00  0.00     0.212 C 
HETATM   11  N6  UNL     1      -2.080  -1.524  -2.282  1.00  0.00    -0.062 NA
ENDROOT
BRANCH   7  12
HETATM   12  C5  UNL     1       1.469   0.051   0.520  1.00  0.00     0.114 C 
HETATM   13  C6  UNL     1       2.526  -0.391  -0.130  1.00  0.00     0.076 C 
BRANCH  13  14
HETATM   14  C7  UNL     1       3.835   0.219  -0.009  1.00  0.00     0.155 C 
HETATM   15  N3  UNL     1       4.826  -0.257  -0.669  1.00  0.00    -0.287 N 
ATOM     16  H3  UNL     1       4.694  -1.064  -1.278  1.00  0.00     0.188 HD
BRANCH  14  17
HETATM   17  O2  UNL     1       4.013   1.309   0.812  1.00  0.00    -0.345 OA
ATOM     18  H2  UNL     1       4.871   1.709   0.891  1.00  0.00     0.219 HD
ENDBRANCH  14  17
BRANCH  15  19
HETATM   19  N4  UNL     1       6.086   0.332  -0.552  1.00  0.00    -0.343 N 
ATOM     20  H42 UNL     1       6.201   1.139   0.061  1.00  0.00     0.176 HD
ATOM     21  H41 UNL     1       6.874  -0.047  -1.077  1.00  0.00     0.176 HD
ENDBRANCH  15  19
ENDBRANCH  13  14
ENDBRANCH   7  12
TORSDOF 4
