REMARK  5 active torsions:
REMARK  status: ('A' for Active; 'I' for Inactive)
REMARK    1  A    between atoms: C2_2  and  C4_4 
REMARK    2  A    between atoms: C2_2  and  N5_17 
REMARK       I    between atoms: C4_4  and  N1_6 
REMARK    3  A    between atoms: N1_6  and  C5_8 
REMARK    4  A    between atoms: C5_8  and  C6_14 
REMARK    5  A    between atoms: N2_9  and  N3_11 
ROOT
HETATM    1  C4  UNL     1      -0.195  -0.623   0.604  1.00  0.00     0.251 C 
HETATM    2  O1  UNL     1       0.111  -0.936   1.772  1.00  0.00    -0.270 OA
HETATM    3  N1  UNL     1       0.768  -0.281  -0.343  1.00  0.00    -0.306 N 
ATOM      4  H1  UNL     1       0.388  -0.045  -1.260  1.00  0.00     0.170 HD
ENDROOT
BRANCH   1   5
HETATM    5  C2  UNL     1      -1.673  -0.629   0.250  1.00  0.00     0.111 C 
HETATM    6  C1  UNL     1      -1.956  -1.590  -0.866  1.00  0.00     0.049 C 
HETATM    7  C3  UNL     1      -2.432  -1.103   1.466  1.00  0.00     0.049 C 
BRANCH   5   8
HETATM    8  N5  UNL     1      -2.128   0.720  -0.034  1.00  0.00    -0.334 N 
HETATM    9  C7  UNL     1      -1.673   1.875   0.473  1.00  0.00     0.110 A 
HETATM   10  C8  UNL     1      -2.371   2.940  -0.052  1.00  0.00     0.106 A 
HETATM   11  N6  UNL     1      -3.271   2.411  -0.896  1.00  0.00    -0.361 N 
HETATM   12  C9  UNL     1      -3.126   1.074  -0.886  1.00  0.00     0.183 A 
ATOM     13  H6  UNL     1      -3.949   2.934  -1.450  1.00  0.00     0.166 HD
ENDBRANCH   5   8
ENDBRANCH   1   5
BRANCH   3  14
HETATM   14  C5  UNL     1       2.159  -0.203  -0.264  1.00  0.00     0.188 C 
HETATM   15  N2  UNL     1       2.740   0.163  -1.389  1.00  0.00    -0.288 N 
ATOM     16  H2  UNL     1       2.110   0.343  -2.171  1.00  0.00     0.188 HD
BRANCH  15  17
HETATM   17  N3  UNL     1       4.052   0.333  -1.650  1.00  0.00    -0.343 N 
ATOM     18  H32 UNL     1       4.666   0.149  -0.856  1.00  0.00     0.176 HD
ATOM     19  H31 UNL     1       4.502   0.616  -2.521  1.00  0.00     0.176 HD
ENDBRANCH  15  17
BRANCH  14  20
HETATM   20  C6  UNL     1       3.061  -0.447   0.815  1.00  0.00     0.300 C 
HETATM   21  N4  UNL     1       4.497  -0.305   0.685  1.00  0.00    -0.054 NA
HETATM   22  O2  UNL     1       2.696  -0.798   1.946  1.00  0.00    -0.268 OA
ENDBRANCH  14  20
ENDBRANCH   3  14
TORSDOF 5
