REMARK  4 active torsions:
REMARK  status: ('A' for Active; 'I' for Inactive)
REMARK    1  A    between atoms: N1_2  and  C2_4 
REMARK    2  A    between atoms: C3_7  and  N3_8 
REMARK       I    between atoms: N3_8  and  C4_10 
REMARK    3  A    between atoms: C4_10  and  C5_12 
REMARK    4  A    between atoms: C6_15  and  N5_16 
ROOT
HETATM    1  C2  UNL     1       2.118  -0.101   0.460  1.00  0.00     0.679 A 
HETATM    2  N2  UNL     1       0.821  -0.209   0.199  1.00  0.00    -0.174 N 
ATOM      3  H2  UNL     1       0.380  -1.123   0.300  1.00  0.00     0.186 HD
HETATM    4  C3  UNL     1       0.062   0.826  -0.191  1.00  0.00     0.158 A 
HETATM    5  C6  UNL     1       0.616   2.051  -0.334  1.00  0.00     0.163 A 
HETATM    6  C7  UNL     1       1.992   2.151  -0.053  1.00  0.00     0.146 A 
HETATM    7  N6  UNL     1       2.728   1.111   0.333  1.00  0.00    -0.199 N 
ATOM      8  H6  UNL     1       3.723   1.219   0.529  1.00  0.00     0.183 HD
ENDROOT
BRANCH   4   9
HETATM    9  N3  UNL     1      -1.306   0.583  -0.403  1.00  0.00    -0.303 N 
HETATM   10  C4  UNL     1      -1.858  -0.745  -0.257  1.00  0.00     0.312 C 
HETATM   11  O1  UNL     1      -1.116  -1.702   0.050  1.00  0.00    -0.262 OA
ATOM     12  H3  UNL     1      -1.919   1.356  -0.664  1.00  0.00     0.171 HD
BRANCH  10  13
HETATM   13  C5  UNL     1      -3.290  -0.965  -0.469  1.00  0.00     0.322 C 
HETATM   14  N4  UNL     1      -3.815  -2.267  -0.326  1.00  0.00    -0.053 NA
HETATM   15  O2  UNL     1      -4.058  -0.044  -0.772  1.00  0.00    -0.266 OA
ENDBRANCH  10  13
ENDBRANCH   4   9
BRANCH   5  16
HETATM   16  N5  UNL     1      -0.100   3.183  -0.731  1.00  0.00    -0.110 N 
HETATM   17  O3  UNL     1      -1.018   3.199  -1.533  1.00  0.00    -0.532 OA
HETATM   18  O4  UNL     1       0.303   4.403  -0.183  1.00  0.00    -0.532 OA
ENDBRANCH   5  16
BRANCH   1  19
HETATM   19  N1  UNL     1       2.889  -1.070   0.838  1.00  0.00    -0.230 N 
HETATM   20  C1  UNL     1       2.324  -2.394   1.000  1.00  0.00     0.165 C 
ATOM     21  H1  UNL     1       3.879  -0.904   1.019  1.00  0.00     0.177 HD
ENDBRANCH   1  19
TORSDOF 4
