REMARK  14 active torsions:
REMARK  status: ('A' for Active; 'I' for Inactive)
REMARK    1  A    between atoms: C3_3  and  C5_5 
REMARK    2  A    between atoms: C3_3  and  C13_14 
REMARK    3  A    between atoms: C6_6  and  C7_7 
REMARK    4  A    between atoms: C8_8  and  C10_10 
REMARK    5  A    between atoms: C11_11  and  C12_12 
REMARK    6  A    between atoms: C13_14  and  O2_15 
REMARK    7  A    between atoms: C13_14  and  C14_17 
REMARK    8  A    between atoms: C14_17  and  C15_18 
REMARK    9  A    between atoms: C16_19  and  C18_21 
REMARK   10  A    between atoms: C18_21  and  C19_22 
REMARK   11  A    between atoms: C19_22  and  C20_23 
REMARK   12  A    between atoms: C23_26  and  C24_27 
REMARK   13  A    between atoms: C24_27  and  O3_28 
REMARK   14  A    between atoms: C27_33  and  O5_34 
ROOT
HETATM    1  C1  UNL     1       4.318   1.565   3.184  1.00  0.00     0.098 C 
HETATM    2  C2  UNL     1       3.609   1.003   2.350  1.00  0.00    -0.171 C 
HETATM    3  C3  UNL     1       2.712   0.352   1.350  1.00  0.00     0.051 C 
HETATM    4  C4  UNL     1       2.159   1.401   0.469  1.00  0.00     0.035 C 
ENDROOT
BRANCH   3   5
HETATM    5  C5  UNL     1       3.604  -0.540   0.507  1.00  0.00    -0.003 C 
HETATM    6  C6  UNL     1       4.882  -0.706   0.744  1.00  0.00    -0.002 C 
BRANCH   6   7
HETATM    7  C7  UNL     1       5.712  -1.555  -0.063  1.00  0.00     0.006 C 
HETATM    8  C8  UNL     1       6.987  -1.752   0.126  1.00  0.00    -0.062 C 
HETATM    9  C9  UNL     1       7.703  -2.678  -0.815  1.00  0.00     0.048 C 
BRANCH   8  10
HETATM   10  C10 UNL     1       7.730  -1.110   1.168  1.00  0.00     0.010 C 
HETATM   11  C11 UNL     1       9.008  -1.308   1.353  1.00  0.00     0.042 C 
BRANCH  11  12
HETATM   12  C12 UNL     1       9.679  -0.595   2.451  1.00  0.00     0.258 C 
HETATM   13  O1  UNL     1      10.919  -0.773   2.627  1.00  0.00    -0.302 OA
ENDBRANCH  11  12
ENDBRANCH   8  10
ENDBRANCH   6   7
ENDBRANCH   3   5
BRANCH   3  14
HETATM   14  C13 UNL     1       1.779  -0.493   2.124  1.00  0.00     0.144 C 
BRANCH  14  15
HETATM   15  O2  UNL     1       2.485  -1.472   2.815  1.00  0.00    -0.393 OA
ATOM     16  H2  UNL     1       1.885  -2.015   3.313  1.00  0.00     0.210 HD
ENDBRANCH  14  15
BRANCH  14  17
HETATM   17  C14 UNL     1       0.582  -1.048   1.452  1.00  0.00     0.061 C 
BRANCH  17  18
HETATM   18  C15 UNL     1      -0.375  -0.045   0.944  1.00  0.00    -0.022 C 
HETATM   19  C16 UNL     1      -0.822  -0.012  -0.290  1.00  0.00    -0.087 C 
HETATM   20  C17 UNL     1      -0.360  -1.028  -1.261  1.00  0.00     0.043 C 
BRANCH  19  21
HETATM   21  C18 UNL     1      -1.765   1.039  -0.740  1.00  0.00     0.037 C 
BRANCH  21  22
HETATM   22  C19 UNL     1      -3.042   0.350  -1.204  1.00  0.00     0.032 C 
BRANCH  22  23
HETATM   23  C20 UNL     1      -4.033   1.286  -1.718  1.00  0.00    -0.021 C 
HETATM   24  C21 UNL     1      -5.244   1.430  -1.273  1.00  0.00    -0.054 C 
HETATM   25  C22 UNL     1      -5.789   0.643  -0.167  1.00  0.00     0.050 C 
HETATM   26  C27 UNL     1      -6.073   2.474  -1.936  1.00  0.00     0.154 C 
HETATM   27  C23 UNL     1      -7.292   0.436  -0.190  1.00  0.00     0.083 C 
HETATM   28  C25 UNL     1      -8.029   1.580  -0.704  1.00  0.00     0.136 C 
HETATM   29  O4  UNL     1      -9.253   1.583  -0.641  1.00  0.00    -0.297 OA
HETATM   30  C26 UNL     1      -7.380   2.775  -1.307  1.00  0.00     0.115 C 
BRANCH  27  31
HETATM   31  C24 UNL     1      -7.557  -0.863  -0.927  1.00  0.00     0.176 C 
BRANCH  31  32
HETATM   32  O3  UNL     1      -6.966  -1.950  -0.291  1.00  0.00    -0.400 OA
ATOM     33  H3  UNL     1      -7.132  -2.764  -0.753  1.00  0.00     0.209 HD
ENDBRANCH  31  32
ENDBRANCH  27  31
BRANCH  26  34
HETATM   34  O5  UNL     1      -6.280   2.217  -3.303  1.00  0.00    -0.391 OA
ATOM     35  H5  UNL     1      -6.809   2.883  -3.726  1.00  0.00     0.210 HD
ENDBRANCH  26  34
ENDBRANCH  22  23
ENDBRANCH  21  22
ENDBRANCH  19  21
ENDBRANCH  17  18
ENDBRANCH  14  17
ENDBRANCH   3  14
TORSDOF 14
