REMARK  15 active torsions:
REMARK  status: ('A' for Active; 'I' for Inactive)
REMARK    1  A    between atoms: C2_2  and  C3_3 
REMARK    2  A    between atoms: C3_3  and  C4_4 
REMARK    3  A    between atoms: C4_4  and  O1_5 
REMARK    4  A    between atoms: O1_5  and  C5_6 
REMARK    5  A    between atoms: C6_7  and  O2_8 
REMARK    6  A    between atoms: C9_12  and  O3_13 
REMARK    7  A    between atoms: C9_12  and  C10_15 
REMARK    8  A    between atoms: C10_15  and  C11_16 
REMARK    9  A    between atoms: C16_21  and  O4_22 
REMARK   10  A    between atoms: O4_22  and  C17_23 
REMARK   11  A    between atoms: C17_23  and  C18_25 
REMARK   12  A    between atoms: C18_25  and  C19_26 
REMARK   13  A    between atoms: C19_26  and  C20_27 
REMARK   14  A    between atoms: C24_31  and  C25_32 
REMARK   15  A    between atoms: C25_32  and  O6_33 
ROOT
HETATM    1  C11 UNL     1       0.463   0.956   0.743  1.00  0.00    -0.011 C 
HETATM    2  C12 UNL     1      -0.326   1.742   1.813  1.00  0.00     0.005 C 
HETATM    3  C13 UNL     1      -1.761   1.774   1.256  1.00  0.00     0.006 C 
HETATM    4  C14 UNL     1      -1.730   1.916  -0.195  1.00  0.00    -0.001 C 
HETATM    5  C15 UNL     1      -3.134   2.241  -0.748  1.00  0.00     0.039 C 
HETATM    6  C16 UNL     1      -3.266   0.717  -0.953  1.00  0.00     0.141 C 
HETATM    7  C22 UNL     1      -1.786   0.722  -1.079  1.00  0.00    -0.008 C 
HETATM    8  C23 UNL     1      -1.465   1.212  -2.515  1.00  0.00     0.019 C 
HETATM    9  C24 UNL     1      -0.964  -0.434  -0.719  1.00  0.00     0.021 C 
HETATM   10  C26 UNL     1      -0.310  -0.341   0.646  1.00  0.00     0.012 C 
ENDROOT
BRANCH   1  11
HETATM   11  C10 UNL     1       1.869   0.827   1.208  1.00  0.00     0.045 C 
BRANCH  11  12
HETATM   12  C9  UNL     1       2.821   0.148   0.295  1.00  0.00     0.087 C 
HETATM   13  C5  UNL     1       4.199   0.122   0.981  1.00  0.00     0.184 C 
HETATM   14  C6  UNL     1       4.571   1.566   1.022  1.00  0.00     0.150 C 
HETATM   15  C7  UNL     1       3.984   2.180  -0.216  1.00  0.00     0.037 C 
HETATM   16  C8  UNL     1       3.191   1.076  -0.889  1.00  0.00     0.043 C 
BRANCH  13  17
HETATM   17  O1  UNL     1       5.042  -0.672   0.190  1.00  0.00    -0.380 OA
BRANCH  17  18
HETATM   18  C4  UNL     1       5.424  -1.763   0.940  1.00  0.00     0.168 C 
BRANCH  18  19
HETATM   19  C3  UNL     1       6.265  -2.707   0.133  1.00  0.00     0.026 C 
BRANCH  19  20
HETATM   20  C2  UNL     1       7.500  -2.068  -0.379  1.00  0.00    -0.002 C 
HETATM   21  C1  UNL     1       7.286  -0.895  -1.302  1.00  0.00     0.005 C 
ENDBRANCH  19  20
ENDBRANCH  18  19
ENDBRANCH  17  18
ENDBRANCH  13  17
BRANCH  14  22
HETATM   22  O2  UNL     1       5.948   1.770   1.111  1.00  0.00    -0.393 OA
ATOM     23  H2  UNL     1       6.185   2.690   1.137  1.00  0.00     0.210 HD
ENDBRANCH  14  22
BRANCH  12  24
HETATM   24  O3  UNL     1       2.482  -1.095  -0.166  1.00  0.00    -0.387 OA
ATOM     25  H3  UNL     1       1.632  -1.079  -0.589  1.00  0.00     0.210 HD
ENDBRANCH  12  24
ENDBRANCH  11  12
ENDBRANCH   1  11
BRANCH   9  26
HETATM   26  C25 UNL     1      -1.593  -1.797  -0.816  1.00  0.00     0.169 C 
BRANCH  26  27
HETATM   27  O6  UNL     1      -2.027  -2.084  -2.122  1.00  0.00    -0.400 OA
ATOM     28  H6  UNL     1      -2.424  -2.945  -2.183  1.00  0.00     0.209 HD
ENDBRANCH  26  27
ENDBRANCH   9  26
BRANCH   6  29
HETATM   29  O4  UNL     1      -3.903   0.058   0.066  1.00  0.00    -0.315 OA
BRANCH  29  30
HETATM   30  C17 UNL     1      -5.078  -0.675  -0.161  1.00  0.00     0.259 C 
HETATM   31  O5  UNL     1      -5.482  -0.690  -1.318  1.00  0.00    -0.265 OA
BRANCH  30  32
HETATM   32  C18 UNL     1      -5.765  -1.372   0.927  1.00  0.00     0.111 C 
BRANCH  32  33
HETATM   33  C19 UNL     1      -7.150  -1.795   0.651  1.00  0.00     0.009 C 
BRANCH  33  34
HETATM   34  C20 UNL     1      -8.234  -0.826   0.476  1.00  0.00    -0.004 C 
HETATM   35  C21 UNL     1      -8.241   0.175  -0.602  1.00  0.00     0.005 C 
ENDBRANCH  33  34
ENDBRANCH  32  33
ENDBRANCH  30  32
ENDBRANCH  29  30
ENDBRANCH   6  29
TORSDOF 15
