REMARK  7 active torsions:
REMARK  status: ('A' for Active; 'I' for Inactive)
REMARK    1  A    between atoms: C2_2  and  N1_3 
REMARK    2  A    between atoms: C2_2  and  C4_14 
REMARK    3  A    between atoms: N1_3  and  N2_5 
REMARK       I    between atoms: C3_7  and  N4_9 
REMARK    4  A    between atoms: N4_9  and  N5_11 
REMARK       I    between atoms: C4_14  and  N6_16 
REMARK    5  A    between atoms: N6_16  and  S1_18 
REMARK    6  A    between atoms: S1_18  and  N7_19 
REMARK    7  A    between atoms: S1_18  and  N8_23 
ROOT
HETATM    1  N8  UNL     1       4.457  -1.145   1.370  1.00  0.00    -0.221 N 
ATOM      2  H8  UNL     1       4.337  -0.932   2.360  1.00  0.00     0.191 HD
HETATM    3  C5  UNL     1       5.540  -1.920   0.846  1.00  0.00     0.192 C 
HETATM    4  N9  UNL     1       6.431  -2.539   0.407  1.00  0.00    -0.171 NA
ENDROOT
BRANCH   1   5
HETATM    5  S1  UNL     1       3.481  -0.664   0.250  1.00  0.00     0.207 S 
HETATM    6  O2  UNL     1       3.030  -1.931  -0.458  1.00  0.00    -0.205 OA
BRANCH   5   7
HETATM    7  N6  UNL     1       2.123   0.215   0.832  1.00  0.00    -0.252 N 
HETATM    8  C4  UNL     1       1.001   0.250  -0.062  1.00  0.00     0.255 C 
HETATM    9  O1  UNL     1       0.985  -0.314  -1.177  1.00  0.00    -0.270 OA
ATOM     10  H6  UNL     1       2.115   0.676   1.742  1.00  0.00     0.181 HD
BRANCH   8  11
HETATM   11  C2  UNL     1      -0.212   1.021   0.404  1.00  0.00     0.188 C 
HETATM   12  C1  UNL     1      -0.139   2.397  -0.250  1.00  0.00     0.044 C 
BRANCH  11  13
HETATM   13  N1  UNL     1      -1.331   0.284  -0.125  1.00  0.00    -0.321 N 
ATOM     14  H1  UNL     1      -1.189  -0.623  -0.569  1.00  0.00     0.181 HD
BRANCH  13  15
HETATM   15  N2  UNL     1      -2.613   0.829  -0.022  1.00  0.00    -0.276 N 
HETATM   16  C3  UNL     1      -3.677   0.121  -0.175  1.00  0.00     0.221 C 
HETATM   17  N3  UNL     1      -4.942   0.737  -0.059  1.00  0.00    -0.061 NA
HETATM   18  N4  UNL     1      -3.558  -1.260  -0.449  1.00  0.00    -0.279 N 
ATOM     19  H4  UNL     1      -3.533  -1.559  -1.424  1.00  0.00     0.189 HD
ATOM     20  H2  UNL     1      -2.709   1.824   0.182  1.00  0.00     0.189 HD
BRANCH  18  21
HETATM   21  N5  UNL     1      -3.472  -2.239   0.549  1.00  0.00    -0.343 N 
ATOM     22  H52 UNL     1      -3.498  -1.922   1.518  1.00  0.00     0.176 HD
ATOM     23  H51 UNL     1      -3.386  -3.236   0.351  1.00  0.00     0.176 HD
ENDBRANCH  18  21
ENDBRANCH  13  15
ENDBRANCH  11  13
ENDBRANCH   8  11
ENDBRANCH   5   7
BRANCH   5  24
HETATM   24  N7  UNL     1       4.388   0.250  -0.859  1.00  0.00    -0.328 N 
ATOM     25  H72 UNL     1       4.144   1.201  -1.135  1.00  0.00     0.169 HD
ATOM     26  H71 UNL     1       5.194  -0.272  -1.204  1.00  0.00     0.169 HD
ENDBRANCH   5  24
ENDBRANCH   1   5
TORSDOF 7
