REMARK  5 active torsions:
REMARK  status: ('A' for Active; 'I' for Inactive)
REMARK    1  A    between atoms: C3_3  and  C5_5 
REMARK    2  A    between atoms: C5_5  and  O1_6 
REMARK    3  A    between atoms: C5_5  and  C22_29 
REMARK    4  A    between atoms: O1_6  and  C6_7 
REMARK    5  A    between atoms: C14_17  and  O4_18 
ROOT
HETATM    1  C6  UNL     1      -0.014  -0.498  -0.404  1.00  0.00     0.282 C 
HETATM    2  O2  UNL     1       0.688  -0.299  -1.597  1.00  0.00    -0.307 OA
HETATM    3  C7  UNL     1       1.554  -1.246  -1.952  1.00  0.00     0.416 C 
HETATM    4  O3  UNL     1       2.703  -0.572  -2.446  1.00  0.00    -0.335 OA
HETATM    5  C8  UNL     1       2.374   0.639  -2.981  1.00  0.00     0.207 C 
HETATM    6  C9  UNL     1       2.112   1.738  -2.046  1.00  0.00    -0.064 C 
HETATM    7  C10 UNL     1       1.083   2.757  -2.493  1.00  0.00     0.045 C 
HETATM    8  C11 UNL     1       2.716   1.901  -0.859  1.00  0.00    -0.022 C 
HETATM    9  C12 UNL     1       3.731   1.038  -0.277  1.00  0.00     0.030 C 
HETATM   10  C13 UNL     1       3.328  -0.063   0.617  1.00  0.00     0.045 C 
HETATM   11  C14 UNL     1       1.990  -0.173   1.163  1.00  0.00     0.101 C 
HETATM   12  C15 UNL     1       2.163  -0.962   2.493  1.00  0.00     0.157 C 
HETATM   13  C16 UNL     1       2.989  -2.205   2.116  1.00  0.00     0.038 C 
HETATM   14  C17 UNL     1       2.306  -3.036   1.100  1.00  0.00     0.041 C 
HETATM   15  C18 UNL     1       1.400  -2.333   0.135  1.00  0.00     0.080 C 
HETATM   16  C19 UNL     1       0.254  -3.300  -0.177  1.00  0.00     0.047 C 
HETATM   17  O5  UNL     1       2.015  -2.149  -1.075  1.00  0.00    -0.327 OA
HETATM   18  C20 UNL     1       0.909  -0.987   0.615  1.00  0.00     0.095 C 
HETATM   19  C21 UNL     1       0.060  -1.088   1.885  1.00  0.00     0.189 C 
HETATM   20  O6  UNL     1       0.951  -1.459   2.848  1.00  0.00    -0.382 OA
ENDROOT
BRANCH   1  21
HETATM   21  O1  UNL     1      -0.872   0.513  -0.186  1.00  0.00    -0.350 OA
BRANCH  21  22
HETATM   22  C5  UNL     1      -2.212   0.360  -0.423  1.00  0.00     0.156 C 
BRANCH  22  23
HETATM   23  C3  UNL     1      -2.934   0.553   0.857  1.00  0.00    -0.059 C 
HETATM   24  C2  UNL     1      -3.665  -0.441   1.345  1.00  0.00    -0.026 C 
HETATM   25  C1  UNL     1      -4.450  -0.343   2.603  1.00  0.00     0.036 C 
HETATM   26  C4  UNL     1      -2.930   1.809   1.641  1.00  0.00     0.046 C 
ENDBRANCH  22  23
BRANCH  22  27
HETATM   27  C22 UNL     1      -2.753   1.248  -1.517  1.00  0.00     0.011 C 
HETATM   28  C23 UNL     1      -4.230   0.855  -1.683  1.00  0.00     0.012 C 
HETATM   29  C24 UNL     1      -2.611   2.695  -1.326  1.00  0.00     0.012 C 
ENDBRANCH  22  27
ENDBRANCH  21  22
ENDBRANCH   1  21
BRANCH  11  30
HETATM   30  O4  UNL     1       1.539   1.078   1.550  1.00  0.00    -0.386 OA
ATOM     31  H4  UNL     1       0.662   1.006   1.908  1.00  0.00     0.210 HD
ENDBRANCH  11  30
TORSDOF 5
