REMARK  7 active torsions:
REMARK  status: ('A' for Active; 'I' for Inactive)
REMARK    1  A    between atoms: C5_5  and  C6_6 
REMARK    2  A    between atoms: C10_11  and  C11_12 
REMARK    3  A    between atoms: C11_12  and  O3_14 
REMARK    4  A    between atoms: O3_14  and  C12_15 
REMARK    5  A    between atoms: C14_17  and  O4_18 
REMARK    6  A    between atoms: C17_22  and  C19_24 
REMARK    7  A    between atoms: C19_24  and  O6_26 
ROOT
HETATM    1  C12 UNL     1       0.224  -1.117   0.095  1.00  0.00     0.142 C 
HETATM    2  C13 UNL     1       0.556  -2.582  -0.087  1.00  0.00     0.065 C 
HETATM    3  C14 UNL     1       1.799  -2.845   0.742  1.00  0.00     0.121 C 
HETATM    4  C15 UNL     1       2.962  -1.989   0.216  1.00  0.00     0.038 C 
HETATM    5  C16 UNL     1       2.540  -0.547   0.351  1.00  0.00     0.016 C 
HETATM    6  C17 UNL     1       3.636   0.441   0.356  1.00  0.00     0.049 C 
HETATM    7  C18 UNL     1       4.447   0.155   1.644  1.00  0.00     0.026 C 
HETATM    8  C21 UNL     1       3.079   1.835   0.547  1.00  0.00     0.020 C 
HETATM    9  C22 UNL     1       1.575   1.828   0.744  1.00  0.00     0.002 C 
HETATM   10  C23 UNL     1       0.904   1.162  -0.439  1.00  0.00     0.012 C 
HETATM   11  C24 UNL     1       1.350  -0.264  -0.502  1.00  0.00    -0.012 C 
HETATM   12  C25 UNL     1       1.498  -0.631  -1.957  1.00  0.00     0.018 C 
ENDROOT
BRANCH   1  13
HETATM   13  O3  UNL     1      -1.034  -0.758  -0.340  1.00  0.00    -0.315 OA
BRANCH  13  14
HETATM   14  C11 UNL     1      -2.057  -0.290   0.474  1.00  0.00     0.268 C 
HETATM   15  O2  UNL     1      -1.800  -0.195   1.678  1.00  0.00    -0.264 OA
BRANCH  14  16
HETATM   16  C10 UNL     1      -3.346   0.046  -0.180  1.00  0.00     0.122 C 
HETATM   17  C2  UNL     1      -3.948  -1.127  -0.868  1.00  0.00    -0.075 C 
HETATM   18  C1  UNL     1      -3.400  -1.716  -1.913  1.00  0.00     0.015 C 
HETATM   19  C3  UNL     1      -5.215  -1.526  -0.227  1.00  0.00     0.035 C 
HETATM   20  C4  UNL     1      -5.241  -0.738   1.041  1.00  0.00     0.015 C 
HETATM   21  C5  UNL     1      -4.363   0.461   0.870  1.00  0.00     0.038 C 
BRANCH  21  22
HETATM   22  C6  UNL     1      -5.068   1.693   0.531  1.00  0.00    -0.029 A 
HETATM   23  C7  UNL     1      -5.115   2.880   1.229  1.00  0.00     0.034 A 
HETATM   24  C8  UNL     1      -5.920   3.768   0.505  1.00  0.00     0.142 A 
HETATM   25  O1  UNL     1      -6.324   3.137  -0.560  1.00  0.00    -0.334 OA
HETATM   26  C9  UNL     1      -5.843   1.895  -0.590  1.00  0.00     0.148 A 
ENDBRANCH  21  22
ENDBRANCH  14  16
ENDBRANCH  13  14
ENDBRANCH   1  13
BRANCH   3  27
HETATM   27  O4  UNL     1       1.579  -2.528   2.084  1.00  0.00    -0.395 OA
ATOM     28  H4  UNL     1       2.357  -2.693   2.603  1.00  0.00     0.210 HD
ENDBRANCH   3  27
BRANCH   6  29
HETATM   29  C19 UNL     1       4.604   0.403  -0.728  1.00  0.00     0.267 C 
HETATM   30  O5  UNL     1       4.566  -0.447  -1.636  1.00  0.00    -0.264 OA
BRANCH  29  31
HETATM   31  O6  UNL     1       5.630   1.337  -0.788  1.00  0.00    -0.326 OA
HETATM   32  C20 UNL     1       6.598   1.368  -1.794  1.00  0.00     0.213 C 
ENDBRANCH  29  31
ENDBRANCH   6  29
TORSDOF 7
