REMARK  6 active torsions:
REMARK  status: ('A' for Active; 'I' for Inactive)
REMARK    1  A    between atoms: C2_2  and  C3_3 
REMARK    2  A    between atoms: C2_2  and  C5_12 
REMARK    3  A    between atoms: C3_3  and  C4_4 
REMARK    4  A    between atoms: C4_4  and  N1_5 
REMARK    5  A    between atoms: N1_5  and  N2_7 
REMARK    6  A    between atoms: C5_12  and  C7_14 
ROOT
HETATM    1  C7  UNL     1      -0.678  -1.050  -0.332  1.00  0.00     0.139 C 
HETATM    2  C8  UNL     1       0.064   0.236  -0.508  1.00  0.00     0.035 C 
HETATM    3  C9  UNL     1       1.245   0.210   0.472  1.00  0.00     0.034 C 
HETATM    4  C10 UNL     1       2.175  -0.935   0.163  1.00  0.00     0.146 C 
HETATM    5  C11 UNL     1       2.910  -1.244   1.429  1.00  0.00     0.243 C 
HETATM    6  O1  UNL     1       2.694  -2.343   1.989  1.00  0.00    -0.272 OA
HETATM    7  N4  UNL     1       3.823  -0.321   1.978  1.00  0.00    -0.311 N 
ATOM      8  H4  UNL     1       4.027  -0.310   2.977  1.00  0.00     0.170 HD
HETATM    9  C12 UNL     1       4.463   0.615   1.066  1.00  0.00     0.122 A 
HETATM   10  N5  UNL     1       5.316   1.539   1.406  1.00  0.00    -0.345 N 
ATOM     11  H5  UNL     1       5.592   1.640   2.383  1.00  0.00     0.167 HD
HETATM   12  C13 UNL     1       5.823   2.341   0.499  1.00  0.00     0.140 A 
HETATM   13  S1  UNL     1       5.080   1.795  -0.930  1.00  0.00    -0.084 SA
HETATM   14  C14 UNL     1       4.121   0.513  -0.251  1.00  0.00     0.044 A 
HETATM   15  C15 UNL     1       3.174  -0.485  -0.836  1.00  0.00     0.129 C 
HETATM   16 BR1  UNL     1       4.247  -1.932  -1.533  1.00  0.00    -0.084 Br
HETATM   17  C16 UNL     1       1.483  -2.133  -0.310  1.00  0.00     0.279 C 
HETATM   18  O2  UNL     1       2.093  -3.225  -0.324  1.00  0.00    -0.264 OA
HETATM   19  O3  UNL     1       0.165  -2.109  -0.747  1.00  0.00    -0.314 OA
ENDROOT
BRANCH   1  20
HETATM   20  C5  UNL     1      -1.948  -1.148  -1.103  1.00  0.00     0.039 C 
HETATM   21  C6  UNL     1      -1.723  -1.201  -2.597  1.00  0.00     0.017 C 
BRANCH  20  22
HETATM   22  C2  UNL     1      -2.936  -0.087  -0.739  1.00  0.00    -0.081 C 
HETATM   23  C1  UNL     1      -3.396   0.785  -1.618  1.00  0.00     0.015 C 
BRANCH  22  24
HETATM   24  C3  UNL     1      -3.434   0.007   0.660  1.00  0.00     0.055 C 
BRANCH  24  25
HETATM   25  C4  UNL     1      -4.400   1.110   0.892  1.00  0.00     0.145 C 
BRANCH  25  26
HETATM   26  N1  UNL     1      -4.782   1.047   2.311  1.00  0.00    -0.322 N 
ATOM     27  H1  UNL     1      -4.849   0.158   2.806  1.00  0.00     0.181 HD
BRANCH  26  28
HETATM   28  N2  UNL     1      -5.016   2.110   2.870  1.00  0.00    -0.254 N 
HETATM   29  N3  UNL     1      -4.922   3.042   3.685  1.00  0.00    -0.331 N 
ATOM     30  H32 UNL     1      -4.150   2.656   4.228  1.00  0.00     0.178 HD
ATOM     31  H31 UNL     1      -5.117   3.928   4.151  1.00  0.00     0.178 HD
ATOM     32  H2  UNL     1      -5.786   2.451   2.294  1.00  0.00     0.207 HD
ENDBRANCH  26  28
ENDBRANCH  25  26
ENDBRANCH  24  25
ENDBRANCH  22  24
ENDBRANCH  20  22
ENDBRANCH   1  20
TORSDOF 6
