REMARK  5 active torsions:
REMARK  status: ('A' for Active; 'I' for Inactive)
REMARK    1  A    between atoms: O1_2  and  C2_3 
REMARK    2  A    between atoms: C8_11  and  C9_12 
REMARK    3  A    between atoms: C9_12  and  N1_13 
REMARK    4  A    between atoms: C12_16  and  O3_17 
REMARK    5  A    between atoms: O3_17  and  C13_18 
ROOT
HETATM    1  N1  UNL     1       0.706  -1.174   0.352  1.00  0.00    -0.371 N 
HETATM    2  C10 UNL     1       0.357  -0.027   1.073  1.00  0.00     0.065 C 
HETATM    3  C11 UNL     1      -1.107   0.305   0.957  1.00  0.00     0.076 C 
HETATM    4  C12 UNL     1      -1.941  -0.656   0.196  1.00  0.00     0.128 C 
HETATM    5  C21 UNL     1      -1.285  -1.241  -1.032  1.00  0.00     0.052 C 
HETATM    6  C22 UNL     1       0.211  -1.208  -1.008  1.00  0.00     0.129 C 
ENDROOT
BRANCH   1   7
HETATM    7  C9  UNL     1       1.923  -1.825   0.550  1.00  0.00     0.095 C 
BRANCH   7   8
HETATM    8  C8  UNL     1       3.184  -1.123   0.108  1.00  0.00     0.167 C 
HETATM    9  O2  UNL     1       4.322  -1.996   0.304  1.00  0.00    -0.340 OA
HETATM   10  C5  UNL     1       5.595  -1.485  -0.077  1.00  0.00     0.079 A 
HETATM   11  C4  UNL     1       5.863  -0.214   0.370  1.00  0.00    -0.022 A 
HETATM   12  C6  UNL     1       6.504  -2.159  -0.826  1.00  0.00     0.082 A 
HETATM   13  C3  UNL     1       7.051   0.392   0.061  1.00  0.00     0.049 A 
HETATM   14  C24 UNL     1       4.878   0.446   1.226  1.00  0.00     0.044 C 
HETATM   15  C2  UNL     1       8.000  -0.271  -0.704  1.00  0.00     0.107 A 
HETATM   16  C7  UNL     1       7.715  -1.557  -1.146  1.00  0.00     0.152 A 
HETATM   17  F1  UNL     1       8.615  -2.215  -1.887  1.00  0.00    -0.203 F 
HETATM   18  C23 UNL     1       3.479   0.143   0.812  1.00  0.00     0.042 C 
BRANCH  15  19
HETATM   19  O1  UNL     1       9.209   0.347  -1.020  1.00  0.00    -0.353 OA
HETATM   20  C1  UNL     1       9.451   1.657  -0.547  1.00  0.00     0.210 C 
ENDBRANCH  15  19
ENDBRANCH   7   8
ENDBRANCH   1   7
BRANCH   4  21
HETATM   21  O3  UNL     1      -3.086   0.060  -0.243  1.00  0.00    -0.380 OA
BRANCH  21  22
HETATM   22  C13 UNL     1      -4.266  -0.459   0.225  1.00  0.00     0.122 C 
HETATM   23  C14 UNL     1      -5.062  -0.892  -1.003  1.00  0.00     0.033 C 
HETATM   24  C15 UNL     1      -6.300  -0.079  -1.073  1.00  0.00     0.014 C 
HETATM   25  C16 UNL     1      -6.158   1.013  -0.080  1.00  0.00    -0.009 C 
HETATM   26  C17 UNL     1      -5.978   2.376  -0.718  1.00  0.00     0.187 C 
HETATM   27  C19 UNL     1      -7.487   1.202   0.639  1.00  0.00     0.095 C 
HETATM   28  C20 UNL     1      -5.056   0.658   0.852  1.00  0.00     0.044 C 
HETATM   29  O4  UNL     1      -7.290   2.752  -1.068  1.00  0.00    -0.339 OA
HETATM   30  C18 UNL     1      -8.219   2.013  -0.361  1.00  0.00     0.112 C 
HETATM   31  N2  UNL     1      -9.488   2.034  -0.549  1.00  0.00    -0.384 N 
ATOM     32  H22 UNL     1      -9.992   2.593  -1.238  1.00  0.00     0.157 HD
ATOM     33  H21 UNL     1     -10.174   1.488  -0.027  1.00  0.00     0.157 HD
ENDBRANCH  21  22
ENDBRANCH   4  21
TORSDOF 5
