REMARK  6 active torsions:
REMARK  status: ('A' for Active; 'I' for Inactive)
REMARK    1  A    between atoms: O1_2  and  N1_3 
REMARK    2  A    between atoms: C16_20  and  O3_21 
REMARK    3  A    between atoms: O3_21  and  C17_22 
REMARK    4  A    between atoms: C17_22  and  C18_24 
REMARK    5  A    between atoms: C18_24  and  C19_25 
REMARK    6  A    between atoms: C19_25  and  C20_26 
ROOT
HETATM    1  N1  UNL     1      -0.690  -3.560  -0.742  1.00  0.00    -0.275 N 
ATOM      2  H1  UNL     1       0.214  -3.895  -1.076  1.00  0.00     0.193 HD
HETATM    3  C2  UNL     1      -0.836  -2.334  -0.437  1.00  0.00     0.015 C 
HETATM    4  C3  UNL     1      -2.074  -1.671   0.064  1.00  0.00     0.065 C 
HETATM    5  C4  UNL     1      -2.136  -0.542  -0.950  1.00  0.00     0.030 C 
HETATM    6  C5  UNL     1      -3.046   0.558  -0.586  1.00  0.00    -0.062 C 
HETATM    7  C6  UNL     1      -3.859   1.130  -1.471  1.00  0.00    -0.015 C 
HETATM    8  C7  UNL     1      -4.676   2.208  -0.894  1.00  0.00     0.107 C 
HETATM    9  C8  UNL     1      -3.960   2.542   0.342  1.00  0.00     0.142 C 
HETATM   10  O2  UNL     1      -3.891   3.545   0.968  1.00  0.00    -0.296 OA
HETATM   11  C9  UNL     1      -3.269   1.242   0.689  1.00  0.00     0.041 C 
HETATM   12  C10 UNL     1      -4.149   0.574   1.676  1.00  0.00     0.028 C 
HETATM   13  C11 UNL     1      -1.903   1.643   1.210  1.00  0.00     0.022 C 
HETATM   14  C12 UNL     1      -1.112   2.136   0.063  1.00  0.00     0.007 C 
HETATM   15  C13 UNL     1      -0.376   1.268  -0.838  1.00  0.00    -0.005 C 
HETATM   16  C14 UNL     1       1.146   1.352  -0.599  1.00  0.00     0.008 C 
HETATM   17  C15 UNL     1       1.507   1.269   0.826  1.00  0.00     0.033 C 
HETATM   18  C16 UNL     1       1.853  -0.206   1.112  1.00  0.00     0.132 C 
HETATM   19  C21 UNL     1       0.701  -1.100   0.876  1.00  0.00     0.044 C 
HETATM   20  C22 UNL     1       0.151  -1.195  -0.477  1.00  0.00     0.045 C 
HETATM   21  C23 UNL     1      -0.687  -0.140  -1.080  1.00  0.00    -0.024 C 
HETATM   22  C24 UNL     1      -0.413  -0.379  -2.605  1.00  0.00     0.017 C 
ENDROOT
BRANCH  18  23
HETATM   23  O3  UNL     1       3.010  -0.454   0.381  1.00  0.00    -0.316 OA
BRANCH  23  24
HETATM   24  C17 UNL     1       4.282  -0.586   0.911  1.00  0.00     0.259 C 
HETATM   25  O4  UNL     1       4.365  -0.459   2.155  1.00  0.00    -0.265 OA
BRANCH  24  26
HETATM   26  C18 UNL     1       5.494  -0.855   0.130  1.00  0.00     0.121 C 
BRANCH  26  27
HETATM   27  C19 UNL     1       5.932   0.272  -0.766  1.00  0.00     0.123 C 
BRANCH  27  28
HETATM   28  C20 UNL     1       6.230   1.511  -0.017  1.00  0.00     0.172 C 
HETATM   29  O5  UNL     1       6.141   1.592   1.223  1.00  0.00    -0.648 OA
HETATM   30  O6  UNL     1       6.627   2.640  -0.726  1.00  0.00    -0.648 OA
ENDBRANCH  27  28
ENDBRANCH  26  27
ENDBRANCH  24  26
ENDBRANCH  23  24
ENDBRANCH  18  23
BRANCH   1  31
HETATM   31  O1  UNL     1      -1.725  -4.423  -0.626  1.00  0.00    -0.285 OA
HETATM   32  C1  UNL     1      -1.884  -5.359   0.406  1.00  0.00     0.237 C 
ENDBRANCH   1  31
TORSDOF 6
