REMARK  5 active torsions:
REMARK  status: ('A' for Active; 'I' for Inactive)
REMARK    1  A    between atoms: C2_2  and  C3_3 
REMARK    2  A    between atoms: C3_3  and  N1_4 
REMARK    3  A    between atoms: C3_3  and  N2_8 
REMARK    4  A    between atoms: N2_8  and  C4_11 
REMARK    5  A    between atoms: C5_13  and  N3_14 
ROOT
HETATM    1  N2  UNL     1       0.125  -0.742   0.139  1.00  0.00    -0.012 N 
ATOM      2  H21 UNL     1       0.066  -1.662  -0.296  1.00  0.00     0.283 HD
ATOM      3  H22 UNL     1       0.165  -1.039   1.114  1.00  0.00     0.283 HD
ENDROOT
BRANCH   1   4
HETATM    4  C3  UNL     1      -1.040   0.053  -0.131  1.00  0.00     0.405 C 
BRANCH   4   5
HETATM    5  C2  UNL     1      -2.250  -0.591   0.482  1.00  0.00     0.024 C 
HETATM    6  C1  UNL     1      -3.455  -0.163   0.179  1.00  0.00     0.010 C 
ENDBRANCH   4   5
BRANCH   4   7
HETATM    7  N1  UNL     1      -0.952   1.402   0.407  1.00  0.00    -0.047 N 
ATOM      8  H13 UNL     1      -1.806   1.943   0.270  1.00  0.00     0.277 HD
ATOM      9  H12 UNL     1      -0.944   1.426   1.427  1.00  0.00     0.277 HD
ATOM     10  H11 UNL     1      -0.130   1.839  -0.009  1.00  0.00     0.277 HD
ENDBRANCH   4   7
ENDBRANCH   1   4
BRANCH   1  11
HETATM   11  C4  UNL     1       1.310  -0.039  -0.255  1.00  0.00     0.382 A 
HETATM   12  O1  UNL     1       1.996  -0.447  -1.374  1.00  0.00    -0.319 OA
HETATM   13  C5  UNL     1       2.628  -0.678  -0.087  1.00  0.00     0.377 A 
BRANCH  13  14
HETATM   14  N3  UNL     1       3.735   0.183   0.192  1.00  0.00    -0.049 N 
ATOM     15  H33 UNL     1       3.795   0.904  -0.527  1.00  0.00     0.277 HD
ATOM     16  H32 UNL     1       3.525   0.752   1.012  1.00  0.00     0.277 HD
ATOM     17  H31 UNL     1       4.647  -0.259   0.308  1.00  0.00     0.277 HD
ENDBRANCH  13  14
ENDBRANCH   1  11
TORSDOF 5
