REMARK  9 active torsions:
REMARK  status: ('A' for Active; 'I' for Inactive)
REMARK    1  A    between atoms: C2_2  and  C3_3 
REMARK    2  A    between atoms: C3_3  and  C4_4 
REMARK    3  A    between atoms: C4_4  and  C5_5 
REMARK    4  A    between atoms: C5_5  and  C6_6 
REMARK    5  A    between atoms: C6_6  and  C7_7 
REMARK    6  A    between atoms: C7_7  and  N1_8 
REMARK    7  A    between atoms: N1_8  and  C8_10 
REMARK    8  A    between atoms: C11_15  and  C12_16 
REMARK    9  A    between atoms: C19_23  and  N3_25 
ROOT
HETATM    1  C8  UNL     1       0.835  -0.831  -0.260  1.00  0.00     0.117 A 
HETATM    2  C9  UNL     1       1.204   0.281  -0.984  1.00  0.00     0.136 A 
HETATM    3  N2  UNL     1       0.367   1.340  -1.190  1.00  0.00    -0.370 N 
ATOM      4  H2  UNL     1       0.676   2.149  -1.729  1.00  0.00     0.164 HD
HETATM    5  C10 UNL     1      -0.868   1.297  -0.670  1.00  0.00     0.113 A 
HETATM    6  C11 UNL     1      -1.250   0.197   0.053  1.00  0.00     0.034 A 
HETATM    7  N4  UNL     1      -0.399  -0.860   0.255  1.00  0.00    -0.343 N 
ATOM      8  H4  UNL     1      -0.707  -1.667   0.797  1.00  0.00     0.167 HD
ENDROOT
BRANCH   6   9
HETATM    9  C12 UNL     1      -2.584   0.090   0.677  1.00  0.00     0.003 C 
HETATM   10  C13 UNL     1      -2.258  -0.361   2.121  1.00  0.00     0.022 C 
HETATM   11  C14 UNL     1      -3.417   1.304   0.732  1.00  0.00     0.024 C 
HETATM   12  C15 UNL     1      -4.655   1.367  -0.085  1.00  0.00    -0.044 C 
HETATM   13  C16 UNL     1      -4.516   2.099  -1.418  1.00  0.00     0.015 C 
HETATM   14  C17 UNL     1      -5.674   2.241   0.680  1.00  0.00     0.015 C 
HETATM   15  C18 UNL     1      -5.331   0.079  -0.376  1.00  0.00     0.047 C 
HETATM   16  C19 UNL     1      -4.761  -1.097   0.352  1.00  0.00     0.122 C 
HETATM   17  C20 UNL     1      -5.362  -2.341  -0.248  1.00  0.00     0.046 C 
HETATM   18  C21 UNL     1      -3.270  -1.109   0.061  1.00  0.00     0.053 C 
BRANCH  16  19
HETATM   19  N3  UNL     1      -5.056  -1.050   1.763  1.00  0.00    -0.071 N 
ATOM     20  H33 UNL     1      -4.746  -0.171   2.178  1.00  0.00     0.275 HD
ATOM     21  H32 UNL     1      -6.058  -0.961   1.930  1.00  0.00     0.275 HD
ATOM     22  H31 UNL     1      -4.667  -1.852   2.259  1.00  0.00     0.275 HD
ENDBRANCH  16  19
ENDBRANCH   6   9
BRANCH   1  23
HETATM   23  N1  UNL     1       1.728  -1.795  -0.094  1.00  0.00    -0.375 N 
ATOM     24  H1  UNL     1       1.504  -2.639   0.433  1.00  0.00     0.161 HD
BRANCH  23  25
HETATM   25  C7  UNL     1       3.046  -1.603  -0.695  1.00  0.00     0.121 C 
BRANCH  25  26
HETATM   26  C6  UNL     1       3.906  -0.723   0.157  1.00  0.00     0.020 C 
BRANCH  26  27
HETATM   27  C5  UNL     1       5.175  -0.254  -0.524  1.00  0.00     0.002 C 
BRANCH  27  28
HETATM   28  C4  UNL     1       5.937   0.578   0.476  1.00  0.00     0.000 C 
BRANCH  28  29
HETATM   29  C3  UNL     1       7.138   1.270  -0.078  1.00  0.00    -0.000 C 
BRANCH  29  30
HETATM   30  C2  UNL     1       8.085   0.291  -0.713  1.00  0.00    -0.005 C 
HETATM   31  C1  UNL     1       8.621  -0.764   0.191  1.00  0.00     0.005 C 
ENDBRANCH  29  30
ENDBRANCH  28  29
ENDBRANCH  27  28
ENDBRANCH  26  27
ENDBRANCH  25  26
ENDBRANCH  23  25
ENDBRANCH   1  23
TORSDOF 9
