REMARK  10 active torsions:
REMARK  status: ('A' for Active; 'I' for Inactive)
REMARK    1  A    between atoms: C2_2  and  O1_3 
REMARK    2  A    between atoms: C2_2  and  C6_7 
REMARK    3  A    between atoms: O1_3  and  C3_4 
REMARK    4  A    between atoms: C8_9  and  C9_10 
REMARK    5  A    between atoms: C8_9  and  C15_20 
REMARK    6  A    between atoms: C9_10  and  C10_11 
REMARK    7  A    between atoms: C10_11  and  O2_12 
REMARK    8  A    between atoms: C10_11  and  C11_14 
REMARK    9  A    between atoms: C11_14  and  C14_17 
REMARK   10  A    between atoms: C14_17  and  O3_18 
ROOT
HETATM    1  C6  UNL     1      -2.020  -0.462   0.110  1.00  0.00     0.046 C 
HETATM    2  C7  UNL     1      -0.773  -0.749   0.872  1.00  0.00     0.021 C 
HETATM    3  C8  UNL     1       0.403  -1.323   0.203  1.00  0.00    -0.034 C 
HETATM    4  C18 UNL     1       0.198  -1.882  -1.162  1.00  0.00     0.010 C 
HETATM    5  C19 UNL     1      -1.018  -1.543  -1.905  1.00  0.00     0.006 C 
HETATM    6  C20 UNL     1      -2.256  -1.242  -1.109  1.00  0.00    -0.008 C 
HETATM    7  C21 UNL     1      -3.018  -2.555  -0.789  1.00  0.00     0.011 C 
ENDROOT
BRANCH   3   8
HETATM    8  C9  UNL     1       1.605  -0.397   0.262  1.00  0.00     0.042 C 
BRANCH   8   9
HETATM    9  C10 UNL     1       1.513   0.924  -0.345  1.00  0.00     0.128 C 
BRANCH   9  10
HETATM   10  O2  UNL     1       1.254   0.945  -1.708  1.00  0.00    -0.395 OA
ATOM     11  H2  UNL     1       1.194   1.807  -2.104  1.00  0.00     0.210 HD
ENDBRANCH   9  10
BRANCH   9  12
HETATM   12  C11 UNL     1       2.911   1.554  -0.196  1.00  0.00    -0.000 C 
HETATM   13  C12 UNL     1       3.290   1.657   1.262  1.00  0.00     0.019 C 
HETATM   14  C13 UNL     1       3.914   0.647  -0.872  1.00  0.00     0.019 C 
BRANCH  12  15
HETATM   15  C14 UNL     1       2.922   2.929  -0.787  1.00  0.00     0.175 C 
BRANCH  15  16
HETATM   16  O3  UNL     1       2.601   2.856  -2.138  1.00  0.00    -0.400 OA
ATOM     17  H3  UNL     1       2.608   3.729  -2.513  1.00  0.00     0.209 HD
ENDBRANCH  15  16
ENDBRANCH  12  15
ENDBRANCH   9  12
ENDBRANCH   8   9
ENDBRANCH   3   8
BRANCH   3  18
HETATM   18  C15 UNL     1       0.981  -2.495   1.035  1.00  0.00    -0.014 C 
HETATM   19  C16 UNL     1       2.201  -3.082   0.339  1.00  0.00     0.010 C 
HETATM   20  C17 UNL     1       0.049  -3.589   1.314  1.00  0.00     0.010 C 
ENDBRANCH   3  18
BRANCH   1  21
HETATM   21  C2  UNL     1      -2.202   0.990  -0.102  1.00  0.00     0.042 C 
HETATM   22  C1  UNL     1      -2.512   1.566  -1.233  1.00  0.00     0.046 C 
BRANCH  21  23
HETATM   23  O1  UNL     1      -2.034   1.873   0.999  1.00  0.00    -0.351 OA
BRANCH  23  24
HETATM   24  C3  UNL     1      -2.983   2.907   1.131  1.00  0.00     0.128 A 
HETATM   25  C4  UNL     1      -4.394   2.457   1.297  1.00  0.00     0.035 A 
HETATM   26  C5  UNL     1      -3.670   3.151   2.421  1.00  0.00     0.035 A 
ENDBRANCH  23  24
ENDBRANCH  21  23
ENDBRANCH   1  21
TORSDOF 10
