REMARK  6 active torsions:
REMARK  status: ('A' for Active; 'I' for Inactive)
REMARK       I    between atoms: C2_2  and  N1_4 
REMARK    1  A    between atoms: N1_4  and  C3_6 
REMARK    2  A    between atoms: C5_8  and  S1_9 
REMARK    3  A    between atoms: S1_9  and  O4_12 
REMARK    4  A    between atoms: O4_12  and  N2_13 
REMARK       I    between atoms: N2_13  and  C6_15 
REMARK    5  A    between atoms: C6_15  and  C7_17 
REMARK    6  A    between atoms: C19_29  and  C20_30 
ROOT
HETATM    1  S1  UNL     1       1.626   0.194  -0.800  1.00  0.00     0.318 S 
HETATM    2  O2  UNL     1       2.012   1.412  -1.623  1.00  0.00    -0.191 OA
HETATM    3  O3  UNL     1       0.830  -0.790  -1.603  1.00  0.00    -0.191 OA
ENDROOT
BRANCH   1   4
HETATM    4  C5  UNL     1       3.144  -0.513  -0.271  1.00  0.00     0.090 A 
HETATM    5  C4  UNL     1       4.282   0.286  -0.103  1.00  0.00     0.056 A 
HETATM    6  C3  UNL     1       5.514  -0.181   0.293  1.00  0.00     0.051 A 
HETATM    7  C19 UNL     1       5.609  -1.557   0.538  1.00  0.00     0.074 A 
HETATM    8  C18 UNL     1       4.485  -2.378   0.378  1.00  0.00     0.020 A 
HETATM    9  C17 UNL     1       3.278  -1.855  -0.020  1.00  0.00     0.027 A 
BRANCH   6  10
HETATM   10  N1  UNL     1       6.659   0.612   0.461  1.00  0.00    -0.327 N 
HETATM   11  C2  UNL     1       6.729   1.985   0.291  1.00  0.00     0.218 C 
HETATM   12  C1  UNL     1       8.055   2.692   0.512  1.00  0.00     0.117 C 
HETATM   13  O1  UNL     1       5.802   2.736  -0.033  1.00  0.00    -0.274 OA
ATOM     14  H1  UNL     1       7.518   0.134   0.733  1.00  0.00     0.169 HD
ENDBRANCH   6  10
BRANCH   7  15
HETATM   15  C20 UNL     1       6.856  -2.206   0.962  1.00  0.00     0.419 C 
HETATM   16  F1  UNL     1       7.904  -2.083   0.077  1.00  0.00    -0.166 F 
HETATM   17  F2  UNL     1       6.625  -3.585   1.111  1.00  0.00    -0.166 F 
HETATM   18  F3  UNL     1       7.285  -1.716   2.195  1.00  0.00    -0.166 F 
ENDBRANCH   7  15
ENDBRANCH   1   4
BRANCH   1  19
HETATM   19  O4  UNL     1       0.822   0.750   0.554  1.00  0.00    -0.144 OA
BRANCH  19  20
HETATM   20  N2  UNL     1      -0.435   0.307   0.533  1.00  0.00    -0.213 N 
HETATM   21  C6  UNL     1      -1.313   0.705  -0.500  1.00  0.00     0.272 C 
HETATM   22  O5  UNL     1      -0.864   1.496  -1.408  1.00  0.00    -0.266 OA
ATOM     23  H2  UNL     1      -0.764  -0.322   1.266  1.00  0.00     0.199 HD
BRANCH  21  24
HETATM   24  C7  UNL     1      -2.695   0.264  -0.582  1.00  0.00     0.009 C 
HETATM   25  C8  UNL     1      -3.428   0.684  -1.606  1.00  0.00    -0.005 C 
HETATM   26  C9  UNL     1      -4.830   0.234  -1.687  1.00  0.00    -0.029 C 
HETATM   27  C10 UNL     1      -4.949  -1.146  -2.298  1.00  0.00     0.019 C 
HETATM   28  C11 UNL     1      -5.547   1.206  -2.635  1.00  0.00     0.019 C 
HETATM   29  C12 UNL     1      -5.510   0.343  -0.353  1.00  0.00     0.022 C 
HETATM   30  C13 UNL     1      -4.711  -0.160   0.794  1.00  0.00    -0.043 C 
HETATM   31  C14 UNL     1      -5.384  -1.259   1.583  1.00  0.00     0.015 C 
HETATM   32  C15 UNL     1      -4.528   1.019   1.761  1.00  0.00     0.015 C 
HETATM   33  C16 UNL     1      -3.310  -0.615   0.435  1.00  0.00     0.052 C 
ENDBRANCH  21  24
ENDBRANCH  19  20
ENDBRANCH   1  19
TORSDOF 6
