REMARK  5 active torsions:
REMARK  status: ('A' for Active; 'I' for Inactive)
REMARK    1  A    between atoms: N1_1  and  C1_4 
REMARK    2  A    between atoms: C5_12  and  N4_13 
REMARK    3  A    between atoms: N8_27  and  C12_28 
REMARK    4  A    between atoms: N9_36  and  S1_37 
REMARK    5  A    between atoms: S1_37  and  C20_40 
ROOT
HETATM    1  C1  UNL     1      -4.777   2.541  -0.450  1.00  0.00     0.117 A 
HETATM    2  N2  UNL     1      -4.211   3.752  -0.578  1.00  0.00    -0.338 N 
ATOM      3  H2  UNL     1      -4.797   4.586  -0.621  1.00  0.00     0.168 HD
HETATM    4  C2  UNL     1      -2.862   3.869  -0.650  1.00  0.00     0.183 A 
HETATM    5  N3  UNL     1      -2.060   2.790  -0.596  1.00  0.00    -0.336 N 
ATOM      6  H3  UNL     1      -1.049   2.909  -0.653  1.00  0.00     0.168 HD
HETATM    7  C3  UNL     1      -2.572   1.572  -0.469  1.00  0.00     0.141 A 
HETATM    8  C4  UNL     1      -3.962   1.433  -0.393  1.00  0.00     0.098 A 
HETATM    9  C5  UNL     1      -4.209   0.101  -0.273  1.00  0.00     0.136 A 
HETATM   10  N7  UNL     1      -2.987  -0.511  -0.281  1.00  0.00    -0.281 N 
ATOM     11  H7  UNL     1      -2.855  -1.520  -0.205  1.00  0.00     0.189 HD
HETATM   12  N8  UNL     1      -2.012   0.341  -0.396  1.00  0.00    -0.269 N 
ENDROOT
BRANCH  12  13
HETATM   13  C12 UNL     1      -0.585   0.075  -0.442  1.00  0.00     0.110 C 
HETATM   14  C13 UNL     1       0.016  -0.185   0.908  1.00  0.00     0.028 C 
HETATM   15  C14 UNL     1       1.313   0.496   1.145  1.00  0.00     0.011 C 
HETATM   16  C15 UNL     1       2.265   0.515   0.006  1.00  0.00    -0.038 C 
HETATM   17  C16 UNL     1       1.595   0.604  -1.355  1.00  0.00     0.011 C 
HETATM   18  C18 UNL     1       3.196  -0.669  -0.030  1.00  0.00     0.025 C 
HETATM   19  C27 UNL     1       3.096   1.800   0.135  1.00  0.00     0.025 C 
HETATM   20  C17 UNL     1       0.198   1.186  -1.087  1.00  0.00     0.028 C 
HETATM   21  C19 UNL     1       4.537  -0.374   0.603  1.00  0.00     0.108 C 
HETATM   22  N9  UNL     1       5.241   0.694  -0.030  1.00  0.00    -0.206 NA
HETATM   23  C26 UNL     1       4.379   1.678  -0.641  1.00  0.00     0.108 C 
BRANCH  22  24
HETATM   24  S1  UNL     1       6.368   0.172  -1.224  1.00  0.00     0.243 S 
HETATM   25  O2  UNL     1       5.651  -0.644  -2.284  1.00  0.00    -0.206 OA
HETATM   26  O3  UNL     1       6.991   1.400  -1.834  1.00  0.00    -0.206 OA
BRANCH  24  27
HETATM   27  C20 UNL     1       7.577  -0.826  -0.472  1.00  0.00     0.074 A 
HETATM   28  C21 UNL     1       7.439  -2.181  -0.383  1.00  0.00     0.025 A 
HETATM   29  C22 UNL     1       8.408  -2.927   0.213  1.00  0.00     0.002 A 
HETATM   30  C23 UNL     1       9.529  -2.307   0.726  1.00  0.00     0.000 A 
HETATM   31  C24 UNL     1       9.686  -0.932   0.645  1.00  0.00     0.002 A 
HETATM   32  C25 UNL     1       8.703  -0.186   0.041  1.00  0.00     0.025 A 
ENDBRANCH  24  27
ENDBRANCH  22  24
ENDBRANCH  12  13
BRANCH   9  33
HETATM   33  N4  UNL     1      -5.471  -0.538  -0.145  1.00  0.00    -0.358 N 
HETATM   34  C6  UNL     1      -6.260  -0.352   1.052  1.00  0.00     0.151 C 
HETATM   35  C7  UNL     1      -6.475  -1.663   1.786  1.00  0.00     0.197 C 
HETATM   36  O1  UNL     1      -7.538  -2.371   1.183  1.00  0.00    -0.333 OA
HETATM   37  C8  UNL     1      -7.907  -2.290  -0.167  1.00  0.00     0.168 A 
HETATM   38  N5  UNL     1      -9.124  -2.664  -0.639  1.00  0.00    -0.331 N 
HETATM   39  C10 UNL     1      -7.206  -1.854  -1.269  1.00  0.00     0.079 A 
HETATM   40  C9  UNL     1      -9.137  -2.456  -1.966  1.00  0.00     0.182 A 
ATOM     41  H5  UNL     1      -9.893  -3.037  -0.083  1.00  0.00     0.168 HD
HETATM   42  N6  UNL     1      -7.960  -1.954  -2.378  1.00  0.00    -0.351 N 
ATOM     43  H6  UNL     1      -7.695  -1.702  -3.330  1.00  0.00     0.166 HD
HETATM   44  C11 UNL     1      -5.828  -1.342  -1.293  1.00  0.00     0.186 C 
ENDBRANCH   9  33
BRANCH   1  45
HETATM   45  N1  UNL     1      -6.060   2.474  -0.394  1.00  0.00    -0.385 N 
ATOM     46  H12 UNL     1      -6.664   3.295  -0.436  1.00  0.00     0.157 HD
ATOM     47  H11 UNL     1      -6.490   1.554  -0.297  1.00  0.00     0.157 HD
ENDBRANCH   1  45
TORSDOF 5
