REMARK  6 active torsions:
REMARK  status: ('A' for Active; 'I' for Inactive)
REMARK    1  A    between atoms: N2_12  and  C10_13 
REMARK    2  A    between atoms: C10_13  and  C11_14 
REMARK    3  A    between atoms: C11_14  and  N3_15 
REMARK    4  A    between atoms: N3_15  and  C12_17 
REMARK    5  A    between atoms: C13_20  and  N5_21 
REMARK    6  A    between atoms: N5_21  and  C14_23 
ROOT
HETATM    1  C11 UNL     1      -1.020   1.900   0.764  1.00  0.00     0.107 C 
ENDROOT
BRANCH   1   2
HETATM    2  C10 UNL     1      -0.016   2.142  -0.306  1.00  0.00     0.107 C 
BRANCH   2   3
HETATM    3  N2  UNL     1       1.231   1.535  -0.227  1.00  0.00    -0.369 N 
HETATM    4  C9  UNL     1       1.429   0.173  -0.376  1.00  0.00     0.066 C 
HETATM    5  C8  UNL     1       2.617  -0.406   0.356  1.00  0.00     0.083 C 
HETATM    6  C7  UNL     1       3.873   0.378   0.042  1.00  0.00     0.074 C 
HETATM    7  O1  UNL     1       4.907  -0.085   0.868  1.00  0.00    -0.338 OA
HETATM    8  C24 UNL     1       3.580   1.815   0.468  1.00  0.00     0.059 C 
HETATM    9  C25 UNL     1       4.198   0.406  -1.410  1.00  0.00     0.054 C 
HETATM   10  C5  UNL     1       6.272  -0.242   0.669  1.00  0.00     0.093 A 
HETATM   11  C4  UNL     1       6.870  -0.667  -0.481  1.00  0.00     0.092 A 
HETATM   12  C6  UNL     1       7.050   0.073   1.764  1.00  0.00     0.064 A 
HETATM   13  C3  UNL     1       8.262  -0.778  -0.539  1.00  0.00     0.028 A 
HETATM   14  S2  UNL     1       6.250  -1.155  -2.054  1.00  0.00     0.178 S 
HETATM   15  C2  UNL     1       9.009  -0.454   0.579  1.00  0.00     0.028 A 
HETATM   16  C1  UNL     1       8.432  -0.021   1.757  1.00  0.00     0.049 A 
HETATM   17  N1  UNL     1       9.239   0.297   2.868  1.00  0.00    -0.102 NA
HETATM   18  C26 UNL     1       4.481  -0.955  -1.992  1.00  0.00     0.149 C 
HETATM   19  O3  UNL     1       6.807  -0.178  -3.051  1.00  0.00    -0.223 OA
HETATM   20  O4  UNL     1       6.586  -2.568  -2.378  1.00  0.00    -0.223 OA
HETATM   21  C23 UNL     1       2.375   2.384  -0.194  1.00  0.00     0.130 C 
ENDBRANCH   2   3
ENDBRANCH   1   2
BRANCH   1  22
HETATM   22  N3  UNL     1      -1.452   0.578   0.972  1.00  0.00    -0.349 N 
ATOM     23  H3  UNL     1      -0.747  -0.043   1.369  1.00  0.00     0.166 HD
BRANCH  22  24
HETATM   24  C12 UNL     1      -2.580   0.026   0.746  1.00  0.00     0.140 A 
HETATM   25  N4  UNL     1      -3.616   0.701   0.225  1.00  0.00    -0.175 N 
HETATM   26  C13 UNL     1      -4.756  -0.035   0.047  1.00  0.00     0.680 A 
ATOM     27  H4  UNL     1      -3.558   1.689  -0.020  1.00  0.00     0.186 HD
HETATM   28  N6  UNL     1      -4.891  -1.312   0.344  1.00  0.00    -0.190 N 
HETATM   29  C19 UNL     1      -3.853  -2.040   0.878  1.00  0.00     0.070 A 
ATOM     30  H6  UNL     1      -5.786  -1.771   0.174  1.00  0.00     0.184 HD
HETATM   31  C20 UNL     1      -3.844  -3.344   1.229  1.00  0.00     0.039 A 
HETATM   32  C22 UNL     1      -2.699  -1.338   1.070  1.00  0.00     0.076 A 
HETATM   33  C21 UNL     1      -2.683  -3.846   1.743  1.00  0.00     0.053 A 
HETATM   34  S1  UNL     1      -1.638  -2.497   1.727  1.00  0.00    -0.096 SA
BRANCH  26  35
HETATM   35  N5  UNL     1      -5.739   0.647  -0.455  1.00  0.00    -0.221 N 
ATOM     36  H5  UNL     1      -5.593   1.634  -0.669  1.00  0.00     0.178 HD
BRANCH  35  37
HETATM   37  C14 UNL     1      -7.028   0.064  -0.722  1.00  0.00     0.103 C 
HETATM   38  C15 UNL     1      -7.833   0.979  -1.659  1.00  0.00     0.052 C 
HETATM   39  C16 UNL     1      -9.299   0.589  -1.431  1.00  0.00     0.169 C 
HETATM   40  O2  UNL     1      -9.436  -0.750  -1.120  1.00  0.00    -0.391 OA
HETATM   41  C17 UNL     1      -8.998  -1.043   0.171  1.00  0.00     0.169 C 
HETATM   42  C18 UNL     1      -7.882  -0.075   0.517  1.00  0.00     0.052 C 
ENDBRANCH  35  37
ENDBRANCH  26  35
ENDBRANCH  22  24
ENDBRANCH   1  22
TORSDOF 6
