REMARK  5 active torsions:
REMARK  status: ('A' for Active; 'I' for Inactive)
REMARK    1  A    between atoms: N1_1  and  S1_4 
REMARK    2  A    between atoms: S1_4  and  C1_7 
REMARK    3  A    between atoms: C4_10  and  N2_11 
REMARK    4  A    between atoms: C18_32  and  C19_33 
REMARK    5  A    between atoms: C25_39  and  O5_40 
ROOT
HETATM    1  N2  UNL     1      -2.237   0.086   0.513  1.00  0.00    -0.229 N 
HETATM    2  C5  UNL     1      -1.247   0.938  -0.005  1.00  0.00     0.342 A 
HETATM    3  O3  UNL     1      -1.461   1.975  -0.703  1.00  0.00    -0.246 OA
HETATM    4  N3  UNL     1       0.023   0.407   0.410  1.00  0.00    -0.219 N 
HETATM    5  C6  UNL     1       1.202   1.074  -0.011  1.00  0.00     0.283 C 
HETATM    6  O4  UNL     1       1.115   2.173  -0.640  1.00  0.00    -0.265 OA
HETATM    7  C7  UNL     1       2.557   0.564   0.238  1.00  0.00     0.128 A 
HETATM    8  N4  UNL     1       3.494   1.523   0.093  1.00  0.00    -0.349 N 
ATOM      9  H4  UNL     1       3.197   2.463  -0.169  1.00  0.00     0.166 HD
HETATM   10  C8  UNL     1       4.827   1.283   0.284  1.00  0.00     0.043 A 
HETATM   11  C9  UNL     1       5.735   2.390   0.093  1.00  0.00    -0.009 A 
HETATM   12  C10 UNL     1       5.268   3.625  -0.292  1.00  0.00     0.013 A 
HETATM   13  C11 UNL     1       6.148   4.696  -0.473  1.00  0.00     0.001 A 
HETATM   14  C12 UNL     1       7.486   4.472  -0.255  1.00  0.00     0.000 A 
HETATM   15  C13 UNL     1       7.989   3.256   0.129  1.00  0.00     0.001 A 
HETATM   16  C14 UNL     1       7.081   2.221   0.298  1.00  0.00     0.013 A 
HETATM   17  C15 UNL     1       5.178   0.003   0.633  1.00  0.00     0.033 A 
HETATM   18  C16 UNL     1       4.287  -1.029   0.799  1.00  0.00     0.034 A 
HETATM   19  C17 UNL     1       2.950  -0.717   0.591  1.00  0.00     0.061 A 
HETATM   20  N5  UNL     1       2.056  -1.804   0.762  1.00  0.00    -0.374 N 
ATOM     21  H5  UNL     1       2.545  -2.699   0.782  1.00  0.00     0.160 HD
HETATM   22  C18 UNL     1       0.648  -1.964   0.913  1.00  0.00     0.181 C 
HETATM   23  C25 UNL     1      -0.132  -0.744   1.215  1.00  0.00     0.253 A 
HETATM   24  C26 UNL     1      -1.594  -0.954   1.233  1.00  0.00     0.291 A 
HETATM   25  O6  UNL     1      -2.251  -1.876   1.776  1.00  0.00    -0.267 OA
ENDROOT
BRANCH   1  26
HETATM   26  C4  UNL     1      -3.642   0.294   0.317  1.00  0.00     0.047 A 
HETATM   27  C3  UNL     1      -4.476   0.424   1.414  1.00  0.00     0.032 A 
HETATM   28  C2  UNL     1      -5.838   0.631   1.283  1.00  0.00     0.027 A 
HETATM   29  C1  UNL     1      -6.414   0.716   0.035  1.00  0.00     0.079 A 
HETATM   30  C28 UNL     1      -5.600   0.589  -1.067  1.00  0.00     0.027 A 
HETATM   31  C27 UNL     1      -4.222   0.379  -0.927  1.00  0.00     0.032 A 
BRANCH  29  32
HETATM   32  S1  UNL     1      -8.141   0.987  -0.121  1.00  0.00     0.256 S 
HETATM   33  O1  UNL     1      -8.624   1.814   1.026  1.00  0.00    -0.201 OA
HETATM   34  O2  UNL     1      -8.459   1.752  -1.381  1.00  0.00    -0.201 OA
BRANCH  32  35
HETATM   35  N1  UNL     1      -9.029  -0.491  -0.167  1.00  0.00    -0.324 N 
ATOM     36  H12 UNL     1      -9.765  -0.746   0.492  1.00  0.00     0.169 HD
ATOM     37  H11 UNL     1      -8.699  -1.056  -0.950  1.00  0.00     0.169 HD
ENDBRANCH  32  35
ENDBRANCH  29  32
ENDBRANCH   1  26
BRANCH  23  38
HETATM   38  O5  UNL     1       0.166  -0.330   2.549  1.00  0.00    -0.361 OA
ATOM     39  H5  UNL     1       0.062  -1.104   3.090  1.00  0.00     0.213 HD
ENDBRANCH  23  38
BRANCH  22  40
HETATM   40  C19 UNL     1       0.155  -2.752  -0.238  1.00  0.00    -0.030 A 
HETATM   41  C20 UNL     1       0.500  -2.383  -1.528  1.00  0.00     0.009 A 
HETATM   42  C21 UNL     1       0.080  -3.082  -2.633  1.00  0.00     0.001 A 
HETATM   43  C22 UNL     1      -0.712  -4.190  -2.486  1.00  0.00     0.000 A 
HETATM   44  C23 UNL     1      -1.079  -4.595  -1.240  1.00  0.00     0.001 A 
HETATM   45  C24 UNL     1      -0.642  -3.873  -0.148  1.00  0.00     0.009 A 
ENDBRANCH  22  40
TORSDOF 5
