REMARK  5 active torsions:
REMARK  status: ('A' for Active; 'I' for Inactive)
REMARK    1  A    between atoms: C1_2  and  C2_3 
REMARK       I    between atoms: C1_2  and  N5_36 
REMARK    2  A    between atoms: C2_3  and  N1_4 
REMARK    3  A    between atoms: C10_15  and  O4_16 
REMARK    4  A    between atoms: C10_15  and  C11_18 
REMARK    5  A    between atoms: C15_24  and  C16_25 
ROOT
HETATM    1  N1  UNL     1      -0.955  -0.751   1.049  1.00  0.00    -0.328 N 
HETATM    2  C3  UNL     1      -0.759  -1.606   2.169  1.00  0.00     0.053 A 
HETATM    3  C4  UNL     1      -1.295  -2.863   2.160  1.00  0.00     0.031 A 
HETATM    4  C5  UNL     1      -1.152  -3.757   3.224  1.00  0.00     0.002 A 
HETATM    5  C6  UNL     1      -0.456  -3.388   4.331  1.00  0.00     0.002 A 
HETATM    6  C7  UNL     1       0.096  -2.120   4.363  1.00  0.00     0.024 A 
HETATM    7  C8  UNL     1      -0.055  -1.254   3.306  1.00  0.00     0.066 A 
HETATM    8  S1  UNL     1       0.683   0.327   3.468  1.00  0.00     0.129 S 
HETATM    9  O2  UNL     1       2.338   0.082   3.596  1.00  0.00    -0.244 OA
HETATM   10  C9  UNL     1       0.269   1.168   1.986  1.00  0.00     0.280 C 
HETATM   11  O3  UNL     1       0.212   2.385   1.962  1.00  0.00    -0.277 OA
HETATM   12  C10 UNL     1       0.002   0.299   0.793  1.00  0.00     0.239 C 
ENDROOT
BRANCH  12  13
HETATM   13  O4  UNL     1      -0.459   1.179  -0.218  1.00  0.00    -0.360 OA
ATOM     14  H4  UNL     1       0.171   1.870  -0.386  1.00  0.00     0.213 HD
ENDBRANCH  12  13
BRANCH  12  15
HETATM   15  C11 UNL     1       1.306  -0.191   0.292  1.00  0.00     0.008 A 
HETATM   16  C12 UNL     1       1.535  -1.475  -0.106  1.00  0.00     0.015 A 
HETATM   17  C13 UNL     1       2.797  -1.886  -0.566  1.00  0.00     0.032 A 
HETATM   18  C14 UNL     1       3.828  -0.975  -0.618  1.00  0.00     0.060 A 
HETATM   19  N2  UNL     1       5.133  -1.077  -1.009  1.00  0.00    -0.340 N 
HETATM   20  C21 UNL     1       3.587   0.311  -0.216  1.00  0.00     0.061 A 
HETATM   21  C15 UNL     1       5.699   0.127  -0.855  1.00  0.00     0.116 A 
ATOM     22  H2  UNL     1       5.593  -1.919  -1.356  1.00  0.00     0.167 HD
HETATM   23  N4  UNL     1       4.754   0.970  -0.371  1.00  0.00    -0.340 N 
ATOM     24  H4  UNL     1       4.903   1.956  -0.156  1.00  0.00     0.167 HD
HETATM   25  C22 UNL     1       2.345   0.711   0.235  1.00  0.00     0.044 A 
BRANCH  21  26
HETATM   26  C16 UNL     1       7.066   0.544  -1.131  1.00  0.00     0.011 A 
HETATM   27  C17 UNL     1       7.512   1.831  -0.936  1.00  0.00     0.032 A 
HETATM   28  C18 UNL     1       8.834   2.183  -1.211  1.00  0.00     0.088 A 
HETATM   29  N3  UNL     1       9.667   1.234  -1.674  1.00  0.00    -0.375 N 
HETATM   30  C19 UNL     1       9.276  -0.034  -1.879  1.00  0.00     0.088 A 
ATOM     31  H3  UNL     1      10.634   1.488  -1.877  1.00  0.00     0.164 HD
HETATM   32  C20 UNL     1       7.955  -0.392  -1.605  1.00  0.00     0.032 A 
ENDBRANCH  21  26
ENDBRANCH  12  15
BRANCH   1  33
HETATM   33  C2  UNL     1      -2.091  -0.892   0.178  1.00  0.00     0.229 C 
BRANCH  33  34
HETATM   34  C1  UNL     1      -3.039   0.211   0.405  1.00  0.00     0.239 C 
HETATM   35  O1  UNL     1      -2.821   1.106   1.296  1.00  0.00    -0.271 OA
HETATM   36  N5  UNL     1      -4.261   0.397  -0.316  1.00  0.00    -0.329 N 
HETATM   37  C23 UNL     1      -5.080   1.534   0.041  1.00  0.00     0.133 C 
HETATM   38  C28 UNL     1      -4.496  -0.608  -1.320  1.00  0.00     0.305 C 
HETATM   39  C24 UNL     1      -5.463   2.402  -1.124  1.00  0.00     0.064 C 
HETATM   40  C25 UNL     1      -6.569   1.732  -1.828  1.00  0.00     0.013 A 
HETATM   41  C26 UNL     1      -7.661   2.360  -2.337  1.00  0.00     0.118 A 
HETATM   42  C27 UNL     1      -6.697   0.377  -2.092  1.00  0.00     0.166 A 
HETATM   43  N6  UNL     1      -8.419   1.379  -2.893  1.00  0.00    -0.309 N 
HETATM   44  N7  UNL     1      -7.837   0.212  -2.741  1.00  0.00    -0.280 N 
ATOM     45  H6  UNL     1      -9.313   1.528  -3.362  1.00  0.00     0.186 HD
ATOM     46  H7  UNL     1      -8.206  -0.680  -3.071  1.00  0.00     0.189 HD
HETATM   47  O5  UNL     1      -5.842  -0.650  -1.770  1.00  0.00    -0.314 OA
ENDBRANCH  33  34
ENDBRANCH   1  33
TORSDOF 5
