REMARK  6 active torsions:
REMARK  status: ('A' for Active; 'I' for Inactive)
REMARK    1  A    between atoms: N1_1  and  C1_4 
REMARK    2  A    between atoms: C2_7  and  C3_8 
REMARK    3  A    between atoms: C6_11  and  N3_12 
REMARK    4  A    between atoms: C14_25  and  N6_26 
REMARK    5  A    between atoms: N6_26  and  N7_28 
REMARK       I    between atoms: N7_28  and  C15_30 
REMARK       I    between atoms: C15_30  and  N8_32 
REMARK    6  A    between atoms: C20_40  and  N10_41 
ROOT
HETATM    1  C1  UNL     1       0.819  -1.228  -0.369  1.00  0.00     0.118 A 
HETATM    2  N2  UNL     1       2.136  -0.930  -0.296  1.00  0.00    -0.327 N 
ATOM      3  H2  UNL     1       2.803  -1.698  -0.372  1.00  0.00     0.169 HD
HETATM    4  C2  UNL     1       2.624   0.306  -0.131  1.00  0.00     0.118 A 
HETATM    5  N4  UNL     1       1.755   1.310  -0.032  1.00  0.00    -0.327 N 
ATOM      6  H4  UNL     1       2.095   2.263   0.094  1.00  0.00     0.169 HD
HETATM    7  C13 UNL     1       0.425   1.074  -0.098  1.00  0.00     0.140 A 
HETATM    8  N5  UNL     1      -0.444   2.087   0.023  1.00  0.00    -0.174 N 
ATOM      9  H5  UNL     1      -0.082   3.032   0.150  1.00  0.00     0.186 HD
HETATM   10  C14 UNL     1      -1.772   1.904  -0.017  1.00  0.00     0.700 A 
HETATM   11  N9  UNL     1      -2.258   0.676  -0.184  1.00  0.00    -0.174 N 
ATOM     12  H9  UNL     1      -3.269   0.546  -0.213  1.00  0.00     0.186 HD
HETATM   13  C20 UNL     1      -1.440  -0.427  -0.319  1.00  0.00     0.137 A 
HETATM   14  C28 UNL     1      -0.097  -0.220  -0.272  1.00  0.00     0.097 A 
ENDROOT
BRANCH   4  15
HETATM   15  C3  UNL     1       4.074   0.539  -0.059  1.00  0.00     0.008 A 
HETATM   16  C4  UNL     1       4.929  -0.563  -0.166  1.00  0.00     0.017 A 
HETATM   17  C5  UNL     1       6.288  -0.420  -0.107  1.00  0.00     0.030 A 
HETATM   18  C6  UNL     1       6.845   0.819   0.060  1.00  0.00     0.030 A 
HETATM   19  C11 UNL     1       5.993   1.912   0.165  1.00  0.00     0.030 A 
HETATM   20  C12 UNL     1       4.618   1.786   0.108  1.00  0.00     0.017 A 
BRANCH  18  21
HETATM   21  N3  UNL     1       8.254   0.943   0.106  1.00  0.00    -0.379 N 
HETATM   22  C7  UNL     1       9.069  -0.151  -0.330  1.00  0.00     0.133 C 
HETATM   23  C8  UNL     1      10.421   0.268  -0.874  1.00  0.00     0.093 C 
HETATM   24  S1  UNL     1      11.336   1.236   0.386  1.00  0.00    -0.166 SA
HETATM   25  C9  UNL     1      10.043   1.871   1.512  1.00  0.00     0.093 C 
HETATM   26  C10 UNL     1       8.841   2.188   0.609  1.00  0.00     0.133 C 
ENDBRANCH  18  21
ENDBRANCH   4  15
BRANCH   1  27
HETATM   27  N1  UNL     1       0.441  -2.441  -0.497  1.00  0.00    -0.385 N 
ATOM     28  H12 UNL     1       1.125  -3.194  -0.569  1.00  0.00     0.157 HD
ATOM     29  H11 UNL     1      -0.552  -2.666  -0.552  1.00  0.00     0.157 HD
ENDBRANCH   1  27
BRANCH  13  30
HETATM   30  N10 UNL     1      -2.057  -1.673  -0.556  1.00  0.00    -0.364 N 
HETATM   31  C21 UNL     1      -2.423  -2.373  -1.765  1.00  0.00     0.135 A 
HETATM   32  C22 UNL     1      -3.099  -3.473  -0.984  1.00  0.00    -0.008 A 
HETATM   33  C23 UNL     1      -2.565  -4.858  -1.201  1.00  0.00     0.013 C 
HETATM   34  C26 UNL     1      -4.571  -3.617  -1.189  1.00  0.00     0.013 C 
HETATM   35  C27 UNL     1      -2.643  -2.751   0.227  1.00  0.00     0.135 A 
HETATM   36  C24 UNL     1      -3.590  -5.720  -0.494  1.00  0.00     0.001 C 
HETATM   37  C25 UNL     1      -4.894  -4.952  -0.550  1.00  0.00     0.001 C 
ENDBRANCH  13  30
BRANCH  10  38
HETATM   38  N6  UNL     1      -2.548   2.951   0.113  1.00  0.00    -0.128 N 
ATOM     39  H6  UNL     1      -2.164   3.887   0.243  1.00  0.00     0.205 HD
BRANCH  38  40
HETATM   40  N7  UNL     1      -3.921   2.727   0.066  1.00  0.00    -0.237 N 
HETATM   41  C15 UNL     1      -4.768   2.973   1.182  1.00  0.00     0.337 C 
HETATM   42  O1  UNL     1      -4.307   3.408   2.272  1.00  0.00    -0.245 OA
HETATM   43  N8  UNL     1      -6.154   2.732   1.087  1.00  0.00    -0.329 N 
HETATM   44  C16 UNL     1      -7.001   2.989   2.225  1.00  0.00     0.153 C 
HETATM   45  C19 UNL     1      -6.695   2.229  -0.162  1.00  0.00     0.153 C 
HETATM   46  C17 UNL     1      -8.317   3.595   1.815  1.00  0.00     0.187 C 
HETATM   47  O2  UNL     1      -8.446   3.640   0.437  1.00  0.00    -0.388 OA
HETATM   48  C18 UNL     1      -8.206   2.404  -0.157  1.00  0.00     0.187 C 
ATOM     49  H7  UNL     1      -4.334   2.375  -0.798  1.00  0.00     0.192 HD
ENDBRANCH  38  40
ENDBRANCH  10  38
TORSDOF 6
