REMARK  5 active torsions:
REMARK  status: ('A' for Active; 'I' for Inactive)
REMARK    1  A    between atoms: N2_4  and  O1_6 
REMARK    2  A    between atoms: O1_6  and  C1_7 
REMARK    3  A    between atoms: C1_7  and  C2_9 
REMARK    4  A    between atoms: C3_10  and  C4_11 
REMARK    5  A    between atoms: C5_16  and  N5_17 
ROOT
HETATM    1  C2  UNL     1       0.569  -0.381   0.058  1.00  0.00     0.142 A 
HETATM    2  C3  UNL     1      -0.658   0.268   0.053  1.00  0.00     0.136 A 
HETATM    3  N4  UNL     1      -1.768  -0.480  -0.111  1.00  0.00    -0.186 N 
ATOM      4  H4  UNL     1      -2.670  -0.004  -0.115  1.00  0.00     0.184 HD
HETATM    5  C5  UNL     1      -1.758  -1.815  -0.270  1.00  0.00     0.679 A 
HETATM    6  N6  UNL     1      -0.572  -2.442  -0.265  1.00  0.00    -0.155 N 
ATOM      7  H6  UNL     1      -0.538  -3.455  -0.383  1.00  0.00     0.187 HD
HETATM    8  C6  UNL     1       0.568  -1.756  -0.107  1.00  0.00     0.278 A 
HETATM    9  O4  UNL     1       1.663  -2.376  -0.107  1.00  0.00    -0.266 OA
ENDROOT
BRANCH   1  10
HETATM   10  C1  UNL     1       1.798   0.381   0.234  1.00  0.00     0.324 C 
HETATM   11  O2  UNL     1       2.268   0.587   1.383  1.00  0.00    -0.257 OA
BRANCH  10  12
HETATM   12  O1  UNL     1       2.497   0.908  -0.840  1.00  0.00    -0.179 OA
BRANCH  12  13
HETATM   13  N2  UNL     1       3.642   1.623  -0.739  1.00  0.00    -0.205 N 
HETATM   14  N1  UNL     1       4.584   1.417   0.051  1.00  0.00    -0.325 N 
ATOM     15  H12 UNL     1       4.463   0.623   0.680  1.00  0.00     0.178 HD
ATOM     16  H11 UNL     1       5.447   1.956   0.127  1.00  0.00     0.178 HD
ATOM     17  H2  UNL     1       3.745   2.413  -1.376  1.00  0.00     0.216 HD
ENDBRANCH  12  13
ENDBRANCH  10  12
ENDBRANCH   1  10
BRANCH   2  18
HETATM   18  C4  UNL     1      -0.779   1.704   0.215  1.00  0.00     0.283 C 
HETATM   19  N3  UNL     1      -2.065   2.294   0.203  1.00  0.00    -0.056 NA
HETATM   20  O3  UNL     1       0.261   2.384   0.360  1.00  0.00    -0.269 OA
ENDBRANCH   2  18
BRANCH   5  21
HETATM   21  N5  UNL     1      -2.826  -2.522  -0.426  1.00  0.00    -0.234 N 
ATOM     22  H52 UNL     1      -3.728  -2.045  -0.430  1.00  0.00     0.174 HD
ATOM     23  H51 UNL     1      -2.818  -3.535  -0.547  1.00  0.00     0.174 HD
ENDBRANCH   5  21
TORSDOF 5
