REMARK  4 active torsions:
REMARK  status: ('A' for Active; 'I' for Inactive)
REMARK    1  A    between atoms: C4_5  and  C5_6 
REMARK    2  A    between atoms: C7_11  and  S2_12 
REMARK    3  A    between atoms: S2_12  and  C8_13 
REMARK    4  A    between atoms: C11_18  and  S3_19 
ROOT
HETATM    1  C5  UNL     1       1.036  -0.147  -0.440  1.00  0.00     0.074 A 
HETATM    2  C6  UNL     1       0.158   0.526   0.430  1.00  0.00     0.134 A 
HETATM    3  N1  UNL     1       0.631   1.555   1.265  1.00  0.00    -0.082 NA
HETATM    4  N2  UNL     1      -1.128   0.162   0.449  1.00  0.00    -0.324 N 
ATOM      5  H2  UNL     1      -1.769   0.647   1.077  1.00  0.00     0.169 HD
HETATM    6  C7  UNL     1      -1.602  -0.821  -0.331  1.00  0.00     0.146 A 
HETATM    7  N3  UNL     1      -0.747  -1.423  -1.132  1.00  0.00    -0.330 N 
ATOM      8  H3  UNL     1      -1.104  -2.171  -1.726  1.00  0.00     0.168 HD
HETATM    9  C11 UNL     1       0.613  -1.114  -1.229  1.00  0.00     0.103 A 
ENDROOT
BRANCH   1  10
HETATM   10  C4  UNL     1       2.450   0.288  -0.350  1.00  0.00     0.090 A 
HETATM   11  S1  UNL     1       2.967   1.827   0.282  1.00  0.00    -0.081 SA
HETATM   12  C3  UNL     1       4.650   1.590   0.253  1.00  0.00     0.076 A 
HETATM   13  C2  UNL     1       4.722   0.322  -0.249  1.00  0.00     0.012 A 
HETATM   14  C1  UNL     1       6.074  -0.340  -0.460  1.00  0.00     0.068 C 
HETATM   15  N4  UNL     1       3.607  -0.276  -0.531  1.00  0.00    -0.353 N 
ATOM     16  H4  UNL     1       3.639  -1.223  -0.908  1.00  0.00     0.166 HD
ENDBRANCH   1  10
BRANCH   9  17
HETATM   17  S3  UNL     1       1.397  -1.866  -2.430  1.00  0.00    -0.000 SA
HETATM   18 CL1  UNL     1       3.324  -1.507  -3.099  1.00  0.00    -0.037 Cl
ENDBRANCH   9  17
BRANCH   6  19
HETATM   19  S2  UNL     1      -3.306  -1.344  -0.346  1.00  0.00    -0.090 SA
BRANCH  19  20
HETATM   20  C8  UNL     1      -4.319  -0.377   0.781  1.00  0.00     0.047 C 
HETATM   21  C9  UNL     1      -4.419   1.054   0.286  1.00  0.00     0.021 C 
HETATM   22  C10 UNL     1      -5.731  -0.919   0.848  1.00  0.00     0.021 C 
ENDBRANCH  19  20
ENDBRANCH   6  19
TORSDOF 4
