REMARK  5 active torsions:
REMARK  status: ('A' for Active; 'I' for Inactive)
REMARK    1  A    between atoms: N1_2  and  C2_4 
REMARK    2  A    between atoms: C6_14  and  N4_15 
REMARK    3  A    between atoms: N4_15  and  C7_17 
REMARK    4  A    between atoms: C10_20  and  N5_21 
REMARK    5  A    between atoms: N5_21  and  N6_23 
ROOT
HETATM    1  C2  UNL     1      -2.775  -1.361  -0.135  1.00  0.00     0.680 A 
HETATM    2  N2  UNL     1      -3.585  -1.013  -1.144  1.00  0.00    -0.183 N 
ATOM      3  H2  UNL     1      -4.434  -1.552  -1.311  1.00  0.00     0.185 HD
HETATM    4  C3  UNL     1      -3.296   0.053  -1.956  1.00  0.00     0.123 A 
HETATM    5  S1  UNL     1      -4.023   0.815  -3.306  1.00  0.00    -0.039 SA
HETATM    6  C4  UNL     1      -2.865   2.044  -3.562  1.00  0.00     0.148 A 
HETATM    7 CL1  UNL     1      -2.815   3.321  -4.777  1.00  0.00    -0.056 Cl
HETATM    8  N3  UNL     1      -1.987   1.809  -2.606  1.00  0.00    -0.336 N 
ATOM      9  H3  UNL     1      -1.164   2.403  -2.512  1.00  0.00     0.167 HD
HETATM   10  C5  UNL     1      -2.174   0.811  -1.778  1.00  0.00     0.113 A 
HETATM   11  C6  UNL     1      -1.332   0.438  -0.718  1.00  0.00     0.147 A 
HETATM   12  N8  UNL     1      -1.673  -0.610   0.033  1.00  0.00    -0.175 N 
ATOM     13  H8  UNL     1      -1.046  -0.862   0.797  1.00  0.00     0.186 HD
ENDROOT
BRANCH  11  14
HETATM   14  N4  UNL     1      -0.156   1.152  -0.428  1.00  0.00    -0.369 N 
ATOM     15  H4  UNL     1       0.064   1.967  -1.001  1.00  0.00     0.161 HD
BRANCH  14  16
HETATM   16  C7  UNL     1       0.762   0.799   0.636  1.00  0.00     0.083 C 
HETATM   17  C8  UNL     1       1.425  -0.494   0.315  1.00  0.00     0.027 C 
HETATM   18  C9  UNL     1       2.863  -0.336  -0.177  1.00  0.00     0.029 C 
HETATM   19  C10 UNL     1       3.589   0.302   1.004  1.00  0.00     0.101 C 
HETATM   20  C11 UNL     1       3.090   1.692   1.153  1.00  0.00     0.029 C 
HETATM   21  C12 UNL     1       1.655   1.943   0.983  1.00  0.00     0.027 C 
BRANCH  19  22
HETATM   22  N5  UNL     1       3.227  -0.447   2.193  1.00  0.00    -0.318 N 
ATOM     23  H5  UNL     1       2.320  -0.324   2.642  1.00  0.00     0.182 HD
BRANCH  22  24
HETATM   24  N6  UNL     1       4.059  -1.237   2.637  1.00  0.00    -0.253 N 
HETATM   25  N7  UNL     1       4.549  -2.340   2.904  1.00  0.00    -0.331 N 
ATOM     26  H72 UNL     1       3.813  -2.935   2.523  1.00  0.00     0.178 HD
ATOM     27  H71 UNL     1       5.239  -2.995   3.272  1.00  0.00     0.178 HD
ATOM     28  H6  UNL     1       4.769  -0.603   3.004  1.00  0.00     0.207 HD
ENDBRANCH  22  24
ENDBRANCH  19  22
ENDBRANCH  14  16
ENDBRANCH  11  14
BRANCH   1  29
HETATM   29  N1  UNL     1      -3.037  -2.357   0.630  1.00  0.00    -0.230 N 
HETATM   30  C1  UNL     1      -4.191  -3.194   0.503  1.00  0.00     0.165 C 
ATOM     31  H1  UNL     1      -2.378  -2.567   1.380  1.00  0.00     0.177 HD
ENDBRANCH   1  29
TORSDOF 5
