REMARK  6 active torsions:
REMARK  status: ('A' for Active; 'I' for Inactive)
REMARK    1  A    between atoms: S1_2  and  C2_3 
REMARK    2  A    between atoms: C2_3  and  S2_7 
REMARK    3  A    between atoms: S2_7  and  S3_8 
REMARK    4  A    between atoms: S3_8  and  S4_9 
REMARK    5  A    between atoms: S4_9  and  C3_10 
REMARK    6  A    between atoms: N3_12  and  C4_14 
ROOT
HETATM    1  C4  UNL     1      -2.569  -0.230  -0.953  1.00  0.00     0.054 A 
HETATM    2  C5  UNL     1      -3.193  -0.943  -1.956  1.00  0.00     0.034 A 
HETATM    3  C6  UNL     1      -4.506  -1.328  -1.796  1.00  0.00     0.044 A 
HETATM    4  C7  UNL     1      -5.217  -1.012  -0.642  1.00  0.00     0.117 A 
HETATM    5  F1  UNL     1      -6.496  -1.367  -0.446  1.00  0.00    -0.206 F 
HETATM    6  C8  UNL     1      -4.576  -0.297   0.352  1.00  0.00     0.067 A 
HETATM    7  C9  UNL     1      -3.271   0.092   0.206  1.00  0.00     0.074 A 
HETATM    8  C10 UNL     1      -2.575   0.845   1.237  1.00  0.00     0.102 C 
HETATM    9  N4  UNL     1      -2.038   1.454   2.062  1.00  0.00    -0.191 NA
ENDROOT
BRANCH   1  10
HETATM   10  N3  UNL     1      -1.227   0.151  -1.142  1.00  0.00    -0.337 N 
HETATM   11  C3  UNL     1      -0.216  -0.345  -0.547  1.00  0.00     0.166 C 
HETATM   12  N2  UNL     1      -0.332  -1.390   0.421  1.00  0.00    -0.074 NA
ATOM     13  H3  UNL     1      -1.048   0.893  -1.818  1.00  0.00     0.167 HD
BRANCH  11  14
HETATM   14  S4  UNL     1       1.397   0.297  -0.949  1.00  0.00    -0.013 SA
BRANCH  14  15
HETATM   15  S3  UNL     1       2.937  -0.654   0.141  1.00  0.00    -0.010 SA
BRANCH  15  16
HETATM   16  S2  UNL     1       3.380   0.244   1.958  1.00  0.00    -0.021 SA
BRANCH  16  17
HETATM   17  C2  UNL     1       4.610   1.498   1.956  1.00  0.00     0.112 C 
HETATM   18  N1  UNL     1       4.751   2.133   3.073  1.00  0.00    -0.388 N 
ATOM     19  H12 UNL     1       5.465   2.861   3.072  1.00  0.00     0.157 HD
ATOM     20  H11 UNL     1       4.161   1.880   3.866  1.00  0.00     0.157 HD
BRANCH  17  21
HETATM   21  S1  UNL     1       5.621   1.932   0.597  1.00  0.00    -0.109 SA
HETATM   22  C1  UNL     1       5.408   0.870  -0.822  1.00  0.00     0.097 C 
ENDBRANCH  17  21
ENDBRANCH  16  17
ENDBRANCH  15  16
ENDBRANCH  14  15
ENDBRANCH  11  14
ENDBRANCH   1  10
TORSDOF 6
