REMARK  6 active torsions:
REMARK  status: ('A' for Active; 'I' for Inactive)
REMARK    1  A    between atoms: N1_6  and  N2_7 
REMARK    2  A    between atoms: N2_7  and  C6_9 
REMARK    3  A    between atoms: C6_9  and  S1_13 
REMARK    4  A    between atoms: S1_13  and  C7_14 
REMARK    5  A    between atoms: C7_14  and  C8_15 
REMARK    6  A    between atoms: C9_17  and  C10_18 
ROOT
HETATM    1  C6  UNL     1      -0.945   0.938   1.330  1.00  0.00     0.154 C 
HETATM    2  N3  UNL     1      -1.054   0.213   2.366  1.00  0.00    -0.379 N 
ATOM      3  H31 UNL     1      -0.672   0.536   3.255  1.00  0.00     0.158 HD
ATOM      4  H32 UNL     1      -1.531  -0.687   2.311  1.00  0.00     0.158 HD
ENDROOT
BRANCH   1   5
HETATM    5  N2  UNL     1      -1.481   0.484   0.082  1.00  0.00    -0.259 N 
ATOM      6  H2  UNL     1      -0.944   0.561  -0.781  1.00  0.00     0.191 HD
BRANCH   5   7
HETATM    7  N1  UNL     1      -2.777  -0.074   0.086  1.00  0.00    -0.199 N 
HETATM    8  C4  UNL     1      -3.456  -0.513  -0.960  1.00  0.00     0.050 A 
HETATM    9  C3  UNL     1      -4.689  -0.992  -0.463  1.00  0.00     0.054 A 
HETATM   10  C5  UNL     1      -3.107  -0.534  -2.398  1.00  0.00     0.072 C 
HETATM   11  C2  UNL     1      -4.690  -0.811   0.899  1.00  0.00     0.026 A 
HETATM   12  C1  UNL     1      -5.763  -1.147   1.877  1.00  0.00     0.070 C 
HETATM   13  N5  UNL     1      -3.494  -0.243   1.199  1.00  0.00    -0.284 N 
ATOM     14  H5  UNL     1      -3.188   0.016   2.137  1.00  0.00     0.188 HD
ENDBRANCH   5   7
ENDBRANCH   1   5
BRANCH   1  15
HETATM   15  S1  UNL     1      -0.114   2.504   1.425  1.00  0.00    -0.086 SA
BRANCH  15  16
HETATM   16  C7  UNL     1       0.394   3.047  -0.254  1.00  0.00     0.150 C 
BRANCH  16  17
HETATM   17  C8  UNL     1       1.506   2.096  -0.621  1.00  0.00     0.103 A 
HETATM   18  O1  UNL     1       1.977   1.123   0.098  1.00  0.00    -0.297 OA
HETATM   19  C9  UNL     1       2.942   0.466  -0.465  1.00  0.00     0.133 A 
HETATM   20  N4  UNL     1       3.119   1.058  -1.652  1.00  0.00    -0.328 N 
HETATM   21  C14 UNL     1       2.250   2.083  -1.803  1.00  0.00     0.136 A 
ATOM     22  H4  UNL     1       3.812   0.776  -2.345  1.00  0.00     0.168 HD
HETATM   23 CL1  UNL     1       2.025   3.184  -3.109  1.00  0.00    -0.062 Cl
BRANCH  19  24
HETATM   24  C10 UNL     1       3.639  -0.689   0.162  1.00  0.00     0.014 C 
HETATM   25  C11 UNL     1       5.021  -0.265   0.664  1.00  0.00     0.023 C 
HETATM   26  C12 UNL     1       3.846  -1.825  -0.784  1.00  0.00     0.023 C 
HETATM   27  C13 UNL     1       2.866  -1.099   1.392  1.00  0.00     0.023 C 
ENDBRANCH  19  24
ENDBRANCH  16  17
ENDBRANCH  15  16
ENDBRANCH   1  15
TORSDOF 6
