REMARK  5 active torsions:
REMARK  status: ('A' for Active; 'I' for Inactive)
REMARK    1  A    between atoms: C4_5  and  O1_6 
REMARK    2  A    between atoms: C4_5  and  C7_9 
REMARK    3  A    between atoms: O1_6  and  C5_7 
REMARK    4  A    between atoms: C9_11  and  C10_12 
REMARK    5  A    between atoms: N1_14  and  N2_16 
ROOT
HETATM    1  C1  UNL     1      -3.071   3.824  -1.318  1.00  0.00     0.105 C 
HETATM    2  C2  UNL     1      -3.633   2.739  -1.194  1.00  0.00    -0.116 C 
HETATM    3  C3  UNL     1      -4.312   1.492  -1.079  1.00  0.00     0.191 C 
HETATM    4  F1  UNL     1      -5.654   1.506  -1.252  1.00  0.00    -0.194 F 
HETATM    5  C4  UNL     1      -3.694   0.389  -0.819  1.00  0.00     0.128 C 
ENDROOT
BRANCH   5   6
HETATM    6  O1  UNL     1      -4.466  -0.791  -0.732  1.00  0.00    -0.347 OA
BRANCH   6   7
HETATM    7  C5  UNL     1      -4.645  -1.421   0.522  1.00  0.00     0.171 C 
HETATM    8  C6  UNL     1      -5.495  -2.638   0.358  1.00  0.00     0.034 C 
ENDBRANCH   6   7
ENDBRANCH   5   6
BRANCH   5   9
HETATM    9  C7  UNL     1      -2.227   0.242  -0.599  1.00  0.00     0.034 A 
HETATM   10  C8  UNL     1      -1.533   1.064   0.210  1.00  0.00     0.038 A 
HETATM   11  C9  UNL     1      -0.180   0.848   0.330  1.00  0.00     0.031 A 
HETATM   12  S1  UNL     1       0.071  -0.503  -0.694  1.00  0.00    -0.073 SA
HETATM   13  C17 UNL     1      -1.518  -0.748  -1.236  1.00  0.00     0.101 A 
HETATM   14  N4  UNL     1      -2.049  -1.742  -2.146  1.00  0.00    -0.093 NA
BRANCH  11  15
HETATM   15  C10 UNL     1       0.788   1.594   1.127  1.00  0.00     0.039 C 
HETATM   16  C11 UNL     1       0.332   2.745   1.914  1.00  0.00     0.071 C 
HETATM   17  N1  UNL     1       2.003   1.249   1.135  1.00  0.00    -0.304 N 
ATOM     18  H1  UNL     1       2.677   1.773   1.694  1.00  0.00     0.186 HD
BRANCH  17  19
HETATM   19  N2  UNL     1       2.424   0.157   0.384  1.00  0.00    -0.303 N 
HETATM   20  C12 UNL     1       3.668  -0.037   0.134  1.00  0.00     0.045 C 
HETATM   21  C13 UNL     1       4.273  -1.116  -0.626  1.00  0.00     0.052 C 
HETATM   22  C16 UNL     1       4.803   0.810   0.568  1.00  0.00     0.178 C 
HETATM   23  C14 UNL     1       5.573  -1.210  -0.294  1.00  0.00     0.003 C 
HETATM   24  C15 UNL     1       6.506  -2.209  -0.878  1.00  0.00     0.068 C 
HETATM   25  N3  UNL     1       5.857  -0.209   0.681  1.00  0.00    -0.388 N 
ATOM     26  H3  UNL     1       6.642  -0.201   1.333  1.00  0.00     0.159 HD
ATOM     27  H2  UNL     1       1.732  -0.501   0.026  1.00  0.00     0.186 HD
ENDBRANCH  17  19
ENDBRANCH  11  15
ENDBRANCH   5   9
TORSDOF 5
