REMARK  4 active torsions:
REMARK  status: ('A' for Active; 'I' for Inactive)
REMARK    1  A    between atoms: C3_6  and  C4_7 
REMARK    2  A    between atoms: C4_7  and  N2_8 
REMARK    3  A    between atoms: C4_7  and  C10_19 
REMARK       I    between atoms: N2_8  and  C5_10 
REMARK    4  A    between atoms: C5_10  and  C6_12 
ROOT
HETATM    1  C4  UNL     1      -0.205  -1.241   0.097  1.00  0.00     0.140 C 
ENDROOT
BRANCH   1   2
HETATM    2  C3  UNL     1      -1.035  -0.839  -1.039  1.00  0.00     0.064 A 
HETATM    3  N1  UNL     1      -2.292  -1.217  -1.343  1.00  0.00    -0.263 N 
HETATM    4  O1  UNL     1      -2.699  -0.647  -2.435  1.00  0.00    -0.242 OA
ATOM      5  H1  UNL     1      -2.850  -1.866  -0.788  1.00  0.00     0.194 HD
HETATM    6  C2  UNL     1      -1.765   0.128  -2.917  1.00  0.00     0.080 A 
HETATM    7  C1  UNL     1      -1.814   0.971  -4.158  1.00  0.00     0.079 C 
HETATM    8  C13 UNL     1      -0.681   0.039  -2.058  1.00  0.00    -0.004 A 
HETATM    9  C14 UNL     1       0.572   0.761  -2.248  1.00  0.00     0.053 C 
ENDBRANCH   1   2
BRANCH   1  10
HETATM   10  N2  UNL     1       0.330  -0.093   0.859  1.00  0.00    -0.346 N 
HETATM   11  C5  UNL     1       1.712   0.055   0.974  1.00  0.00     0.260 C 
HETATM   12  O2  UNL     1       2.502  -0.806   0.418  1.00  0.00    -0.267 OA
ATOM     13  H2  UNL     1      -0.301   0.580   1.294  1.00  0.00     0.163 HD
BRANCH  11  14
HETATM   14  C6  UNL     1       2.381   1.143   1.696  1.00  0.00     0.091 A 
HETATM   15  S1  UNL     1       4.118   1.318   1.835  1.00  0.00    -0.071 SA
HETATM   16  C7  UNL     1       4.178   2.728   2.760  1.00  0.00     0.076 A 
HETATM   17 CL1  UNL     1       5.567   3.634   3.372  1.00  0.00    -0.076 Cl
HETATM   18  C8  UNL     1       2.873   3.042   2.947  1.00  0.00     0.052 A 
HETATM   19  C9  UNL     1       1.937   2.220   2.396  1.00  0.00     0.036 A 
HETATM   20  S2  UNL     1       0.141   2.566   2.597  1.00  0.00    -0.051 SA
ENDBRANCH  11  14
ENDBRANCH   1  10
BRANCH   1  21
HETATM   21  C10 UNL     1      -0.902  -2.195   1.038  1.00  0.00     0.006 C 
HETATM   22  C11 UNL     1      -2.143  -1.650   1.644  1.00  0.00     0.012 C 
HETATM   23  C12 UNL     1      -1.215  -3.505   0.356  1.00  0.00     0.012 C 
ENDBRANCH   1  21
TORSDOF 4
