REMARK  10 active torsions:
REMARK  status: ('A' for Active; 'I' for Inactive)
REMARK       I    between atoms: C2_2  and  N1_4 
REMARK    1  A    between atoms: N1_4  and  C4_6 
REMARK    2  A    between atoms: C6_8  and  C7_9 
REMARK    3  A    between atoms: C7_9  and  O3_11 
REMARK    4  A    between atoms: O3_11  and  C8_12 
REMARK    5  A    between atoms: C8_12  and  C9_13 
REMARK    6  A    between atoms: C9_13  and  C10_14 
REMARK    7  A    between atoms: C10_14  and  C11_15 
REMARK    8  A    between atoms: C19_23  and  C20_24 
REMARK    9  A    between atoms: C20_24  and  O4_25 
REMARK   10  A    between atoms: N2_27  and  O5_29 
ROOT
HETATM    1  C4  UNL     1      -3.697   0.495   0.484  1.00  0.00     0.052 A 
HETATM    2  C5  UNL     1      -2.388   0.869   0.824  1.00  0.00     0.048 A 
HETATM    3  C6  UNL     1      -1.450  -0.034   1.269  1.00  0.00     0.041 A 
HETATM    4  C17 UNL     1      -1.866  -1.344   1.363  1.00  0.00     0.018 A 
HETATM    5  C18 UNL     1      -3.142  -1.729   1.034  1.00  0.00     0.019 A 
HETATM    6  C19 UNL     1      -4.102  -0.813   0.582  1.00  0.00     0.043 A 
ENDROOT
BRANCH   3   7
HETATM    7  C7  UNL     1      -0.101   0.405   1.619  1.00  0.00     0.293 C 
HETATM    8  O2  UNL     1       0.213   1.636   1.520  1.00  0.00    -0.259 OA
BRANCH   7   9
HETATM    9  O3  UNL     1       0.879  -0.452   2.063  1.00  0.00    -0.318 OA
BRANCH   9  10
HETATM   10  C8  UNL     1       2.194  -0.062   2.413  1.00  0.00     0.179 C 
BRANCH  10  11
HETATM   11  C9  UNL     1       2.945   0.581   1.273  1.00  0.00     0.027 C 
BRANCH  11  12
HETATM   12  C10 UNL     1       3.080  -0.344   0.097  1.00  0.00     0.007 C 
BRANCH  12  13
HETATM   13  C11 UNL     1       3.821   0.355  -1.008  1.00  0.00    -0.014 C 
HETATM   14  C12 UNL     1       4.003  -0.510  -2.230  1.00  0.00     0.004 C 
HETATM   15  C13 UNL     1       5.080  -1.535  -2.086  1.00  0.00     0.000 C 
HETATM   16  C14 UNL     1       6.386  -0.891  -1.664  1.00  0.00     0.000 C 
HETATM   17  C15 UNL     1       6.147  -0.229  -0.314  1.00  0.00     0.000 C 
HETATM   18  C16 UNL     1       5.149   0.905  -0.579  1.00  0.00     0.004 C 
ENDBRANCH  12  13
ENDBRANCH  11  12
ENDBRANCH  10  11
ENDBRANCH   9  10
ENDBRANCH   7   9
ENDBRANCH   3   7
BRANCH   1  19
HETATM   19  N1  UNL     1      -4.576   1.514   0.035  1.00  0.00    -0.322 N 
HETATM   20  C2  UNL     1      -4.765   1.775  -1.339  1.00  0.00     0.220 C 
HETATM   21  C1  UNL     1      -3.982   0.982  -2.323  1.00  0.00     0.117 C 
HETATM   22  O1  UNL     1      -5.560   2.642  -1.731  1.00  0.00    -0.274 OA
HETATM   23  C3  UNL     1      -5.281   2.336   0.995  1.00  0.00     0.159 C 
ENDBRANCH   1  19
BRANCH   6  24
HETATM   24  C20 UNL     1      -5.444  -1.277   0.257  1.00  0.00     0.172 C 
HETATM   25  N2  UNL     1      -5.698  -2.539   0.384  1.00  0.00    -0.247 N 
ATOM     26  H2  UNL     1      -4.944  -3.146   0.706  1.00  0.00     0.196 HD
BRANCH  24  27
HETATM   27  O4  UNL     1      -6.486  -0.491  -0.179  1.00  0.00    -0.344 OA
ATOM     28  H4  UNL     1      -7.361  -0.794  -0.391  1.00  0.00     0.219 HD
ENDBRANCH  24  27
BRANCH  25  29
HETATM   29  O5  UNL     1      -6.903  -3.111   0.117  1.00  0.00    -0.288 OA
ATOM     30  H5  UNL     1      -7.090  -4.038   0.210  1.00  0.00     0.244 HD
ENDBRANCH  25  29
ENDBRANCH   6  24
TORSDOF 10
