REMARK  6 active torsions:
REMARK  status: ('A' for Active; 'I' for Inactive)
REMARK    1  A    between atoms: C4_5  and  C5_6 
REMARK    2  A    between atoms: C5_6  and  C6_7 
REMARK    3  A    between atoms: C5_6  and  N2_17 
REMARK    4  A    between atoms: C11_14  and  O2_15 
REMARK    5  A    between atoms: C18_24  and  O3_25 
REMARK    6  A    between atoms: C20_27  and  O4_28 
ROOT
HETATM    1  C1  UNL     1       5.485  -2.094  -0.883  1.00  0.00     0.210 C 
HETATM    2  O1  UNL     1       4.340  -1.588  -0.629  1.00  0.00    -0.353 OA
HETATM    3  C2  UNL     1       3.135  -1.056  -0.362  1.00  0.00     0.104 A 
HETATM    4  C3  UNL     1       1.843  -1.340  -0.795  1.00  0.00     0.045 A 
HETATM    5  C4  UNL     1       0.733  -0.736  -0.327  1.00  0.00    -0.032 A 
HETATM    6  C17 UNL     1       0.800   0.275   0.739  1.00  0.00     0.104 A 
HETATM    7  C18 UNL     1       2.185   0.475   1.077  1.00  0.00     0.086 A 
HETATM    8  C20 UNL     1       3.278  -0.041   0.614  1.00  0.00     0.131 A 
ENDROOT
BRANCH   8   9
HETATM    9  O4  UNL     1       4.430   0.552   1.063  1.00  0.00    -0.351 OA
HETATM   10  C21 UNL     1       4.565   1.860   0.360  1.00  0.00     0.210 C 
ENDBRANCH   8   9
BRANCH   5  11
HETATM   11  C5  UNL     1      -0.599  -0.664  -1.006  1.00  0.00     0.304 C 
BRANCH  11  12
HETATM   12  C6  UNL     1      -0.949   0.879  -0.962  1.00  0.00     0.081 A 
HETATM   13  N1  UNL     1      -0.585   1.868  -1.157  1.00  0.00    -0.358 N 
HETATM   14  C7  UNL     1      -0.967   3.071  -0.986  1.00  0.00     0.014 A 
ATOM     15  H1  UNL     1       0.329   1.837  -1.609  1.00  0.00     0.165 HD
HETATM   16  C8  UNL     1      -0.849   4.498  -1.169  1.00  0.00     0.068 C 
HETATM   17  C9  UNL     1      -2.277   2.557  -0.308  1.00  0.00    -0.005 A 
HETATM   18  C10 UNL     1      -3.105   3.552   0.358  1.00  0.00     0.053 C 
HETATM   19  C11 UNL     1      -2.310   1.205  -0.293  1.00  0.00     0.098 A 
BRANCH  19  20
HETATM   20  O2  UNL     1      -3.309   0.327   0.158  1.00  0.00    -0.358 OA
ATOM     21  H2  UNL     1      -4.143   0.527   0.568  1.00  0.00     0.217 HD
ENDBRANCH  19  20
ENDBRANCH  11  12
BRANCH  11  22
HETATM   22  N2  UNL     1      -1.627  -1.432  -0.434  1.00  0.00     0.103 N 
HETATM   23  C12 UNL     1      -2.465  -1.972  -1.498  1.00  0.00     0.273 C 
HETATM   24  C13 UNL     1      -3.415  -2.967  -1.025  1.00  0.00     0.030 C 
HETATM   25  C14 UNL     1      -3.214  -3.611   0.278  1.00  0.00     0.003 C 
HETATM   26  C15 UNL     1      -2.145  -3.063   1.146  1.00  0.00     0.030 C 
HETATM   27  C16 UNL     1      -0.984  -2.558   0.264  1.00  0.00     0.273 C 
ENDBRANCH  11  22
ENDBRANCH   5  11
BRANCH   7  28
HETATM   28  O3  UNL     1       2.226   1.453   2.205  1.00  0.00    -0.357 OA
HETATM   29  C19 UNL     1       1.182   1.292   3.059  1.00  0.00     0.209 C 
ENDBRANCH   7  28
TORSDOF 6
