REMARK  1 active torsions:
REMARK  status: ('A' for Active; 'I' for Inactive)
REMARK    1  A    between atoms: C4_4  and  C5_5 
REMARK       I    between atoms: N2_7  and  C6_9 
REMARK       I    between atoms: C6_9  and  N3_11 
ROOT
HETATM    1  C1  UNL     1      -4.498   0.015   1.060  1.00  0.00     0.102 C 
HETATM    2  C2  UNL     1      -3.959  -0.308   0.004  1.00  0.00    -0.160 C 
HETATM    3  C3  UNL     1      -3.366  -0.695  -1.233  1.00  0.00     0.053 C 
HETATM    4  C4  UNL     1      -2.102  -0.544  -1.496  1.00  0.00     0.053 C 
ENDROOT
BRANCH   4   5
HETATM    5  C5  UNL     1      -1.116   0.025  -0.606  1.00  0.00     0.120 C 
HETATM    6  N1  UNL     1      -1.401   0.506   0.708  1.00  0.00    -0.083 NA
HETATM    7  N2  UNL     1       0.114   0.101  -1.034  1.00  0.00    -0.297 N 
HETATM    8  C6  UNL     1       1.114   0.652  -0.190  1.00  0.00     0.322 C 
ATOM      9  H2  UNL     1       0.355  -0.233  -1.967  1.00  0.00     0.171 HD
HETATM   10  O1  UNL     1       0.813   1.628   0.556  1.00  0.00    -0.247 OA
HETATM   11  N3  UNL     1       2.432   0.157  -0.149  1.00  0.00    -0.343 N 
HETATM   12  C7  UNL     1       3.400   0.759   0.726  1.00  0.00     0.154 C 
HETATM   13  C8  UNL     1       2.793  -0.954  -0.993  1.00  0.00     0.154 C 
ENDBRANCH   4   5
TORSDOF 1
