REMARK  1 active torsions:
REMARK  status: ('A' for Active; 'I' for Inactive)
REMARK    1  A    between atoms: C3_5  and  C4_6 
ROOT
HETATM    1  C4  UNL     1       2.681  -0.492  -0.043  1.00  0.00     0.294 C 
HETATM    2  O1  UNL     1       3.354   0.537   0.200  1.00  0.00    -0.272 OA
HETATM    3  C5  UNL     1       3.252  -1.777  -0.312  1.00  0.00     0.147 C 
HETATM    4  N2  UNL     1       3.696  -2.823  -0.529  1.00  0.00    -0.188 NA
ENDROOT
BRANCH   1   5
HETATM    5  C3  UNL     1       1.231  -0.364  -0.049  1.00  0.00     0.170 A 
HETATM    6  N1  UNL     1       0.320  -1.338  -0.286  1.00  0.00    -0.341 N 
HETATM    7  C2  UNL     1      -0.930  -0.857  -0.210  1.00  0.00     0.029 A 
ATOM      8  H1  UNL     1       0.554  -2.309  -0.495  1.00  0.00     0.167 HD
HETATM    9  C1  UNL     1      -2.193  -1.645  -0.414  1.00  0.00     0.070 C 
HETATM   10  C7  UNL     1      -0.818   0.485   0.088  1.00  0.00     0.031 A 
HETATM   11  N3  UNL     1       0.491   0.749   0.178  1.00  0.00    -0.336 N 
HETATM   12  C8  UNL     1      -1.980   1.384   0.258  1.00  0.00     0.070 C 
HETATM   13  C6  UNL     1       1.072   2.047   0.478  1.00  0.00     0.158 C 
ENDBRANCH   1   5
TORSDOF 1
