REMARK  3 active torsions:
REMARK  status: ('A' for Active; 'I' for Inactive)
REMARK    1  A    between atoms: C3_3  and  C4_4 
REMARK    2  A    between atoms: C4_4  and  N1_5 
REMARK       I    between atoms: N1_5  and  C5_7 
REMARK       I    between atoms: C5_7  and  N2_9 
REMARK    3  A    between atoms: C6_11  and  N3_12 
ROOT
HETATM    1  C1  UNL     1      -4.717  -0.981   1.091  1.00  0.00     0.112 C 
HETATM    2  C2  UNL     1      -3.645  -0.410   0.266  1.00  0.00    -0.109 C 
HETATM    3  C3  UNL     1      -2.776   0.076  -0.416  1.00  0.00    -0.087 C 
ENDROOT
BRANCH   3   4
HETATM    4  C4  UNL     1      -1.726   0.689  -1.262  1.00  0.00     0.218 C 
BRANCH   4   5
HETATM    5  N1  UNL     1      -0.729   1.281  -0.409  1.00  0.00    -0.332 N 
HETATM    6  C5  UNL     1      -0.011   0.471   0.512  1.00  0.00     0.321 C 
HETATM    7  O1  UNL     1      -0.221  -0.749   0.605  1.00  0.00    -0.247 OA
HETATM    8  N2  UNL     1       0.968   1.066   1.345  1.00  0.00    -0.305 N 
HETATM    9  C6  UNL     1       2.204   0.834   1.087  1.00  0.00     0.181 C 
ATOM     10  H2  UNL     1       0.699   1.662   2.128  1.00  0.00     0.171 HD
ATOM     11  H1  UNL     1      -0.538   2.281  -0.466  1.00  0.00     0.165 HD
BRANCH   9  12
HETATM   12  N3  UNL     1       2.661   0.020   0.022  1.00  0.00    -0.386 N 
HETATM   13  C7  UNL     1       2.330   0.295  -1.364  1.00  0.00     0.149 C 
HETATM   14  C8  UNL     1       3.500  -1.149   0.299  1.00  0.00     0.149 C 
ENDBRANCH   9  12
ENDBRANCH   4   5
ENDBRANCH   3   4
TORSDOF 3
