REMARK  5 active torsions:
REMARK  status: ('A' for Active; 'I' for Inactive)
REMARK    1  A    between atoms: C2_2  and  C4_4 
REMARK    2  A    between atoms: C11_11  and  C12_12 
REMARK    3  A    between atoms: C14_14  and  O1_15 
REMARK    4  A    between atoms: C15_17  and  C16_18 
REMARK    5  A    between atoms: C16_18  and  O2_21 
ROOT
HETATM    1  C4  UNL     1      -4.391   0.172   0.646  1.00  0.00     0.019 C 
HETATM    2  C5  UNL     1      -4.100  -1.048  -0.163  1.00  0.00     0.008 C 
HETATM    3  C6  UNL     1      -2.709  -1.531   0.222  1.00  0.00     0.006 C 
HETATM    4  C7  UNL     1      -1.698  -0.616  -0.482  1.00  0.00    -0.005 C 
HETATM    5  C8  UNL     1      -0.410  -1.343  -0.540  1.00  0.00    -0.002 C 
HETATM    6  C9  UNL     1       0.315  -1.180  -1.882  1.00  0.00     0.006 C 
HETATM    7  C10 UNL     1       1.799  -1.389  -1.546  1.00  0.00     0.008 C 
HETATM    8  C11 UNL     1       1.832  -1.647  -0.078  1.00  0.00     0.023 C 
HETATM    9  C19 UNL     1       0.654  -0.826   0.405  1.00  0.00    -0.034 C 
HETATM   10  C20 UNL     1       0.406  -1.248   1.838  1.00  0.00     0.016 C 
HETATM   11  C21 UNL     1       0.876   0.630   0.233  1.00  0.00     0.010 C 
HETATM   12  C22 UNL     1      -0.349   1.453   0.005  1.00  0.00     0.007 C 
HETATM   13  C23 UNL     1      -1.655   0.743   0.122  1.00  0.00     0.003 C 
HETATM   14  C24 UNL     1      -2.701   1.595  -0.558  1.00  0.00     0.008 C 
HETATM   15  C25 UNL     1      -2.632   1.677  -2.041  1.00  0.00     0.020 C 
HETATM   16  C26 UNL     1      -2.887   2.976   0.059  1.00  0.00     0.180 C 
HETATM   17  O4  UNL     1      -3.942   2.496   0.869  1.00  0.00    -0.384 OA
HETATM   18  C27 UNL     1      -4.067   1.451  -0.024  1.00  0.00     0.136 C 
ENDROOT
BRANCH   8  19
HETATM   19  C12 UNL     1       3.126  -1.341   0.590  1.00  0.00     0.129 C 
HETATM   20  C13 UNL     1       4.180  -2.245  -0.067  1.00  0.00     0.067 C 
HETATM   21  C14 UNL     1       5.284  -1.272  -0.425  1.00  0.00     0.152 C 
HETATM   22  C15 UNL     1       4.965  -0.099   0.463  1.00  0.00     0.184 C 
HETATM   23  O3  UNL     1       3.576  -0.052   0.387  1.00  0.00    -0.374 OA
BRANCH  21  24
HETATM   24  O1  UNL     1       6.545  -1.810  -0.179  1.00  0.00    -0.393 OA
ATOM     25  H1  UNL     1       7.238  -1.200  -0.404  1.00  0.00     0.210 HD
ENDBRANCH  21  24
BRANCH  22  26
HETATM   26  C16 UNL     1       5.553   1.193  -0.058  1.00  0.00     0.079 C 
HETATM   27  C17 UNL     1       7.035   1.275   0.162  1.00  0.00     0.048 C 
HETATM   28  C18 UNL     1       4.921   2.321   0.767  1.00  0.00     0.048 C 
BRANCH  26  29
HETATM   29  O2  UNL     1       5.208   1.425  -1.376  1.00  0.00    -0.388 OA
ATOM     30  H2  UNL     1       5.577   2.237  -1.703  1.00  0.00     0.210 HD
ENDBRANCH  26  29
ENDBRANCH  22  26
ENDBRANCH   8  19
BRANCH   1  31
HETATM   31  C2  UNL     1      -5.871   0.212   1.040  1.00  0.00    -0.016 C 
HETATM   32  C1  UNL     1      -6.763   0.235  -0.173  1.00  0.00     0.010 C 
HETATM   33  C3  UNL     1      -6.245  -0.975   1.879  1.00  0.00     0.010 C 
ENDBRANCH   1  31
TORSDOF 5
