REMARK  6 active torsions:
REMARK  status: ('A' for Active; 'I' for Inactive)
REMARK    1  A    between atoms: C2_2  and  C3_3 
REMARK    2  A    between atoms: C3_3  and  C5_5 
REMARK    3  A    between atoms: C11_11  and  O1_12 
REMARK    4  A    between atoms: C13_15  and  C15_17 
REMARK    5  A    between atoms: C17_19  and  O2_20 
REMARK    6  A    between atoms: C18_22  and  O3_23 
ROOT
HETATM    1  C5  UNL     1      -2.817   0.806   0.757  1.00  0.00    -0.002 C 
HETATM    2  C6  UNL     1      -3.352  -0.084   1.895  1.00  0.00     0.006 C 
HETATM    3  C7  UNL     1      -2.084  -0.936   2.072  1.00  0.00     0.011 C 
HETATM    4  C8  UNL     1      -1.878  -1.324   0.612  1.00  0.00    -0.030 C 
HETATM    5  C9  UNL     1      -2.720  -2.602   0.446  1.00  0.00     0.016 C 
HETATM    6  C10 UNL     1      -0.478  -1.703   0.421  1.00  0.00     0.028 C 
HETATM    7  C11 UNL     1       0.595  -0.874   1.022  1.00  0.00     0.129 C 
HETATM    8  C12 UNL     1       1.654  -0.831  -0.032  1.00  0.00     0.034 C 
HETATM    9  C13 UNL     1       3.030  -0.577   0.372  1.00  0.00    -0.011 C 
HETATM   10  C14 UNL     1       3.584  -1.270   1.555  1.00  0.00     0.018 C 
HETATM   11  C19 UNL     1       3.937  -0.914  -0.821  1.00  0.00     0.012 C 
HETATM   12  C20 UNL     1       3.177  -0.855  -2.121  1.00  0.00     0.002 C 
HETATM   13  C21 UNL     1       2.123  -1.929  -2.226  1.00  0.00     0.010 C 
HETATM   14  C22 UNL     1       1.405  -2.033  -0.906  1.00  0.00    -0.033 C 
HETATM   15  C23 UNL     1       1.713  -3.348  -0.309  1.00  0.00     0.016 C 
HETATM   16  C24 UNL     1      -0.112  -1.914  -1.051  1.00  0.00     0.001 C 
HETATM   17  C25 UNL     1      -0.563  -0.770  -1.856  1.00  0.00     0.007 C 
HETATM   18  C26 UNL     1      -1.332   0.293  -1.186  1.00  0.00     0.011 C 
HETATM   19  C27 UNL     1      -2.407  -0.187  -0.235  1.00  0.00    -0.032 C 
HETATM   20  C28 UNL     1      -3.506  -0.741  -1.117  1.00  0.00     0.016 C 
ENDROOT
BRANCH   9  21
HETATM   21  C15 UNL     1       3.162   0.929   0.666  1.00  0.00     0.136 C 
HETATM   22  C16 UNL     1       4.515   1.324   1.088  1.00  0.00     0.069 C 
HETATM   23  C17 UNL     1       4.743   2.628   0.361  1.00  0.00     0.175 C 
HETATM   24  C18 UNL     1       3.645   2.683  -0.636  1.00  0.00     0.285 C 
HETATM   25  O4  UNL     1       2.771   1.649  -0.419  1.00  0.00    -0.353 OA
BRANCH  23  26
HETATM   26  O2  UNL     1       6.012   2.693  -0.213  1.00  0.00    -0.391 OA
ATOM     27  H2  UNL     1       6.155   3.513  -0.670  1.00  0.00     0.210 HD
ENDBRANCH  23  26
BRANCH  24  28
HETATM   28  O3  UNL     1       2.970   3.911  -0.643  1.00  0.00    -0.369 OA
ATOM     29  H3  UNL     1       2.267   3.946  -1.281  1.00  0.00     0.212 HD
ENDBRANCH  24  28
ENDBRANCH   9  21
BRANCH   7  30
HETATM   30  O1  UNL     1       1.061  -1.444   2.221  1.00  0.00    -0.395 OA
ATOM     31  H1  UNL     1       1.748  -0.913   2.606  1.00  0.00     0.210 HD
ENDBRANCH   7  30
BRANCH   1  32
HETATM   32  C3  UNL     1      -3.689   1.916   0.565  1.00  0.00    -0.014 C 
HETATM   33  C4  UNL     1      -3.320   3.049  -0.335  1.00  0.00     0.010 C 
BRANCH  32  34
HETATM   34  C2  UNL     1      -5.109   1.519   0.198  1.00  0.00     0.000 C 
HETATM   35  C1  UNL     1      -6.062   2.709   0.412  1.00  0.00     0.005 C 
ENDBRANCH  32  34
ENDBRANCH   1  32
TORSDOF 6
