REMARK  5 active torsions:
REMARK  status: ('A' for Active; 'I' for Inactive)
REMARK    1  A    between atoms: C2_2  and  C3_3 
REMARK    2  A    between atoms: C3_3  and  C6_6 
REMARK    3  A    between atoms: C8_8  and  O1_9 
REMARK    4  A    between atoms: C16_18  and  N1_19 
REMARK    5  A    between atoms: C27_34  and  O3_35 
ROOT
HETATM    1  C6  UNL     1       2.806   0.297  -0.425  1.00  0.00     0.004 C 
HETATM    2  C7  UNL     1       3.949  -0.685  -0.792  1.00  0.00     0.038 C 
HETATM    3  C8  UNL     1       3.610  -2.001  -0.149  1.00  0.00     0.123 C 
HETATM    4  C9  UNL     1       2.459  -1.642   0.766  1.00  0.00     0.019 C 
HETATM    5  C10 UNL     1       1.718  -2.936   0.980  1.00  0.00     0.008 C 
HETATM    6  C11 UNL     1       0.457  -2.834   0.188  1.00  0.00     0.013 C 
HETATM    7  C12 UNL     1      -0.331  -1.607   0.584  1.00  0.00    -0.009 C 
HETATM    8  C13 UNL     1      -0.544  -1.740   2.103  1.00  0.00     0.018 C 
HETATM    9  C14 UNL     1       0.365  -0.293   0.247  1.00  0.00     0.004 C 
HETATM   10  C15 UNL     1      -0.232   0.568  -0.803  1.00  0.00     0.045 C 
HETATM   11  C16 UNL     1      -1.271   1.566  -0.481  1.00  0.00     0.130 C 
HETATM   12  C17 UNL     1      -1.430   1.998   0.930  1.00  0.00     0.039 C 
HETATM   13  C18 UNL     1      -2.116   3.377   0.940  1.00  0.00     0.002 C 
HETATM   14  C19 UNL     1      -3.370   3.370   0.119  1.00  0.00     0.001 C 
HETATM   15  C20 UNL     1      -3.735   1.898  -0.097  1.00  0.00     0.010 C 
HETATM   16  C21 UNL     1      -2.706   1.210  -0.963  1.00  0.00     0.053 C 
HETATM   17  C22 UNL     1      -2.940  -0.249  -0.967  1.00  0.00     0.157 C 
HETATM   18  O2  UNL     1      -2.179  -0.588   0.137  1.00  0.00    -0.371 OA
HETATM   19  C23 UNL     1      -1.673  -1.806  -0.019  1.00  0.00     0.065 C 
HETATM   20  C24 UNL     1      -1.676  -2.556  -1.280  1.00  0.00     0.047 C 
HETATM   21  C25 UNL     1      -2.746  -2.507   0.833  1.00  0.00     0.041 C 
HETATM   22  C26 UNL     1      -4.079  -2.178   0.149  1.00  0.00     0.037 C 
HETATM   23  C27 UNL     1      -4.218  -0.843  -0.501  1.00  0.00     0.147 C 
HETATM   24  C28 UNL     1       1.765  -0.644  -0.102  1.00  0.00     0.002 C 
ENDROOT
BRANCH   1  25
HETATM   25  C3  UNL     1       3.417   1.304   0.406  1.00  0.00    -0.027 C 
HETATM   26  C4  UNL     1       4.084   0.959   1.683  1.00  0.00     0.019 C 
HETATM   27  C5  UNL     1       2.595   2.569   0.690  1.00  0.00     0.019 C 
BRANCH  25  28
HETATM   28  C2  UNL     1       4.516   1.946  -0.448  1.00  0.00    -0.028 C 
HETATM   29  C1  UNL     1       4.226   2.577  -1.568  1.00  0.00     0.007 C 
ENDBRANCH  25  28
ENDBRANCH   1  25
BRANCH   3  30
HETATM   30  O1  UNL     1       3.157  -2.892  -1.123  1.00  0.00    -0.395 OA
ATOM     31  H1  UNL     1       2.943  -3.724  -0.717  1.00  0.00     0.210 HD
ENDBRANCH   3  30
BRANCH  11  32
HETATM   32  N1  UNL     1      -1.013   2.823  -1.229  1.00  0.00    -0.070 N 
ATOM     33  H13 UNL     1      -0.073   3.182  -1.063  1.00  0.00     0.275 HD
ATOM     34  H12 UNL     1      -0.935   2.662  -2.233  1.00  0.00     0.275 HD
ATOM     35  H11 UNL     1      -1.731   3.513  -1.007  1.00  0.00     0.275 HD
ENDBRANCH  11  32
BRANCH  23  36
HETATM   36  O3  UNL     1      -5.057  -0.996  -1.632  1.00  0.00    -0.393 OA
ATOM     37  H3  UNL     1      -5.875  -1.376  -1.334  1.00  0.00     0.210 HD
ENDBRANCH  23  36
TORSDOF 5
