REMARK  6 active torsions:
REMARK  status: ('A' for Active; 'I' for Inactive)
REMARK    1  A    between atoms: C2_2  and  C3_3 
REMARK    2  A    between atoms: C3_3  and  O1_4 
REMARK    3  A    between atoms: O1_4  and  C4_5 
REMARK    4  A    between atoms: C7_8  and  O2_9 
REMARK    5  A    between atoms: C15_18  and  O3_19 
REMARK    6  A    between atoms: C25_30  and  O4_31 
ROOT
HETATM    1  C4  UNL     1       3.813  -0.205  -0.405  1.00  0.00     0.129 C 
HETATM    2  C5  UNL     1       5.061  -0.381   0.494  1.00  0.00     0.035 C 
HETATM    3  C6  UNL     1       4.674  -1.478   1.508  1.00  0.00     0.041 C 
HETATM    4  C7  UNL     1       3.671  -2.207   0.655  1.00  0.00     0.065 C 
HETATM    5  C8  UNL     1       2.693  -3.064   1.268  1.00  0.00     0.043 C 
HETATM    6  C9  UNL     1       1.311  -2.540   0.875  1.00  0.00    -0.003 C 
HETATM    7  C10 UNL     1       0.678  -2.055   2.136  1.00  0.00     0.006 C 
HETATM    8  C11 UNL     1      -0.653  -1.436   1.756  1.00  0.00     0.008 C 
HETATM    9  C12 UNL     1      -0.301  -0.172   1.021  1.00  0.00     0.025 C 
HETATM   10  C13 UNL     1       0.527  -0.375  -0.206  1.00  0.00     0.004 C 
HETATM   11  C14 UNL     1      -0.322  -0.347  -1.470  1.00  0.00     0.038 C 
HETATM   12  C15 UNL     1      -1.712  -0.916  -1.252  1.00  0.00     0.126 C 
HETATM   13  C16 UNL     1      -2.440  -0.223  -0.154  1.00  0.00     0.054 C 
HETATM   14  C17 UNL     1      -3.701   0.465  -0.565  1.00  0.00     0.003 C 
HETATM   15  C18 UNL     1      -3.590   1.488  -1.611  1.00  0.00     0.006 C 
HETATM   16  C19 UNL     1      -4.460   2.642  -1.106  1.00  0.00     0.001 C 
HETATM   17  C20 UNL     1      -5.320   2.068  -0.011  1.00  0.00     0.009 C 
HETATM   18  C21 UNL     1      -4.384   1.056   0.629  1.00  0.00    -0.040 C 
HETATM   19  C22 UNL     1      -5.231   0.041   1.379  1.00  0.00     0.015 C 
HETATM   20  C23 UNL     1      -3.491   1.772   1.579  1.00  0.00     0.012 C 
HETATM   21  C24 UNL     1      -2.339   0.849   2.007  1.00  0.00     0.039 C 
HETATM   22  C25 UNL     1      -1.540   0.629   0.713  1.00  0.00     0.068 C 
HETATM   23  C26 UNL     1       1.558  -1.441  -0.161  1.00  0.00    -0.027 C 
HETATM   24  C27 UNL     1       1.605  -2.245  -1.463  1.00  0.00     0.016 C 
HETATM   25  C28 UNL     1       2.833  -0.960   0.315  1.00  0.00     0.058 C 
ENDROOT
BRANCH   1  26
HETATM   26  O1  UNL     1       3.559   1.163  -0.388  1.00  0.00    -0.382 OA
BRANCH  26  27
HETATM   27  C3  UNL     1       3.691   1.736  -1.649  1.00  0.00     0.194 C 
BRANCH  27  28
HETATM   28  C2  UNL     1       3.409   3.191  -1.563  1.00  0.00    -0.011 C 
HETATM   29  C1  UNL     1       4.327   4.073  -1.902  1.00  0.00     0.009 C 
ENDBRANCH  27  28
ENDBRANCH  26  27
ENDBRANCH   1  26
BRANCH   4  30
HETATM   30  O2  UNL     1       4.382  -2.676  -0.431  1.00  0.00    -0.389 OA
ATOM     31  H2  UNL     1       3.749  -3.136  -0.969  1.00  0.00     0.210 HD
ENDBRANCH   4  30
BRANCH  22  32
HETATM   32  O4  UNL     1      -1.277   1.873   0.214  1.00  0.00    -0.389 OA
ATOM     33  H4  UNL     1      -2.058   2.378   0.020  1.00  0.00     0.210 HD
ENDBRANCH  22  32
BRANCH  12  34
HETATM   34  O3  UNL     1      -2.410  -0.644  -2.451  1.00  0.00    -0.395 OA
ATOM     35  H3  UNL     1      -3.280  -1.000  -2.315  1.00  0.00     0.210 HD
ENDBRANCH  12  34
TORSDOF 6
