REMARK  1 active torsions:
REMARK  status: ('A' for Active; 'I' for Inactive)
REMARK       I    between atoms: C1_4  and  N3_6 
REMARK    1  A    between atoms: N3_6  and  C2_8 
ROOT
HETATM    1  C2  UNL     1       0.933  -0.294   0.524  1.00  0.00     0.114 C 
HETATM    2  C3  UNL     1      -0.218  -1.232   0.849  1.00  0.00     0.062 C 
HETATM    3  C4  UNL     1      -1.327  -0.261   0.716  1.00  0.00     0.225 C 
HETATM    4  C5  UNL     1      -2.681  -0.777   0.474  1.00  0.00     0.037 C 
HETATM    5  C6  UNL     1      -3.268   0.425  -0.286  1.00  0.00     0.032 C 
HETATM    6  C7  UNL     1      -2.046   1.208  -0.793  1.00  0.00     0.273 C 
HETATM    7  N4  UNL     1      -1.001   0.275  -0.625  1.00  0.00     0.095 N 
HETATM    8  C8  UNL     1       0.307   0.774  -0.386  1.00  0.00     0.298 C 
ENDROOT
BRANCH   1   9
HETATM    9  N3  UNL     1       2.041  -0.942  -0.066  1.00  0.00    -0.358 N 
HETATM   10  C1  UNL     1       3.219  -0.254  -0.447  1.00  0.00     0.182 C 
HETATM   11  N1  UNL     1       3.820  -0.629  -1.523  1.00  0.00    -0.374 N 
HETATM   12  N2  UNL     1       3.752   0.824   0.310  1.00  0.00    -0.064 NA
ATOM     13  H12 UNL     1       4.668  -0.134  -1.797  1.00  0.00     0.158 HD
ATOM     14  H11 UNL     1       3.437  -1.403  -2.066  1.00  0.00     0.158 HD
ATOM     15  H3  UNL     1       1.991  -1.948  -0.224  1.00  0.00     0.162 HD
ENDBRANCH   1   9
TORSDOF 1
