REMARK  4 active torsions:
REMARK  status: ('A' for Active; 'I' for Inactive)
REMARK    1  A    between atoms: C3_3  and  C4_4 
REMARK    2  A    between atoms: C4_4  and  C5_5 
REMARK    3  A    between atoms: C9_9  and  C10_10 
REMARK    4  A    between atoms: C10_10  and  C11_11 
ROOT
HETATM    1  C1  UNL     1       6.715   1.537   1.025  1.00  0.00     0.012 C 
HETATM    2  C2  UNL     1       5.942   0.680   0.706  1.00  0.00    -0.114 C 
HETATM    3  C3  UNL     1       4.957  -0.385   0.283  1.00  0.00     0.121 C 
ENDROOT
BRANCH   3   4
HETATM    4  C4  UNL     1       3.614   0.154   0.466  1.00  0.00     0.003 C 
BRANCH   4   5
HETATM    5  C5  UNL     1       2.437  -0.298   0.156  1.00  0.00     0.035 A 
HETATM    6  C6  UNL     1       2.169  -1.469  -0.457  1.00  0.00    -0.044 A 
HETATM    7  C7  UNL     1       3.235  -2.415  -0.862  1.00  0.00     0.049 C 
HETATM    8  C8  UNL     1       0.822  -1.829  -0.733  1.00  0.00     0.037 A 
HETATM    9  C9  UNL     1      -0.225  -1.019  -0.396  1.00  0.00     0.036 A 
HETATM   10  N2  UNL     1       0.069   0.139   0.212  1.00  0.00    -0.323 N 
HETATM   11  C18 UNL     1       1.328   0.494   0.480  1.00  0.00     0.256 A 
ATOM     12  H2  UNL     1      -0.690   0.766   0.477  1.00  0.00     0.169 HD
HETATM   13  O3  UNL     1       1.535   1.588   1.050  1.00  0.00    -0.267 OA
BRANCH   9  14
HETATM   14  C10 UNL     1      -1.474  -1.347  -0.650  1.00  0.00     0.041 C 
BRANCH  14  15
HETATM   15  C11 UNL     1      -2.601  -0.475  -0.286  1.00  0.00    -0.031 A 
HETATM   16  C12 UNL     1      -3.398  -0.765   0.801  1.00  0.00     0.014 A 
HETATM   17  C13 UNL     1      -4.460   0.036   1.163  1.00  0.00     0.033 A 
HETATM   18  C14 UNL     1      -4.774   1.172   0.449  1.00  0.00     0.071 A 
HETATM   19  N1  UNL     1      -5.738   2.124   0.571  1.00  0.00    -0.300 N 
HETATM   20  C16 UNL     1      -3.986   1.477  -0.642  1.00  0.00     0.108 A 
HETATM   21  C15 UNL     1      -5.526   2.988  -0.436  1.00  0.00     0.370 A 
ATOM     22  H1  UNL     1      -6.470   2.172   1.280  1.00  0.00     0.171 HD
HETATM   23  O1  UNL     1      -6.241   4.022  -0.645  1.00  0.00    -0.238 OA
HETATM   24  O2  UNL     1      -4.491   2.586  -1.135  1.00  0.00    -0.259 OA
HETATM   25  C17 UNL     1      -2.916   0.662  -1.001  1.00  0.00     0.051 A 
ENDBRANCH  14  15
ENDBRANCH   9  14
ENDBRANCH   4   5
ENDBRANCH   3   4
TORSDOF 4
