REMARK  2 active torsions:
REMARK  status: ('A' for Active; 'I' for Inactive)
REMARK    1  A    between atoms: C1_2  and  C2_3 
REMARK       I    between atoms: C1_2  and  N3_13 
REMARK    2  A    between atoms: C2_3  and  N1_4 
ROOT
HETATM    1  O1  UNL     1       1.615   0.398   1.314  1.00  0.00    -0.272 OA
HETATM    2  C1  UNL     1       1.072  -0.101   0.297  1.00  0.00     0.237 C 
HETATM    3  N3  UNL     1      -0.321  -0.233   0.246  1.00  0.00    -0.351 N 
HETATM    4  C8  UNL     1      -1.181   0.187   1.335  1.00  0.00     0.126 C 
HETATM    5  C9  UNL     1      -2.378   0.931   0.778  1.00  0.00     0.029 C 
HETATM    6  C10 UNL     1      -3.186   0.003  -0.069  1.00  0.00    -0.034 C 
HETATM    7  C11 UNL     1      -4.294  -0.613   0.795  1.00  0.00     0.037 C 
HETATM    8  C12 UNL     1      -5.427  -0.951  -0.155  1.00  0.00     0.233 C 
HETATM    9  N4  UNL     1      -6.080   0.295  -0.508  1.00  0.00    -0.075 N 
ATOM     10  H41 UNL     1      -6.793   0.550   0.175  1.00  0.00     0.277 HD
ATOM     11  H42 UNL     1      -6.679   0.185  -1.326  1.00  0.00     0.277 HD
HETATM   12  C13 UNL     1      -5.115   1.362  -0.694  1.00  0.00     0.233 C 
HETATM   13  C14 UNL     1      -3.845   0.752  -1.215  1.00  0.00     0.037 C 
HETATM   14  C15 UNL     1      -2.410  -1.132  -0.656  1.00  0.00     0.029 C 
HETATM   15  C16 UNL     1      -0.963  -0.806  -0.918  1.00  0.00     0.126 C 
ENDROOT
BRANCH   2  16
HETATM   16  C2  UNL     1       1.923  -0.539  -0.830  1.00  0.00     0.230 C 
BRANCH  16  17
HETATM   17  N1  UNL     1       3.335  -0.319  -0.590  1.00  0.00    -0.326 N 
HETATM   18  C3  UNL     1       3.834   0.960  -1.025  1.00  0.00     0.128 C 
HETATM   19  C4  UNL     1       5.193   1.316  -0.543  1.00  0.00     0.022 C 
HETATM   20  C5  UNL     1       5.441   0.967   0.895  1.00  0.00     0.021 C 
HETATM   21  C6  UNL     1       6.197  -0.332   1.049  1.00  0.00     0.124 C 
HETATM   22  N2  UNL     1       5.372  -1.388   0.501  1.00  0.00    -0.343 N 
HETATM   23  C7  UNL     1       4.031  -1.382   0.032  1.00  0.00     0.318 C 
ATOM     24  H2  UNL     1       5.835  -2.295   0.441  1.00  0.00     0.164 HD
HETATM   25  O2  UNL     1       3.373  -2.476   0.193  1.00  0.00    -0.247 OA
ENDBRANCH  16  17
ENDBRANCH   2  16
TORSDOF 2
