REMARK  2 active torsions:
REMARK  status: ('A' for Active; 'I' for Inactive)
REMARK    1  A    between atoms: C4_6  and  S1_7 
REMARK    2  A    between atoms: S1_7  and  N2_10 
ROOT
HETATM    1  C1  UNL     1       5.625  -1.868  -0.134  1.00  0.00     0.019 C 
HETATM    2  C2  UNL     1       4.637  -1.180  -0.048  1.00  0.00    -0.059 C 
HETATM    3  C3  UNL     1       3.457  -0.328   0.059  1.00  0.00     0.093 A 
HETATM    4  N1  UNL     1       2.368  -0.361  -0.724  1.00  0.00    -0.338 N 
ATOM      5  H1  UNL     1       2.246  -1.007  -1.504  1.00  0.00     0.167 HD
HETATM    6  C4  UNL     1       1.451   0.564  -0.357  1.00  0.00     0.150 A 
HETATM    7  C12 UNL     1       2.027   1.205   0.727  1.00  0.00     0.053 A 
HETATM    8  C13 UNL     1       3.267   0.665   0.995  1.00  0.00    -0.024 A 
HETATM    9  C14 UNL     1       4.244   1.018   2.045  1.00  0.00     0.051 C 
ENDROOT
BRANCH   6  10
HETATM   10  S1  UNL     1      -0.104   0.871  -1.114  1.00  0.00     0.279 S 
HETATM   11  O1  UNL     1       0.095   0.839  -2.599  1.00  0.00    -0.199 OA
HETATM   12  O2  UNL     1      -0.423   2.328  -0.788  1.00  0.00    -0.199 OA
BRANCH  10  13
HETATM   13  N2  UNL     1      -1.308  -0.100  -0.523  1.00  0.00    -0.260 N 
HETATM   14  C5  UNL     1      -1.649  -0.019   0.843  1.00  0.00     0.112 C 
HETATM   15  C6  UNL     1      -0.696  -0.758   1.761  1.00  0.00     0.064 C 
HETATM   16  C7  UNL     1      -1.824   1.404   1.370  1.00  0.00     0.064 C 
HETATM   17  N3  UNL     1      -2.976  -0.608   0.904  1.00  0.00    -0.332 N 
HETATM   18  C8  UNL     1      -3.551  -0.416  -0.374  1.00  0.00     0.248 C 
ATOM     19  H3  UNL     1      -3.406  -1.067   1.707  1.00  0.00     0.165 HD
HETATM   20  O3  UNL     1      -4.788  -0.273  -0.662  1.00  0.00    -0.271 OA
HETATM   21  C9  UNL     1      -2.416  -0.414  -1.337  1.00  0.00     0.119 C 
HETATM   22  C10 UNL     1      -2.736   0.526  -2.437  1.00  0.00     0.049 C 
HETATM   23  C11 UNL     1      -2.354  -1.825  -1.921  1.00  0.00     0.049 C 
ENDBRANCH  10  13
ENDBRANCH   6  10
TORSDOF 2
