REMARK  5 active torsions:
REMARK  status: ('A' for Active; 'I' for Inactive)
REMARK    1  A    between atoms: C4_7  and  C5_8 
REMARK    2  A    between atoms: C5_8  and  C6_9 
REMARK    3  A    between atoms: N2_12  and  O2_13 
REMARK    4  A    between atoms: C12_18  and  C13_19 
REMARK    5  A    between atoms: C16_22  and  O3_23 
ROOT
HETATM    1  C1  UNL     1      -2.887  -2.237   1.141  1.00  0.00     0.044 C 
HETATM    2  C2  UNL     1      -1.609  -1.948   1.102  1.00  0.00     0.036 A 
HETATM    3  N1  UNL     1      -0.707  -2.745   1.751  1.00  0.00    -0.323 N 
ATOM      4  H1  UNL     1      -1.065  -3.565   2.241  1.00  0.00     0.169 HD
HETATM    5  C3  UNL     1       0.608  -2.526   1.789  1.00  0.00     0.256 A 
HETATM    6  O1  UNL     1       1.378  -3.324   2.420  1.00  0.00    -0.267 OA
HETATM    7  C4  UNL     1       1.134  -1.435   1.144  1.00  0.00     0.034 A 
HETATM    8  C11 UNL     1       0.266  -0.603   0.475  1.00  0.00     0.031 A 
HETATM    9  C12 UNL     1      -1.125  -0.849   0.443  1.00  0.00     0.001 A 
ENDROOT
BRANCH   7  10
HETATM   10  C5  UNL     1       2.415  -1.210   1.174  1.00  0.00     0.028 C 
BRANCH  10  11
HETATM   11  C6  UNL     1       3.085  -0.102   0.538  1.00  0.00    -0.033 A 
HETATM   12  C7  UNL     1       3.943  -0.333  -0.510  1.00  0.00     0.031 A 
HETATM   13  C8  UNL     1       4.610   0.715  -1.152  1.00  0.00     0.123 A 
HETATM   14  N2  UNL     1       4.420   1.981  -0.748  1.00  0.00    -0.247 N 
HETATM   15  C9  UNL     1       3.587   2.208   0.270  1.00  0.00     0.123 A 
HETATM   16  C10 UNL     1       2.894   1.199   0.948  1.00  0.00     0.031 A 
BRANCH  14  17
HETATM   17  O2  UNL     1       5.074   3.041  -1.371  1.00  0.00    -0.284 OA
ATOM     18  H2  UNL     1       4.940   3.937  -1.085  1.00  0.00     0.245 HD
ENDBRANCH  14  17
ENDBRANCH  10  11
ENDBRANCH   7  10
BRANCH   9  19
HETATM   19  C13 UNL     1      -1.983   0.047  -0.319  1.00  0.00    -0.024 A 
HETATM   20  C14 UNL     1      -2.763  -0.443  -1.342  1.00  0.00     0.015 A 
HETATM   21  C15 UNL     1      -3.579   0.399  -2.069  1.00  0.00     0.037 A 
HETATM   22  C16 UNL     1      -3.617   1.746  -1.772  1.00  0.00     0.065 A 
HETATM   23  C17 UNL     1      -2.841   2.249  -0.751  1.00  0.00     0.037 A 
HETATM   24  C18 UNL     1      -2.027   1.415  -0.025  1.00  0.00     0.015 A 
BRANCH  22  25
HETATM   25  O3  UNL     1      -4.455   2.589  -2.526  1.00  0.00    -0.361 OA
ATOM     26  H3  UNL     1      -4.481   3.516  -2.322  1.00  0.00     0.217 HD
ENDBRANCH  22  25
ENDBRANCH   9  19
TORSDOF 5
