REMARK  9 active torsions:
REMARK  status: ('A' for Active; 'I' for Inactive)
REMARK    1  A    between atoms: C3_5  and  O2_6 
REMARK    2  A    between atoms: C3_5  and  C4_8 
REMARK    3  A    between atoms: C4_8  and  O3_9 
REMARK    4  A    between atoms: C4_8  and  N2_11 
REMARK    5  A    between atoms: N2_11  and  C5_13 
REMARK    6  A    between atoms: C8_20  and  N5_21 
REMARK    7  A    between atoms: N5_21  and  C9_24 
REMARK    8  A    between atoms: C9_24  and  O4_25 
REMARK    9  A    between atoms: C9_24  and  N6_27 
ROOT
HETATM    1  C1  UNL     1       0.017  -4.277  -1.058  1.00  0.00     0.162 C 
HETATM    2  N1  UNL     1      -0.086  -2.908  -0.586  1.00  0.00    -0.294 N 
HETATM    3  C2  UNL     1       0.380  -1.842  -1.396  1.00  0.00     0.269 C 
HETATM    4  O1  UNL     1       0.466  -1.978  -2.634  1.00  0.00    -0.269 OA
HETATM    5  C3  UNL     1       0.751  -0.580  -0.680  1.00  0.00     0.229 C 
HETATM    6  C8  UNL     1      -0.292  -0.226   0.349  1.00  0.00     0.340 C 
HETATM    7  N7  UNL     1      -0.717  -1.382   1.054  1.00  0.00    -0.333 N 
ATOM      8  H7  UNL     1      -1.129  -1.220   1.973  1.00  0.00     0.164 HD
HETATM    9  C12 UNL     1      -0.647  -2.596   0.679  1.00  0.00     0.194 C 
HETATM   10  N8  UNL     1      -1.111  -3.682   1.482  1.00  0.00    -0.063 NA
ENDROOT
BRANCH   5  11
HETATM   11  O2  UNL     1       1.942  -0.863  -0.008  1.00  0.00    -0.373 OA
ATOM     12  H2  UNL     1       2.177  -0.062   0.446  1.00  0.00     0.211 HD
ENDBRANCH   5  11
BRANCH   5  13
HETATM   13  C4  UNL     1       1.026   0.498  -1.675  1.00  0.00     0.268 C 
BRANCH  13  14
HETATM   14  O3  UNL     1       2.094   0.039  -2.478  1.00  0.00    -0.373 OA
ATOM     15  H3  UNL     1       2.269   0.725  -3.111  1.00  0.00     0.212 HD
ENDBRANCH  13  14
BRANCH  13  16
HETATM   16  N2  UNL     1       1.514   1.717  -1.040  1.00  0.00    -0.333 N 
ATOM     17  H2  UNL     1       0.982   2.581  -1.147  1.00  0.00     0.165 HD
BRANCH  16  18
HETATM   18  C5  UNL     1       2.713   1.731  -0.275  1.00  0.00     0.173 C 
HETATM   19  N3  UNL     1       3.874   1.513  -0.799  1.00  0.00    -0.361 N 
HETATM   20  C6  UNL     1       4.913   1.590   0.214  1.00  0.00     0.142 C 
ATOM     21  H3  UNL     1       4.038   1.315  -1.786  1.00  0.00     0.162 HD
HETATM   22  C7  UNL     1       4.166   1.601   1.532  1.00  0.00     0.142 C 
HETATM   23  N4  UNL     1       2.811   1.973   1.101  1.00  0.00    -0.361 N 
ATOM     24  H4  UNL     1       2.072   2.342   1.699  1.00  0.00     0.162 HD
ENDBRANCH  16  18
ENDBRANCH  13  16
ENDBRANCH   5  13
BRANCH   6  25
HETATM   25  N5  UNL     1      -1.378   0.475  -0.310  1.00  0.00     0.004 N 
ATOM     26  H52 UNL     1      -1.054   1.291  -0.828  1.00  0.00     0.285 HD
ATOM     27  H51 UNL     1      -1.759  -0.052  -1.096  1.00  0.00     0.285 HD
BRANCH  25  28
HETATM   28  C9  UNL     1      -2.407   0.817   0.686  1.00  0.00     0.560 C 
BRANCH  28  29
HETATM   29  O4  UNL     1      -1.820   1.644   1.669  1.00  0.00    -0.347 OA
ATOM     30  H4  UNL     1      -2.484   1.865   2.312  1.00  0.00     0.214 HD
ENDBRANCH  28  29
BRANCH  28  31
HETATM   31  N6  UNL     1      -3.367   1.651  -0.013  1.00  0.00     0.136 N 
HETATM   32  C10 UNL     1      -3.981   1.002  -1.129  1.00  0.00     0.315 C 
HETATM   33  C11 UNL     1      -4.266   2.342   0.854  1.00  0.00     0.315 C 
ENDBRANCH  28  31
ENDBRANCH  25  28
ENDBRANCH   6  25
TORSDOF 9
