REMARK  11 active torsions:
REMARK  status: ('A' for Active; 'I' for Inactive)
REMARK    1  A    between atoms: N1_1  and  N2_4 
REMARK    2  A    between atoms: N2_4  and  C1_6 
REMARK    3  A    between atoms: C1_6  and  O1_7 
REMARK    4  A    between atoms: C1_6  and  C2_9 
REMARK    5  A    between atoms: C3_10  and  C4_11 
REMARK    6  A    between atoms: C5_16  and  C6_17 
REMARK    7  A    between atoms: N5_23  and  O6_24 
REMARK    8  A    between atoms: C8_26  and  O7_27 
REMARK    9  A    between atoms: C9_29  and  C10_30 
REMARK   10  A    between atoms: C10_30  and  O8_31 
REMARK   11  A    between atoms: C10_30  and  O9_33 
ROOT
HETATM    1  C2  UNL     1       1.501   0.058  -0.222  1.00  0.00     0.077 C 
HETATM    2  C3  UNL     1       1.133   1.327  -0.241  1.00  0.00     0.124 C 
HETATM    3  N3  UNL     1      -0.322   1.341  -0.595  1.00  0.00    -0.356 N 
ATOM      4  H3  UNL     1      -0.840   2.062  -1.097  1.00  0.00     0.162 HD
HETATM    5  C5  UNL     1      -0.815   0.109  -0.065  1.00  0.00     0.198 A 
HETATM    6  C7  UNL     1       0.298  -0.747  -0.641  1.00  0.00     0.089 A 
HETATM    7  N4  UNL     1       0.083  -1.833  -1.259  1.00  0.00    -0.272 N 
ATOM      8  H4  UNL     1       0.879  -2.378  -1.591  1.00  0.00     0.189 HD
HETATM    9  N5  UNL     1      -1.221  -2.313  -1.503  1.00  0.00    -0.139 N 
HETATM   10  C8  UNL     1      -2.307  -1.534  -1.027  1.00  0.00     0.196 A 
HETATM   11  C9  UNL     1      -2.120  -0.384  -0.352  1.00  0.00     0.073 A 
ENDROOT
BRANCH   1  12
HETATM   12  C1  UNL     1       2.749  -0.605   0.058  1.00  0.00     0.169 C 
BRANCH  12  13
HETATM   13  N2  UNL     1       3.994  -0.133   0.416  1.00  0.00    -0.286 N 
ATOM     14  H2  UNL     1       4.177   0.863   0.535  1.00  0.00     0.188 HD
BRANCH  13  15
HETATM   15  N1  UNL     1       5.033  -1.134   0.615  1.00  0.00    -0.343 N 
ATOM     16  H12 UNL     1       4.834  -2.127   0.492  1.00  0.00     0.176 HD
ATOM     17  H11 UNL     1       5.954  -0.785   0.880  1.00  0.00     0.176 HD
ENDBRANCH  13  15
ENDBRANCH  12  13
BRANCH  12  18
HETATM   18  O1  UNL     1       2.708  -1.922  -0.045  1.00  0.00    -0.344 OA
ATOM     19  H1  UNL     1       1.850  -2.247  -0.292  1.00  0.00     0.219 HD
ENDBRANCH  12  18
ENDBRANCH   1  12
BRANCH   2  20
HETATM   20  C4  UNL     1       1.827   2.558   0.005  1.00  0.00     0.227 C 
HETATM   21  O2  UNL     1       1.149   3.654  -0.105  1.00  0.00    -0.643 OA
HETATM   22  O3  UNL     1       3.111   2.770   0.343  1.00  0.00    -0.643 OA
ENDBRANCH   2  20
BRANCH   5  23
HETATM   23  C6  UNL     1      -0.595   0.204   1.438  1.00  0.00     0.214 C 
HETATM   24  O4  UNL     1      -0.092   1.195   1.992  1.00  0.00    -0.646 OA
HETATM   25  O5  UNL     1      -0.987  -0.883   2.177  1.00  0.00    -0.646 OA
ENDBRANCH   5  23
BRANCH  11  26
HETATM   26  C10 UNL     1      -3.336   0.344   0.078  1.00  0.00     0.292 C 
BRANCH  26  27
HETATM   27  O8  UNL     1      -3.401   1.625  -0.458  1.00  0.00    -0.367 OA
ATOM     28  H8  UNL     1      -4.181   2.092  -0.182  1.00  0.00     0.213 HD
ENDBRANCH  26  27
BRANCH  26  29
HETATM   29  O9  UNL     1      -4.499  -0.334  -0.263  1.00  0.00    -0.367 OA
ATOM     30  H9  UNL     1      -5.279   0.133   0.013  1.00  0.00     0.213 HD
ENDBRANCH  26  29
ENDBRANCH  11  26
BRANCH   9  31
HETATM   31  O6  UNL     1      -1.487  -3.458  -2.155  1.00  0.00    -0.266 OA
ATOM     32  H6  UNL     1      -2.365  -3.781  -2.319  1.00  0.00     0.247 HD
ENDBRANCH   9  31
BRANCH  10  33
HETATM   33  O7  UNL     1      -3.611  -1.977  -1.267  1.00  0.00    -0.343 OA
ATOM     34  H7  UNL     1      -4.338  -1.455  -0.948  1.00  0.00     0.219 HD
ENDBRANCH  10  33
TORSDOF 11
