REMARK  5 active torsions:
REMARK  status: ('A' for Active; 'I' for Inactive)
REMARK    1  A    between atoms: C1_1  and  C24_25 
REMARK    2  A    between atoms: C2_2  and  C3_3 
REMARK    3  A    between atoms: N1_5  and  C5_6 
REMARK    4  A    between atoms: C5_6  and  C6_7 
REMARK    5  A    between atoms: C5_6  and  C12_13 
ROOT
HETATM    1  C3  UNL     1       1.151  -0.773   0.473  1.00  0.00    -0.008 A 
HETATM    2  C4  UNL     1       0.037  -0.208  -0.120  1.00  0.00     0.104 A 
HETATM    3  N1  UNL     1      -1.076  -0.579   0.558  1.00  0.00    -0.342 N 
HETATM    4  C18 UNL     1      -0.670  -1.370   1.570  1.00  0.00     0.046 A 
HETATM    5  C19 UNL     1      -1.375  -2.025   2.570  1.00  0.00     0.030 A 
HETATM    6  C20 UNL     1      -0.766  -2.794   3.519  1.00  0.00     0.002 A 
HETATM    7  C21 UNL     1       0.605  -2.928   3.487  1.00  0.00     0.001 A 
HETATM    8  C22 UNL     1       1.334  -2.289   2.504  1.00  0.00     0.014 A 
HETATM    9  C23 UNL     1       0.690  -1.508   1.543  1.00  0.00     0.002 A 
ENDROOT
BRANCH   3  10
HETATM   10  C5  UNL     1      -2.440  -0.191   0.244  1.00  0.00     0.155 C 
BRANCH  10  11
HETATM   11  C6  UNL     1      -2.715   1.192   0.701  1.00  0.00    -0.031 A 
HETATM   12  C7  UNL     1      -3.550   1.443   1.791  1.00  0.00     0.009 A 
HETATM   13  C8  UNL     1      -3.828   2.686   2.278  1.00  0.00     0.001 A 
HETATM   14  C9  UNL     1      -3.246   3.781   1.656  1.00  0.00     0.000 A 
HETATM   15  C10 UNL     1      -2.409   3.594   0.569  1.00  0.00     0.001 A 
HETATM   16  C11 UNL     1      -2.160   2.317   0.116  1.00  0.00     0.009 A 
ENDBRANCH  10  11
BRANCH  10  17
HETATM   17  C12 UNL     1      -2.786  -0.435  -1.160  1.00  0.00    -0.031 A 
HETATM   18  C13 UNL     1      -2.379  -1.611  -1.759  1.00  0.00     0.009 A 
HETATM   19  C14 UNL     1      -2.677  -1.924  -3.070  1.00  0.00     0.001 A 
HETATM   20  C15 UNL     1      -3.413  -1.040  -3.832  1.00  0.00     0.000 A 
HETATM   21  C16 UNL     1      -3.830   0.139  -3.252  1.00  0.00     0.001 A 
HETATM   22  C17 UNL     1      -3.514   0.437  -1.915  1.00  0.00     0.009 A 
ENDBRANCH  10  17
ENDBRANCH   3  10
BRANCH   1  23
HETATM   23  C2  UNL     1       2.559  -0.624   0.060  1.00  0.00     0.014 C 
HETATM   24  C1  UNL     1       2.855   0.122  -0.976  1.00  0.00     0.012 C 
BRANCH  24  25
HETATM   25  C24 UNL     1       4.218   0.300  -1.419  1.00  0.00    -0.036 A 
HETATM   26  C25 UNL     1       5.296  -0.283  -0.818  1.00  0.00     0.011 A 
HETATM   27  C26 UNL     1       6.601  -0.074  -1.284  1.00  0.00     0.001 A 
HETATM   28  C27 UNL     1       6.834   0.734  -2.372  1.00  0.00     0.000 A 
HETATM   29  C28 UNL     1       5.744   1.322  -2.977  1.00  0.00     0.001 A 
HETATM   30  C29 UNL     1       4.475   1.115  -2.521  1.00  0.00     0.011 A 
ENDBRANCH  24  25
ENDBRANCH   1  23
TORSDOF 5
