REMARK  6 active torsions:
REMARK  status: ('A' for Active; 'I' for Inactive)
REMARK    1  A    between atoms: C2_2  and  C3_3 
REMARK    2  A    between atoms: C2_2  and  O1_11 
REMARK    3  A    between atoms: C4_4  and  C5_5 
REMARK    4  A    between atoms: O1_11  and  C11_12 
REMARK    5  A    between atoms: C11_12  and  C13_14 
REMARK    6  A    between atoms: C17_18  and  C18_19 
ROOT
HETATM    1  C13 UNL     1      -0.344  -0.448   0.482  1.00  0.00    -0.002 A 
HETATM    2  C14 UNL     1      -0.847   0.061  -0.725  1.00  0.00     0.014 A 
HETATM    3  C15 UNL     1      -0.051   0.677  -1.625  1.00  0.00     0.002 A 
HETATM    4  C16 UNL     1       1.296   0.816  -1.366  1.00  0.00     0.012 A 
HETATM    5  C17 UNL     1       1.852   0.340  -0.203  1.00  0.00    -0.025 A 
HETATM    6  C28 UNL     1       1.007  -0.287   0.699  1.00  0.00     0.026 A 
ENDROOT
BRANCH   1   7
HETATM    7  C11 UNL     1      -1.253  -1.103   1.405  1.00  0.00     0.077 C 
HETATM    8  C12 UNL     1      -0.825  -1.544   2.561  1.00  0.00     0.052 C 
BRANCH   7   9
HETATM    9  O1  UNL     1      -2.579  -1.267   1.070  1.00  0.00    -0.312 OA
BRANCH   9  10
HETATM   10  C2  UNL     1      -3.066  -2.197   0.171  1.00  0.00     0.066 C 
HETATM   11  C1  UNL     1      -2.254  -3.288   0.082  1.00  0.00     0.051 C 
BRANCH  10  12
HETATM   12  C3  UNL     1      -4.252  -2.135  -0.627  1.00  0.00     0.037 C 
HETATM   13  C4  UNL     1      -5.255  -1.399  -0.874  1.00  0.00     0.014 C 
BRANCH  13  14
HETATM   14  C5  UNL     1      -5.756  -0.131  -0.424  1.00  0.00    -0.036 A 
HETATM   15  C6  UNL     1      -6.781   0.512  -1.158  1.00  0.00     0.011 A 
HETATM   16  C7  UNL     1      -7.341   1.695  -0.754  1.00  0.00     0.001 A 
HETATM   17  C8  UNL     1      -6.896   2.282   0.402  1.00  0.00     0.000 A 
HETATM   18  C9  UNL     1      -5.906   1.698   1.148  1.00  0.00     0.001 A 
HETATM   19  C10 UNL     1      -5.338   0.486   0.729  1.00  0.00     0.011 A 
ENDBRANCH  13  14
ENDBRANCH  10  12
ENDBRANCH   9  10
ENDBRANCH   7   9
ENDBRANCH   1   7
BRANCH   5  20
HETATM   20  C18 UNL     1       3.280   0.480   0.086  1.00  0.00    -0.025 A 
HETATM   21  C19 UNL     1       3.755   0.611   1.365  1.00  0.00     0.013 A 
HETATM   22  C20 UNL     1       5.113   0.742   1.622  1.00  0.00     0.013 A 
HETATM   23  C21 UNL     1       5.990   0.738   0.562  1.00  0.00    -0.026 A 
HETATM   24  C22 UNL     1       7.352   0.871   0.839  1.00  0.00     0.012 A 
HETATM   25  C26 UNL     1       5.553   0.608  -0.739  1.00  0.00    -0.025 A 
HETATM   26  C23 UNL     1       8.251   0.870  -0.207  1.00  0.00     0.001 A 
HETATM   27  C24 UNL     1       7.843   0.742  -1.518  1.00  0.00     0.001 A 
HETATM   28  C25 UNL     1       6.484   0.612  -1.755  1.00  0.00     0.012 A 
HETATM   29  C27 UNL     1       4.196   0.482  -0.938  1.00  0.00     0.024 A 
ENDBRANCH   5  20
TORSDOF 6
