REMARK  5 active torsions:
REMARK  status: ('A' for Active; 'I' for Inactive)
REMARK    1  A    between atoms: C4_4  and  C5_5 
REMARK    2  A    between atoms: C9_9  and  C10_10 
REMARK    3  A    between atoms: C10_10  and  C11_11 
REMARK    4  A    between atoms: C14_14  and  C15_15 
REMARK    5  A    between atoms: N1_21  and  C21_22 
ROOT
HETATM    1  C11 UNL     1      -1.000   1.607   0.695  1.00  0.00     0.021 A 
HETATM    2  C12 UNL     1      -1.325   1.879   1.990  1.00  0.00     0.028 A 
HETATM    3  C13 UNL     1      -2.370   1.049   2.295  1.00  0.00     0.033 A 
HETATM    4  C14 UNL     1      -2.668   0.273   1.159  1.00  0.00     0.050 A 
HETATM    5  N1  UNL     1      -1.828   0.622   0.194  1.00  0.00    -0.315 N 
ENDROOT
BRANCH   1   6
HETATM    6  C10 UNL     1       0.056   2.300  -0.048  1.00  0.00     0.096 C 
BRANCH   6   7
HETATM    7  C9  UNL     1       1.438   1.962   0.371  1.00  0.00    -0.052 A 
HETATM    8  C8  UNL     1       1.911   2.613   1.516  1.00  0.00     0.007 A 
HETATM    9  C7  UNL     1       3.188   2.338   1.929  1.00  0.00     0.001 A 
HETATM   10  C6  UNL     1       3.989   1.452   1.250  1.00  0.00     0.012 A 
HETATM   11  C5  UNL     1       3.559   0.788   0.114  1.00  0.00    -0.025 A 
HETATM   12  C27 UNL     1       2.265   1.082  -0.285  1.00  0.00     0.019 A 
BRANCH  11  13
HETATM   13  C4  UNL     1       4.416  -0.151  -0.601  1.00  0.00    -0.026 A 
HETATM   14  C3  UNL     1       3.907  -1.241  -1.281  1.00  0.00     0.012 A 
HETATM   15  C2  UNL     1       4.737  -2.128  -1.958  1.00  0.00     0.001 A 
HETATM   16  C1  UNL     1       6.108  -1.928  -1.961  1.00  0.00     0.000 A 
HETATM   17  C29 UNL     1       6.639  -0.848  -1.290  1.00  0.00     0.001 A 
HETATM   18  C28 UNL     1       5.791   0.004  -0.634  1.00  0.00     0.012 A 
ENDBRANCH  11  13
ENDBRANCH   6   7
ENDBRANCH   1   6
BRANCH   5  19
HETATM   19  C21 UNL     1      -1.757   0.156  -1.136  1.00  0.00     0.039 A 
HETATM   20  C22 UNL     1      -2.582   0.687  -2.141  1.00  0.00     0.030 A 
HETATM   21  C23 UNL     1      -2.520   0.299  -3.442  1.00  0.00     0.002 A 
HETATM   22  C24 UNL     1      -1.604  -0.668  -3.819  1.00  0.00     0.000 A 
HETATM   23  C25 UNL     1      -0.771  -1.220  -2.875  1.00  0.00     0.002 A 
HETATM   24  C26 UNL     1      -0.848  -0.817  -1.564  1.00  0.00     0.030 A 
ENDBRANCH   5  19
BRANCH   4  25
HETATM   25  C15 UNL     1      -3.802  -0.683   1.212  1.00  0.00    -0.009 A 
HETATM   26  C16 UNL     1      -4.059  -1.605   0.230  1.00  0.00     0.014 A 
HETATM   27  C17 UNL     1      -5.177  -2.448   0.312  1.00  0.00     0.001 A 
HETATM   28  C18 UNL     1      -6.028  -2.358   1.381  1.00  0.00     0.000 A 
HETATM   29  C19 UNL     1      -5.768  -1.432   2.366  1.00  0.00     0.001 A 
HETATM   30  C20 UNL     1      -4.680  -0.613   2.283  1.00  0.00     0.014 A 
ENDBRANCH   4  25
TORSDOF 5
