REMARK  7 active torsions:
REMARK  status: ('A' for Active; 'I' for Inactive)
REMARK    1  A    between atoms: C2_2  and  C3_3 
REMARK    2  A    between atoms: C3_3  and  C5_5 
REMARK    3  A    between atoms: C5_5  and  N1_7 
REMARK    4  A    between atoms: N1_7  and  C7_10 
REMARK    5  A    between atoms: C7_10  and  C8_11 
REMARK    6  A    between atoms: C8_11  and  N2_12 
REMARK    7  A    between atoms: N2_12  and  C9_14 
ROOT
HETATM    1  C7  UNL     1       0.223  -1.205  -0.298  1.00  0.00     0.277 C 
ENDROOT
BRANCH   1   2
HETATM    2  N1  UNL     1       1.087  -0.469   0.643  1.00  0.00    -0.067 N 
ATOM      3  H12 UNL     1       1.228  -0.953   1.530  1.00  0.00     0.278 HD
ATOM      4  H11 UNL     1       0.650   0.368   1.028  1.00  0.00     0.278 HD
BRANCH   2   5
HETATM    5  C5  UNL     1       2.333  -0.199  -0.082  1.00  0.00     0.185 C 
HETATM    6  C6  UNL     1       2.155   0.713  -1.207  1.00  0.00     0.040 C 
BRANCH   5   7
HETATM    7  C3  UNL     1       3.526  -0.104   0.787  1.00  0.00     0.011 C 
HETATM    8  C4  UNL     1       3.547   1.162   1.633  1.00  0.00     0.012 C 
BRANCH   7   9
HETATM    9  C2  UNL     1       4.832  -0.371   0.166  1.00  0.00     0.002 C 
HETATM   10  C1  UNL     1       5.453   0.606  -0.745  1.00  0.00     0.005 C 
ENDBRANCH   7   9
ENDBRANCH   5   7
ENDBRANCH   2   5
ENDBRANCH   1   2
BRANCH   1  11
HETATM   11  C8  UNL     1      -0.902  -1.892   0.372  1.00  0.00     0.083 C 
BRANCH  11  12
HETATM   12  N2  UNL     1      -1.818  -1.140   1.080  1.00  0.00    -0.396 N 
ATOM     13  H2  UNL     1      -1.746  -1.166   2.097  1.00  0.00     0.159 HD
BRANCH  12  14
HETATM   14  C9  UNL     1      -2.823  -0.356   0.547  1.00  0.00     0.080 C 
HETATM   15  C10 UNL     1      -2.521   0.813  -0.331  1.00  0.00     0.025 C 
HETATM   16  C11 UNL     1      -3.848   1.525  -0.562  1.00  0.00     0.002 C 
HETATM   17  C12 UNL     1      -4.973   1.005   0.268  1.00  0.00     0.000 C 
HETATM   18  C13 UNL     1      -5.225  -0.474   0.142  1.00  0.00     0.002 C 
HETATM   19  C14 UNL     1      -3.914  -1.151  -0.178  1.00  0.00     0.025 C 
ENDBRANCH  12  14
ENDBRANCH  11  12
ENDBRANCH   1  11
TORSDOF 7
