REMARK  6 active torsions:
REMARK  status: ('A' for Active; 'I' for Inactive)
REMARK    1  A    between atoms: C2_2  and  C3_3 
REMARK    2  A    between atoms: C3_3  and  C4_4 
REMARK    3  A    between atoms: C4_4  and  N1_5 
REMARK    4  A    between atoms: N1_5  and  C5_7 
REMARK    5  A    between atoms: C5_7  and  C6_8 
REMARK    6  A    between atoms: C6_8  and  C7_9 
ROOT
HETATM    1  N1  UNL     1       0.219  -0.084   0.726  1.00  0.00    -0.413 N 
ATOM      2  H1  UNL     1       0.624  -0.920   1.147  1.00  0.00     0.154 HD
ENDROOT
BRANCH   1   3
HETATM    3  C4  UNL     1      -1.198   0.023   0.502  1.00  0.00     0.025 C 
HETATM    4  C10 UNL     1      -1.799   1.152   1.337  1.00  0.00     0.030 C 
HETATM    5  C11 UNL     1      -3.130   1.570   0.769  1.00  0.00     0.002 C 
HETATM    6  C12 UNL     1      -2.806   2.400  -0.483  1.00  0.00     0.000 C 
HETATM    7  C13 UNL     1      -1.730   1.725  -1.283  1.00  0.00     0.002 C 
HETATM    8  C14 UNL     1      -1.555   0.254  -0.928  1.00  0.00     0.030 C 
BRANCH   3   9
HETATM    9  C3  UNL     1      -1.883  -1.193   1.014  1.00  0.00     0.030 C 
BRANCH   9  10
HETATM   10  C2  UNL     1      -1.565  -2.521   0.508  1.00  0.00    -0.002 C 
HETATM   11  C1  UNL     1      -1.799  -2.802  -0.955  1.00  0.00     0.005 C 
ENDBRANCH   9  10
ENDBRANCH   3   9
ENDBRANCH   1   3
BRANCH   1  12
HETATM   12  C5  UNL     1       1.030   1.007   0.344  1.00  0.00     0.115 C 
BRANCH  12  13
HETATM   13  C6  UNL     1       2.450   0.780   0.820  1.00  0.00     0.027 C 
BRANCH  13  14
HETATM   14  C7  UNL     1       3.100  -0.441   0.264  1.00  0.00     0.038 C 
HETATM   15  C8  UNL     1       4.509  -0.556   0.829  1.00  0.00     0.238 C 
HETATM   16  N2  UNL     1       4.949  -0.991  -0.480  1.00  0.00    -0.074 N 
HETATM   17  C9  UNL     1       3.848  -0.230  -1.039  1.00  0.00     0.238 C 
ATOM     18  H22 UNL     1       5.908  -0.834  -0.791  1.00  0.00     0.277 HD
ATOM     19  H21 UNL     1       5.064  -1.982  -0.693  1.00  0.00     0.277 HD
ENDBRANCH  13  14
ENDBRANCH  12  13
ENDBRANCH   1  12
TORSDOF 6
