REMARK  7 active torsions:
REMARK  status: ('A' for Active; 'I' for Inactive)
REMARK    1  A    between atoms: C2_2  and  C3_3 
REMARK    2  A    between atoms: C3_3  and  C4_4 
REMARK    3  A    between atoms: C4_4  and  O1_5 
REMARK    4  A    between atoms: C4_4  and  C5_7 
REMARK    5  A    between atoms: C5_7  and  C6_8 
REMARK    6  A    between atoms: C5_7  and  N1_10 
REMARK    7  A    between atoms: N1_10  and  C8_12 
ROOT
HETATM    1  C5  UNL     1      -0.811  -0.534   0.239  1.00  0.00     0.105 C 
ENDROOT
BRANCH   1   2
HETATM    2  C4  UNL     1      -1.923   0.295  -0.309  1.00  0.00     0.143 C 
BRANCH   2   3
HETATM    3  C3  UNL     1      -2.779   0.957   0.752  1.00  0.00     0.060 C 
BRANCH   3   4
HETATM    4  C2  UNL     1      -3.601   2.016   0.127  1.00  0.00    -0.034 C 
HETATM    5  C1  UNL     1      -3.443   3.289   0.495  1.00  0.00     0.007 C 
ENDBRANCH   3   4
ENDBRANCH   2   3
BRANCH   2   6
HETATM    6  O1  UNL     1      -2.617  -0.331  -1.303  1.00  0.00    -0.393 OA
ATOM      7  H1  UNL     1      -2.080  -0.746  -1.968  1.00  0.00     0.210 HD
ENDBRANCH   2   6
ENDBRANCH   1   2
BRANCH   1   8
HETATM    8  C6  UNL     1      -1.264  -1.790   0.910  1.00  0.00     0.023 C 
HETATM    9  C7  UNL     1      -2.015  -2.745   0.043  1.00  0.00     0.007 C 
ENDBRANCH   1   8
BRANCH   1  10
HETATM   10  N1  UNL     1       0.096  -0.790  -0.863  1.00  0.00    -0.410 N 
ATOM     11  H1  UNL     1      -0.222  -0.806  -1.832  1.00  0.00     0.154 HD
BRANCH  10  12
HETATM   12  C8  UNL     1       1.442  -1.015  -0.515  1.00  0.00     0.081 C 
HETATM   13  C9  UNL     1       2.434  -0.653  -1.602  1.00  0.00     0.029 C 
HETATM   14  C10 UNL     1       3.620  -0.059  -0.889  1.00  0.00    -0.012 C 
HETATM   15  C11 UNL     1       3.268   1.373  -0.585  1.00  0.00     0.005 C 
HETATM   16  C14 UNL     1       3.463  -0.672   0.509  1.00  0.00     0.011 C 
HETATM   17  C12 UNL     1       2.129   1.224   0.411  1.00  0.00     0.007 C 
HETATM   18  C13 UNL     1       1.979  -0.257   0.663  1.00  0.00     0.008 C 
ENDBRANCH  10  12
ENDBRANCH   1  10
TORSDOF 7
