REMARK  4 active torsions:
REMARK  status: ('A' for Active; 'I' for Inactive)
REMARK    1  A    between atoms: C6_6  and  C7_7 
REMARK    2  A    between atoms: C7_7  and  N2_10 
REMARK    3  A    between atoms: N2_10  and  N3_12 
REMARK    4  A    between atoms: N3_12  and  C9_14 
ROOT
HETATM    1  C7  UNL     1       0.507  -0.215   1.236  1.00  0.00     0.213 C 
HETATM    2  C8  UNL     1       0.097   1.071   1.803  1.00  0.00     0.086 C 
HETATM    3  N1  UNL     1      -0.213   2.094   2.238  1.00  0.00    -0.195 NA
ENDROOT
BRANCH   1   4
HETATM    4  C6  UNL     1      -0.510  -0.618   0.193  1.00  0.00     0.052 C 
HETATM    5  C2  UNL     1      -1.859  -0.771   0.798  1.00  0.00    -0.082 C 
HETATM    6  C1  UNL     1      -2.138  -0.854   2.071  1.00  0.00     0.015 C 
HETATM    7  C3  UNL     1      -2.803  -0.812  -0.328  1.00  0.00     0.034 C 
HETATM    8  C4  UNL     1      -2.114  -0.048  -1.435  1.00  0.00     0.005 C 
HETATM    9  C5  UNL     1      -0.784   0.447  -0.835  1.00  0.00     0.012 C 
ENDBRANCH   1   4
BRANCH   1  10
HETATM   10  N2  UNL     1       1.818  -0.225   0.691  1.00  0.00    -0.316 N 
ATOM     11  H2  UNL     1       2.522  -0.893   1.004  1.00  0.00     0.181 HD
BRANCH  10  12
HETATM   12  N3  UNL     1       2.090   0.706  -0.275  1.00  0.00    -0.282 N 
ATOM     13  H3  UNL     1       1.602   1.601  -0.290  1.00  0.00     0.188 HD
BRANCH  12  14
HETATM   14  C9  UNL     1       3.083   0.389  -1.269  1.00  0.00     0.199 C 
HETATM   15  N4  UNL     1       3.770  -0.858  -1.259  1.00  0.00    -0.068 NA
HETATM   16  S1  UNL     1       3.463   1.440  -2.448  1.00  0.00    -0.043 SA
ENDBRANCH  12  14
ENDBRANCH  10  12
ENDBRANCH   1  10
TORSDOF 4
