REMARK  4 active torsions:
REMARK  status: ('A' for Active; 'I' for Inactive)
REMARK    1  A    between atoms: N1_1  and  C1_5 
REMARK    2  A    between atoms: C1_5  and  C2_6 
REMARK    3  A    between atoms: C1_5  and  C6_13 
REMARK       I    between atoms: C2_6  and  N2_8 
REMARK    4  A    between atoms: N2_8  and  C3_10 
ROOT
HETATM    1  C1  UNL     1      -0.074  -0.668   0.200  1.00  0.00     0.278 C 
ENDROOT
BRANCH   1   2
HETATM    2  N1  UNL     1       0.401  -1.044   1.543  1.00  0.00    -0.066 N 
ATOM      3  H13 UNL     1       1.111  -1.775   1.515  1.00  0.00     0.275 HD
ATOM      4  H12 UNL     1       0.967  -0.314   1.975  1.00  0.00     0.275 HD
ATOM      5  H11 UNL     1      -0.403  -1.303   2.115  1.00  0.00     0.275 HD
ENDBRANCH   1   2
BRANCH   1   6
HETATM    6  C2  UNL     1       1.089  -0.293  -0.627  1.00  0.00     0.248 C 
HETATM    7  O1  UNL     1       1.009   0.005  -1.834  1.00  0.00    -0.271 OA
HETATM    8  N2  UNL     1       2.373  -0.266  -0.035  1.00  0.00    -0.355 N 
ATOM      9  H2  UNL     1       2.455  -0.508   0.952  1.00  0.00     0.162 HD
BRANCH   8  10
HETATM   10  C3  UNL     1       3.577   0.087  -0.756  1.00  0.00     0.084 A 
HETATM   11  C4  UNL     1       4.586   0.875   0.102  1.00  0.00     0.027 A 
HETATM   12  C5  UNL     1       4.886  -0.530  -0.350  1.00  0.00     0.027 A 
ENDBRANCH   8  10
ENDBRANCH   1   6
BRANCH   1  13
HETATM   13  C6  UNL     1      -1.070   0.436   0.421  1.00  0.00     0.025 C 
HETATM   14  C7  UNL     1      -1.690   0.973  -0.839  1.00  0.00     0.007 C 
HETATM   15  C8  UNL     1      -2.605  -0.092  -1.406  1.00  0.00     0.000 C 
HETATM   16  C9  UNL     1      -3.888  -0.045  -0.573  1.00  0.00     0.000 C 
HETATM   17  C10 UNL     1      -3.544   0.323   0.831  1.00  0.00     0.000 C 
HETATM   18  C11 UNL     1      -2.183  -0.124   1.276  1.00  0.00     0.007 C 
ENDBRANCH   1  13
TORSDOF 4
