REMARK  4 active torsions:
REMARK  status: ('A' for Active; 'I' for Inactive)
REMARK       I    between atoms: C1_2  and  N3_7 
REMARK    1  A    between atoms: N2_3  and  O1_5 
REMARK    2  A    between atoms: N3_7  and  C2_9 
REMARK    3  A    between atoms: C2_9  and  C3_10 
REMARK    4  A    between atoms: C5_12  and  N4_13 
ROOT
HETATM    1  C3  UNL     1       0.906  -0.159   0.387  1.00  0.00     0.039 A 
HETATM    2  C4  UNL     1       0.434  -0.027  -1.009  1.00  0.00     0.044 A 
HETATM    3  C5  UNL     1      -0.360   0.561   0.114  1.00  0.00     0.229 A 
ENDROOT
BRANCH   1   4
HETATM    4  C2  UNL     1       2.144   0.626   0.750  1.00  0.00     0.129 C 
BRANCH   4   5
HETATM    5  N3  UNL     1       3.229   0.184  -0.098  1.00  0.00    -0.363 N 
HETATM    6  C1  UNL     1       4.541   0.710  -0.004  1.00  0.00     0.208 C 
HETATM    7  N1  UNL     1       4.723   2.097   0.148  1.00  0.00    -0.062 NA
HETATM    8  N2  UNL     1       5.549  -0.069  -0.052  1.00  0.00    -0.241 N 
ATOM      9  H2  UNL     1       6.478   0.346   0.024  1.00  0.00     0.197 HD
ATOM     10  H3  UNL     1       3.041  -0.538  -0.794  1.00  0.00     0.162 HD
BRANCH   8  11
HETATM   11  O1  UNL     1       5.463  -1.433  -0.200  1.00  0.00    -0.287 OA
ATOM     12  H1  UNL     1       6.214  -2.014  -0.236  1.00  0.00     0.244 HD
ENDBRANCH   8  11
ENDBRANCH   4   5
ENDBRANCH   1   4
BRANCH   3  13
HETATM   13  N4  UNL     1      -1.635  -0.012   0.387  1.00  0.00     0.093 N 
HETATM   14  C6  UNL     1      -1.951  -1.197  -0.346  1.00  0.00     0.273 C 
HETATM   15  C7  UNL     1      -3.203  -1.818   0.287  1.00  0.00     0.030 C 
HETATM   16  C8  UNL     1      -4.337  -0.848   0.340  1.00  0.00     0.003 C 
HETATM   17  C9  UNL     1      -3.943   0.419  -0.351  1.00  0.00     0.030 C 
HETATM   18  C10 UNL     1      -2.653   0.995   0.164  1.00  0.00     0.273 C 
ENDBRANCH   3  13
TORSDOF 4
