REMARK  5 active torsions:
REMARK  status: ('A' for Active; 'I' for Inactive)
REMARK    1  A    between atoms: C3_3  and  O1_4 
REMARK    2  A    between atoms: C3_3  and  C4_6 
REMARK    3  A    between atoms: C9_11  and  C10_12 
REMARK    4  A    between atoms: C10_12  and  N1_13 
REMARK    5  A    between atoms: C10_12  and  C11_17 
ROOT
HETATM    1  C1  UNL     1      -2.323  -2.964   0.208  1.00  0.00     0.015 C 
HETATM    2  C2  UNL     1      -2.294  -1.787  -0.079  1.00  0.00    -0.085 C 
HETATM    3  C3  UNL     1      -2.235  -0.370  -0.419  1.00  0.00     0.200 C 
ENDROOT
BRANCH   3   4
HETATM    4  O1  UNL     1      -2.712   0.409   0.629  1.00  0.00    -0.383 OA
ATOM      5  H1  UNL     1      -2.674   1.332   0.408  1.00  0.00     0.211 HD
ENDBRANCH   3   4
BRANCH   3   6
HETATM    6  C4  UNL     1      -0.799   0.037  -0.793  1.00  0.00     0.033 C 
HETATM    7  C5  UNL     1      -0.733   1.493  -1.143  1.00  0.00     0.009 C 
HETATM    8  C6  UNL     1      -0.747   2.403   0.048  1.00  0.00     0.001 C 
HETATM    9  C7  UNL     1       0.074   1.934   1.197  1.00  0.00     0.000 C 
HETATM   10  C8  UNL     1       0.891   0.716   0.943  1.00  0.00     0.008 C 
HETATM   11  C9  UNL     1       0.161  -0.404   0.247  1.00  0.00     0.034 C 
BRANCH  11  12
HETATM   12  C10 UNL     1       1.216  -1.375  -0.226  1.00  0.00     0.287 C 
BRANCH  12  13
HETATM   13  N1  UNL     1       2.047  -1.684   0.946  1.00  0.00    -0.065 N 
ATOM     14  H13 UNL     1       2.433  -0.855   1.399  1.00  0.00     0.275 HD
ATOM     15  H12 UNL     1       1.511  -2.025   1.744  1.00  0.00     0.275 HD
ATOM     16  H11 UNL     1       2.760  -2.340   0.626  1.00  0.00     0.275 HD
ENDBRANCH  12  13
BRANCH  12  17
HETATM   17  C11 UNL     1       2.088  -0.881  -1.284  1.00  0.00     0.204 C 
HETATM   18  O2  UNL     1       1.727  -0.535  -2.446  1.00  0.00    -0.646 OA
HETATM   19  O3  UNL     1       3.448  -0.763  -1.035  1.00  0.00    -0.646 OA
ENDBRANCH  12  17
ENDBRANCH  11  12
ENDBRANCH   3   6
TORSDOF 5
