REMARK  13 active torsions:
REMARK  status: ('A' for Active; 'I' for Inactive)
REMARK    1  A    between atoms: C4_4  and  C5_5 
REMARK    2  A    between atoms: C5_5  and  N1_6 
REMARK    3  A    between atoms: N1_6  and  C6_7 
REMARK    4  A    between atoms: N2_11  and  C10_12 
REMARK    5  A    between atoms: C10_12  and  C11_13 
REMARK    6  A    between atoms: C11_13  and  N3_14 
REMARK    7  A    between atoms: N4_17  and  C14_18 
REMARK    8  A    between atoms: C14_18  and  C15_19 
REMARK    9  A    between atoms: C15_19  and  N5_20 
REMARK   10  A    between atoms: N5_20  and  C16_22 
REMARK   11  A    between atoms: C17_23  and  N6_24 
REMARK   12  A    between atoms: N6_24  and  C18_26 
REMARK   13  A    between atoms: C18_26  and  C19_27 
ROOT
HETATM    1  N3  UNL     1      -1.951  -0.164  -0.246  1.00  0.00     0.100 N 
HETATM    2  C12 UNL     1      -2.115  -1.504  -0.712  1.00  0.00     0.293 C 
HETATM    3  C13 UNL     1      -0.795  -2.271  -0.485  1.00  0.00     0.156 C 
HETATM    4  N4  UNL     1       0.178  -1.551  -1.253  1.00  0.00    -0.347 N 
HETATM    5  C28 UNL     1      -0.207  -0.333  -1.865  1.00  0.00     0.248 C 
HETATM    6  O3  UNL     1       0.141  -0.065  -3.070  1.00  0.00    -0.271 OA
HETATM    7  C29 UNL     1      -1.024   0.605  -1.044  1.00  0.00     0.374 C 
ENDROOT
BRANCH   4   8
HETATM    8  C14 UNL     1       1.535  -2.042  -1.424  1.00  0.00     0.145 C 
BRANCH   8   9
HETATM    9  C15 UNL     1       2.416  -1.473  -0.349  1.00  0.00     0.140 C 
BRANCH   9  10
HETATM   10  N5  UNL     1       3.784  -1.843  -0.394  1.00  0.00    -0.383 N 
ATOM     11  H5  UNL     1       4.149  -2.453   0.337  1.00  0.00     0.159 HD
BRANCH  10  12
HETATM   12  C16 UNL     1       4.678  -1.395  -1.426  1.00  0.00     0.114 A 
HETATM   13  C17 UNL     1       6.022  -1.630  -1.685  1.00  0.00     0.114 A 
HETATM   14  C26 UNL     1       5.951  -0.823  -2.783  1.00  0.00     0.252 A 
HETATM   15  O1  UNL     1       6.768  -0.456  -3.655  1.00  0.00    -0.281 OA
HETATM   16  C27 UNL     1       4.624  -0.594  -2.522  1.00  0.00     0.252 A 
HETATM   17  O2  UNL     1       3.748   0.116  -3.128  1.00  0.00    -0.281 OA
BRANCH  13  18
HETATM   18  N6  UNL     1       7.003  -2.428  -1.025  1.00  0.00    -0.384 N 
ATOM     19  H6  UNL     1       7.165  -3.365  -1.395  1.00  0.00     0.159 HD
BRANCH  18  20
HETATM   20  C18 UNL     1       7.778  -2.034   0.105  1.00  0.00     0.124 C 
BRANCH  20  21
HETATM   21  C19 UNL     1       8.660  -0.838  -0.040  1.00  0.00     0.003 C 
HETATM   22  C20 UNL     1       7.982   0.448  -0.360  1.00  0.00     0.006 C 
HETATM   23  C21 UNL     1       8.577   1.607   0.461  1.00  0.00     0.005 C 
HETATM   24  C22 UNL     1      10.092   1.491   0.351  1.00  0.00    -0.019 C 
HETATM   25  C23 UNL     1      10.754   2.753   0.835  1.00  0.00     0.010 C 
HETATM   26  C24 UNL     1      10.545   0.307   1.157  1.00  0.00     0.005 C 
HETATM   27  C25 UNL     1       9.398  -0.682   1.284  1.00  0.00     0.006 C 
ENDBRANCH  20  21
ENDBRANCH  18  20
ENDBRANCH  13  18
ENDBRANCH  10  12
ENDBRANCH   9  10
ENDBRANCH   8   9
ENDBRANCH   4   8
BRANCH   1  28
HETATM   28  C11 UNL     1      -3.129   0.560   0.092  1.00  0.00     0.293 C 
BRANCH  28  29
HETATM   29  C10 UNL     1      -3.889   0.065   1.283  1.00  0.00     0.162 C 
BRANCH  29  30
HETATM   30  N2  UNL     1      -5.043   0.853   1.582  1.00  0.00    -0.310 N 
HETATM   31  C4  UNL     1      -6.214   0.603   0.986  1.00  0.00     0.066 A 
HETATM   32  C3  UNL     1      -7.363   1.338   1.265  1.00  0.00     0.039 A 
HETATM   33  C2  UNL     1      -7.320   2.368   2.185  1.00  0.00    -0.048 A 
HETATM   34  C1  UNL     1      -8.571   3.128   2.447  1.00  0.00     0.049 C 
HETATM   35  C31 UNL     1      -6.124   2.632   2.800  1.00  0.00     0.012 A 
HETATM   36  C30 UNL     1      -5.034   1.872   2.481  1.00  0.00     0.254 A 
HETATM   37  C32 UNL     1      -6.040   3.741   3.801  1.00  0.00     0.054 C 
HETATM   38  O4  UNL     1      -3.932   2.119   3.052  1.00  0.00    -0.267 OA
BRANCH  31  39
HETATM   39  C5  UNL     1      -6.299  -0.459  -0.014  1.00  0.00     0.205 C 
BRANCH  39  40
HETATM   40  N1  UNL     1      -7.294  -0.720  -0.600  1.00  0.00    -0.448 NA
BRANCH  40  41
HETATM   41  C6  UNL     1      -8.420  -1.010  -1.259  1.00  0.00     0.081 C 
HETATM   42  C7  UNL     1      -9.039   0.100  -2.104  1.00  0.00     0.053 C 
HETATM   43  C8  UNL     1      -8.215  -2.175  -2.261  1.00  0.00     0.053 C 
HETATM   44  C9  UNL     1      -9.592  -1.500  -0.376  1.00  0.00     0.053 C 
ENDBRANCH  40  41
ENDBRANCH  39  40
ENDBRANCH  31  39
ENDBRANCH  29  30
ENDBRANCH  28  29
ENDBRANCH   1  28
TORSDOF 13
