REMARK  12 active torsions:
REMARK  status: ('A' for Active; 'I' for Inactive)
REMARK    1  A    between atoms: O1_2  and  C2_3 
REMARK    2  A    between atoms: C3_4  and  O2_5 
REMARK    3  A    between atoms: C4_7  and  N1_8 
REMARK       I    between atoms: N1_8  and  C5_10 
REMARK    4  A    between atoms: C5_10  and  C6_12 
REMARK    5  A    between atoms: C12_19  and  O5_20 
REMARK    6  A    between atoms: C12_19  and  C19_36 
REMARK    7  A    between atoms: O5_20  and  C13_21 
REMARK    8  A    between atoms: C14_23  and  C15_24 
REMARK    9  A    between atoms: C15_24  and  O7_25 
REMARK   10  A    between atoms: C16_27  and  O8_28 
REMARK   11  A    between atoms: C17_30  and  O9_31 
REMARK   12  A    between atoms: C18_33  and  O10_34 
ROOT
HETATM    1  C2  UNL     1      -0.551  -1.307   1.555  1.00  0.00     0.216 C 
HETATM    2  C3  UNL     1       0.828  -0.634   1.559  1.00  0.00     0.201 C 
HETATM    3  C4  UNL     1       1.266  -0.906   0.143  1.00  0.00     0.258 C 
HETATM    4  O4  UNL     1       0.139  -0.687  -0.591  1.00  0.00    -0.325 OA
HETATM    5  C12 UNL     1      -0.965  -1.140   0.144  1.00  0.00     0.201 C 
ENDROOT
BRANCH   5   6
HETATM    6  O5  UNL     1      -1.999  -0.328  -0.138  1.00  0.00    -0.319 OA
BRANCH   6   7
HETATM    7  C13 UNL     1      -3.212  -0.508   0.427  1.00  0.00     0.295 C 
HETATM    8  O6  UNL     1      -3.386   0.542   1.310  1.00  0.00    -0.348 OA
HETATM    9  C14 UNL     1      -4.137   1.588   0.973  1.00  0.00     0.179 C 
HETATM   10  C16 UNL     1      -5.378   1.313   0.168  1.00  0.00     0.180 C 
HETATM   11  C17 UNL     1      -5.590  -0.180   0.036  1.00  0.00     0.183 C 
HETATM   12  C18 UNL     1      -4.275  -0.676  -0.593  1.00  0.00     0.204 C 
BRANCH   9  13
HETATM   13  C15 UNL     1      -3.341   2.705   0.317  1.00  0.00     0.198 C 
BRANCH  13  14
HETATM   14  O7  UNL     1      -2.340   3.182   1.188  1.00  0.00    -0.398 OA
ATOM     15  H7  UNL     1      -1.843   3.880   0.778  1.00  0.00     0.209 HD
ENDBRANCH  13  14
ENDBRANCH   9  13
BRANCH  10  16
HETATM   16  O8  UNL     1      -6.529   1.859   0.715  1.00  0.00    -0.390 OA
ATOM     17  H8  UNL     1      -7.313   1.685   0.207  1.00  0.00     0.210 HD
ENDBRANCH  10  16
BRANCH  11  18
HETATM   18  O9  UNL     1      -6.667  -0.464  -0.768  1.00  0.00    -0.390 OA
ATOM     19  H9  UNL     1      -6.800  -1.401  -0.851  1.00  0.00     0.210 HD
ENDBRANCH  11  18
BRANCH  12  20
HETATM   20  O10 UNL     1      -4.083   0.046  -1.767  1.00  0.00    -0.388 OA
ATOM     21  H10 UNL     1      -4.764  -0.062  -2.421  1.00  0.00     0.210 HD
ENDBRANCH  12  20
ENDBRANCH   6   7
ENDBRANCH   5   6
BRANCH   5  22
HETATM   22  C19 UNL     1      -1.276  -2.506  -0.432  1.00  0.00     0.051 A 
HETATM   23  C20 UNL     1      -1.691  -2.687  -1.844  1.00  0.00     0.011 A 
HETATM   24  C21 UNL     1      -0.348  -3.164  -1.377  1.00  0.00     0.011 A 
ENDBRANCH   5  22
BRANCH   1  25
HETATM   25  O1  UNL     1      -0.467  -2.635   1.910  1.00  0.00    -0.382 OA
HETATM   26  C1  UNL     1      -1.117  -2.943   3.092  1.00  0.00     0.202 C 
ENDBRANCH   1  25
BRANCH   2  27
HETATM   27  O2  UNL     1       0.621   0.724   1.711  1.00  0.00    -0.388 OA
ATOM     28  H2  UNL     1       1.475   1.141   1.713  1.00  0.00     0.210 HD
ENDBRANCH   2  27
BRANCH   3  29
HETATM   29  N1  UNL     1       2.287   0.055  -0.288  1.00  0.00    -0.332 N 
HETATM   30  C5  UNL     1       3.582  -0.362  -0.670  1.00  0.00     0.223 C 
HETATM   31  O3  UNL     1       3.908  -1.563  -0.655  1.00  0.00    -0.273 OA
ATOM     32  H1  UNL     1       2.057   1.048  -0.313  1.00  0.00     0.165 HD
BRANCH  30  33
HETATM   33  C6  UNL     1       4.557   0.664  -1.093  1.00  0.00     0.078 C 
HETATM   34  C7  UNL     1       4.839   1.684  -0.011  1.00  0.00     0.014 C 
HETATM   35  C8  UNL     1       5.658   2.788  -0.608  1.00  0.00     0.001 C 
HETATM   36  C9  UNL     1       6.930   2.280  -1.222  1.00  0.00     0.000 C 
HETATM   37  C10 UNL     1       6.687   1.145  -2.191  1.00  0.00     0.001 C 
HETATM   38  C11 UNL     1       5.874   0.055  -1.520  1.00  0.00     0.014 C 
ENDBRANCH  30  33
ENDBRANCH   3  29
TORSDOF 12
