REMARK  2 active torsions:
REMARK  status: ('A' for Active; 'I' for Inactive)
REMARK    1  A    between atoms: C4_7  and  N2_8 
REMARK       I    between atoms: N2_8  and  C5_10 
REMARK       I    between atoms: C5_10  and  N3_12 
REMARK    2  A    between atoms: N3_12  and  S2_14 
ROOT
HETATM    1  C1  UNL     1      -4.754   2.311  -0.005  1.00  0.00     0.059 C 
HETATM    2  C2  UNL     1      -3.333   1.906  -0.175  1.00  0.00     0.011 A 
HETATM    3  S1  UNL     1      -1.916   2.829  -0.548  1.00  0.00    -0.072 SA
HETATM    4  C3  UNL     1      -0.748   1.569  -0.543  1.00  0.00     0.121 A 
HETATM    5  N1  UNL     1       0.540   1.110  -0.683  1.00  0.00    -0.182 N 
ATOM      6  H1  UNL     1       1.366   1.667  -0.904  1.00  0.00     0.185 HD
HETATM    7  C4  UNL     1       0.497  -0.239  -0.468  1.00  0.00     0.698 A 
HETATM    8  N4  UNL     1      -0.781  -0.603  -0.204  1.00  0.00    -0.089 N 
HETATM    9  C7  UNL     1      -1.436  -1.766   0.083  1.00  0.00     0.362 A 
HETATM   10  O4  UNL     1      -0.769  -2.807   0.135  1.00  0.00    -0.244 OA
HETATM   11  N5  UNL     1      -2.787  -1.697   0.293  1.00  0.00    -0.246 N 
HETATM   12  C8  UNL     1      -3.438  -2.965   0.594  1.00  0.00     0.183 C 
HETATM   13  N6  UNL     1      -3.471  -0.559   0.229  1.00  0.00    -0.292 N 
ATOM     14  H6  UNL     1      -4.478  -0.562   0.394  1.00  0.00     0.187 HD
HETATM   15  C9  UNL     1      -2.822   0.632  -0.061  1.00  0.00     0.092 A 
HETATM   16  C10 UNL     1      -1.519   0.505  -0.254  1.00  0.00     0.125 A 
ENDROOT
BRANCH   7  17
HETATM   17  N2  UNL     1       1.498  -1.033  -0.512  1.00  0.00    -0.140 N 
HETATM   18  C5  UNL     1       2.827  -0.741  -0.777  1.00  0.00     0.347 C 
HETATM   19  O1  UNL     1       3.471  -1.399  -1.621  1.00  0.00    -0.245 OA
HETATM   20  N3  UNL     1       3.495   0.309  -0.100  1.00  0.00    -0.236 N 
ATOM     21  H3  UNL     1       2.984   0.856   0.593  1.00  0.00     0.183 HD
ATOM     22  H2  UNL     1       1.291  -2.014  -0.327  1.00  0.00     0.189 HD
BRANCH  20  23
HETATM   23  S2  UNL     1       5.149   0.690  -0.413  1.00  0.00     0.230 S 
HETATM   24  C6  UNL     1       6.221   0.161   0.899  1.00  0.00     0.186 C 
HETATM   25  O2  UNL     1       5.587  -0.020  -1.674  1.00  0.00    -0.206 OA
HETATM   26  O3  UNL     1       5.321   2.177  -0.546  1.00  0.00    -0.206 OA
ENDBRANCH  20  23
ENDBRANCH   7  17
TORSDOF 2
