REMARK  2 active torsions:
REMARK  status: ('A' for Active; 'I' for Inactive)
REMARK       I    between atoms: N1_2  and  C3_4 
REMARK       I    between atoms: C3_4  and  N2_6 
REMARK    1  A    between atoms: C6_9  and  N3_10 
REMARK    2  A    between atoms: C11_15  and  N4_16 
REMARK       I    between atoms: N4_16  and  C12_18 
REMARK       I    between atoms: C12_18  and  N5_20 
ROOT
HETATM    1  N3  UNL     1      -1.197   0.663   0.699  1.00  0.00     0.095 N 
HETATM    2  C7  UNL     1      -1.065   0.653   2.114  1.00  0.00     0.273 C 
HETATM    3  C8  UNL     1       0.337   0.944   2.592  1.00  0.00     0.030 C 
HETATM    4  C9  UNL     1       0.997   2.050   1.851  1.00  0.00     0.004 C 
HETATM    5  C10 UNL     1       0.911   2.046   0.383  1.00  0.00     0.027 C 
HETATM    6  C11 UNL     1       0.986   0.718  -0.310  1.00  0.00     0.114 C 
HETATM    7  C20 UNL     1      -0.249  -0.137  -0.001  1.00  0.00     0.298 C 
ENDROOT
BRANCH   6   8
HETATM    8  N4  UNL     1       2.210   0.011  -0.132  1.00  0.00    -0.337 N 
HETATM    9  C12 UNL     1       3.123  -0.333  -1.145  1.00  0.00     0.318 C 
HETATM   10  O2  UNL     1       2.847   0.007  -2.320  1.00  0.00    -0.247 OA
HETATM   11  N5  UNL     1       4.324  -1.036  -0.906  1.00  0.00    -0.334 N 
HETATM   12  C13 UNL     1       5.078  -1.264  -2.092  1.00  0.00     0.127 C 
HETATM   13  C19 UNL     1       4.517  -1.364   0.493  1.00  0.00     0.127 C 
HETATM   14  C14 UNL     1       6.307  -0.402  -2.214  1.00  0.00     0.020 C 
HETATM   15  C15 UNL     1       6.453   0.573  -1.080  1.00  0.00     0.002 C 
HETATM   16  C16 UNL     1       6.966   0.009   0.187  1.00  0.00     0.000 C 
HETATM   17  C17 UNL     1       7.028  -1.468   0.290  1.00  0.00     0.002 C 
HETATM   18  C18 UNL     1       5.775  -2.149   0.723  1.00  0.00     0.020 C 
ATOM     19  H4  UNL     1       2.446  -0.272   0.819  1.00  0.00     0.164 HD
ENDBRANCH   6   8
BRANCH   1  20
HETATM   20  C6  UNL     1      -2.553   0.556   0.308  1.00  0.00     0.226 C 
HETATM   21  C5  UNL     1      -3.271  -0.691   0.679  1.00  0.00     0.056 C 
HETATM   22  C4  UNL     1      -4.769  -0.412   0.653  1.00  0.00     0.129 C 
HETATM   23  N2  UNL     1      -5.172   0.329  -0.508  1.00  0.00    -0.334 N 
HETATM   24  C3  UNL     1      -6.537   0.399  -0.864  1.00  0.00     0.319 C 
HETATM   25  C22 UNL     1      -4.229   1.060  -1.360  1.00  0.00     0.129 C 
HETATM   26  N1  UNL     1      -7.657  -0.116  -0.249  1.00  0.00    -0.343 N 
HETATM   27  O1  UNL     1      -6.764   1.065  -1.956  1.00  0.00    -0.247 OA
HETATM   28  C1  UNL     1      -7.780  -0.873   0.971  1.00  0.00     0.154 C 
HETATM   29  C2  UNL     1      -9.010   0.100  -0.897  1.00  0.00     0.154 C 
HETATM   30  C21 UNL     1      -2.796   0.755  -1.173  1.00  0.00     0.056 C 
ENDBRANCH   1  20
TORSDOF 2
