REMARK  5 active torsions:
REMARK  status: ('A' for Active; 'I' for Inactive)
REMARK    1  A    between atoms: C2_2  and  C5_5 
REMARK    2  A    between atoms: C8_8  and  C9_9 
REMARK       I    between atoms: C9_9  and  N1_11 
REMARK    3  A    between atoms: C12_14  and  C13_15 
REMARK    4  A    between atoms: C13_15  and  O2_16 
REMARK    5  A    between atoms: C13_15  and  N2_18 
REMARK       I    between atoms: N3_21  and  C16_22 
ROOT
HETATM    1  C9  UNL     1      -1.153  -1.743   0.889  1.00  0.00     0.224 C 
HETATM    2  O1  UNL     1      -1.082  -2.880   1.414  1.00  0.00    -0.273 OA
HETATM    3  N1  UNL     1      -0.008  -0.933   0.821  1.00  0.00    -0.352 N 
HETATM    4  C10 UNL     1       1.236  -1.426   1.404  1.00  0.00     0.126 C 
HETATM    5  C11 UNL     1       2.044  -0.329   2.059  1.00  0.00     0.033 C 
HETATM    6  C12 UNL     1       2.033   0.937   1.283  1.00  0.00     0.063 C 
HETATM    7  C19 UNL     1       1.363   0.811  -0.062  1.00  0.00     0.033 C 
HETATM    8  C20 UNL     1      -0.081   0.351   0.153  1.00  0.00     0.126 C 
ENDROOT
BRANCH   1   9
HETATM    9  C8  UNL     1      -2.442  -1.298   0.363  1.00  0.00     0.078 C 
HETATM   10  C7  UNL     1      -3.118  -0.406   1.369  1.00  0.00     0.014 C 
HETATM   11  C6  UNL     1      -4.113   0.486   0.656  1.00  0.00     0.006 C 
HETATM   12  C5  UNL     1      -4.693  -0.360  -0.472  1.00  0.00    -0.007 C 
HETATM   13  C22 UNL     1      -4.800  -1.772  -0.004  1.00  0.00     0.006 C 
HETATM   14  C21 UNL     1      -3.410  -2.420   0.039  1.00  0.00     0.014 C 
BRANCH  12  15
HETATM   15  C2  UNL     1      -6.016   0.211  -0.928  1.00  0.00    -0.048 C 
HETATM   16  C1  UNL     1      -5.720   1.631  -1.414  1.00  0.00     0.015 C 
HETATM   17  C3  UNL     1      -6.551  -0.568  -2.083  1.00  0.00     0.015 C 
HETATM   18  C4  UNL     1      -6.996   0.349   0.208  1.00  0.00     0.015 C 
ENDBRANCH  12  15
ENDBRANCH   1   9
BRANCH   6  19
HETATM   19  C13 UNL     1       3.288   1.666   1.164  1.00  0.00     0.117 C 
BRANCH  19  20
HETATM   20  O2  UNL     1       3.283   2.926   1.516  1.00  0.00    -0.349 OA
ATOM     21  H2  UNL     1       4.102   3.402   1.438  1.00  0.00     0.219 HD
ENDBRANCH  19  20
BRANCH  19  22
HETATM   22  N2  UNL     1       4.536   1.210   0.717  1.00  0.00    -0.362 N 
HETATM   23  C14 UNL     1       4.784  -0.131   0.293  1.00  0.00     0.144 C 
HETATM   24  C15 UNL     1       5.768  -0.175  -0.869  1.00  0.00     0.147 C 
HETATM   25  N3  UNL     1       6.989   0.521  -0.543  1.00  0.00    -0.333 N 
HETATM   26  C16 UNL     1       8.125   0.306  -1.363  1.00  0.00     0.330 C 
HETATM   27  C17 UNL     1       6.982   1.392   0.595  1.00  0.00     0.147 C 
HETATM   28  N4  UNL     1       8.098  -0.564  -2.483  1.00  0.00    -0.040 NA
HETATM   29  O3  UNL     1       9.216   0.896  -1.113  1.00  0.00    -0.251 OA
HETATM   30  C18 UNL     1       5.656   2.137   0.674  1.00  0.00     0.144 C 
ENDBRANCH  19  22
ENDBRANCH   6  19
TORSDOF 5
