REMARK  5 active torsions:
REMARK  status: ('A' for Active; 'I' for Inactive)
REMARK       I    between atoms: C1_2  and  N1_3 
REMARK       I    between atoms: C1_2  and  N5_25 
REMARK    1  A    between atoms: N1_3  and  C2_5 
REMARK    2  A    between atoms: N2_8  and  C5_9 
REMARK    3  A    between atoms: N3_12  and  C8_13 
REMARK    4  A    between atoms: C8_13  and  O2_14 
REMARK    5  A    between atoms: C8_13  and  N4_16 
ROOT
HETATM    1  C2  UNL     1      -1.732  -1.282  -0.559  1.00  0.00     0.089 C 
HETATM    2  C3  UNL     1      -1.029  -2.620  -0.634  1.00  0.00     0.044 C 
HETATM    3  C4  UNL     1       0.467  -2.300  -0.570  1.00  0.00     0.119 C 
HETATM    4  N2  UNL     1       0.743  -0.922  -0.762  1.00  0.00    -0.406 N 
HETATM    5  C15 UNL     1       0.126  -0.334  -1.917  1.00  0.00     0.119 C 
HETATM    6  C16 UNL     1      -1.379  -0.556  -1.849  1.00  0.00     0.044 C 
ENDROOT
BRANCH   4   7
HETATM    7  C5  UNL     1       2.072  -0.602  -0.485  1.00  0.00     0.098 C 
HETATM    8  C6  UNL     1       2.476  -0.848   0.943  1.00  0.00     0.046 C 
HETATM    9  C7  UNL     1       3.785  -0.116   1.075  1.00  0.00     0.128 C 
HETATM   10  N3  UNL     1       3.802   0.841   0.014  1.00  0.00    -0.345 N 
HETATM   11  C14 UNL     1       2.463   0.838  -0.644  1.00  0.00     0.151 C 
BRANCH  10  12
HETATM   12  C8  UNL     1       4.856   1.670  -0.400  1.00  0.00     0.217 C 
BRANCH  12  13
HETATM   13  O2  UNL     1       4.545   2.452  -1.411  1.00  0.00    -0.333 OA
ATOM     14  H2  UNL     1       5.258   3.013  -1.691  1.00  0.00     0.220 HD
ENDBRANCH  12  13
BRANCH  12  15
HETATM   15  N4  UNL     1       6.158   1.767   0.107  1.00  0.00    -0.348 N 
HETATM   16  C9  UNL     1       7.106   2.736  -0.522  1.00  0.00     0.126 C 
HETATM   17  C10 UNL     1       8.467   2.082  -0.425  1.00  0.00     0.020 C 
HETATM   18  C11 UNL     1       8.385   0.579  -0.560  1.00  0.00     0.003 C 
HETATM   19  C12 UNL     1       7.600  -0.063   0.566  1.00  0.00     0.020 C 
HETATM   20  C13 UNL     1       6.729   1.028   1.184  1.00  0.00     0.126 C 
ENDBRANCH  12  15
ENDBRANCH  10  12
ENDBRANCH   4   7
BRANCH   1  21
HETATM   21  N1  UNL     1      -3.135  -1.355  -0.331  1.00  0.00    -0.338 N 
HETATM   22  C1  UNL     1      -3.719  -0.652   0.762  1.00  0.00     0.318 C 
HETATM   23  O1  UNL     1      -2.957   0.043   1.530  1.00  0.00    -0.247 OA
HETATM   24  N5  UNL     1      -5.095  -0.652   1.082  1.00  0.00    -0.334 N 
HETATM   25  C17 UNL     1      -5.912  -1.459   0.189  1.00  0.00     0.127 C 
HETATM   26  C23 UNL     1      -5.374   0.170   2.245  1.00  0.00     0.127 C 
HETATM   27  C18 UNL     1      -6.122  -0.749  -1.118  1.00  0.00     0.020 C 
HETATM   28  C19 UNL     1      -7.519  -0.205  -1.189  1.00  0.00     0.002 C 
HETATM   29  C20 UNL     1      -7.960   0.480   0.073  1.00  0.00     0.000 C 
HETATM   30  C21 UNL     1      -6.901   1.370   0.654  1.00  0.00     0.002 C 
HETATM   31  C22 UNL     1      -6.613   0.992   2.102  1.00  0.00     0.020 C 
ATOM     32  H1  UNL     1      -3.723  -1.912  -0.951  1.00  0.00     0.164 HD
ENDBRANCH   1  21
TORSDOF 5
