REMARK  3 active torsions:
REMARK  status: ('A' for Active; 'I' for Inactive)
REMARK       I    between atoms: C2_2  and  N1_4 
REMARK    1  A    between atoms: N1_4  and  C3_6 
REMARK    2  A    between atoms: C12_15  and  C13_16 
REMARK       I    between atoms: C13_16  and  N2_18 
REMARK    3  A    between atoms: N3_21  and  C16_22 
ROOT
HETATM    1  C3  UNL     1      -3.673   0.340   0.604  1.00  0.00     0.093 C 
HETATM    2  C4  UNL     1      -3.892  -0.987   1.286  1.00  0.00     0.009 C 
HETATM    3  C5  UNL     1      -2.622  -1.712   1.577  1.00  0.00     0.011 C 
HETATM    4  C6  UNL     1      -1.994  -2.381   0.405  1.00  0.00    -0.013 C 
HETATM    5  C7  UNL     1      -2.973  -3.118  -0.475  1.00  0.00     0.009 C 
HETATM    6  C8  UNL     1      -4.069  -2.146  -0.841  1.00  0.00    -0.013 C 
HETATM    7  C9  UNL     1      -4.801  -1.810   0.434  1.00  0.00     0.011 C 
HETATM    8  C10 UNL     1      -3.552  -0.939  -1.562  1.00  0.00     0.012 C 
HETATM    9  C11 UNL     1      -2.969   0.107  -0.686  1.00  0.00     0.022 C 
HETATM   10  C12 UNL     1      -1.483  -0.058  -0.412  1.00  0.00     0.084 C 
HETATM   11  C25 UNL     1      -1.117  -1.511  -0.437  1.00  0.00     0.019 C 
ENDROOT
BRANCH  10  12
HETATM   12  C13 UNL     1      -0.674   0.714  -1.392  1.00  0.00     0.225 C 
HETATM   13  O2  UNL     1      -1.314   1.252  -2.371  1.00  0.00    -0.273 OA
HETATM   14  N2  UNL     1       0.705   0.909  -1.354  1.00  0.00    -0.334 N 
HETATM   15  C14 UNL     1       1.491   1.642  -2.304  1.00  0.00     0.147 C 
HETATM   16  C24 UNL     1       1.617   0.429  -0.356  1.00  0.00     0.247 C 
HETATM   17  C15 UNL     1       2.480   2.355  -1.370  1.00  0.00     0.139 C 
HETATM   18  N3  UNL     1       2.595   1.460  -0.299  1.00  0.00    -0.391 N 
BRANCH  18  19
HETATM   19  C16 UNL     1       3.848   1.178   0.240  1.00  0.00     0.085 C 
HETATM   20  C17 UNL     1       3.733   0.154   1.353  1.00  0.00     0.030 C 
HETATM   21  C18 UNL     1       5.125  -0.407   1.556  1.00  0.00    -0.013 C 
HETATM   22  C19 UNL     1       6.200   0.643   1.365  1.00  0.00     0.005 C 
HETATM   23  C23 UNL     1       5.325  -1.451   0.464  1.00  0.00     0.005 C 
HETATM   24  C20 UNL     1       6.260   1.128  -0.069  1.00  0.00     0.007 C 
HETATM   25  C21 UNL     1       4.913   0.723  -0.694  1.00  0.00     0.008 C 
HETATM   26  C22 UNL     1       5.017  -0.780  -0.850  1.00  0.00     0.007 C 
ENDBRANCH  18  19
ENDBRANCH  10  12
BRANCH   1  27
HETATM   27  N1  UNL     1      -4.928   1.036   0.477  1.00  0.00    -0.356 N 
HETATM   28  C2  UNL     1      -5.135   2.277   1.140  1.00  0.00     0.213 C 
HETATM   29  C1  UNL     1      -6.417   3.019   1.028  1.00  0.00     0.117 C 
HETATM   30  O1  UNL     1      -4.251   2.817   1.855  1.00  0.00    -0.274 OA
ATOM     31  H1  UNL     1      -5.674   0.636  -0.093  1.00  0.00     0.162 HD
ENDBRANCH   1  27
TORSDOF 3
