REMARK  4 active torsions:
REMARK  status: ('A' for Active; 'I' for Inactive)
REMARK    1  A    between atoms: N1_9  and  C9_10 
REMARK    2  A    between atoms: C9_10  and  C10_11 
REMARK       I    between atoms: N2_14  and  C13_15 
REMARK    3  A    between atoms: C13_15  and  C14_17 
REMARK    4  A    between atoms: C20_23  and  N3_24 
ROOT
HETATM    1  C1  UNL     1       6.065  -0.946   0.602  1.00  0.00     0.011 C 
HETATM    2  C2  UNL     1       5.775   0.431   0.124  1.00  0.00    -0.010 C 
HETATM    3  C3  UNL     1       4.589   1.069   0.806  1.00  0.00    -0.010 C 
HETATM    4  C4  UNL     1       4.422   1.046   2.229  1.00  0.00     0.005 C 
HETATM    5  C5  UNL     1       3.173   0.240   2.658  1.00  0.00     0.001 C 
HETATM    6  C6  UNL     1       1.967   0.547   1.809  1.00  0.00     0.008 C 
HETATM    7  C7  UNL     1       1.430  -0.579   0.985  1.00  0.00     0.049 C 
HETATM    8  C8  UNL     1       0.019  -0.990   1.246  1.00  0.00     0.279 C 
HETATM    9  N1  UNL     1      -0.333  -0.909  -0.168  1.00  0.00     0.096 N 
HETATM   10  C19 UNL     1       0.876  -0.137  -0.379  1.00  0.00     0.259 C 
HETATM   11  C20 UNL     1       1.627  -0.684  -1.540  1.00  0.00     0.221 C 
HETATM   12  C21 UNL     1       2.862  -0.027  -1.999  1.00  0.00     0.019 C 
HETATM   13  C22 UNL     1       3.019   1.434  -1.780  1.00  0.00     0.011 C 
HETATM   14  C23 UNL     1       4.427   1.742  -1.381  1.00  0.00    -0.009 C 
HETATM   15  C24 UNL     1       4.516   2.357   0.031  1.00  0.00     0.010 C 
HETATM   16  C25 UNL     1       5.178   0.427  -1.309  1.00  0.00    -0.006 C 
HETATM   17  C26 UNL     1       4.152  -0.661  -1.469  1.00  0.00     0.012 C 
ENDROOT
BRANCH   9  18
HETATM   18  C9  UNL     1      -1.571  -0.122  -0.291  1.00  0.00     0.279 C 
BRANCH  18  19
HETATM   19  C10 UNL     1      -2.739  -0.864   0.295  1.00  0.00     0.033 C 
HETATM   20  C11 UNL     1      -3.007  -2.186  -0.368  1.00  0.00     0.028 C 
HETATM   21  C12 UNL     1      -4.446  -2.432   0.016  1.00  0.00     0.126 C 
HETATM   22  N2  UNL     1      -5.045  -1.102  -0.182  1.00  0.00    -0.351 N 
HETATM   23  C13 UNL     1      -6.396  -0.868  -0.450  1.00  0.00     0.224 C 
HETATM   24  C18 UNL     1      -4.002  -0.097  -0.055  1.00  0.00     0.132 C 
HETATM   25  O1  UNL     1      -7.195  -1.830  -0.539  1.00  0.00    -0.273 OA
BRANCH  23  26
HETATM   26  C14 UNL     1      -6.920   0.490  -0.633  1.00  0.00     0.078 C 
HETATM   27  C15 UNL     1      -6.771   1.426   0.547  1.00  0.00     0.014 C 
HETATM   28  C16 UNL     1      -8.209   1.839   0.356  1.00  0.00     0.002 C 
HETATM   29  C17 UNL     1      -8.422   0.623  -0.497  1.00  0.00     0.014 C 
ENDBRANCH  23  26
ENDBRANCH  18  19
ENDBRANCH   9  18
BRANCH  11  30
HETATM   30  N3  UNL     1       1.964  -2.080  -1.207  1.00  0.00    -0.073 N 
ATOM     31  H33 UNL     1       2.465  -2.173  -0.323  1.00  0.00     0.274 HD
ATOM     32  H32 UNL     1       1.151  -2.641  -0.953  1.00  0.00     0.274 HD
ATOM     33  H31 UNL     1       2.479  -2.455  -2.003  1.00  0.00     0.274 HD
ENDBRANCH  11  30
TORSDOF 4
