REMARK  5 active torsions:
REMARK  status: ('A' for Active; 'I' for Inactive)
REMARK    1  A    between atoms: S1_2  and  C2_3 
REMARK    2  A    between atoms: N1_6  and  C4_8 
REMARK    3  A    between atoms: C4_8  and  C5_9 
REMARK    4  A    between atoms: C5_9  and  C6_10 
REMARK    5  A    between atoms: C6_10  and  N2_11 
ROOT
HETATM    1  C2  UNL     1      -2.477   2.682   0.349  1.00  0.00     0.051 A 
HETATM    2  S2  UNL     1      -0.802   2.449   0.543  1.00  0.00    -0.064 SA
HETATM    3  C3  UNL     1      -0.346   0.807   0.346  1.00  0.00     0.084 A 
HETATM    4  N1  UNL     1       0.890   0.446   0.459  1.00  0.00    -0.383 N 
ATOM      5  H1  UNL     1       1.144  -0.534   0.338  1.00  0.00     0.160 HD
HETATM    6  C9  UNL     1      -1.380  -0.060   0.065  1.00  0.00     0.033 A 
HETATM    7  C10 UNL     1      -1.266  -1.441  -0.138  1.00  0.00    -0.020 A 
HETATM    8  C11 UNL     1      -2.523  -1.884  -0.382  1.00  0.00     0.017 A 
HETATM    9  N3  UNL     1      -3.390  -0.862  -0.340  1.00  0.00    -0.358 N 
ATOM     10  H3  UNL     1      -4.397  -0.929  -0.490  1.00  0.00     0.166 HD
HETATM   11  C12 UNL     1      -2.699   0.285  -0.062  1.00  0.00     0.054 A 
HETATM   12  C13 UNL     1      -3.203   1.566   0.072  1.00  0.00    -0.011 A 
HETATM   13  C14 UNL     1      -4.690   1.786  -0.098  1.00  0.00     0.052 C 
HETATM   14  C15 UNL     1      -2.851  -3.315  -0.655  1.00  0.00     0.057 C 
HETATM   15  C16 UNL     1      -1.733  -4.238  -0.336  1.00  0.00     0.006 C 
HETATM   16  C17 UNL     1      -0.377  -3.688  -0.715  1.00  0.00     0.005 C 
HETATM   17  C18 UNL     1      -0.107  -2.351  -0.122  1.00  0.00     0.042 C 
ENDROOT
BRANCH   4  18
HETATM   18  C4  UNL     1       1.904   1.410   0.752  1.00  0.00     0.122 C 
BRANCH  18  19
HETATM   19  C5  UNL     1       3.004   0.856   1.623  1.00  0.00     0.050 C 
BRANCH  19  20
HETATM   20  C6  UNL     1       3.698  -0.303   0.981  1.00  0.00     0.273 C 
BRANCH  20  21
HETATM   21  N2  UNL     1       4.314   0.038  -0.283  1.00  0.00     0.080 N 
HETATM   22  C7  UNL     1       4.976  -1.074  -0.896  1.00  0.00     0.309 C 
HETATM   23  C8  UNL     1       5.188   1.187  -0.172  1.00  0.00     0.309 C 
ENDBRANCH  20  21
ENDBRANCH  19  20
ENDBRANCH  18  19
ENDBRANCH   4  18
BRANCH   1  24
HETATM   24  S1  UNL     1      -3.204   4.312   0.508  1.00  0.00    -0.126 SA
HETATM   25  C1  UNL     1      -3.238   5.180  -1.070  1.00  0.00     0.096 C 
ENDBRANCH   1  24
TORSDOF 5
