REMARK  7 active torsions:
REMARK  status: ('A' for Active; 'I' for Inactive)
REMARK    1  A    between atoms: C2_2  and  C5_5 
REMARK    2  A    between atoms: C5_5  and  N1_6 
REMARK    3  A    between atoms: C9_12  and  N3_13 
REMARK    4  A    between atoms: N3_13  and  C10_15 
REMARK    5  A    between atoms: C10_15  and  C11_16 
REMARK    6  A    between atoms: C11_16  and  C12_17 
REMARK    7  A    between atoms: C12_17  and  C13_18 
ROOT
HETATM    1  N1  UNL     1      -3.037  -0.798  -0.141  1.00  0.00     0.094 N 
HETATM    2  C6  UNL     1      -2.394  -1.746   0.760  1.00  0.00     0.279 C 
HETATM    3  C7  UNL     1      -1.553  -0.975   1.742  1.00  0.00     0.088 C 
HETATM    4  C8  UNL     1      -0.325  -0.611   0.900  1.00  0.00     0.028 A 
HETATM    5  N2  UNL     1       0.947  -0.774   1.110  1.00  0.00    -0.339 N 
ATOM      6  H2  UNL     1       1.279  -1.222   1.964  1.00  0.00     0.168 HD
HETATM    7  C9  UNL     1       1.808  -0.347   0.193  1.00  0.00     0.145 A 
HETATM    8  S2  UNL     1       0.794   0.311  -1.017  1.00  0.00    -0.055 SA
HETATM    9  C17 UNL     1      -0.706   0.001  -0.272  1.00  0.00     0.037 A 
HETATM   10  C18 UNL     1      -2.177   0.246  -0.561  1.00  0.00     0.320 C 
ENDROOT
BRANCH   7  11
HETATM   11  N3  UNL     1       3.133  -0.412   0.207  1.00  0.00    -0.370 N 
ATOM     12  H3  UNL     1       3.640  -0.830   0.987  1.00  0.00     0.161 HD
BRANCH  11  13
HETATM   13  C10 UNL     1       3.824   0.140  -0.939  1.00  0.00     0.122 C 
BRANCH  13  14
HETATM   14  C11 UNL     1       4.912  -0.759  -1.416  1.00  0.00     0.024 C 
BRANCH  14  15
HETATM   15  C12 UNL     1       6.005  -1.056  -0.456  1.00  0.00     0.041 C 
BRANCH  15  16
HETATM   16  C13 UNL     1       6.673   0.262  -0.084  1.00  0.00    -0.051 A 
HETATM   17  C14 UNL     1       7.672   0.777  -0.816  1.00  0.00     0.014 A 
HETATM   18  C15 UNL     1       8.214   1.961  -0.391  1.00  0.00     0.050 A 
HETATM   19  S1  UNL     1       7.317   2.314   1.011  1.00  0.00    -0.113 SA
HETATM   20  C16 UNL     1       6.282   0.962   1.025  1.00  0.00     0.056 A 
ENDBRANCH  15  16
ENDBRANCH  14  15
ENDBRANCH  13  14
ENDBRANCH  11  13
ENDBRANCH   7  11
BRANCH   1  21
HETATM   21  C5  UNL     1      -4.220  -0.354   0.542  1.00  0.00     0.281 C 
BRANCH  21  22
HETATM   22  C2  UNL     1      -5.252   0.362  -0.233  1.00  0.00    -0.025 C 
HETATM   23  C1  UNL     1      -5.805  -0.476  -1.377  1.00  0.00     0.016 C 
HETATM   24  C3  UNL     1      -4.887   1.710  -0.747  1.00  0.00     0.016 C 
HETATM   25  C4  UNL     1      -6.453   0.586   0.725  1.00  0.00     0.016 C 
ENDBRANCH  21  22
ENDBRANCH   1  21
TORSDOF 7
