REMARK  9 active torsions:
REMARK  status: ('A' for Active; 'I' for Inactive)
REMARK    1  A    between atoms: C2_2  and  C17_17 
REMARK    2  A    between atoms: C3_3  and  C4_4 
REMARK    3  A    between atoms: C4_4  and  C5_5 
REMARK    4  A    between atoms: C5_5  and  C6_6 
REMARK    5  A    between atoms: C6_6  and  C8_8 
REMARK    6  A    between atoms: C17_17  and  O2_19 
REMARK    7  A    between atoms: O2_19  and  C18_20 
REMARK    8  A    between atoms: C18_20  and  C19_22 
REMARK    9  A    between atoms: C19_22  and  O4_25 
ROOT
HETATM    1  C1  UNL     1      -3.227  -0.953  -2.771  1.00  0.00     0.054 C 
HETATM    2  C2  UNL     1      -2.589  -0.020  -1.757  1.00  0.00     0.010 C 
HETATM    3  C3  UNL     1      -1.379   0.353  -1.959  1.00  0.00    -0.014 C 
ENDROOT
BRANCH   3   4
HETATM    4  C4  UNL     1      -0.501   1.228  -1.186  1.00  0.00     0.028 C 
BRANCH   4   5
HETATM    5  C5  UNL     1       0.712   0.364  -0.783  1.00  0.00     0.008 C 
BRANCH   5   6
HETATM    6  C6  UNL     1       1.614   1.250   0.006  1.00  0.00    -0.014 C 
HETATM    7  C7  UNL     1       0.865   1.747   1.221  1.00  0.00     0.010 C 
BRANCH   6   8
HETATM    8  C8  UNL     1       2.875   0.575   0.465  1.00  0.00    -0.006 C 
HETATM    9  C9  UNL     1       2.597  -0.623   1.353  1.00  0.00     0.032 C 
HETATM   10  C10 UNL     1       3.899  -0.999   1.960  1.00  0.00    -0.023 C 
HETATM   11  C11 UNL     1       5.012  -0.885   1.250  1.00  0.00    -0.080 C 
HETATM   12  C12 UNL     1       6.352  -1.266   1.857  1.00  0.00     0.044 C 
HETATM   13  C13 UNL     1       5.048  -0.394  -0.150  1.00  0.00    -0.025 C 
HETATM   14  C14 UNL     1       5.983   0.821  -0.235  1.00  0.00     0.019 C 
HETATM   15  C15 UNL     1       5.649  -1.468  -1.062  1.00  0.00     0.019 C 
HETATM   16  C16 UNL     1       3.716   0.072  -0.672  1.00  0.00     0.018 C 
ENDBRANCH   6   8
ENDBRANCH   5   6
ENDBRANCH   4   5
ENDBRANCH   3   4
BRANCH   2  17
HETATM   17  C17 UNL     1      -3.425   0.350  -0.656  1.00  0.00     0.296 C 
HETATM   18  O1  UNL     1      -3.064   1.096   0.259  1.00  0.00    -0.259 OA
BRANCH  17  19
HETATM   19  O2  UNL     1      -4.753  -0.123  -0.533  1.00  0.00    -0.239 OA
BRANCH  19  20
HETATM   20  C18 UNL     1      -5.574   0.219   0.517  1.00  0.00     0.300 C 
HETATM   21  O3  UNL     1      -5.088   0.994   1.396  1.00  0.00    -0.261 OA
BRANCH  20  22
HETATM   22  C19 UNL     1      -6.967  -0.295   0.616  1.00  0.00     0.138 C 
HETATM   23  C20 UNL     1      -7.886   0.908   0.530  1.00  0.00     0.056 C 
HETATM   24  C21 UNL     1      -7.174  -1.061   1.894  1.00  0.00     0.056 C 
BRANCH  22  25
HETATM   25  O4  UNL     1      -7.204  -1.104  -0.474  1.00  0.00    -0.380 OA
ATOM     26  H4  UNL     1      -8.093  -1.432  -0.411  1.00  0.00     0.211 HD
ENDBRANCH  22  25
ENDBRANCH  20  22
ENDBRANCH  19  20
ENDBRANCH  17  19
ENDBRANCH   2  17
TORSDOF 9
