REMARK  8 active torsions:
REMARK  status: ('A' for Active; 'I' for Inactive)
REMARK    1  A    between atoms: C3_5  and  N2_6 
REMARK       I    between atoms: N2_6  and  C4_8 
REMARK    2  A    between atoms: C4_8  and  C5_10 
REMARK    3  A    between atoms: C5_10  and  C6_11 
REMARK    4  A    between atoms: C6_11  and  C7_12 
REMARK    5  A    between atoms: C7_12  and  N3_13 
REMARK    6  A    between atoms: N3_13  and  C10_16 
REMARK    7  A    between atoms: C10_16  and  C11_17 
REMARK    8  A    between atoms: C11_17  and  C12_18 
ROOT
HETATM    1  C12 UNL     1       6.450   1.413  -0.083  1.00  0.00    -0.092 C 
HETATM    2  C13 UNL     1       7.096   2.323  -0.510  1.00  0.00    -0.024 C 
HETATM    3 BR1  UNL     1       8.098   3.778  -1.165  1.00  0.00     0.010 Br
ENDROOT
BRANCH   1   4
HETATM    4  C11 UNL     1       5.656   0.306   0.464  1.00  0.00     0.122 C 
BRANCH   4   5
HETATM    5  C10 UNL     1       4.329   0.296  -0.250  1.00  0.00     0.248 C 
BRANCH   5   6
HETATM    6  N3  UNL     1       3.459  -0.756   0.207  1.00  0.00    -0.074 N 
HETATM    7  C8  UNL     1       4.120  -2.023  -0.134  1.00  0.00     0.272 C 
HETATM    8  C9  UNL     1       3.258  -0.762   1.627  1.00  0.00     0.272 C 
BRANCH   6   9
HETATM    9  C7  UNL     1       2.209  -0.702  -0.535  1.00  0.00     0.237 C 
BRANCH   9  10
HETATM   10  C6  UNL     1       1.292   0.340   0.004  1.00  0.00     0.037 C 
BRANCH  10  11
HETATM   11  C5  UNL     1      -0.010   0.462  -0.700  1.00  0.00     0.105 C 
BRANCH  11  12
HETATM   12  C4  UNL     1      -0.858  -0.729  -0.702  1.00  0.00     0.235 C 
HETATM   13  N2  UNL     1      -2.096  -0.664  -1.397  1.00  0.00    -0.159 N 
ATOM     14  H2  UNL     1      -2.161  -0.891  -2.389  1.00  0.00     0.187 HD
HETATM   15  O1  UNL     1      -0.583  -1.814  -0.136  1.00  0.00    -0.273 OA
BRANCH  13  16
HETATM   16  C3  UNL     1      -3.146  -0.301  -0.712  1.00  0.00     0.688 A 
HETATM   17  N1  UNL     1      -4.349  -0.218  -1.304  1.00  0.00    -0.195 N 
HETATM   18  C2  UNL     1      -5.470   0.148  -0.658  1.00  0.00     0.034 A 
ATOM     19  H1  UNL     1      -4.416  -0.445  -2.296  1.00  0.00     0.184 HD
HETATM   20  C1  UNL     1      -6.745   0.209  -1.396  1.00  0.00     0.069 C 
HETATM   21  C15 UNL     1      -5.412   0.458   0.667  1.00  0.00     0.029 A 
HETATM   22  C14 UNL     1      -4.187   0.380   1.294  1.00  0.00     0.267 A 
HETATM   23  C16 UNL     1      -6.603   0.863   1.417  1.00  0.00     0.056 C 
HETATM   24  N4  UNL     1      -3.077   0.003   0.598  1.00  0.00    -0.155 N 
HETATM   25  O2  UNL     1      -4.108   0.659   2.512  1.00  0.00    -0.267 OA
ATOM     26  H4  UNL     1      -2.179  -0.050   1.078  1.00  0.00     0.187 HD
ENDBRANCH  13  16
ENDBRANCH  11  12
ENDBRANCH  10  11
ENDBRANCH   9  10
ENDBRANCH   6   9
ENDBRANCH   5   6
ENDBRANCH   4   5
ENDBRANCH   1   4
TORSDOF 8
