REMARK  7 active torsions:
REMARK  status: ('A' for Active; 'I' for Inactive)
REMARK    1  A    between atoms: N1_2  and  C4_5 
REMARK    2  A    between atoms: C4_5  and  C5_6 
REMARK       I    between atoms: C5_6  and  N2_8 
REMARK    3  A    between atoms: C8_12  and  C9_13 
REMARK    4  A    between atoms: C9_13  and  C10_14 
REMARK    5  A    between atoms: C11_15  and  S1_16 
REMARK    6  A    between atoms: S1_16  and  C12_17 
REMARK    7  A    between atoms: C13_18  and  C14_19 
ROOT
HETATM    1  C14 UNL     1       7.690   0.833  -0.803  1.00  0.00    -0.066 C 
HETATM    2  C15 UNL     1       7.755   2.034  -0.950  1.00  0.00    -0.019 C 
HETATM    3 BR1  UNL     1       7.829   3.914  -1.168  1.00  0.00     0.011 Br
ENDROOT
BRANCH   1   4
HETATM    4  C13 UNL     1       7.624  -0.586  -0.618  1.00  0.00     0.072 C 
HETATM    5  C12 UNL     1       6.555  -1.127  -0.035  1.00  0.00     0.058 C 
BRANCH   5   6
HETATM    6  S1  UNL     1       5.200  -0.106   0.519  1.00  0.00    -0.113 SA
BRANCH   6   7
HETATM    7  C11 UNL     1       3.634  -0.902   0.245  1.00  0.00     0.046 C 
HETATM    8  C10 UNL     1       3.591  -2.180  -0.061  1.00  0.00    -0.013 C 
BRANCH   8   9
HETATM    9  C9  UNL     1       2.317  -2.914  -0.305  1.00  0.00     0.086 C 
BRANCH   9  10
HETATM   10  C8  UNL     1       1.158  -1.993  -0.149  1.00  0.00     0.033 A 
HETATM   11  C7  UNL     1       0.545  -1.207  -1.119  1.00  0.00     0.076 A 
HETATM   12  C6  UNL     1      -0.487  -0.511  -0.543  1.00  0.00     0.124 A 
HETATM   13  N2  UNL     1      -1.262   0.304  -1.143  1.00  0.00    -0.311 N 
HETATM   14  N4  UNL     1      -0.499  -0.866   0.746  1.00  0.00    -0.285 N 
HETATM   15  C5  UNL     1      -2.314   1.017  -0.566  1.00  0.00     0.249 C 
ATOM     16  H2  UNL     1      -1.098   0.449  -2.139  1.00  0.00     0.170 HD
HETATM   17  O1  UNL     1      -2.212   2.259  -0.423  1.00  0.00    -0.271 OA
HETATM   18  N3  UNL     1       0.474  -1.744   0.985  1.00  0.00    -0.303 N 
ATOM     19  H4  UNL     1      -1.156  -0.516   1.443  1.00  0.00     0.188 HD
ATOM     20  H3  UNL     1       0.672  -2.166   1.892  1.00  0.00     0.186 HD
BRANCH  15  21
HETATM   21  C4  UNL     1      -3.564   0.368  -0.107  1.00  0.00     0.338 C 
BRANCH  21  22
HETATM   22  N1  UNL     1      -4.489   1.321   0.450  1.00  0.00    -0.070 N 
HETATM   23  C1  UNL     1      -3.919   2.148   1.473  1.00  0.00     0.272 C 
HETATM   24  C2  UNL     1      -5.618   0.542   0.977  1.00  0.00     0.272 C 
HETATM   25  C3  UNL     1      -5.039   2.172  -0.588  1.00  0.00     0.272 C 
ENDBRANCH  21  22
ENDBRANCH  15  21
ENDBRANCH   9  10
ENDBRANCH   8   9
ENDBRANCH   6   7
ENDBRANCH   5   6
ENDBRANCH   1   4
TORSDOF 7
