REMARK  12 active torsions:
REMARK  status: ('A' for Active; 'I' for Inactive)
REMARK    1  A    between atoms: C3_4  and  O2_5 
REMARK    2  A    between atoms: C6_9  and  N1_10 
REMARK    3  A    between atoms: N1_10  and  C7_12 
REMARK    4  A    between atoms: C8_13  and  O3_14 
REMARK    5  A    between atoms: C10_17  and  C11_18 
REMARK    6  A    between atoms: C12_19  and  C13_20 
REMARK    7  A    between atoms: C14_21  and  C15_22 
REMARK    8  A    between atoms: C16_23  and  C17_24 
REMARK    9  A    between atoms: C17_24  and  C18_25 
REMARK   10  A    between atoms: C18_25  and  C19_26 
REMARK   11  A    between atoms: C20_29  and  O6_30 
REMARK   12  A    between atoms: C21_32  and  O7_33 
ROOT
HETATM    1  C7  UNL     1      -2.991  -0.415   0.550  1.00  0.00     0.102 A 
HETATM    2  C8  UNL     1      -1.983   0.518   0.820  1.00  0.00     0.096 A 
HETATM    3  C9  UNL     1      -0.701   0.182   0.444  1.00  0.00     0.053 A 
HETATM    4  C10 UNL     1      -0.387  -1.018  -0.173  1.00  0.00     0.003 A 
HETATM    5  C20 UNL     1      -1.379  -1.935  -0.435  1.00  0.00     0.111 A 
HETATM    6  C21 UNL     1      -2.678  -1.604  -0.060  1.00  0.00     0.129 A 
ENDROOT
BRANCH   1   7
HETATM    7  N1  UNL     1      -4.307  -0.022   0.912  1.00  0.00    -0.349 N 
ATOM      8  H1  UNL     1      -4.501  -0.005   1.913  1.00  0.00     0.166 HD
BRANCH   7   9
HETATM    9  C6  UNL     1      -5.372   0.344   0.085  1.00  0.00     0.073 A 
HETATM   10  C2  UNL     1      -5.598   1.475  -0.677  1.00  0.00     0.079 A 
HETATM   11  C1  UNL     1      -4.696   2.639  -0.874  1.00  0.00     0.079 C 
HETATM   12  O1  UNL     1      -6.782   1.394  -1.242  1.00  0.00    -0.290 OA
HETATM   13  C3  UNL     1      -7.403   0.299  -0.938  1.00  0.00     0.191 A 
HETATM   14  C4  UNL     1      -6.552  -0.396  -0.101  1.00  0.00     0.025 A 
HETATM   15  C5  UNL     1      -6.942  -1.698   0.476  1.00  0.00     0.056 C 
BRANCH  13  16
HETATM   16  O2  UNL     1      -8.684  -0.092  -1.375  1.00  0.00    -0.340 OA
ATOM     17  H2  UNL     1      -9.140  -0.895  -1.152  1.00  0.00     0.220 HD
ENDBRANCH  13  16
ENDBRANCH   7   9
ENDBRANCH   1   7
BRANCH   2  18
HETATM   18  O3  UNL     1      -2.248   1.737   1.447  1.00  0.00    -0.358 OA
ATOM     19  H3  UNL     1      -1.564   2.370   1.630  1.00  0.00     0.217 HD
ENDBRANCH   2  18
BRANCH   6  20
HETATM   20  O7  UNL     1      -3.642  -2.540  -0.338  1.00  0.00    -0.356 OA
ATOM     21  H7  UNL     1      -3.425  -3.363  -0.760  1.00  0.00     0.218 HD
ENDBRANCH   6  20
BRANCH   5  22
HETATM   22  O6  UNL     1      -1.163  -3.159  -1.044  1.00  0.00    -0.357 OA
ATOM     23  H6  UNL     1      -1.848  -3.792  -1.225  1.00  0.00     0.217 HD
ENDBRANCH   5  22
BRANCH   4  24
HETATM   24  C11 UNL     1       0.978  -1.322  -0.551  1.00  0.00     0.014 C 
HETATM   25  C12 UNL     1       2.013  -0.498  -0.338  1.00  0.00     0.001 C 
BRANCH  25  26
HETATM   26  C13 UNL     1       3.328  -0.928  -0.770  1.00  0.00     0.000 C 
HETATM   27  C14 UNL     1       4.368  -0.119  -0.562  1.00  0.00    -0.000 C 
BRANCH  27  28
HETATM   28  C15 UNL     1       5.676  -0.524  -0.981  1.00  0.00    -0.004 C 
HETATM   29  C16 UNL     1       6.735   0.206  -0.815  1.00  0.00    -0.026 C 
BRANCH  29  30
HETATM   30  C17 UNL     1       6.753   1.523  -0.189  1.00  0.00     0.037 C 
BRANCH  30  31
HETATM   31  C18 UNL     1       7.670   1.466   1.046  1.00  0.00     0.117 C 
BRANCH  31  32
HETATM   32  C19 UNL     1       9.016   1.094   0.588  1.00  0.00     0.172 C 
HETATM   33  O4  UNL     1       9.599   1.750  -0.310  1.00  0.00    -0.648 OA
HETATM   34  O5  UNL     1       9.630  -0.024   1.188  1.00  0.00    -0.648 OA
ENDBRANCH  31  32
ENDBRANCH  30  31
ENDBRANCH  29  30
ENDBRANCH  27  28
ENDBRANCH  25  26
ENDBRANCH   4  24
TORSDOF 12
