REMARK  12 active torsions:
REMARK  status: ('A' for Active; 'I' for Inactive)
REMARK    1  A    between atoms: C2_2  and  C3_3 
REMARK    2  A    between atoms: N1_4  and  C4_6 
REMARK    3  A    between atoms: C6_8  and  N2_9 
REMARK    4  A    between atoms: N2_9  and  C7_11 
REMARK    5  A    between atoms: C7_11  and  C8_12 
REMARK    6  A    between atoms: C8_12  and  O1_13 
REMARK    7  A    between atoms: C10_16  and  O2_17 
REMARK    8  A    between atoms: N3_19  and  C11_20 
REMARK    9  A    between atoms: C11_20  and  C12_21 
REMARK   10  A    between atoms: C12_21  and  C13_22 
REMARK   11  A    between atoms: C19_28  and  O3_29 
REMARK   12  A    between atoms: C21_32  and  O4_33 
ROOT
HETATM    1  C4  UNL     1       3.371   0.717   0.289  1.00  0.00     0.068 A 
HETATM    2  C5  UNL     1       3.454  -0.584  -0.137  1.00  0.00     0.062 A 
HETATM    3  C6  UNL     1       2.349  -1.446  -0.127  1.00  0.00     0.046 A 
HETATM    4  C9  UNL     1       1.138  -0.969   0.328  1.00  0.00     0.059 A 
HETATM    5  C10 UNL     1      -0.123  -1.486   0.485  1.00  0.00     0.158 A 
HETATM    6  N3  UNL     1      -0.976  -0.581   0.982  1.00  0.00    -0.307 N 
HETATM    7  C19 UNL     1      -0.271   0.547   1.156  1.00  0.00     0.158 A 
HETATM    8  C20 UNL     1       1.033   0.346   0.764  1.00  0.00     0.067 A 
HETATM    9  C21 UNL     1       2.154   1.168   0.737  1.00  0.00     0.108 A 
ENDROOT
BRANCH   6  10
HETATM   10  C11 UNL     1      -2.401  -0.796   1.275  1.00  0.00     0.133 C 
BRANCH  10  11
HETATM   11  C12 UNL     1      -3.170  -0.444   0.027  1.00  0.00     0.025 C 
BRANCH  11  12
HETATM   12  C13 UNL     1      -4.642  -0.611   0.166  1.00  0.00    -0.013 C 
HETATM   13  C14 UNL     1      -5.311  -0.240  -1.118  1.00  0.00     0.005 C 
HETATM   14  C15 UNL     1      -5.434   1.249  -1.322  1.00  0.00     0.000 C 
HETATM   15  C16 UNL     1      -6.325   1.770  -0.185  1.00  0.00     0.000 C 
HETATM   16  C17 UNL     1      -5.494   1.566   1.087  1.00  0.00     0.000 C 
HETATM   17  C18 UNL     1      -5.248   0.110   1.317  1.00  0.00     0.005 C 
ENDBRANCH  11  12
ENDBRANCH  10  11
ENDBRANCH   6  10
BRANCH   5  18
HETATM   18  O2  UNL     1      -0.492  -2.780   0.175  1.00  0.00    -0.345 OA
ATOM     19  H2  UNL     1      -1.365  -3.138   0.284  1.00  0.00     0.219 HD
ENDBRANCH   5  18
BRANCH   7  20
HETATM   20  O3  UNL     1      -0.752   1.749   1.652  1.00  0.00    -0.345 OA
ATOM     21  H3  UNL     1      -0.253   2.548   1.775  1.00  0.00     0.219 HD
ENDBRANCH   7  20
BRANCH   3  22
HETATM   22  N2  UNL     1       2.489  -2.770  -0.575  1.00  0.00    -0.387 N 
ATOM     23  H2  UNL     1       1.675  -3.385  -0.561  1.00  0.00     0.159 HD
BRANCH  22  24
HETATM   24  C7  UNL     1       3.761  -3.292  -1.059  1.00  0.00     0.146 C 
BRANCH  24  25
HETATM   25  C8  UNL     1       3.624  -4.725  -1.471  1.00  0.00     0.183 C 
BRANCH  25  26
HETATM   26  O1  UNL     1       3.208  -5.440  -0.329  1.00  0.00    -0.399 OA
ATOM     27  H1  UNL     1       3.121  -6.349  -0.590  1.00  0.00     0.209 HD
ENDBRANCH  25  26
ENDBRANCH  24  25
ENDBRANCH  22  24
ENDBRANCH   3  22
BRANCH   9  28
HETATM   28  O4  UNL     1       2.057   2.477   1.169  1.00  0.00    -0.357 OA
ATOM     29  H4  UNL     1       1.215   2.789   1.479  1.00  0.00     0.217 HD
ENDBRANCH   9  28
BRANCH   1  30
HETATM   30  N1  UNL     1       4.483   1.549   0.268  1.00  0.00    -0.367 N 
HETATM   31  C3  UNL     1       5.061   2.018  -0.775  1.00  0.00     0.061 C 
ATOM     32  H1  UNL     1       4.878   1.812   1.171  1.00  0.00     0.165 HD
BRANCH  31  33
HETATM   33  C2  UNL     1       6.255   2.903  -0.541  1.00  0.00     0.040 C 
HETATM   34  C1  UNL     1       5.830   4.347  -0.386  1.00  0.00     0.010 C 
ENDBRANCH  31  33
ENDBRANCH   1  30
TORSDOF 12
