REMARK  11 active torsions:
REMARK  status: ('A' for Active; 'I' for Inactive)
REMARK    1  A    between atoms: C2_2  and  C3_3 
REMARK    2  A    between atoms: C4_4  and  N1_5 
REMARK    3  A    between atoms: C5_10  and  O3_11 
REMARK    4  A    between atoms: C6_13  and  N3_14 
REMARK    5  A    between atoms: N3_14  and  C7_16 
REMARK    6  A    between atoms: C7_16  and  C8_17 
REMARK    7  A    between atoms: C9_18  and  O4_19 
REMARK    8  A    between atoms: C10_21  and  O5_22 
REMARK    9  A    between atoms: C13_26  and  O6_27 
REMARK   10  A    between atoms: C14_29  and  C15_30 
REMARK   11  A    between atoms: C15_30  and  C16_31 
ROOT
HETATM    1  C8  UNL     1       0.217  -1.222  -0.639  1.00  0.00     0.005 A 
HETATM    2  C9  UNL     1      -0.237  -2.536  -0.550  1.00  0.00     0.108 A 
HETATM    3  C10 UNL     1       0.631  -3.603  -0.488  1.00  0.00     0.108 A 
HETATM    4  C11 UNL     1       1.987  -3.406  -0.502  1.00  0.00     0.008 A 
HETATM    5  C12 UNL     1       2.907  -4.575  -0.379  1.00  0.00     0.054 C 
HETATM    6  C13 UNL     1       2.453  -2.107  -0.592  1.00  0.00     0.081 A 
HETATM    7  C14 UNL     1       1.558  -1.008  -0.664  1.00  0.00    -0.010 A 
ENDROOT
BRANCH   1   8
HETATM    8  C7  UNL     1      -0.852  -0.258  -0.900  1.00  0.00     0.162 C 
BRANCH   8   9
HETATM    9  N3  UNL     1      -0.951   0.913  -0.050  1.00  0.00    -0.381 N 
ATOM     10  H3  UNL     1      -0.222   1.623   0.025  1.00  0.00     0.160 HD
BRANCH   9  11
HETATM   11  C6  UNL     1      -2.220   0.962   0.691  1.00  0.00     0.093 A 
HETATM   12  C3  UNL     1      -3.413   1.594   0.285  1.00  0.00     0.041 A 
HETATM   13  C4  UNL     1      -4.312   1.280   1.237  1.00  0.00     0.188 A 
HETATM   14  N2  UNL     1      -3.721   0.479   2.216  1.00  0.00    -0.316 N 
HETATM   15  C5  UNL     1      -2.442   0.303   1.850  1.00  0.00     0.170 A 
ATOM     16  H2  UNL     1      -4.174   0.101   3.048  1.00  0.00     0.169 HD
BRANCH  12  17
HETATM   17  C2  UNL     1      -3.374   2.304  -0.987  1.00  0.00    -0.013 C 
HETATM   18  C1  UNL     1      -4.579   2.715  -1.708  1.00  0.00     0.037 C 
ENDBRANCH  12  17
BRANCH  13  19
HETATM   19  N1  UNL     1      -5.653   1.669   1.377  1.00  0.00    -0.097 N 
HETATM   20  O1  UNL     1      -6.293   1.221   2.373  1.00  0.00    -0.530 OA
HETATM   21  O2  UNL     1      -6.349   2.475   0.572  1.00  0.00    -0.530 OA
ENDBRANCH  13  19
BRANCH  15  22
HETATM   22  O3  UNL     1      -1.521  -0.474   2.597  1.00  0.00    -0.344 OA
ATOM     23  H3  UNL     1      -0.616  -0.599   2.338  1.00  0.00     0.219 HD
ENDBRANCH  15  22
ENDBRANCH   9  11
ENDBRANCH   8   9
ENDBRANCH   1   8
BRANCH   2  24
HETATM   24  O4  UNL     1      -1.606  -2.832  -0.501  1.00  0.00    -0.357 OA
ATOM     25  H4  UNL     1      -1.916  -3.728  -0.440  1.00  0.00     0.217 HD
ENDBRANCH   2  24
BRANCH   7  26
HETATM   26  C15 UNL     1       2.153   0.355  -0.787  1.00  0.00     0.069 C 
BRANCH  26  27
HETATM   27  C16 UNL     1       2.752   0.868   0.465  1.00  0.00    -0.020 C 
HETATM   28  C17 UNL     1       3.815   1.610   0.541  1.00  0.00    -0.091 C 
HETATM   29  C18 UNL     1       4.302   2.055   1.862  1.00  0.00     0.042 C 
HETATM   30  C19 UNL     1       4.518   2.125  -0.659  1.00  0.00     0.042 C 
ENDBRANCH  26  27
ENDBRANCH   7  26
BRANCH   3  31
HETATM   31  O5  UNL     1       0.130  -4.897  -0.409  1.00  0.00    -0.357 OA
ATOM     32  H5  UNL     1       0.729  -5.633  -0.366  1.00  0.00     0.217 HD
ENDBRANCH   3  31
BRANCH   6  33
HETATM   33  O6  UNL     1       3.752  -1.868  -0.606  1.00  0.00    -0.359 OA
ATOM     34  H6  UNL     1       4.072  -0.976  -0.668  1.00  0.00     0.217 HD
ENDBRANCH   6  33
TORSDOF 11
