REMARK  9 active torsions:
REMARK  status: ('A' for Active; 'I' for Inactive)
REMARK    1  A    between atoms: O1_2  and  C2_3 
REMARK    2  A    between atoms: C5_6  and  N1_7 
REMARK    3  A    between atoms: N1_7  and  C6_9 
REMARK    4  A    between atoms: C6_9  and  C7_10 
REMARK       I    between atoms: N2_11  and  C8_13 
REMARK    5  A    between atoms: C10_19  and  O2_20 
REMARK    6  A    between atoms: C11_22  and  N5_23 
REMARK    7  A    between atoms: C12_25  and  C13_26 
REMARK    8  A    between atoms: C13_26  and  C14_27 
REMARK    9  A    between atoms: C18_31  and  O3_32 
ROOT
HETATM    1  C2  UNL     1       2.626   3.331   0.909  1.00  0.00     0.081 A 
HETATM    2  C3  UNL     1       3.595   2.870   0.061  1.00  0.00     0.040 A 
HETATM    3  C4  UNL     1       3.402   1.773  -0.743  1.00  0.00     0.033 A 
HETATM    4  C5  UNL     1       2.166   1.108  -0.688  1.00  0.00     0.042 A 
HETATM    5  C9  UNL     1       1.156   1.551   0.166  1.00  0.00     0.041 A 
HETATM    6  C10 UNL     1      -0.078   0.924   0.254  1.00  0.00     0.108 A 
HETATM    7  C11 UNL     1      -1.067   1.393   1.122  1.00  0.00     0.101 A 
HETATM    8  C18 UNL     1      -0.809   2.495   1.901  1.00  0.00     0.120 A 
HETATM    9  C19 UNL     1       0.412   3.116   1.813  1.00  0.00     0.095 A 
HETATM   10  N6  UNL     1       0.699   4.258   2.612  1.00  0.00    -0.098 NA
HETATM   11  C20 UNL     1       1.411   2.666   0.956  1.00  0.00     0.040 A 
ENDROOT
BRANCH   4  12
HETATM   12  N1  UNL     1       1.997  -0.010  -1.515  1.00  0.00    -0.384 N 
ATOM     13  H1  UNL     1       1.127  -0.542  -1.518  1.00  0.00     0.160 HD
BRANCH  12  14
HETATM   14  C6  UNL     1       3.131  -0.387  -2.383  1.00  0.00     0.164 C 
BRANCH  14  15
HETATM   15  C7  UNL     1       2.744  -1.578  -3.152  1.00  0.00     0.083 C 
HETATM   16  N2  UNL     1       2.135  -2.538  -2.575  1.00  0.00    -0.343 N 
HETATM   17  C8  UNL     1       1.766  -3.678  -3.312  1.00  0.00     0.185 C 
ATOM     18  H2  UNL     1       1.916  -2.480  -1.581  1.00  0.00     0.167 HD
HETATM   19  N3  UNL     1       1.392  -3.570  -4.529  1.00  0.00    -0.374 N 
HETATM   20  N4  UNL     1       1.809  -4.948  -2.698  1.00  0.00    -0.064 NA
ATOM     21  H32 UNL     1       1.361  -2.652  -4.973  1.00  0.00     0.158 HD
ATOM     22  H31 UNL     1       1.124  -4.397  -5.063  1.00  0.00     0.158 HD
ENDBRANCH  14  15
ENDBRANCH  12  14
ENDBRANCH   4  12
BRANCH   6  23
HETATM   23  O2  UNL     1      -0.376  -0.170  -0.499  1.00  0.00    -0.357 OA
ATOM     24  H2  UNL     1      -1.221  -0.599  -0.439  1.00  0.00     0.217 HD
ENDBRANCH   6  23
BRANCH   1  25
HETATM   25  O1  UNL     1       2.806   4.423   1.716  1.00  0.00    -0.355 OA
HETATM   26  C1  UNL     1       3.993   5.150   1.734  1.00  0.00     0.210 C 
ENDBRANCH   1  25
BRANCH   7  27
HETATM   27  N5  UNL     1      -2.340   0.756   1.219  1.00  0.00    -0.365 N 
HETATM   28  C12 UNL     1      -2.520  -0.375   1.794  1.00  0.00     0.065 C 
ATOM     29  H5  UNL     1      -3.148   1.225   0.810  1.00  0.00     0.165 HD
BRANCH  28  30
HETATM   30  C13 UNL     1      -3.886  -0.946   1.838  1.00  0.00     0.072 C 
BRANCH  30  31
HETATM   31  C14 UNL     1      -4.195  -1.512   0.499  1.00  0.00    -0.020 C 
HETATM   32  C15 UNL     1      -4.480  -2.795   0.361  1.00  0.00    -0.091 C 
HETATM   33  C16 UNL     1      -4.789  -3.358  -0.987  1.00  0.00     0.042 C 
HETATM   34  C17 UNL     1      -4.482  -3.660   1.580  1.00  0.00     0.042 C 
ENDBRANCH  30  31
ENDBRANCH  28  30
ENDBRANCH   7  27
BRANCH   8  35
HETATM   35  O3  UNL     1      -1.727   3.046   2.804  1.00  0.00    -0.357 OA
ATOM     36  H3  UNL     1      -1.549   3.808   3.343  1.00  0.00     0.218 HD
ENDBRANCH   8  35
TORSDOF 9
