REMARK  19 active torsions:
REMARK  status: ('A' for Active; 'I' for Inactive)
REMARK    1  A    between atoms: C2_2  and  O1_3 
REMARK    2  A    between atoms: C2_2  and  C3_5 
REMARK    3  A    between atoms: C4_6  and  O2_7 
REMARK    4  A    between atoms: C5_9  and  O3_10 
REMARK    5  A    between atoms: C6_12  and  O4_13 
REMARK    6  A    between atoms: C7_15  and  C8_16 
REMARK    7  A    between atoms: C9_17  and  C10_18 
REMARK    8  A    between atoms: C10_18  and  C11_19 
REMARK    9  A    between atoms: C11_19  and  C12_20 
REMARK   10  A    between atoms: C12_20  and  C13_21 
REMARK   11  A    between atoms: C13_21  and  C14_22 
REMARK   12  A    between atoms: C14_22  and  C15_23 
REMARK   13  A    between atoms: C15_23  and  C16_24 
REMARK   14  A    between atoms: C16_24  and  C17_25 
REMARK   15  A    between atoms: C18_26  and  C19_27 
REMARK   16  A    between atoms: C20_28  and  C21_29 
REMARK   17  A    between atoms: C22_30  and  C23_31 
REMARK   18  A    between atoms: C23_31  and  C24_32 
REMARK   19  A    between atoms: C25_35  and  O7_36 
ROOT
HETATM    1  C8  UNL     1      -4.062   1.490  -0.100  1.00  0.00     0.014 C 
HETATM    2  C9  UNL     1      -3.288   0.998   0.779  1.00  0.00    -0.014 C 
ENDROOT
BRANCH   1   3
HETATM    3  C7  UNL     1      -5.292   1.065  -0.742  1.00  0.00     0.034 A 
HETATM    4  C6  UNL     1      -5.478   1.385  -2.079  1.00  0.00     0.114 A 
HETATM    5  C5  UNL     1      -6.664   1.190  -2.717  1.00  0.00     0.134 A 
HETATM    6  C4  UNL     1      -7.771   0.647  -2.045  1.00  0.00     0.117 A 
HETATM    7  C3  UNL     1      -7.613   0.323  -0.733  1.00  0.00     0.063 A 
HETATM    8  C25 UNL     1      -6.357   0.530  -0.050  1.00  0.00     0.094 A 
BRANCH   4   9
HETATM    9  O4  UNL     1      -4.373   1.931  -2.772  1.00  0.00    -0.357 OA
ATOM     10  H4  UNL     1      -3.545   2.067  -2.327  1.00  0.00     0.217 HD
ENDBRANCH   4   9
BRANCH   5  11
HETATM   11  O3  UNL     1      -6.815   1.522  -4.049  1.00  0.00    -0.356 OA
ATOM     12  H3  UNL     1      -6.066   1.889  -4.504  1.00  0.00     0.218 HD
ENDBRANCH   5  11
BRANCH   6  13
HETATM   13  O2  UNL     1      -8.919   0.469  -2.748  1.00  0.00    -0.357 OA
ATOM     14  H2  UNL     1      -9.029   0.695  -3.664  1.00  0.00     0.217 HD
ENDBRANCH   6  13
BRANCH   7  15
HETATM   15  C2  UNL     1      -8.664  -0.207   0.092  1.00  0.00     0.055 C 
HETATM   16  C1  UNL     1     -10.043  -0.488  -0.286  1.00  0.00     0.077 C 
BRANCH  15  17
HETATM   17  O1  UNL     1      -8.413  -0.493   1.338  1.00  0.00    -0.364 OA
ATOM     18  H1  UNL     1      -7.514  -0.310   1.584  1.00  0.00     0.217 HD
ENDBRANCH  15  17
ENDBRANCH   7  15
BRANCH   8  19
HETATM   19  O7  UNL     1      -6.270   0.204   1.227  1.00  0.00    -0.359 OA
ATOM     20  H7  UNL     1      -5.444   0.340   1.676  1.00  0.00     0.217 HD
ENDBRANCH   8  19
ENDBRANCH   1   3
BRANCH   2  21
HETATM   21  C10 UNL     1      -3.241  -0.240   1.557  1.00  0.00     0.112 C 
BRANCH  21  22
HETATM   22  C11 UNL     1      -1.949  -0.841   1.775  1.00  0.00    -0.152 C 
BRANCH  22  23
HETATM   23  C12 UNL     1      -0.803  -1.341   1.951  1.00  0.00     0.051 C 
BRANCH  23  24
HETATM   24  C13 UNL     1       0.527  -0.847   1.561  1.00  0.00     0.008 C 
BRANCH  24  25
HETATM   25  C14 UNL     1       1.600  -1.500   1.871  1.00  0.00     0.009 C 
BRANCH  25  26
HETATM   26  C15 UNL     1       2.906  -1.034   1.484  1.00  0.00     0.055 C 
BRANCH  26  27
HETATM   27  C16 UNL     1       4.030  -1.585   1.777  1.00  0.00    -0.128 C 
BRANCH  27  28
HETATM   28  C17 UNL     1       5.193  -2.172   2.090  1.00  0.00     0.055 C 
HETATM   29  C18 UNL     1       6.359  -1.676   1.612  1.00  0.00     0.008 C 
BRANCH  29  30
HETATM   30  C19 UNL     1       6.378  -0.532   0.751  1.00  0.00     0.001 C 
HETATM   31  C20 UNL     1       7.441   0.043   0.253  1.00  0.00    -0.000 C 
BRANCH  31  32
HETATM   32  C21 UNL     1       8.778  -0.402   0.521  1.00  0.00    -0.004 C 
HETATM   33  C22 UNL     1       9.849   0.121  -0.014  1.00  0.00    -0.016 C 
BRANCH  33  34
HETATM   34  C23 UNL     1       9.860   1.215  -0.971  1.00  0.00     0.140 C 
BRANCH  34  35
HETATM   35  C24 UNL     1      10.566   0.734  -2.196  1.00  0.00     0.176 C 
HETATM   36  O5  UNL     1      11.316  -0.234  -2.275  1.00  0.00    -0.648 OA
HETATM   37  O6  UNL     1      10.369   1.441  -3.414  1.00  0.00    -0.648 OA
ENDBRANCH  34  35
ENDBRANCH  33  34
ENDBRANCH  31  32
ENDBRANCH  29  30
ENDBRANCH  27  28
ENDBRANCH  26  27
ENDBRANCH  25  26
ENDBRANCH  24  25
ENDBRANCH  23  24
ENDBRANCH  22  23
ENDBRANCH  21  22
ENDBRANCH   2  21
TORSDOF 19
