REMARK  15 active torsions:
REMARK  status: ('A' for Active; 'I' for Inactive)
REMARK    1  A    between atoms: C2_2  and  C5_9 
REMARK    2  A    between atoms: C3_3  and  C4_4 
REMARK    3  A    between atoms: N1_5  and  O1_7 
REMARK    4  A    between atoms: C5_9  and  C7_11 
REMARK    5  A    between atoms: C5_9  and  C11_17 
REMARK    6  A    between atoms: C8_12  and  C9_13 
REMARK    7  A    between atoms: C9_13  and  C10_14 
REMARK    8  A    between atoms: C11_17  and  C12_18 
REMARK    9  A    between atoms: C13_19  and  C14_20 
REMARK   10  A    between atoms: C14_20  and  C17_23 
REMARK   11  A    between atoms: C17_23  and  C18_24 
REMARK   12  A    between atoms: C19_25  and  C20_26 
REMARK   13  A    between atoms: C22_28  and  O4_29 
REMARK   14  A    between atoms: C23_31  and  O5_32 
REMARK   15  A    between atoms: C25_35  and  O6_36 
ROOT
HETATM    1  C12 UNL     1      -1.033  -2.372  -0.800  1.00  0.00    -0.029 C 
HETATM    2  C13 UNL     1       0.147  -2.157  -0.343  1.00  0.00    -0.022 C 
ENDROOT
BRANCH   2   3
HETATM    3  C14 UNL     1       1.096  -1.051  -0.374  1.00  0.00    -0.027 C 
HETATM    4  C15 UNL     1       1.091  -0.379  -1.718  1.00  0.00     0.019 C 
HETATM    5  C16 UNL     1       0.945  -0.027   0.711  1.00  0.00     0.019 C 
BRANCH   3   6
HETATM    6  C17 UNL     1       2.493  -1.701  -0.146  1.00  0.00     0.039 C 
BRANCH   6   7
HETATM    7  C18 UNL     1       3.582  -0.726  -0.120  1.00  0.00    -0.025 C 
HETATM    8  C19 UNL     1       4.393  -0.582   0.937  1.00  0.00     0.010 C 
BRANCH   8   9
HETATM    9  C20 UNL     1       5.481   0.368   1.009  1.00  0.00    -0.001 A 
HETATM   10  C21 UNL     1       5.782   1.260  -0.002  1.00  0.00     0.053 A 
HETATM   11  C22 UNL     1       6.828   2.163   0.059  1.00  0.00     0.099 A 
HETATM   12  C23 UNL     1       7.611   2.171   1.188  1.00  0.00     0.101 A 
HETATM   13  C24 UNL     1       7.346   1.296   2.224  1.00  0.00     0.076 A 
HETATM   14  C25 UNL     1       6.274   0.389   2.132  1.00  0.00     0.078 A 
BRANCH  11  15
HETATM   15  O4  UNL     1       7.111   3.052  -0.971  1.00  0.00    -0.358 OA
ATOM     16  H4  UNL     1       7.829   3.672  -0.929  1.00  0.00     0.217 HD
ENDBRANCH  11  15
BRANCH  12  17
HETATM   17  O5  UNL     1       8.676   3.064   1.292  1.00  0.00    -0.358 OA
ATOM     18  H5  UNL     1       9.217   3.070   2.073  1.00  0.00     0.217 HD
ENDBRANCH  12  17
BRANCH  14  19
HETATM   19  O6  UNL     1       6.085  -0.433   3.191  1.00  0.00    -0.360 OA
ATOM     20  H6  UNL     1       6.633  -0.418   3.967  1.00  0.00     0.217 HD
ENDBRANCH  14  19
ENDBRANCH   8   9
ENDBRANCH   6   7
ENDBRANCH   3   6
ENDBRANCH   2   3
BRANCH   1  21
HETATM   21  C11 UNL     1      -1.924  -1.515  -1.572  1.00  0.00     0.044 C 
BRANCH  21  22
HETATM   22  C5  UNL     1      -3.279  -1.307  -0.877  1.00  0.00    -0.000 C 
HETATM   23  C6  UNL     1      -3.976  -2.613  -0.649  1.00  0.00     0.025 C 
BRANCH  22  24
HETATM   24  C2  UNL     1      -4.102  -0.458  -1.772  1.00  0.00    -0.070 C 
HETATM   25  C1  UNL     1      -4.456  -0.906  -3.141  1.00  0.00     0.044 C 
HETATM   26  C3  UNL     1      -4.538   0.703  -1.354  1.00  0.00     0.022 C 
BRANCH  26  27
HETATM   27  C4  UNL     1      -5.348   1.537  -2.204  1.00  0.00     0.114 C 
HETATM   28  N1  UNL     1      -5.775   2.667  -1.793  1.00  0.00    -0.281 N 
ATOM     29  H1  UNL     1      -5.521   2.951  -0.847  1.00  0.00     0.193 HD
BRANCH  28  30
HETATM   30  O1  UNL     1      -6.542   3.521  -2.519  1.00  0.00    -0.290 OA
ATOM     31  H1  UNL     1      -6.860   4.362  -2.213  1.00  0.00     0.244 HD
ENDBRANCH  28  30
ENDBRANCH  26  27
ENDBRANCH  22  24
BRANCH  22  32
HETATM   32  C7  UNL     1      -3.023  -0.561   0.362  1.00  0.00    -0.016 C 
HETATM   33  C8  UNL     1      -3.546  -0.774   1.546  1.00  0.00    -0.019 C 
BRANCH  33  34
HETATM   34  C9  UNL     1      -3.181   0.070   2.697  1.00  0.00     0.140 C 
BRANCH  34  35
HETATM   35  C10 UNL     1      -4.306   0.798   3.293  1.00  0.00     0.176 C 
HETATM   36  O2  UNL     1      -5.465   0.751   2.826  1.00  0.00    -0.648 OA
HETATM   37  O3  UNL     1      -4.078   1.571   4.419  1.00  0.00    -0.648 OA
ENDBRANCH  34  35
ENDBRANCH  33  34
ENDBRANCH  22  32
ENDBRANCH  21  22
ENDBRANCH   1  21
TORSDOF 15
