REMARK  11 active torsions:
REMARK  status: ('A' for Active; 'I' for Inactive)
REMARK    1  A    between atoms: O1_1  and  C1_3 
REMARK    2  A    between atoms: C2_6  and  O2_7 
REMARK    3  A    between atoms: C4_10  and  N2_11 
REMARK    4  A    between atoms: N2_11  and  C5_13 
REMARK    5  A    between atoms: C5_13  and  C6_14 
REMARK    6  A    between atoms: C6_14  and  C7_15 
REMARK    7  A    between atoms: C7_15  and  C8_16 
REMARK    8  A    between atoms: C8_16  and  C9_17 
REMARK    9  A    between atoms: C9_17  and  C10_18 
REMARK   10  A    between atoms: C10_18  and  C11_19 
REMARK   11  A    between atoms: C11_19  and  O3_20 
ROOT
HETATM    1  N2  UNL     1       3.957  -0.051   0.824  1.00  0.00    -0.374 N 
ATOM      2  H2  UNL     1       3.675  -0.434   1.726  1.00  0.00     0.161 HD
ENDROOT
BRANCH   1   3
HETATM    3  C4  UNL     1       5.083  -0.440   0.424  1.00  0.00     0.139 A 
HETATM    4  C3  UNL     1       5.765  -0.135  -0.720  1.00  0.00     0.100 A 
HETATM    5  C2  UNL     1       5.812   0.556  -1.915  1.00  0.00     0.159 A 
HETATM    6  C19 UNL     1       6.969  -0.841  -0.663  1.00  0.00     0.167 A 
HETATM    7  N1  UNL     1       6.978   0.279  -2.539  1.00  0.00    -0.315 N 
HETATM    8  C1  UNL     1       7.704  -0.570  -1.798  1.00  0.00     0.180 A 
ATOM      9  H1  UNL     1       7.264   0.660  -3.441  1.00  0.00     0.170 HD
HETATM   10  O4  UNL     1       6.958  -1.500   0.447  1.00  0.00    -0.231 OA
HETATM   11  N3  UNL     1       5.870  -1.296   1.118  1.00  0.00    -0.244 N 
ATOM     12  H3  UNL     1       5.643  -1.712   2.021  1.00  0.00     0.196 HD
BRANCH   5  13
HETATM   13  O2  UNL     1       4.809   1.388  -2.370  1.00  0.00    -0.345 OA
ATOM     14  H2  UNL     1       3.989   1.583  -1.931  1.00  0.00     0.219 HD
ENDBRANCH   5  13
BRANCH   8  15
HETATM   15  O1  UNL     1       8.967  -1.096  -2.096  1.00  0.00    -0.344 OA
ATOM     16  H1  UNL     1       9.482  -1.698  -1.571  1.00  0.00     0.219 HD
ENDBRANCH   8  15
ENDBRANCH   1   3
BRANCH   1  17
HETATM   17  C5  UNL     1       3.007   0.832   0.235  1.00  0.00     0.121 C 
BRANCH  17  18
HETATM   18  C6  UNL     1       1.833   1.020   1.201  1.00  0.00     0.020 C 
BRANCH  18  19
HETATM   19  C7  UNL     1       1.230  -0.355   1.430  1.00  0.00     0.002 C 
BRANCH  19  20
HETATM   20  C8  UNL     1       0.071  -0.272   2.367  1.00  0.00     0.000 C 
BRANCH  20  21
HETATM   21  C9  UNL     1      -1.047   0.620   1.874  1.00  0.00     0.003 C 
BRANCH  21  22
HETATM   22  C10 UNL     1      -1.545   0.079   0.577  1.00  0.00     0.038 C 
BRANCH  22  23
HETATM   23  C11 UNL     1      -2.668   0.871  -0.048  1.00  0.00     0.058 C 
HETATM   24  C12 UNL     1      -3.835   1.005   0.906  1.00  0.00     0.038 C 
HETATM   25  C13 UNL     1      -4.423  -0.278   1.348  1.00  0.00     0.003 C 
HETATM   26  C14 UNL     1      -5.833  -0.540   0.946  1.00  0.00     0.000 C 
HETATM   27  C15 UNL     1      -6.232   0.012  -0.389  1.00  0.00     0.000 C 
HETATM   28  C16 UNL     1      -5.373  -0.526  -1.517  1.00  0.00     0.000 C 
HETATM   29  C17 UNL     1      -4.379   0.556  -1.876  1.00  0.00     0.003 C 
HETATM   30  C18 UNL     1      -3.053   0.160  -1.321  1.00  0.00     0.038 C 
BRANCH  23  31
HETATM   31  O3  UNL     1      -2.217   2.179  -0.291  1.00  0.00    -0.390 OA
ATOM     32  H3  UNL     1      -2.924   2.677  -0.684  1.00  0.00     0.210 HD
ENDBRANCH  23  31
ENDBRANCH  22  23
ENDBRANCH  21  22
ENDBRANCH  20  21
ENDBRANCH  19  20
ENDBRANCH  18  19
ENDBRANCH  17  18
ENDBRANCH   1  17
TORSDOF 11
