REMARK  9 active torsions:
REMARK  status: ('A' for Active; 'I' for Inactive)
REMARK    1  A    between atoms: C2_2  and  C3_3 
REMARK    2  A    between atoms: C3_3  and  N1_4 
REMARK    3  A    between atoms: N1_4  and  C4_5 
REMARK    4  A    between atoms: N1_4  and  C15_22 
REMARK    5  A    between atoms: C4_5  and  C5_6 
REMARK    6  A    between atoms: C7_8  and  N2_9 
REMARK    7  A    between atoms: C15_22  and  C16_23 
REMARK    8  A    between atoms: C18_27  and  N5_28 
REMARK    9  A    between atoms: C19_33  and  N7_34 
ROOT
HETATM    1  N1  UNL     1      -1.467   0.088  -0.909  1.00  0.00     0.097 N 
ENDROOT
BRANCH   1   2
HETATM    2  C3  UNL     1      -0.901   0.338  -2.203  1.00  0.00     0.273 C 
BRANCH   2   3
HETATM    3  C2  UNL     1      -1.652   1.306  -3.075  1.00  0.00     0.026 C 
HETATM    4  C1  UNL     1      -1.816   2.679  -2.547  1.00  0.00     0.007 C 
ENDBRANCH   2   3
ENDBRANCH   1   2
BRANCH   1   5
HETATM    5  C4  UNL     1      -0.720  -0.941  -0.259  1.00  0.00     0.311 C 
BRANCH   5   6
HETATM    6  C5  UNL     1       0.690  -0.696  -0.005  1.00  0.00    -0.025 A 
HETATM    7  C6  UNL     1       1.127  -0.227   1.218  1.00  0.00     0.040 A 
HETATM    8  C7  UNL     1       2.463   0.037   1.481  1.00  0.00     0.061 A 
HETATM    9  C8  UNL     1       3.365  -0.188   0.459  1.00  0.00     0.034 A 
HETATM   10  C9  UNL     1       4.728  -0.026   0.392  1.00  0.00    -0.017 A 
HETATM   11  C13 UNL     1       2.980  -0.660  -0.795  1.00  0.00     0.089 A 
HETATM   12  C10 UNL     1       5.568   0.463   1.517  1.00  0.00     0.052 C 
HETATM   13  C11 UNL     1       5.115  -0.402  -0.885  1.00  0.00     0.056 A 
HETATM   14  C12 UNL     1       6.542  -0.358  -1.343  1.00  0.00     0.077 C 
HETATM   15  O1  UNL     1       4.055  -0.770  -1.550  1.00  0.00    -0.314 OA
HETATM   16  C14 UNL     1       1.635  -0.896  -0.970  1.00  0.00     0.047 A 
BRANCH   8  17
HETATM   17  N2  UNL     1       2.922   0.520   2.730  1.00  0.00    -0.306 N 
HETATM   18  N3  UNL     1       2.936  -0.296   3.700  1.00  0.00    -0.345 N 
ATOM     19  H32 UNL     1       2.626  -1.259   3.569  1.00  0.00     0.176 HD
ATOM     20  H31 UNL     1       3.267   0.052   4.600  1.00  0.00     0.176 HD
ATOM     21  H2  UNL     1       3.229   1.486   2.845  1.00  0.00     0.186 HD
ENDBRANCH   8  17
ENDBRANCH   5   6
ENDBRANCH   1   5
BRANCH   1  22
HETATM   22  C15 UNL     1      -2.833  -0.274  -1.045  1.00  0.00     0.316 C 
BRANCH  22  23
HETATM   23  C16 UNL     1      -3.613  -0.490   0.179  1.00  0.00     0.030 A 
HETATM   24  C17 UNL     1      -4.417  -1.617   0.289  1.00  0.00     0.118 A 
HETATM   25  N4  UNL     1      -5.198  -1.716   1.389  1.00  0.00    -0.201 N 
HETATM   26  C18 UNL     1      -5.232  -0.790   2.369  1.00  0.00     0.677 A 
ATOM     27  H4  UNL     1      -5.795  -2.538   1.483  1.00  0.00     0.183 HD
HETATM   28  N6  UNL     1      -4.450   0.307   2.273  1.00  0.00    -0.177 N 
HETATM   29  C19 UNL     1      -3.657   0.457   1.204  1.00  0.00     0.124 A 
ATOM     30  H6  UNL     1      -4.463   1.015   3.008  1.00  0.00     0.185 HD
BRANCH  26  31
HETATM   31  N5  UNL     1      -6.014  -0.972   3.371  1.00  0.00    -0.234 N 
ATOM     32  H52 UNL     1      -6.605  -1.800   3.444  1.00  0.00     0.174 HD
ATOM     33  H51 UNL     1      -6.040  -0.272   4.112  1.00  0.00     0.174 HD
ENDBRANCH  26  31
BRANCH  29  34
HETATM   34  N7  UNL     1      -2.862   1.448   1.088  1.00  0.00    -0.385 N 
ATOM     35  H72 UNL     1      -2.258   1.562   0.274  1.00  0.00     0.157 HD
ATOM     36  H71 UNL     1      -2.894   2.140   1.837  1.00  0.00     0.157 HD
ENDBRANCH  29  34
ENDBRANCH  22  23
ENDBRANCH   1  22
TORSDOF 9
