REMARK  10 active torsions:
REMARK  status: ('A' for Active; 'I' for Inactive)
REMARK    1  A    between atoms: C4_4  and  C5_5 
REMARK    2  A    between atoms: C5_5  and  N1_6 
REMARK    3  A    between atoms: C8_11  and  C9_12 
REMARK    4  A    between atoms: C9_12  and  C10_13 
REMARK    5  A    between atoms: N3_14  and  C11_15 
REMARK    6  A    between atoms: C11_15  and  C12_16 
REMARK    7  A    between atoms: C12_16  and  N4_17 
REMARK    8  A    between atoms: C17_25  and  C18_26 
REMARK    9  A    between atoms: C18_26  and  C19_27 
REMARK   10  A    between atoms: C19_27  and  C20_28 
ROOT
HETATM    1  C10 UNL     1      -0.300   1.194  -0.402  1.00  0.00     0.038 A 
HETATM    2  N3  UNL     1      -1.277   0.686   0.356  1.00  0.00    -0.331 N 
HETATM    3  C16 UNL     1      -2.577   1.285   0.340  1.00  0.00     0.111 A 
HETATM    4  N5  UNL     1      -3.489   0.750   1.106  1.00  0.00    -0.385 N 
ATOM      5  H51 UNL     1      -4.415   1.177   1.095  1.00  0.00     0.157 HD
ATOM      6  H52 UNL     1      -3.267  -0.066   1.677  1.00  0.00     0.157 HD
HETATM    7  C17 UNL     1      -2.891   2.439  -0.468  1.00  0.00     0.004 A 
HETATM    8  C21 UNL     1      -1.810   2.964  -1.266  1.00  0.00     0.017 A 
HETATM    9  C22 UNL     1      -0.610   2.351  -1.206  1.00  0.00     0.031 A 
ENDROOT
BRANCH   1  10
HETATM   10  C9  UNL     1       0.978   0.564  -0.348  1.00  0.00     0.059 C 
BRANCH  10  11
HETATM   11  C8  UNL     1       2.149   0.607  -0.872  1.00  0.00     0.040 A 
HETATM   12  C2  UNL     1       2.762   1.333  -1.831  1.00  0.00    -0.033 A 
HETATM   13  C1  UNL     1       2.280   2.212  -2.914  1.00  0.00     0.050 C 
HETATM   14  C3  UNL     1       4.150   1.059  -1.788  1.00  0.00     0.039 A 
HETATM   15  C4  UNL     1       4.361   0.161  -0.803  1.00  0.00     0.048 A 
HETATM   16  N2  UNL     1       3.195  -0.115  -0.258  1.00  0.00    -0.355 N 
ATOM     17  H2  UNL     1       3.064  -0.770   0.513  1.00  0.00     0.166 HD
BRANCH  15  18
HETATM   18  C5  UNL     1       5.529  -0.379  -0.405  1.00  0.00     0.114 C 
BRANCH  18  19
HETATM   19  N1  UNL     1       5.634  -1.314   0.641  1.00  0.00    -0.397 N 
HETATM   20  C6  UNL     1       5.788  -2.728   0.368  1.00  0.00     0.148 C 
HETATM   21  C7  UNL     1       5.592  -0.885   2.030  1.00  0.00     0.148 C 
ENDBRANCH  18  19
ENDBRANCH  15  18
ENDBRANCH  10  11
ENDBRANCH   1  10
BRANCH   2  22
HETATM   22  C11 UNL     1      -1.065  -0.460   1.204  1.00  0.00     0.158 C 
BRANCH  22  23
HETATM   23  C12 UNL     1      -1.680  -1.731   0.705  1.00  0.00     0.256 C 
BRANCH  23  24
HETATM   24  N4  UNL     1      -1.456  -2.856   1.555  1.00  0.00    -0.077 N 
HETATM   25  C13 UNL     1      -2.462  -3.862   1.171  1.00  0.00     0.271 C 
HETATM   26  C14 UNL     1      -1.626  -2.628   2.954  1.00  0.00     0.271 C 
HETATM   27  C15 UNL     1      -0.164  -3.482   1.346  1.00  0.00     0.271 C 
ENDBRANCH  23  24
ENDBRANCH  22  23
ENDBRANCH   2  22
BRANCH   7  28
HETATM   28  C18 UNL     1      -4.077   3.002  -0.495  1.00  0.00    -0.003 C 
BRANCH  28  29
HETATM   29  C19 UNL     1      -4.502   4.165  -1.270  1.00  0.00     0.127 C 
BRANCH  29  30
HETATM   30  C20 UNL     1      -5.622   3.860  -2.198  1.00  0.00     0.234 C 
HETATM   31  N6  UNL     1      -6.145   2.542  -2.210  1.00  0.00    -0.062 NA
HETATM   32  O1  UNL     1      -6.126   4.707  -2.967  1.00  0.00    -0.277 OA
ENDBRANCH  29  30
ENDBRANCH  28  29
ENDBRANCH   7  28
TORSDOF 10
