REMARK  8 active torsions:
REMARK  status: ('A' for Active; 'I' for Inactive)
REMARK    1  A    between atoms: C3_3  and  C4_4 
REMARK    2  A    between atoms: C4_4  and  C5_5 
REMARK    3  A    between atoms: N1_10  and  C10_11 
REMARK    4  A    between atoms: C10_11  and  C11_12 
REMARK    5  A    between atoms: C11_12  and  C12_13 
REMARK    6  A    between atoms: C12_13  and  C13_14 
REMARK    7  A    between atoms: C13_14  and  N2_15 
REMARK    8  A    between atoms: C16_18  and  N3_19 
ROOT
HETATM    1  C1  UNL     1      -6.038  -3.489   0.809  1.00  0.00     0.112 C 
HETATM    2  C2  UNL     1      -5.170  -2.315   0.978  1.00  0.00    -0.111 C 
HETATM    3  C3  UNL     1      -4.442  -1.367   1.125  1.00  0.00    -0.101 C 
ENDROOT
BRANCH   3   4
HETATM    4  C4  UNL     1      -3.522  -0.218   1.314  1.00  0.00     0.153 C 
BRANCH   4   5
HETATM    5  C5  UNL     1      -2.928   0.135   0.028  1.00  0.00     0.051 A 
HETATM    6  C6  UNL     1      -3.628   0.850  -0.928  1.00  0.00     0.084 A 
HETATM    7  C7  UNL     1      -3.066   1.170  -2.144  1.00  0.00     0.010 A 
HETATM    8  N6  UNL     1      -4.965   1.254  -0.629  1.00  0.00    -0.189 N 
HETATM    9  C8  UNL     1      -1.764   0.769  -2.424  1.00  0.00     0.032 A 
HETATM   10  C21 UNL     1      -3.826   1.927  -3.147  1.00  0.00     0.120 A 
HETATM   11  C9  UNL     1      -1.115   0.064  -1.443  1.00  0.00     0.092 A 
HETATM   12  N1  UNL     1      -1.661  -0.257  -0.243  1.00  0.00    -0.357 N 
HETATM   13  N4  UNL     1      -5.013   2.277  -2.864  1.00  0.00    -0.201 N 
HETATM   14  C22 UNL     1      -5.659   1.985  -1.634  1.00  0.00     0.676 A 
ATOM     15  H4  UNL     1      -5.536   2.802  -3.565  1.00  0.00     0.183 HD
HETATM   16  N5  UNL     1      -6.871   2.373  -1.415  1.00  0.00    -0.234 N 
ATOM     17  H52 UNL     1      -7.368   2.897  -2.135  1.00  0.00     0.174 HD
ATOM     18  H51 UNL     1      -7.335   2.163  -0.531  1.00  0.00     0.174 HD
ATOM     19  H6  UNL     1      -5.403   1.029   0.264  1.00  0.00     0.184 HD
BRANCH  12  20
HETATM   20  C10 UNL     1      -0.830  -1.004   0.652  1.00  0.00     0.128 C 
BRANCH  20  21
HETATM   21  C11 UNL     1      -0.030  -0.040   1.493  1.00  0.00     0.022 C 
BRANCH  21  22
HETATM   22  C12 UNL     1       0.834  -0.763   2.464  1.00  0.00     0.022 C 
BRANCH  22  23
HETATM   23  C13 UNL     1       1.865  -1.628   1.853  1.00  0.00     0.128 C 
BRANCH  23  24
HETATM   24  N2  UNL     1       2.859  -0.949   1.051  1.00  0.00    -0.366 N 
HETATM   25  C14 UNL     1       2.796  -0.725  -0.262  1.00  0.00     0.092 A 
HETATM   26  C15 UNL     1       3.777  -0.057  -0.982  1.00  0.00     0.046 A 
HETATM   27  C16 UNL     1       4.903   0.421  -0.341  1.00  0.00     0.032 A 
HETATM   28  C19 UNL     1       4.971   0.190   1.016  1.00  0.00     0.046 A 
HETATM   29  C20 UNL     1       3.976  -0.478   1.697  1.00  0.00     0.092 A 
BRANCH  27  30
HETATM   30  N3  UNL     1       5.938   1.114  -1.019  1.00  0.00    -0.389 N 
HETATM   31  C17 UNL     1       5.859   2.554  -1.089  1.00  0.00     0.149 C 
HETATM   32  C18 UNL     1       7.054   0.442  -1.637  1.00  0.00     0.149 C 
ENDBRANCH  27  30
ENDBRANCH  23  24
ENDBRANCH  22  23
ENDBRANCH  21  22
ENDBRANCH  20  21
ENDBRANCH  12  20
ENDBRANCH   4   5
ENDBRANCH   3   4
TORSDOF 8
