REMARK  8 active torsions:
REMARK  status: ('A' for Active; 'I' for Inactive)
REMARK    1  A    between atoms: C2_2  and  C3_3 
REMARK    2  A    between atoms: C3_3  and  C4_4 
REMARK    3  A    between atoms: C4_4  and  C5_5 
REMARK    4  A    between atoms: C7_11  and  O1_12 
REMARK    5  A    between atoms: C8_14  and  C9_15 
REMARK    6  A    between atoms: C9_15  and  C10_16 
REMARK    7  A    between atoms: C10_16  and  C11_17 
REMARK    8  A    between atoms: C11_17  and  N3_18 
ROOT
HETATM    1  C5  UNL     1      -3.329  -0.166   0.360  1.00  0.00     0.174 C 
HETATM    2  N1  UNL     1      -2.985   1.021   1.034  1.00  0.00    -0.373 N 
ATOM      3  H1  UNL     1      -3.589   1.340   1.791  1.00  0.00     0.161 HD
HETATM    4  C6  UNL     1      -1.857   1.784   0.717  1.00  0.00     0.178 C 
HETATM    5  N2  UNL     1      -1.212   1.721  -0.526  1.00  0.00    -0.332 N 
ATOM      6  H2  UNL     1      -1.533   2.456  -1.156  1.00  0.00     0.168 HD
HETATM    7  C7  UNL     1      -0.242   0.911  -1.127  1.00  0.00     0.164 C 
HETATM    8  C8  UNL     1       0.999   0.278  -0.774  1.00  0.00     0.063 C 
HETATM    9  N4  UNL     1       1.144  -1.064  -0.406  1.00  0.00    -0.325 N 
ATOM     10  H4  UNL     1       2.095  -1.380  -0.596  1.00  0.00     0.169 HD
HETATM   11  C15 UNL     1       0.377  -2.124   0.151  1.00  0.00     0.249 C 
HETATM   12  O2  UNL     1       0.822  -3.277   0.381  1.00  0.00    -0.270 OA
HETATM   13  C16 UNL     1      -0.999  -1.799   0.454  1.00  0.00     0.106 C 
HETATM   14  C17 UNL     1      -0.578  -1.535   1.777  1.00  0.00     0.048 C 
HETATM   15  C18 UNL     1      -1.375  -2.393  -0.762  1.00  0.00     0.048 C 
HETATM   16  N5  UNL     1      -2.149  -2.409   1.036  1.00  0.00    -0.342 N 
ATOM     17  H5  UNL     1      -2.186  -3.350   1.427  1.00  0.00     0.163 HD
HETATM   18  C19 UNL     1      -3.269  -1.466   0.982  1.00  0.00     0.241 C 
HETATM   19  O3  UNL     1      -4.299  -1.932   1.593  1.00  0.00    -0.271 OA
ENDROOT
BRANCH   8  20
HETATM   20  C9  UNL     1       1.773   1.266   0.125  1.00  0.00     0.063 C 
BRANCH  20  21
HETATM   21  C10 UNL     1       3.114   0.817   0.551  1.00  0.00     0.034 C 
BRANCH  21  22
HETATM   22  C11 UNL     1       4.023   0.681  -0.619  1.00  0.00     0.236 C 
BRANCH  22  23
HETATM   23  N3  UNL     1       5.352   0.224  -0.259  1.00  0.00    -0.079 N 
HETATM   24  C12 UNL     1       5.385  -0.493   0.981  1.00  0.00     0.271 C 
HETATM   25  C13 UNL     1       6.209   1.389  -0.129  1.00  0.00     0.271 C 
HETATM   26  C14 UNL     1       5.925  -0.622  -1.291  1.00  0.00     0.271 C 
ENDBRANCH  22  23
ENDBRANCH  21  22
ENDBRANCH  20  21
ENDBRANCH   8  20
BRANCH   7  27
HETATM   27  O1  UNL     1      -0.602   0.686  -2.382  1.00  0.00    -0.345 OA
ATOM     28  H1  UNL     1       0.057   0.136  -2.790  1.00  0.00     0.219 HD
ENDBRANCH   7  27
BRANCH   1  29
HETATM   29  C4  UNL     1      -4.672   0.121  -0.297  1.00  0.00     0.038 C 
BRANCH  29  30
HETATM   30  C3  UNL     1      -5.680   0.518   0.741  1.00  0.00     0.029 C 
BRANCH  30  31
HETATM   31  C2  UNL     1      -7.010   0.812   0.140  1.00  0.00    -0.037 C 
HETATM   32  C1  UNL     1      -7.526   2.011   0.295  1.00  0.00     0.007 C 
ENDBRANCH  30  31
ENDBRANCH  29  30
ENDBRANCH   1  29
TORSDOF 8
