REMARK  9 active torsions:
REMARK  status: ('A' for Active; 'I' for Inactive)
REMARK    1  A    between atoms: C2_2  and  C3_3 
REMARK    2  A    between atoms: C3_3  and  C5_5 
REMARK    3  A    between atoms: N1_6  and  S1_7 
REMARK    4  A    between atoms: S1_7  and  N2_10 
REMARK    5  A    between atoms: N2_10  and  C6_11 
REMARK    6  A    between atoms: N2_10  and  C8_13 
REMARK    7  A    between atoms: C8_13  and  C9_14 
REMARK    8  A    between atoms: C8_13  and  C10_19 
REMARK    9  A    between atoms: C9_14  and  N3_15 
ROOT
HETATM    1  S1  UNL     1      -0.230  -0.590   0.489  1.00  0.00     0.306 S 
HETATM    2  O1  UNL     1      -0.202  -0.531   1.990  1.00  0.00    -0.188 OA
HETATM    3  O2  UNL     1      -0.380  -2.013   0.111  1.00  0.00    -0.188 OA
ENDROOT
BRANCH   1   4
HETATM    4  N1  UNL     1       1.196   0.180  -0.098  1.00  0.00    -0.256 N 
HETATM    5  C5  UNL     1       2.175  -0.407  -0.970  1.00  0.00     0.199 C 
HETATM    6  S2  UNL     1       3.691   0.466  -1.024  1.00  0.00     0.043 S 
HETATM    7  C16 UNL     1       3.793   1.675   0.226  1.00  0.00     0.146 C 
HETATM    8  O3  UNL     1       4.022   1.103  -2.518  1.00  0.00    -0.256 OA
HETATM    9  C14 UNL     1       2.441   2.222   0.461  1.00  0.00    -0.056 C 
HETATM   10  C13 UNL     1       1.341   1.557   0.318  1.00  0.00     0.109 C 
HETATM   11  C15 UNL     1       2.398   3.654   0.903  1.00  0.00     0.046 C 
BRANCH   5  12
HETATM   12  C3  UNL     1       2.462  -1.851  -0.825  1.00  0.00     0.017 C 
HETATM   13  C4  UNL     1       3.557  -2.190  -1.868  1.00  0.00     0.013 C 
BRANCH  12  14
HETATM   14  C2  UNL     1       2.956  -2.342   0.492  1.00  0.00     0.002 C 
HETATM   15  C1  UNL     1       4.237  -1.802   1.002  1.00  0.00     0.005 C 
ENDBRANCH  12  14
ENDBRANCH   5  12
ENDBRANCH   1   4
BRANCH   1  16
HETATM   16  N2  UNL     1      -1.661   0.185  -0.107  1.00  0.00    -0.187 NA
BRANCH  16  17
HETATM   17  C6  UNL     1      -1.936  -0.337  -1.427  1.00  0.00     0.105 C 
HETATM   18  C7  UNL     1      -1.351   0.582  -2.512  1.00  0.00     0.022 C 
ENDBRANCH  16  17
BRANCH  16  19
HETATM   19  C8  UNL     1      -2.712  -0.002   0.840  1.00  0.00     0.104 C 
BRANCH  19  20
HETATM   20  C9  UNL     1      -3.006  -1.437   1.188  1.00  0.00     0.250 C 
BRANCH  20  21
HETATM   21  N3  UNL     1      -3.403  -2.242   0.050  1.00  0.00    -0.078 N 
ATOM     22  H33 UNL     1      -4.196  -1.818  -0.432  1.00  0.00     0.274 HD
ATOM     23  H32 UNL     1      -2.704  -2.187  -0.691  1.00  0.00     0.274 HD
ATOM     24  H31 UNL     1      -3.602  -3.214   0.286  1.00  0.00     0.274 HD
ENDBRANCH  20  21
ENDBRANCH  19  20
BRANCH  19  25
HETATM   25  C10 UNL     1      -3.996   0.714   0.479  1.00  0.00    -0.002 C 
HETATM   26  C11 UNL     1      -3.770   2.207   0.377  1.00  0.00     0.011 C 
HETATM   27  C12 UNL     1      -4.931   0.518   1.681  1.00  0.00     0.011 C 
ENDBRANCH  19  25
ENDBRANCH  16  19
ENDBRANCH   1  16
TORSDOF 9
