REMARK  13 active torsions:
REMARK  status: ('A' for Active; 'I' for Inactive)
REMARK    1  A    between atoms: C3_3  and  C4_4 
REMARK    2  A    between atoms: C4_4  and  C5_5 
REMARK    3  A    between atoms: C5_5  and  C6_6 
REMARK    4  A    between atoms: C6_6  and  C7_7 
REMARK    5  A    between atoms: C7_7  and  C8_8 
REMARK    6  A    between atoms: C9_13  and  C10_14 
REMARK    7  A    between atoms: C10_14  and  C11_15 
REMARK    8  A    between atoms: C11_15  and  C12_16 
REMARK    9  A    between atoms: C14_20  and  C15_21 
REMARK   10  A    between atoms: C15_21  and  N4_22 
REMARK   11  A    between atoms: C18_25  and  C19_26 
REMARK   12  A    between atoms: C19_26  and  O1_27 
REMARK   13  A    between atoms: O1_27  and  C20_28 
ROOT
HETATM    1  C1  UNL     1      -1.111   1.708   1.553  1.00  0.00     0.026 C 
HETATM    2  C2  UNL     1      -1.813   0.677   1.183  1.00  0.00    -0.005 A 
HETATM    3  C3  UNL     1      -1.395  -0.612   1.050  1.00  0.00     0.039 A 
HETATM    4  N3  UNL     1      -2.509  -1.277   0.570  1.00  0.00    -0.354 N 
ATOM      5  H3  UNL     1      -2.536  -2.274   0.357  1.00  0.00     0.166 HD
HETATM    6  C14 UNL     1      -3.546  -0.445   0.421  1.00  0.00     0.061 A 
HETATM    7  C18 UNL     1      -3.172   0.819   0.793  1.00  0.00     0.026 A 
ENDROOT
BRANCH   3   8
HETATM    8  C4  UNL     1      -0.273  -1.237   1.323  1.00  0.00     0.004 C 
BRANCH   8   9
HETATM    9  C5  UNL     1       0.948  -0.735   1.886  1.00  0.00     0.033 C 
BRANCH   9  10
HETATM   10  C6  UNL     1       2.134  -0.632   0.962  1.00  0.00     0.033 C 
BRANCH  10  11
HETATM   11  C7  UNL     1       1.930   0.217  -0.194  1.00  0.00     0.007 C 
BRANCH  11  12
HETATM   12  C8  UNL     1       2.926   0.676  -0.932  1.00  0.00     0.072 A 
HETATM   13  N1  UNL     1       2.994   1.471  -2.040  1.00  0.00    -0.298 N 
HETATM   14  N2  UNL     1       4.307   1.400  -2.083  1.00  0.00    -0.298 N 
ATOM     15  H1  UNL     1       2.294   1.941  -2.615  1.00  0.00     0.187 HD
HETATM   16  C9  UNL     1       4.301   0.603  -0.980  1.00  0.00     0.072 A 
ATOM     17  H2  UNL     1       5.030   1.784  -2.691  1.00  0.00     0.187 HD
BRANCH  16  18
HETATM   18  C10 UNL     1       5.261   0.013  -0.274  1.00  0.00     0.007 C 
BRANCH  18  19
HETATM   19  C11 UNL     1       6.682   0.187  -0.666  1.00  0.00     0.029 C 
BRANCH  19  20
HETATM   20  C12 UNL     1       7.538  -0.087   0.551  1.00  0.00    -0.001 C 
HETATM   21  C13 UNL     1       8.986   0.100   0.117  1.00  0.00     0.005 C 
ENDBRANCH  19  20
ENDBRANCH  18  19
ENDBRANCH  16  18
ENDBRANCH  11  12
ENDBRANCH  10  11
ENDBRANCH   9  10
ENDBRANCH   8   9
ENDBRANCH   3   8
BRANCH   7  22
HETATM   22  C19 UNL     1      -3.860   1.927   0.837  1.00  0.00     0.160 C 
BRANCH  22  23
HETATM   23  O1  UNL     1      -5.166   2.127   0.470  1.00  0.00    -0.290 OA
BRANCH  23  24
HETATM   24  C20 UNL     1      -5.491   2.664  -0.789  1.00  0.00     0.259 C 
HETATM   25  C21 UNL     1      -6.887   2.867  -1.153  1.00  0.00     0.126 C 
HETATM   26  O2  UNL     1      -4.562   2.950  -1.557  1.00  0.00    -0.265 OA
ENDBRANCH  23  24
ENDBRANCH  22  23
ENDBRANCH   7  22
BRANCH   6  27
HETATM   27  C15 UNL     1      -4.741  -0.869  -0.008  1.00  0.00     0.115 C 
BRANCH  27  28
HETATM   28  N4  UNL     1      -4.949  -2.251  -0.329  1.00  0.00    -0.397 N 
HETATM   29  C16 UNL     1      -5.741  -3.064   0.565  1.00  0.00     0.148 C 
HETATM   30  C17 UNL     1      -4.387  -2.824  -1.508  1.00  0.00     0.148 C 
ENDBRANCH  27  28
ENDBRANCH   6  27
TORSDOF 13
