REMARK  7 active torsions:
REMARK  status: ('A' for Active; 'I' for Inactive)
REMARK    1  A    between atoms: N1_4  and  C4_5 
REMARK    2  A    between atoms: C4_5  and  C5_6 
REMARK    3  A    between atoms: C6_7  and  C7_8 
REMARK    4  A    between atoms: C7_8  and  C8_9 
REMARK    5  A    between atoms: C8_9  and  C9_10 
REMARK    6  A    between atoms: C9_10  and  N2_11 
REMARK    7  A    between atoms: C11_16  and  N5_17 
ROOT
HETATM    1  C1  UNL     1      -0.459   3.645   1.541  1.00  0.00     0.041 C 
HETATM    2  C2  UNL     1      -0.998   3.224   0.191  1.00  0.00     0.146 C 
HETATM    3  C3  UNL     1      -0.046   2.296  -0.502  1.00  0.00     0.307 C 
HETATM    4  N1  UNL     1      -0.460   0.915  -0.514  1.00  0.00     0.130 N 
HETATM    5  C11 UNL     1      -1.793   0.668  -0.908  1.00  0.00     0.472 C 
HETATM    6  C20 UNL     1      -2.638   1.952  -0.817  1.00  0.00     0.181 C 
HETATM    7  C21 UNL     1      -2.612   2.720  -2.113  1.00  0.00     0.043 C 
HETATM    8  O1  UNL     1      -2.261   2.719   0.272  1.00  0.00    -0.376 OA
ENDROOT
BRANCH   4   9
HETATM    9  C4  UNL     1       0.553   0.160  -1.189  1.00  0.00     0.302 C 
BRANCH   9  10
HETATM   10  C5  UNL     1       1.814  -0.062  -0.480  1.00  0.00    -0.001 C 
HETATM   11  C6  UNL     1       2.181   0.276   0.712  1.00  0.00    -0.029 C 
BRANCH  11  12
HETATM   12  C7  UNL     1       3.498  -0.021   1.289  1.00  0.00     0.028 C 
BRANCH  12  13
HETATM   13  C8  UNL     1       4.328  -0.772   0.281  1.00  0.00     0.023 C 
BRANCH  13  14
HETATM   14  C9  UNL     1       5.672  -1.050   0.941  1.00  0.00     0.122 C 
BRANCH  14  15
HETATM   15  N2  UNL     1       6.459  -1.769  -0.026  1.00  0.00    -0.367 N 
HETATM   16  C10 UNL     1       7.702  -1.492  -0.163  1.00  0.00     0.196 C 
HETATM   17  N3  UNL     1       8.281  -0.484   0.640  1.00  0.00    -0.067 NA
HETATM   18  N4  UNL     1       8.448  -2.213  -1.122  1.00  0.00    -0.067 NA
ATOM     19  H2  UNL     1       6.029  -2.495  -0.599  1.00  0.00     0.161 HD
ENDBRANCH  14  15
ENDBRANCH  13  14
ENDBRANCH  12  13
ENDBRANCH  11  12
ENDBRANCH   9  10
ENDBRANCH   4   9
BRANCH   5  20
HETATM   20  N5  UNL     1      -2.521  -0.358  -0.294  1.00  0.00     0.035 N 
HETATM   21  C12 UNL     1      -1.971  -1.660  -0.217  1.00  0.00     0.263 C 
HETATM   22  C13 UNL     1      -2.954  -2.414   0.690  1.00  0.00     0.038 C 
HETATM   23  C14 UNL     1      -3.912  -1.348   1.108  1.00  0.00     0.039 C 
HETATM   24  C15 UNL     1      -4.739  -0.976  -0.091  1.00  0.00     0.089 C 
HETATM   25  C18 UNL     1      -2.977  -0.120   1.054  1.00  0.00     0.214 C 
HETATM   26  C16 UNL     1      -5.637  -2.017  -0.603  1.00  0.00     0.029 C 
HETATM   27  N6  UNL     1      -3.750  -0.483  -0.998  1.00  0.00    -0.140 NA
HETATM   28  C17 UNL     1      -3.664  -1.244  -2.191  1.00  0.00     0.144 C 
HETATM   29  C19 UNL     1      -1.913  -0.205   2.095  1.00  0.00     0.043 C 
ENDBRANCH   5  20
TORSDOF 7
