REMARK  8 active torsions:
REMARK  status: ('A' for Active; 'I' for Inactive)
REMARK    1  A    between atoms: C2_2  and  N1_3 
REMARK    2  A    between atoms: N2_12  and  C11_13 
REMARK    3  A    between atoms: C11_13  and  C12_14 
REMARK    4  A    between atoms: C12_14  and  O1_15 
REMARK    5  A    between atoms: C12_14  and  C13_17 
REMARK    6  A    between atoms: C13_17  and  C14_18 
REMARK    7  A    between atoms: C14_18  and  C15_19 
REMARK    8  A    between atoms: C15_19  and  C16_20 
ROOT
HETATM    1  C12 UNL     1      -0.205  -0.817  -0.942  1.00  0.00     0.136 C 
ENDROOT
BRANCH   1   2
HETATM    2  C11 UNL     1       0.444   0.043   0.097  1.00  0.00     0.160 C 
BRANCH   2   3
HETATM    3  N2  UNL     1       1.835  -0.296   0.334  1.00  0.00    -0.353 N 
HETATM    4  C6  UNL     1       2.872   0.290  -0.287  1.00  0.00     0.061 A 
HETATM    5  C5  UNL     1       2.597   1.302  -1.167  1.00  0.00     0.033 A 
HETATM    6  C7  UNL     1       4.193  -0.068  -0.076  1.00  0.00     0.061 A 
HETATM    7  C4  UNL     1       3.677   1.917  -1.803  1.00  0.00     0.020 A 
HETATM    8  C3  UNL     1       4.954   1.525  -1.559  1.00  0.00     0.091 A 
HETATM    9  N1  UNL     1       5.241   0.518  -0.685  1.00  0.00    -0.355 N 
HETATM   10  C8  UNL     1       4.460  -1.068   0.813  1.00  0.00     0.033 A 
HETATM   11  C9  UNL     1       3.422  -1.691   1.470  1.00  0.00     0.020 A 
HETATM   12  C10 UNL     1       2.132  -1.293   1.218  1.00  0.00     0.091 A 
BRANCH   9  13
HETATM   13  C2  UNL     1       6.624   0.135  -0.473  1.00  0.00     0.124 C 
HETATM   14  C1  UNL     1       7.246   0.902   0.693  1.00  0.00     0.027 C 
ENDBRANCH   9  13
ENDBRANCH   2   3
ENDBRANCH   1   2
BRANCH   1  15
HETATM   15  O1  UNL     1       0.387  -0.781  -2.190  1.00  0.00    -0.394 OA
ATOM     16  H1  UNL     1      -0.025  -1.327  -2.849  1.00  0.00     0.210 HD
ENDBRANCH   1  15
BRANCH   1  17
HETATM   17  C13 UNL     1      -1.674  -0.470  -1.018  1.00  0.00     0.036 C 
BRANCH  17  18
HETATM   18  C14 UNL     1      -2.418  -0.675   0.248  1.00  0.00     0.039 C 
BRANCH  18  19
HETATM   19  C15 UNL     1      -3.889  -0.337   0.137  1.00  0.00     0.065 C 
HETATM   20  C18 UNL     1      -4.486  -0.469   1.510  1.00  0.00     0.056 C 
HETATM   21  C19 UNL     1      -5.144  -1.790   1.756  1.00  0.00     0.125 C 
HETATM   22  N4  UNL     1      -6.071  -2.167   0.726  1.00  0.00    -0.367 N 
HETATM   23  C20 UNL     1      -5.654  -1.986  -0.630  1.00  0.00     0.168 C 
ATOM     24  H4  UNL     1      -6.990  -2.548   0.952  1.00  0.00     0.161 HD
HETATM   25  S1  UNL     1      -6.378  -2.755  -1.876  1.00  0.00    -0.041 SA
HETATM   26  N5  UNL     1      -4.568  -1.098  -0.861  1.00  0.00    -0.353 N 
ATOM     27  H5  UNL     1      -4.246  -0.996  -1.824  1.00  0.00     0.163 HD
BRANCH  19  28
HETATM   28  C16 UNL     1      -3.972   1.100  -0.248  1.00  0.00     0.086 C 
HETATM   29  N3  UNL     1      -3.935   1.985   0.664  1.00  0.00    -0.404 N 
HETATM   30  C17 UNL     1      -4.008   3.386   0.393  1.00  0.00     0.145 C 
ATOM     31  H3  UNL     1      -3.849   1.681   1.634  1.00  0.00     0.158 HD
ENDBRANCH  19  28
ENDBRANCH  18  19
ENDBRANCH  17  18
ENDBRANCH   1  17
TORSDOF 8
