REMARK  8 active torsions:
REMARK  status: ('A' for Active; 'I' for Inactive)
REMARK    1  A    between atoms: C2_2  and  C3_3 
REMARK    2  A    between atoms: C3_3  and  C4_4 
REMARK    3  A    between atoms: C4_4  and  C5_5 
REMARK    4  A    between atoms: N3_18  and  C13_19 
REMARK    5  A    between atoms: C13_19  and  C14_20 
REMARK    6  A    between atoms: C14_20  and  C15_21 
REMARK    7  A    between atoms: C15_21  and  S1_22 
REMARK    8  A    between atoms: S1_22  and  N4_23 
ROOT
HETATM    1  C5  UNL     1      -1.965   0.085   0.585  1.00  0.00     0.041 A 
HETATM    2  C6  UNL     1      -1.099  -0.816  -0.033  1.00  0.00     0.085 A 
HETATM    3  N1  UNL     1      -1.323  -1.829  -0.893  1.00  0.00    -0.351 N 
ATOM      4  H1  UNL     1      -2.243  -2.095  -1.243  1.00  0.00     0.166 HD
HETATM    5  C7  UNL     1      -0.181  -2.440  -1.227  1.00  0.00     0.062 A 
HETATM    6  C8  UNL     1       0.082  -3.516  -2.063  1.00  0.00     0.037 A 
HETATM    7  C9  UNL     1       1.368  -3.932  -2.213  1.00  0.00     0.077 A 
HETATM    8  C10 UNL     1       2.344  -3.264  -1.529  1.00  0.00     0.245 A 
HETATM    9  O1  UNL     1       3.545  -3.655  -1.671  1.00  0.00    -0.268 OA
HETATM   10  N2  UNL     1       2.130  -2.212  -0.705  1.00  0.00    -0.320 N 
ATOM     11  H2  UNL     1       2.897  -1.750  -0.217  1.00  0.00     0.169 HD
HETATM   12  C11 UNL     1       0.861  -1.807  -0.561  1.00  0.00     0.091 A 
HETATM   13  C12 UNL     1       0.275  -0.796   0.179  1.00  0.00     0.094 A 
HETATM   14  N3  UNL     1       0.733   0.138   1.014  1.00  0.00    -0.333 N 
HETATM   15  C16 UNL     1      -0.116   1.029   1.628  1.00  0.00     0.082 A 
HETATM   16  C17 UNL     1       0.425   2.042   2.579  1.00  0.00     0.089 C 
HETATM   17  N5  UNL     1      -1.434   0.993   1.410  1.00  0.00    -0.343 N 
HETATM   18  C18 UNL     1      -2.271   1.987   2.090  1.00  0.00     0.157 C 
ENDROOT
BRANCH  14  19
HETATM   19  C13 UNL     1       2.137   0.283   1.314  1.00  0.00     0.131 C 
BRANCH  19  20
HETATM   20  C14 UNL     1       2.850   1.212   0.354  1.00  0.00     0.037 C 
BRANCH  20  21
HETATM   21  C15 UNL     1       4.282   1.468   0.667  1.00  0.00     0.164 C 
BRANCH  21  22
HETATM   22  S1  UNL     1       5.386   0.130   0.620  1.00  0.00     0.224 S 
HETATM   23  O2  UNL     1       6.777   0.654   0.943  1.00  0.00    -0.206 OA
HETATM   24  O3  UNL     1       5.090  -0.911   1.665  1.00  0.00    -0.206 OA
BRANCH  22  25
HETATM   25  N4  UNL     1       5.524  -0.612  -0.946  1.00  0.00    -0.328 N 
ATOM     26  H42 UNL     1       4.997  -0.279  -1.754  1.00  0.00     0.168 HD
ATOM     27  H41 UNL     1       6.173  -1.398  -0.974  1.00  0.00     0.168 HD
ENDBRANCH  22  25
ENDBRANCH  21  22
ENDBRANCH  20  21
ENDBRANCH  19  20
ENDBRANCH  14  19
BRANCH   1  28
HETATM   28  C4  UNL     1      -3.415  -0.009   0.288  1.00  0.00     0.059 C 
BRANCH  28  29
HETATM   29  C3  UNL     1      -3.688   0.620  -1.051  1.00  0.00     0.006 C 
BRANCH  29  30
HETATM   30  C2  UNL     1      -5.146   0.567  -1.431  1.00  0.00    -0.004 C 
HETATM   31  C1  UNL     1      -6.040   1.274  -0.471  1.00  0.00     0.005 C 
ENDBRANCH  29  30
ENDBRANCH  28  29
ENDBRANCH   1  28
TORSDOF 8
