REMARK  9 active torsions:
REMARK  status: ('A' for Active; 'I' for Inactive)
REMARK    1  A    between atoms: C3_3  and  C4_4 
REMARK    2  A    between atoms: C4_4  and  N1_5 
REMARK    3  A    between atoms: C6_10  and  C7_11 
REMARK    4  A    between atoms: C7_11  and  C8_12 
REMARK    5  A    between atoms: C8_12  and  C9_13 
REMARK    6  A    between atoms: C9_13  and  N3_14 
REMARK    7  A    between atoms: C16_21  and  C17_22 
REMARK    8  A    between atoms: C17_22  and  C18_23 
REMARK    9  A    between atoms: C20_27  and  N5_28 
ROOT
HETATM    1  C1  UNL     1       2.386   5.664  -2.304  1.00  0.00     0.112 C 
HETATM    2  C2  UNL     1       2.250   4.893  -1.054  1.00  0.00    -0.109 C 
HETATM    3  C3  UNL     1       2.122   4.264  -0.037  1.00  0.00    -0.087 C 
ENDROOT
BRANCH   3   4
HETATM    4  C4  UNL     1       1.955   3.472   1.203  1.00  0.00     0.227 C 
BRANCH   4   5
HETATM    5  N1  UNL     1       1.162   2.321   0.848  1.00  0.00    -0.292 N 
HETATM    6  C5  UNL     1      -0.259   2.339   0.921  1.00  0.00     0.327 A 
HETATM    7  O1  UNL     1      -0.881   3.387   1.307  1.00  0.00    -0.246 OA
HETATM    8  N2  UNL     1      -0.963   1.177   0.558  1.00  0.00    -0.312 N 
HETATM    9  C6  UNL     1      -0.425   0.079   0.158  1.00  0.00     0.015 A 
ATOM     10  H2  UNL     1      -1.981   1.207   0.616  1.00  0.00     0.170 HD
HETATM   11  C15 UNL     1       1.036   0.038   0.075  1.00  0.00     0.050 A 
HETATM   12  C16 UNL     1       1.756   1.099   0.403  1.00  0.00     0.025 A 
BRANCH   9  13
HETATM   13  C7  UNL     1      -1.249  -1.105  -0.207  1.00  0.00     0.059 C 
BRANCH  13  14
HETATM   14  C8  UNL     1      -2.718  -0.725  -0.009  1.00  0.00     0.026 C 
BRANCH  14  15
HETATM   15  C9  UNL     1      -3.618  -1.891  -0.365  1.00  0.00     0.128 C 
BRANCH  15  16
HETATM   16  N3  UNL     1      -5.000  -1.517  -0.172  1.00  0.00    -0.366 N 
HETATM   17  C10 UNL     1      -5.558  -1.739   1.048  1.00  0.00     0.090 A 
HETATM   18  C11 UNL     1      -6.874  -1.397   1.275  1.00  0.00     0.017 A 
HETATM   19  C12 UNL     1      -7.662  -0.823   0.282  1.00  0.00     0.003 A 
HETATM   20  C13 UNL     1      -7.054  -0.617  -0.938  1.00  0.00     0.017 A 
HETATM   21  C14 UNL     1      -5.740  -0.961  -1.156  1.00  0.00     0.090 A 
ENDBRANCH  15  16
ENDBRANCH  14  15
ENDBRANCH  13  14
ENDBRANCH   9  13
BRANCH  12  22
HETATM   22  C17 UNL     1       3.237   1.070   0.324  1.00  0.00     0.116 C 
BRANCH  22  23
HETATM   23  C18 UNL     1       3.757  -0.222  -0.141  1.00  0.00     0.048 A 
HETATM   24  C19 UNL     1       4.030  -0.682  -1.400  1.00  0.00     0.132 A 
HETATM   25  N4  UNL     1       4.501  -1.957  -1.352  1.00  0.00    -0.200 N 
HETATM   26  C20 UNL     1       4.516  -2.276  -0.050  1.00  0.00     0.677 A 
ATOM     27  H4  UNL     1       4.782  -2.544  -2.137  1.00  0.00     0.183 HD
HETATM   28  N6  UNL     1       4.072  -1.245   0.689  1.00  0.00    -0.194 N 
ATOM     29  H6  UNL     1       3.986  -1.235   1.705  1.00  0.00     0.184 HD
BRANCH  26  30
HETATM   30  N5  UNL     1       4.913  -3.438   0.405  1.00  0.00    -0.230 N 
HETATM   31  C21 UNL     1       5.373  -4.487  -0.448  1.00  0.00     0.165 C 
ATOM     32  H5  UNL     1       4.893  -3.601   1.412  1.00  0.00     0.177 HD
ENDBRANCH  26  30
ENDBRANCH  22  23
ENDBRANCH  12  22
ENDBRANCH   4   5
ENDBRANCH   3   4
TORSDOF 9
