REMARK  10 active torsions:
REMARK  status: ('A' for Active; 'I' for Inactive)
REMARK    1  A    between atoms: C2_2  and  C3_3 
REMARK    2  A    between atoms: C3_3  and  C4_4 
REMARK    3  A    between atoms: C4_4  and  C5_5 
REMARK    4  A    between atoms: C5_5  and  N1_6 
REMARK    5  A    between atoms: N2_9  and  C8_10 
REMARK    6  A    between atoms: C8_10  and  C9_11 
REMARK    7  A    between atoms: C10_12  and  C11_13 
REMARK    8  A    between atoms: C11_13  and  C12_14 
REMARK    9  A    between atoms: C12_14  and  N3_15 
REMARK   10  A    between atoms: C18_23  and  N5_24 
ROOT
HETATM    1  N1  UNL     1      -3.820  -0.593  -0.015  1.00  0.00    -0.362 N 
HETATM    2  C6  UNL     1      -3.282  -0.591   1.211  1.00  0.00     0.107 A 
HETATM    3  C7  UNL     1      -2.134  -1.318   1.450  1.00  0.00     0.110 A 
HETATM    4  N2  UNL     1      -1.597  -2.004   0.436  1.00  0.00    -0.335 N 
HETATM    5  C19 UNL     1      -2.146  -2.003  -0.804  1.00  0.00     0.132 A 
HETATM    6  C20 UNL     1      -1.493  -2.771  -1.823  1.00  0.00     0.119 C 
HETATM    7  N6  UNL     1      -0.964  -3.383  -2.651  1.00  0.00    -0.190 NA
HETATM    8  C21 UNL     1      -3.292  -1.278  -1.045  1.00  0.00     0.131 A 
ENDROOT
BRANCH   4   9
HETATM    9  C8  UNL     1      -0.391  -2.767   0.687  1.00  0.00     0.223 C 
BRANCH   9  10
HETATM   10  C9  UNL     1       0.737  -1.856   0.413  1.00  0.00    -0.086 C 
HETATM   11  C10 UNL     1       1.648  -1.104   0.173  1.00  0.00    -0.103 C 
BRANCH  11  12
HETATM   12  C11 UNL     1       2.739  -0.182  -0.137  1.00  0.00     0.115 C 
BRANCH  12  13
HETATM   13  C12 UNL     1       4.079  -0.920  -0.158  1.00  0.00     0.159 C 
BRANCH  13  14
HETATM   14  N3  UNL     1       5.164  -0.032  -0.460  1.00  0.00    -0.187 N 
HETATM   15  C13 UNL     1       5.829   0.591   0.518  1.00  0.00     0.027 A 
HETATM   16  C14 UNL     1       5.526   0.417   1.945  1.00  0.00     0.069 C 
HETATM   17  C15 UNL     1       6.876   1.455   0.192  1.00  0.00     0.050 A 
HETATM   18  C16 UNL     1       7.206   1.652  -1.118  1.00  0.00     0.024 A 
HETATM   19  C17 UNL     1       8.324   2.575  -1.462  1.00  0.00     0.068 C 
HETATM   20  N4  UNL     1       6.513   1.008  -2.062  1.00  0.00    -0.196 N 
HETATM   21  C18 UNL     1       5.496   0.168  -1.754  1.00  0.00     0.678 A 
ATOM     22  H4  UNL     1       6.757   1.153  -3.042  1.00  0.00     0.184 HD
BRANCH  21  23
HETATM   23  N5  UNL     1       4.913  -0.382  -2.756  1.00  0.00    -0.234 N 
ATOM     24  H52 UNL     1       4.147  -1.015  -2.524  1.00  0.00     0.174 HD
ATOM     25  H51 UNL     1       5.164  -0.231  -3.733  1.00  0.00     0.174 HD
ENDBRANCH  21  23
ENDBRANCH  13  14
ENDBRANCH  12  13
ENDBRANCH  11  12
ENDBRANCH   9  10
ENDBRANCH   4   9
BRANCH   1  26
HETATM   26  C5  UNL     1      -5.040   0.194  -0.219  1.00  0.00     0.128 C 
BRANCH  26  27
HETATM   27  C4  UNL     1      -6.260  -0.603   0.051  1.00  0.00     0.020 C 
BRANCH  27  28
HETATM   28  C3  UNL     1      -7.562   0.040  -0.162  1.00  0.00     0.001 C 
BRANCH  28  29
HETATM   29  C2  UNL     1      -7.932   1.251   0.597  1.00  0.00    -0.004 C 
HETATM   30  C1  UNL     1      -7.091   2.466   0.381  1.00  0.00     0.005 C 
ENDBRANCH  28  29
ENDBRANCH  27  28
ENDBRANCH  26  27
ENDBRANCH   1  26
TORSDOF 10
