REMARK  5 active torsions:
REMARK  status: ('A' for Active; 'I' for Inactive)
REMARK    1  A    between atoms: C1_2  and  C2_3 
REMARK    2  A    between atoms: C2_3  and  N1_4 
REMARK    3  A    between atoms: N1_4  and  C3_5 
REMARK    4  A    between atoms: C3_5  and  C4_6 
REMARK    5  A    between atoms: C4_6  and  N2_7 
ROOT
HETATM    1  C4  UNL     1       0.336   1.155  -0.001  1.00  0.00     0.166 C 
ENDROOT
BRANCH   1   2
HETATM    2  C3  UNL     1      -0.967   1.114  -0.687  1.00  0.00     0.257 C 
BRANCH   2   3
HETATM    3  N1  UNL     1      -1.899   0.060  -0.330  1.00  0.00    -0.061 N 
HETATM    4  C9  UNL     1      -1.782  -0.193   1.060  1.00  0.00     0.263 C 
HETATM    5  C10 UNL     1      -2.874   0.455   1.885  1.00  0.00     0.195 C 
HETATM    6  O1  UNL     1      -2.995   1.751   1.415  1.00  0.00    -0.388 OA
HETATM    7  C11 UNL     1      -3.667   1.700   0.211  1.00  0.00     0.195 C 
HETATM    8  C12 UNL     1      -3.206   0.602  -0.702  1.00  0.00     0.263 C 
BRANCH   3   9
HETATM    9  C2  UNL     1      -1.623  -1.039  -1.204  1.00  0.00     0.248 C 
BRANCH   9  10
HETATM   10  C1  UNL     1      -2.746  -1.909  -1.612  1.00  0.00     0.113 C 
HETATM   11 BR1  UNL     1      -3.623  -2.827  -0.162  1.00  0.00    -0.095 Br
ENDBRANCH   9  10
ENDBRANCH   3   9
ENDBRANCH   2   3
ENDBRANCH   1   2
BRANCH   1  12
HETATM   12  N2  UNL     1       1.058  -0.082  -0.223  1.00  0.00    -0.225 N 
HETATM   13  C5  UNL     1       2.324  -0.193   0.101  1.00  0.00     0.669 C 
HETATM   14  N3  UNL     1       3.045   0.887   0.680  1.00  0.00    -0.227 N 
HETATM   15  N4  UNL     1       3.020  -1.405  -0.120  1.00  0.00    -0.227 N 
HETATM   16  C6  UNL     1       4.341   0.599   1.260  1.00  0.00     0.139 C 
ATOM     17  H3  UNL     1       2.663   1.833   0.687  1.00  0.00     0.177 HD
HETATM   18  C7  UNL     1       5.133  -0.285   0.349  1.00  0.00     0.040 C 
HETATM   19  C8  UNL     1       4.439  -1.570   0.015  1.00  0.00     0.139 C 
ATOM     20  H4  UNL     1       2.473  -2.221  -0.395  1.00  0.00     0.177 HD
ATOM     21  H2  UNL     1       0.574  -0.878  -0.638  1.00  0.00     0.177 HD
ENDBRANCH   1  12
TORSDOF 5
