REMARK  6 active torsions:
REMARK  status: ('A' for Active; 'I' for Inactive)
REMARK    1  A    between atoms: N3_16  and  C11_17 
REMARK    2  A    between atoms: C11_17  and  C12_18 
REMARK    3  A    between atoms: C12_18  and  C13_19 
REMARK    4  A    between atoms: C13_19  and  C14_20 
REMARK    5  A    between atoms: C14_20  and  N4_21 
REMARK    6  A    between atoms: C16_25  and  C17_26 
ROOT
HETATM    1  C1  UNL     1      -4.992  -1.463   0.876  1.00  0.00     0.150 C 
HETATM    2  N1  UNL     1      -3.924  -0.845   1.481  1.00  0.00    -0.378 N 
HETATM    3  C2  UNL     1      -3.877  -0.653   2.880  1.00  0.00     0.094 A 
HETATM    4  C3  UNL     1      -2.607  -0.074   2.951  1.00  0.00    -0.020 A 
HETATM    5  C4  UNL     1      -1.898   0.351   4.031  1.00  0.00     0.052 A 
HETATM    6  C5  UNL     1      -0.582   0.889   3.814  1.00  0.00     0.117 A 
HETATM    7  F1  UNL     1       0.130   1.303   4.836  1.00  0.00    -0.206 F 
HETATM    8  C6  UNL     1      -0.014   0.987   2.550  1.00  0.00     0.049 A 
HETATM    9  C7  UNL     1      -0.870   0.520   1.635  1.00  0.00    -0.025 A 
HETATM   10  C8  UNL     1      -2.075   0.027   1.811  1.00  0.00     0.087 A 
HETATM   11  C9  UNL     1      -2.433  -0.327   0.203  1.00  0.00     0.115 A 
HETATM   12  N2  UNL     1      -2.465  -0.488  -1.156  1.00  0.00    -0.327 N 
ATOM     13  H2  UNL     1      -3.272  -0.890  -1.634  1.00  0.00     0.165 HD
HETATM   14  C10 UNL     1      -1.363  -0.083  -1.828  1.00  0.00     0.320 A 
HETATM   15  O1  UNL     1      -1.036  -0.058  -2.942  1.00  0.00    -0.247 OA
HETATM   16  N3  UNL     1      -0.708   0.320  -0.677  1.00  0.00    -0.317 N 
HETATM   17  C16 UNL     1      -1.296   0.173   0.349  1.00  0.00     0.110 A 
HETATM   18  C17 UNL     1      -2.940  -0.494   0.718  1.00  0.00     0.112 A 
ENDROOT
BRANCH  16  19
HETATM   19  C11 UNL     1       0.618   0.896  -0.747  1.00  0.00     0.129 C 
BRANCH  19  20
HETATM   20  C12 UNL     1       1.571  -0.235  -0.658  1.00  0.00     0.022 C 
BRANCH  20  21
HETATM   21  C13 UNL     1       2.995   0.105  -0.696  1.00  0.00     0.021 C 
BRANCH  21  22
HETATM   22  C14 UNL     1       3.441   0.820  -1.946  1.00  0.00     0.120 C 
BRANCH  22  23
HETATM   23  N4  UNL     1       4.877   1.056  -1.779  1.00  0.00    -0.388 N 
HETATM   24  C15 UNL     1       5.685   0.925  -2.806  1.00  0.00     0.185 C 
HETATM   25  N5  UNL     1       5.213   0.557  -4.097  1.00  0.00    -0.097 NA
ATOM     26  H4  UNL     1       5.249   1.322  -0.867  1.00  0.00     0.159 HD
ENDBRANCH  22  23
ENDBRANCH  21  22
ENDBRANCH  20  21
ENDBRANCH  19  20
ENDBRANCH  16  19
TORSDOF 6
