REMARK  6 active torsions:
REMARK  status: ('A' for Active; 'I' for Inactive)
REMARK    1  A    between atoms: N1_1  and  N2_4 
REMARK    2  A    between atoms: C1_6  and  C2_7 
REMARK    3  A    between atoms: C1_6  and  C9_16 
REMARK    4  A    between atoms: C2_7  and  C3_8 
REMARK    5  A    between atoms: C3_8  and  N3_9 
REMARK    6  A    between atoms: C9_16  and  N4_17 
ROOT
HETATM    1  N2  UNL     1       0.767   2.751  -0.429  1.00  0.00    -0.314 N 
ATOM      2  H2  UNL     1       1.613   3.309  -0.315  1.00  0.00     0.185 HD
HETATM    3  C1  UNL     1       0.789   1.726   0.278  1.00  0.00     0.022 C 
ENDROOT
BRANCH   3   4
HETATM    4  C2  UNL     1      -0.290   0.740   0.319  1.00  0.00     0.076 C 
BRANCH   4   5
HETATM    5  C3  UNL     1      -1.453   0.995  -0.578  1.00  0.00     0.133 C 
BRANCH   5   6
HETATM    6  N3  UNL     1      -2.472  -0.064  -0.427  1.00  0.00    -0.365 N 
HETATM    7  C4  UNL     1      -2.431  -1.169  -1.198  1.00  0.00     0.090 A 
HETATM    8  C5  UNL     1      -3.375  -2.172  -1.073  1.00  0.00     0.019 A 
HETATM    9  C6  UNL     1      -4.388  -2.061  -0.149  1.00  0.00     0.022 A 
HETATM   10  C7  UNL     1      -4.418  -0.924   0.634  1.00  0.00     0.026 A 
HETATM   11 BR1  UNL     1      -5.805  -0.738   1.922  1.00  0.00    -0.050 Br
HETATM   12  C8  UNL     1      -3.455   0.062   0.482  1.00  0.00     0.109 A 
ENDBRANCH   5   6
ENDBRANCH   4   5
ENDBRANCH   3   4
BRANCH   3  13
HETATM   13  C9  UNL     1       1.981   1.485   1.150  1.00  0.00     0.181 C 
BRANCH  13  14
HETATM   14  N4  UNL     1       2.675   0.256   0.835  1.00  0.00    -0.361 N 
HETATM   15  C10 UNL     1       2.395  -0.929   1.405  1.00  0.00     0.090 A 
HETATM   16  C11 UNL     1       3.069  -2.095   1.092  1.00  0.00     0.017 A 
HETATM   17  C12 UNL     1       4.080  -2.069   0.152  1.00  0.00     0.003 A 
HETATM   18  C13 UNL     1       4.372  -0.868  -0.435  1.00  0.00     0.017 A 
HETATM   19  C14 UNL     1       3.669   0.265  -0.085  1.00  0.00     0.090 A 
ENDBRANCH  13  14
ENDBRANCH   3  13
BRANCH   1  20
HETATM   20  N1  UNL     1      -0.093   3.312  -1.309  1.00  0.00    -0.345 N 
ATOM     21  H12 UNL     1      -0.930   2.737  -1.406  1.00  0.00     0.176 HD
ATOM     22  H11 UNL     1      -0.111   4.152  -1.888  1.00  0.00     0.176 HD
ENDBRANCH   1  20
TORSDOF 6
