REMARK  10 active torsions:
REMARK  status: ('A' for Active; 'I' for Inactive)
REMARK    1  A    between atoms: C2_2  and  C3_3 
REMARK    2  A    between atoms: N1_6  and  C6_7 
REMARK    3  A    between atoms: C6_7  and  C7_8 
REMARK    4  A    between atoms: C8_9  and  C9_10 
REMARK    5  A    between atoms: C11_12  and  C12_13 
REMARK    6  A    between atoms: C12_13  and  C13_14 
REMARK    7  A    between atoms: C13_14  and  N2_15 
REMARK    8  A    between atoms: C17_21  and  N4_22 
REMARK       I    between atoms: N4_22  and  C18_24 
REMARK    9  A    between atoms: C21_32  and  C22_33 
REMARK   10  A    between atoms: C23_34  and  N8_35 
ROOT
HETATM    1  C7  UNL     1       0.429  -1.476  -0.414  1.00  0.00     0.075 A 
HETATM    2  C8  UNL     1      -0.532  -0.535  -0.227  1.00  0.00    -0.006 A 
HETATM    3  C11 UNL     1      -1.834  -0.820   0.235  1.00  0.00     0.036 A 
HETATM    4  N3  UNL     1      -2.151  -2.088   0.516  1.00  0.00    -0.194 N 
ATOM      5  H3  UNL     1      -3.082  -2.329   0.855  1.00  0.00     0.184 HD
HETATM    6  C17 UNL     1      -1.225  -3.029   0.344  1.00  0.00     0.687 A 
HETATM    7  N7  UNL     1       0.026  -2.758  -0.104  1.00  0.00    -0.185 N 
HETATM    8  C19 UNL     1       0.930  -3.850  -0.299  1.00  0.00     0.175 C 
ENDROOT
BRANCH   1   9
HETATM    9  C6  UNL     1       1.740  -1.327  -0.960  1.00  0.00     0.126 C 
BRANCH   9  10
HETATM   10  N1  UNL     1       2.853  -0.733  -0.317  1.00  0.00    -0.339 N 
HETATM   11  C5  UNL     1       3.632  -1.347   0.589  1.00  0.00     0.096 A 
HETATM   12  C4  UNL     1       4.774  -0.777   1.092  1.00  0.00     0.026 A 
HETATM   13  C3  UNL     1       5.192   0.473   0.694  1.00  0.00    -0.037 A 
HETATM   14  C21 UNL     1       4.410   1.115  -0.230  1.00  0.00     0.041 A 
HETATM   15  C20 UNL     1       3.285   0.488  -0.690  1.00  0.00     0.117 A 
BRANCH  13  16
HETATM   16  C2  UNL     1       6.420   1.114   1.220  1.00  0.00     0.036 C 
HETATM   17  C1  UNL     1       6.111   2.189   2.237  1.00  0.00     0.010 C 
ENDBRANCH  13  16
BRANCH  14  18
HETATM   18  C22 UNL     1       4.757   2.446  -0.718  1.00  0.00    -0.042 C 
HETATM   19  C23 UNL     1       5.043   3.553  -1.099  1.00  0.00     0.009 C 
BRANCH  19  20
HETATM   20  N8  UNL     1       5.364   4.844  -1.522  1.00  0.00    -0.359 N 
ATOM     21  H82 UNL     1       4.887   4.368  -0.756  1.00  0.00     0.166 HD
ATOM     22  H81 UNL     1       5.606   5.781  -1.844  1.00  0.00     0.166 HD
ENDBRANCH  19  20
ENDBRANCH  14  18
ENDBRANCH   9  10
ENDBRANCH   1   9
BRANCH   2  23
HETATM   23  C9  UNL     1      -0.255   0.905  -0.394  1.00  0.00     0.038 C 
HETATM   24  C10 UNL     1       0.293   1.480   0.923  1.00  0.00     0.010 C 
ENDBRANCH   2  23
BRANCH   3  25
HETATM   25  C12 UNL     1      -2.905   0.184   0.362  1.00  0.00     0.086 C 
BRANCH  25  26
HETATM   26  C13 UNL     1      -3.645   0.455  -0.922  1.00  0.00     0.242 C 
BRANCH  26  27
HETATM   27  N2  UNL     1      -4.651   1.465  -0.669  1.00  0.00    -0.078 N 
HETATM   28  C14 UNL     1      -4.060   2.804  -0.726  1.00  0.00     0.271 C 
HETATM   29  C15 UNL     1      -5.688   1.460  -1.713  1.00  0.00     0.271 C 
HETATM   30  C16 UNL     1      -5.320   1.320   0.589  1.00  0.00     0.271 C 
ENDBRANCH  26  27
ENDBRANCH  25  26
ENDBRANCH   3  25
BRANCH   6  31
HETATM   31  N4  UNL     1      -1.554  -4.257   0.634  1.00  0.00    -0.163 N 
HETATM   32  C18 UNL     1      -2.824  -4.595   1.106  1.00  0.00     0.200 C 
HETATM   33  N5  UNL     1      -3.221  -4.462   2.328  1.00  0.00    -0.373 N 
HETATM   34  N6  UNL     1      -3.758  -5.137   0.158  1.00  0.00    -0.063 NA
ATOM     35  H52 UNL     1      -2.558  -4.077   3.001  1.00  0.00     0.158 HD
ATOM     36  H51 UNL     1      -4.149  -4.709   2.673  1.00  0.00     0.158 HD
ATOM     37  H4  UNL     1      -0.861  -4.995   0.512  1.00  0.00     0.187 HD
ENDBRANCH   6  31
TORSDOF 10
