REMARK  13 active torsions:
REMARK  status: ('A' for Active; 'I' for Inactive)
REMARK    1  A    between atoms: C3_3  and  C4_4 
REMARK    2  A    between atoms: C4_4  and  C5_5 
REMARK    3  A    between atoms: C5_5  and  C6_6 
REMARK    4  A    between atoms: C6_6  and  C7_7 
REMARK    5  A    between atoms: C8_8  and  C9_9 
REMARK    6  A    between atoms: C9_9  and  N1_10 
REMARK    7  A    between atoms: C15_16  and  N2_17 
REMARK    8  A    between atoms: N2_17  and  N3_18 
REMARK    9  A    between atoms: C16_21  and  O1_22 
REMARK   10  A    between atoms: C17_24  and  O2_25 
REMARK   11  A    between atoms: C18_27  and  N4_28 
REMARK   12  A    between atoms: N4_28  and  C21_31 
REMARK   13  A    between atoms: N5_34  and  O3_35 
ROOT
HETATM    1  C1  UNL     1      10.588  -2.372  -2.103  1.00  0.00     0.012 C 
HETATM    2  C2  UNL     1       9.814  -1.688  -1.483  1.00  0.00    -0.117 C 
HETATM    3  C3  UNL     1       8.886  -0.854  -0.747  1.00  0.00     0.093 C 
ENDROOT
BRANCH   3   4
HETATM    4  C4  UNL     1       7.488  -1.435  -0.782  1.00  0.00     0.013 C 
BRANCH   4   5
HETATM    5  C5  UNL     1       6.523  -0.566  -0.016  1.00  0.00     0.013 C 
BRANCH   5   6
HETATM    6  C6  UNL     1       5.119  -1.140  -0.044  1.00  0.00     0.094 C 
BRANCH   6   7
HETATM    7  C7  UNL     1       4.183  -0.303   0.696  1.00  0.00    -0.105 C 
HETATM    8  C8  UNL     1       3.430   0.394   1.293  1.00  0.00    -0.086 C 
BRANCH   8   9
HETATM    9  C9  UNL     1       2.509   1.266   2.012  1.00  0.00     0.221 C 
BRANCH   9  10
HETATM   10  N1  UNL     1       1.149   0.852   1.757  1.00  0.00    -0.355 N 
HETATM   11  C10 UNL     1       0.561  -0.053   2.558  1.00  0.00     0.094 A 
HETATM   12  C11 UNL     1      -0.736  -0.481   2.356  1.00  0.00     0.049 A 
HETATM   13  C12 UNL     1      -1.452   0.058   1.271  1.00  0.00     0.070 A 
HETATM   14  C13 UNL     1      -0.846   0.987   0.450  1.00  0.00     0.010 A 
HETATM   15  N5  UNL     1      -2.756  -0.511   1.242  1.00  0.00    -0.226 N 
HETATM   16  C14 UNL     1       0.467   1.369   0.719  1.00  0.00     0.102 A 
HETATM   17  C15 UNL     1      -1.349   1.689  -0.723  1.00  0.00     0.166 C 
HETATM   18  C16 UNL     1      -2.828   1.740  -0.884  1.00  0.00     0.176 C 
HETATM   19  C17 UNL     1      -3.449   0.337  -0.844  1.00  0.00     0.201 C 
HETATM   20  C18 UNL     1      -3.891  -0.013   0.571  1.00  0.00     0.348 C 
BRANCH  17  21
HETATM   21  N2  UNL     1      -0.879   3.081  -0.737  1.00  0.00    -0.136 NA
BRANCH  21  22
HETATM   22  N3  UNL     1      -1.819   3.922  -1.363  1.00  0.00    -0.348 N 
ATOM     23  H32 UNL     1      -2.704   3.593  -1.750  1.00  0.00     0.172 HD
ATOM     24  H31 UNL     1      -1.493   4.888  -1.373  1.00  0.00     0.172 HD
ENDBRANCH  21  22
ENDBRANCH  17  21
BRANCH  18  25
HETATM   25  O1  UNL     1      -3.394   2.602   0.028  1.00  0.00    -0.391 OA
ATOM     26  H1  UNL     1      -4.338   2.635  -0.075  1.00  0.00     0.210 HD
ENDBRANCH  18  25
BRANCH  19  27
HETATM   27  O2  UNL     1      -2.439  -0.515  -1.294  1.00  0.00    -0.389 OA
ATOM     28  H2  UNL     1      -2.823  -1.383  -1.269  1.00  0.00     0.210 HD
ENDBRANCH  19  27
BRANCH  20  29
HETATM   29  N4  UNL     1      -5.106  -0.695   0.661  1.00  0.00    -0.039 N 
HETATM   30  C19 UNL     1      -5.595  -0.570   2.051  1.00  0.00     0.276 C 
HETATM   31  C20 UNL     1      -6.102   0.065  -0.120  1.00  0.00     0.276 C 
BRANCH  29  32
HETATM   32  C21 UNL     1      -5.268  -2.042   0.306  1.00  0.00     0.331 C 
HETATM   33  C22 UNL     1      -5.275  -2.310  -1.147  1.00  0.00    -0.089 C 
HETATM   34  C23 UNL     1      -5.286  -2.548  -2.323  1.00  0.00     0.013 C 
ENDBRANCH  29  32
ENDBRANCH  20  29
BRANCH  15  35
HETATM   35  O3  UNL     1      -2.818  -1.664   1.972  1.00  0.00    -0.285 OA
ATOM     36  H3  UNL     1      -3.689  -2.044   1.953  1.00  0.00     0.245 HD
ENDBRANCH  15  35
ENDBRANCH   9  10
ENDBRANCH   8   9
ENDBRANCH   6   7
ENDBRANCH   5   6
ENDBRANCH   4   5
ENDBRANCH   3   4
TORSDOF 13
