REMARK  9 active torsions:
REMARK  status: ('A' for Active; 'I' for Inactive)
REMARK    1  A    between atoms: C3_3  and  C4_4 
REMARK    2  A    between atoms: C4_4  and  C5_5 
REMARK    3  A    between atoms: C5_5  and  C6_6 
REMARK    4  A    between atoms: C6_6  and  C7_7 
REMARK    5  A    between atoms: C7_7  and  N1_8 
REMARK    6  A    between atoms: C10_11  and  C11_12 
REMARK    7  A    between atoms: C11_12  and  N2_13 
REMARK    8  A    between atoms: C15_24  and  C16_25 
REMARK    9  A    between atoms: C16_25  and  C17_26 
ROOT
HETATM    1  C1  UNL     1      -5.856  -4.258  -1.873  1.00  0.00     0.012 C 
HETATM    2  C2  UNL     1      -5.441  -3.141  -1.642  1.00  0.00    -0.117 C 
HETATM    3  C3  UNL     1      -4.958  -1.790  -1.348  1.00  0.00     0.093 C 
ENDROOT
BRANCH   3   4
HETATM    4  C4  UNL     1      -3.588  -1.629  -1.975  1.00  0.00     0.012 C 
BRANCH   4   5
HETATM    5  C5  UNL     1      -3.000  -0.280  -1.734  1.00  0.00     0.002 C 
BRANCH   5   6
HETATM    6  C6  UNL     1      -2.794   0.098  -0.312  1.00  0.00     0.020 C 
BRANCH   6   7
HETATM    7  C7  UNL     1      -1.858  -0.731   0.486  1.00  0.00     0.128 C 
BRANCH   7   8
HETATM    8  N1  UNL     1      -0.485  -0.742   0.025  1.00  0.00    -0.357 N 
HETATM    9  C8  UNL     1       0.007  -1.619  -0.862  1.00  0.00     0.092 A 
HETATM   10  C9  UNL     1       1.323  -1.636  -1.302  1.00  0.00     0.026 A 
HETATM   11  C10 UNL     1       2.220  -0.707  -0.824  1.00  0.00    -0.035 A 
HETATM   12  C14 UNL     1       1.729   0.199   0.087  1.00  0.00     0.038 A 
HETATM   13  C15 UNL     1       0.403   0.185   0.505  1.00  0.00     0.036 A 
BRANCH  11  14
HETATM   14  C11 UNL     1       3.645  -0.683  -1.266  1.00  0.00     0.189 C 
BRANCH  14  15
HETATM   15  N2  UNL     1       4.405  -1.520  -0.381  1.00  0.00    -0.269 N 
HETATM   16  C12 UNL     1       5.034  -1.198   0.763  1.00  0.00     0.218 A 
HETATM   17  N3  UNL     1       5.631  -2.309   1.274  1.00  0.00    -0.185 N 
HETATM   18  C13 UNL     1       5.360  -3.326   0.424  1.00  0.00     0.691 A 
ATOM     19  H3  UNL     1       6.178  -2.364   2.133  1.00  0.00     0.185 HD
HETATM   20  N4  UNL     1       5.754  -4.547   0.563  1.00  0.00    -0.233 N 
HETATM   21  N5  UNL     1       4.616  -2.811  -0.565  1.00  0.00    -0.129 N 
ATOM     22  H42 UNL     1       6.320  -4.939   1.316  1.00  0.00     0.174 HD
ATOM     23  H41 UNL     1       5.550  -5.314  -0.078  1.00  0.00     0.174 HD
ATOM     24  H5  UNL     1       4.259  -3.346  -1.357  1.00  0.00     0.206 HD
ENDBRANCH  14  15
ENDBRANCH  11  14
BRANCH  13  25
HETATM   25  C16 UNL     1      -0.065   1.145   1.484  1.00  0.00     0.059 C 
BRANCH  25  26
HETATM   26  C17 UNL     1      -0.092   2.450   1.286  1.00  0.00     0.037 A 
HETATM   27  C18 UNL     1       0.318   3.048   0.131  1.00  0.00     0.049 A 
HETATM   28  C19 UNL     1       0.270   4.415  -0.008  1.00  0.00     0.062 A 
HETATM   29  C20 UNL     1      -0.191   5.235   0.999  1.00  0.00     0.066 A 
HETATM   30  C23 UNL     1       0.457   5.663  -0.722  1.00  0.00     0.258 A 
HETATM   31  C21 UNL     1      -0.599   4.606   2.155  1.00  0.00     0.121 A 
HETATM   32  N7  UNL     1      -0.048   6.384   0.417  1.00  0.00    -0.321 N 
HETATM   33  N6  UNL     1      -0.546   3.276   2.276  1.00  0.00    -0.359 N 
HETATM   34  C22 UNL     1      -0.988   2.659   3.513  1.00  0.00     0.156 C 
ATOM     35  H7  UNL     1      -0.217   7.361   0.658  1.00  0.00     0.169 HD
HETATM   36  O1  UNL     1       0.886   5.974  -1.868  1.00  0.00    -0.267 OA
ENDBRANCH  25  26
ENDBRANCH  13  25
ENDBRANCH   7   8
ENDBRANCH   6   7
ENDBRANCH   5   6
ENDBRANCH   4   5
ENDBRANCH   3   4
TORSDOF 9
