REMARK  8 active torsions:
REMARK  status: ('A' for Active; 'I' for Inactive)
REMARK    1  A    between atoms: O1_2  and  C2_3 
REMARK    2  A    between atoms: N1_4  and  C3_5 
REMARK    3  A    between atoms: C3_5  and  C4_6 
REMARK    4  A    between atoms: N3_15  and  C11_16 
REMARK    5  A    between atoms: C11_16  and  C12_17 
REMARK    6  A    between atoms: C12_17  and  C13_18 
REMARK    7  A    between atoms: C13_18  and  N4_19 
REMARK    8  A    between atoms: C17_23  and  C18_24 
ROOT
HETATM    1  C13 UNL     1       0.663  -0.963  -0.791  1.00  0.00     0.129 C 
ENDROOT
BRANCH   1   2
HETATM    2  C12 UNL     1       0.409  -1.411   0.625  1.00  0.00     0.042 C 
BRANCH   2   3
HETATM    3  C11 UNL     1      -0.518  -2.606   0.674  1.00  0.00     0.154 C 
BRANCH   3   4
HETATM    4  N3  UNL     1      -1.814  -2.320   0.083  1.00  0.00    -0.255 N 
HETATM    5  C2  UNL     1      -2.844  -1.836   0.801  1.00  0.00     0.243 A 
HETATM    6  N1  UNL     1      -3.864  -1.697  -0.063  1.00  0.00    -0.302 N 
HETATM    7  C10 UNL     1      -3.445  -2.097  -1.298  1.00  0.00     0.203 A 
HETATM    8  N2  UNL     1      -2.163  -2.482  -1.183  1.00  0.00    -0.291 N 
ATOM      9  H2  UNL     1      -1.568  -2.834  -1.933  1.00  0.00     0.188 HD
BRANCH   5  10
HETATM   10  O1  UNL     1      -2.924  -1.520   2.150  1.00  0.00    -0.326 OA
HETATM   11  C1  UNL     1      -3.208  -2.442   3.163  1.00  0.00     0.213 C 
ENDBRANCH   5  10
BRANCH   6  12
HETATM   12  C3  UNL     1      -5.190  -1.207   0.248  1.00  0.00     0.172 C 
BRANCH  12  13
HETATM   13  C4  UNL     1      -5.300   0.246   0.097  1.00  0.00    -0.040 A 
HETATM   14  C5  UNL     1      -5.676   0.802  -1.120  1.00  0.00     0.009 A 
HETATM   15  C6  UNL     1      -5.791   2.167  -1.302  1.00  0.00     0.001 A 
HETATM   16  C7  UNL     1      -5.527   3.028  -0.248  1.00  0.00     0.000 A 
HETATM   17  C8  UNL     1      -5.158   2.476   0.946  1.00  0.00     0.001 A 
HETATM   18  C9  UNL     1      -5.042   1.105   1.132  1.00  0.00     0.009 A 
ENDBRANCH  12  13
ENDBRANCH   6  12
ENDBRANCH   3   4
ENDBRANCH   2   3
ENDBRANCH   1   2
BRANCH   1  19
HETATM   19  N4  UNL     1       1.552   0.176  -0.755  1.00  0.00    -0.365 N 
HETATM   20  C14 UNL     1       1.017   1.400  -0.678  1.00  0.00     0.090 A 
HETATM   21  C15 UNL     1       1.855   2.481  -0.644  1.00  0.00     0.018 A 
HETATM   22  C16 UNL     1       3.240   2.278  -0.690  1.00  0.00     0.018 A 
HETATM   23  C17 UNL     1       3.791   1.049  -0.768  1.00  0.00     0.026 A 
HETATM   24  C21 UNL     1       2.883  -0.018  -0.800  1.00  0.00     0.105 A 
BRANCH  23  25
HETATM   25  C18 UNL     1       5.214   0.791  -0.784  1.00  0.00     0.149 A 
HETATM   26  N5  UNL     1       5.730  -0.458  -1.015  1.00  0.00    -0.173 N 
HETATM   27  C19 UNL     1       7.054  -0.418  -0.950  1.00  0.00     0.692 A 
ATOM     28  H5  UNL     1       5.178  -1.294  -1.208  1.00  0.00     0.186 HD
HETATM   29  N6  UNL     1       7.899  -1.415  -1.116  1.00  0.00    -0.233 N 
HETATM   30  N7  UNL     1       7.370   0.849  -0.679  1.00  0.00    -0.129 N 
ATOM     31  H62 UNL     1       7.657  -2.384  -1.323  1.00  0.00     0.174 HD
ATOM     32  H61 UNL     1       8.917  -1.384  -1.066  1.00  0.00     0.174 HD
HETATM   33  N8  UNL     1       6.263   1.608  -0.572  1.00  0.00    -0.266 N 
ATOM     34  H7  UNL     1       8.323   1.196  -0.568  1.00  0.00     0.206 HD
HETATM   35  C20 UNL     1       6.268   3.025  -0.266  1.00  0.00     0.180 C 
ENDBRANCH  23  25
ENDBRANCH   1  19
TORSDOF 8
