REMARK  9 active torsions:
REMARK  status: ('A' for Active; 'I' for Inactive)
REMARK    1  A    between atoms: C4_5  and  C5_6 
REMARK    2  A    between atoms: C5_6  and  C6_7 
REMARK    3  A    between atoms: C6_7  and  C7_8 
REMARK    4  A    between atoms: C7_8  and  C8_9 
REMARK    5  A    between atoms: C8_9  and  C9_10 
REMARK    6  A    between atoms: N3_18  and  C16_20 
REMARK    7  A    between atoms: C16_20  and  C17_21 
REMARK       I    between atoms: C17_21  and  N4_23 
REMARK    8  A    between atoms: N4_23  and  C18_25 
REMARK    9  A    between atoms: C19_30  and  N7_31 
ROOT
HETATM    1  C1  UNL     1      -1.117  -6.206  -0.059  1.00  0.00     0.154 C 
HETATM    2  N1  UNL     1      -1.182  -4.770  -0.247  1.00  0.00    -0.370 N 
HETATM    3  C2  UNL     1      -0.081  -4.064  -0.133  1.00  0.00     0.103 A 
HETATM    4  C3  UNL     1      -0.060  -2.626  -0.305  1.00  0.00     0.002 A 
HETATM    5  C4  UNL     1       0.978  -1.846  -0.211  1.00  0.00    -0.012 C 
HETATM    6  C15 UNL     1      -1.378  -2.021  -0.620  1.00  0.00     0.041 A 
HETATM    7  N3  UNL     1      -1.452  -0.759  -0.789  1.00  0.00    -0.380 N 
ATOM      8  H3  UNL     1      -0.609  -0.192  -0.705  1.00  0.00     0.160 HD
HETATM    9  C20 UNL     1      -2.571  -2.865  -0.735  1.00  0.00     0.047 A 
HETATM   10  C21 UNL     1      -2.433  -4.172  -0.549  1.00  0.00     0.092 A 
ENDROOT
BRANCH   7  11
HETATM   11  C16 UNL     1      -2.700  -0.125  -1.095  1.00  0.00     0.223 C 
BRANCH  11  12
HETATM   12  C17 UNL     1      -3.544  -0.014   0.127  1.00  0.00     0.253 C 
HETATM   13  O1  UNL     1      -3.111  -0.450   1.202  1.00  0.00    -0.271 OA
HETATM   14  N4  UNL     1      -4.833   0.580   0.084  1.00  0.00    -0.156 N 
ATOM     15  H4  UNL     1      -5.660  -0.014   0.031  1.00  0.00     0.187 HD
BRANCH  14  16
HETATM   16  C18 UNL     1      -4.969   1.860   0.111  1.00  0.00     0.714 A 
HETATM   17  N5  UNL     1      -6.115   2.545   0.077  1.00  0.00    -0.117 N 
HETATM   18  N6  UNL     1      -5.831   3.850   0.124  1.00  0.00    -0.118 N 
ATOM     19  H5  UNL     1      -7.050   2.140   0.024  1.00  0.00     0.206 HD
HETATM   20  C19 UNL     1      -4.500   4.005   0.189  1.00  0.00     0.705 A 
ATOM     21  H6  UNL     1      -6.516   4.606   0.112  1.00  0.00     0.206 HD
HETATM   22  N8  UNL     1      -3.979   2.767   0.180  1.00  0.00    -0.020 N 
ATOM     23  H8  UNL     1      -2.984   2.548   0.220  1.00  0.00     0.203 HD
BRANCH  20  24
HETATM   24  N7  UNL     1      -3.889   5.129   0.246  1.00  0.00    -0.233 N 
ATOM     25  H72 UNL     1      -4.285   6.069   0.253  1.00  0.00     0.174 HD
ATOM     26  H71 UNL     1      -2.877   5.247   0.295  1.00  0.00     0.174 HD
ENDBRANCH  20  24
ENDBRANCH  14  16
ENDBRANCH  11  12
ENDBRANCH   7  11
BRANCH   5  27
HETATM   27  C5  UNL     1       2.318  -2.389   0.100  1.00  0.00     0.028 C 
BRANCH  27  28
HETATM   28  C6  UNL     1       2.817  -1.761   1.358  1.00  0.00     0.004 C 
BRANCH  28  29
HETATM   29  C7  UNL     1       2.957  -0.294   1.235  1.00  0.00     0.006 C 
BRANCH  29  30
HETATM   30  C8  UNL     1       3.927   0.179   0.176  1.00  0.00     0.057 C 
BRANCH  30  31
HETATM   31  C9  UNL     1       3.976   1.640   0.217  1.00  0.00     0.010 A 
HETATM   32  C10 UNL     1       4.909   2.220   1.090  1.00  0.00     0.025 A 
HETATM   33  C11 UNL     1       5.010   3.590   1.169  1.00  0.00     0.003 A 
HETATM   34  C12 UNL     1       4.190   4.357   0.388  1.00  0.00     0.017 A 
HETATM   35  C13 UNL     1       3.298   3.736  -0.445  1.00  0.00     0.090 A 
HETATM   36  N2  UNL     1       3.180   2.378  -0.542  1.00  0.00    -0.364 N 
HETATM   37  C14 UNL     1       2.245   1.791  -1.424  1.00  0.00     0.155 C 
ENDBRANCH  30  31
ENDBRANCH  29  30
ENDBRANCH  28  29
ENDBRANCH  27  28
ENDBRANCH   5  27
TORSDOF 9
