REMARK  9 active torsions:
REMARK  status: ('A' for Active; 'I' for Inactive)
REMARK    1  A    between atoms: C4_5  and  C5_6 
REMARK    2  A    between atoms: C5_6  and  C6_7 
REMARK    3  A    between atoms: C6_7  and  C7_8 
REMARK    4  A    between atoms: C7_8  and  C8_9 
REMARK    5  A    between atoms: C8_9  and  N2_10 
REMARK    6  A    between atoms: C11_13  and  C12_14 
REMARK    7  A    between atoms: N3_15  and  O1_17 
REMARK    8  A    between atoms: O1_17  and  C13_18 
REMARK    9  A    between atoms: C16_26  and  N7_27 
ROOT
HETATM    1  N2  UNL     1       0.241  -0.869  -1.726  1.00  0.00    -0.341 N 
HETATM    2  C9  UNL     1       0.203   0.429  -1.417  1.00  0.00     0.093 A 
HETATM    3  C10 UNL     1       1.249   1.110  -0.844  1.00  0.00     0.032 A 
HETATM    4  C11 UNL     1       2.432   0.462  -0.552  1.00  0.00     0.014 A 
HETATM    5  C15 UNL     1       2.482  -0.879  -0.867  1.00  0.00     0.105 A 
HETATM    6  N6  UNL     1       3.461  -1.779  -0.716  1.00  0.00    -0.187 N 
ATOM      7  H6  UNL     1       4.384  -1.603  -0.318  1.00  0.00     0.184 HD
HETATM    8  C16 UNL     1       3.009  -2.958  -1.184  1.00  0.00     0.678 A 
HETATM    9  N8  UNL     1       1.764  -2.794  -1.621  1.00  0.00    -0.174 N 
ATOM     10  H8  UNL     1       1.178  -3.523  -2.028  1.00  0.00     0.186 HD
HETATM   11  C17 UNL     1       1.403  -1.513  -1.440  1.00  0.00     0.151 A 
ENDROOT
BRANCH   1  12
HETATM   12  C8  UNL     1      -0.819  -1.635  -2.333  1.00  0.00     0.130 C 
BRANCH  12  13
HETATM   13  C7  UNL     1      -1.744  -2.306  -1.386  1.00  0.00     0.021 C 
BRANCH  13  14
HETATM   14  C6  UNL     1      -2.520  -1.412  -0.466  1.00  0.00     0.006 C 
BRANCH  14  15
HETATM   15  C5  UNL     1      -3.400  -0.506  -1.258  1.00  0.00     0.039 C 
BRANCH  15  16
HETATM   16  C4  UNL     1      -4.200   0.415  -0.397  1.00  0.00    -0.056 A 
HETATM   17  C3  UNL     1      -3.697   1.651  -0.047  1.00  0.00     0.024 A 
HETATM   18  C2  UNL     1      -4.430   2.530   0.759  1.00  0.00     0.090 A 
HETATM   19  N1  UNL     1      -5.647   2.193   1.214  1.00  0.00    -0.371 N 
HETATM   20  C1  UNL     1      -6.417   3.106   2.056  1.00  0.00     0.154 C 
HETATM   21  C19 UNL     1      -6.140   0.993   0.876  1.00  0.00     0.090 A 
HETATM   22  C18 UNL     1      -5.451   0.085   0.079  1.00  0.00     0.024 A 
ENDBRANCH  15  16
ENDBRANCH  14  15
ENDBRANCH  13  14
ENDBRANCH  12  13
ENDBRANCH   1  12
BRANCH   4  23
HETATM   23  C12 UNL     1       3.537   1.175   0.051  1.00  0.00     0.128 C 
HETATM   24  N3  UNL     1       4.671   0.715   0.372  1.00  0.00    -0.275 N 
ATOM     25  H3  UNL     1       4.832  -0.275   0.187  1.00  0.00     0.193 HD
BRANCH  24  26
HETATM   26  O1  UNL     1       5.688   1.397   0.933  1.00  0.00    -0.252 OA
BRANCH  26  27
HETATM   27  C13 UNL     1       6.870   0.664   1.312  1.00  0.00     0.304 A 
HETATM   28  C14 UNL     1       7.308   0.946   2.678  1.00  0.00     0.129 A 
HETATM   29  N4  UNL     1       8.386   1.473   2.280  1.00  0.00    -0.312 N 
HETATM   30  N5  UNL     1       8.085   1.263   0.972  1.00  0.00    -0.101 NA
ATOM     31  H4  UNL     1       9.181   1.896   2.759  1.00  0.00     0.181 HD
ENDBRANCH  26  27
ENDBRANCH  24  26
ENDBRANCH   4  23
BRANCH   8  32
HETATM   32  N7  UNL     1       3.664  -4.083  -1.213  1.00  0.00    -0.234 N 
ATOM     33  H72 UNL     1       4.619  -4.209  -0.878  1.00  0.00     0.174 HD
ATOM     34  H71 UNL     1       3.322  -4.976  -1.567  1.00  0.00     0.174 HD
ENDBRANCH   8  32
TORSDOF 9
