REMARK  12 active torsions:
REMARK  status: ('A' for Active; 'I' for Inactive)
REMARK    1  A    between atoms: N1_2  and  C4_5 
REMARK    2  A    between atoms: C4_5  and  C5_6 
REMARK    3  A    between atoms: C5_6  and  N2_7 
REMARK    4  A    between atoms: N3_11  and  C10_13 
REMARK    5  A    between atoms: C10_13  and  C11_14 
REMARK    6  A    between atoms: C11_14  and  N4_15 
REMARK    7  A    between atoms: N4_15  and  C12_17 
REMARK    8  A    between atoms: C12_17  and  C13_18 
REMARK    9  A    between atoms: C14_19  and  C15_20 
REMARK   10  A    between atoms: C15_20  and  N5_21 
REMARK   11  A    between atoms: N5_21  and  C16_23 
REMARK   12  A    between atoms: C21_30  and  O1_31 
ROOT
HETATM    1  C10 UNL     1      -0.345  -0.722  -2.107  1.00  0.00     0.261 C 
ENDROOT
BRANCH   1   2
HETATM    2  N3  UNL     1      -0.987  -0.613  -0.840  1.00  0.00    -0.015 N 
HETATM    3  C8  UNL     1      -1.098   0.822  -0.508  1.00  0.00     0.270 C 
HETATM    4  C7  UNL     1      -2.282   1.182  -1.409  1.00  0.00     0.270 C 
HETATM    5  N2  UNL     1      -3.194   0.091  -1.129  1.00  0.00    -0.015 N 
HETATM    6  C6  UNL     1      -3.960  -0.126  -2.337  1.00  0.00     0.278 C 
HETATM    7  C21 UNL     1      -2.380  -1.058  -0.900  1.00  0.00     0.530 C 
HETATM    8  C9  UNL     1      -0.284  -1.314   0.186  1.00  0.00     0.278 C 
BRANCH   5   9
HETATM    9  C5  UNL     1      -4.000   0.488  -0.010  1.00  0.00     0.270 C 
BRANCH   9  10
HETATM   10  C4  UNL     1      -5.336  -0.206   0.039  1.00  0.00     0.264 C 
BRANCH  10  11
HETATM   11  N1  UNL     1      -6.122   0.217   1.176  1.00  0.00    -0.077 N 
HETATM   12  C1  UNL     1      -7.194   1.081   0.715  1.00  0.00     0.271 C 
HETATM   13  C2  UNL     1      -5.334   0.931   2.164  1.00  0.00     0.271 C 
HETATM   14  C3  UNL     1      -6.741  -0.933   1.804  1.00  0.00     0.271 C 
ENDBRANCH  10  11
ENDBRANCH   9  10
ENDBRANCH   5   9
BRANCH   7  15
HETATM   15  O1  UNL     1      -2.738  -1.666   0.288  1.00  0.00    -0.348 OA
ATOM     16  H1  UNL     1      -2.196  -2.431   0.440  1.00  0.00     0.213 HD
ENDBRANCH   7  15
ENDBRANCH   1   2
BRANCH   1  17
HETATM   17  C11 UNL     1       0.885  -1.549  -2.201  1.00  0.00     0.142 C 
BRANCH  17  18
HETATM   18  N4  UNL     1       2.002  -1.157  -1.421  1.00  0.00    -0.410 N 
ATOM     19  H4  UNL     1       2.327  -1.716  -0.632  1.00  0.00     0.154 HD
BRANCH  18  20
HETATM   20  C12 UNL     1       2.648   0.059  -1.796  1.00  0.00     0.208 C 
BRANCH  20  21
HETATM   21  C13 UNL     1       3.780   0.266  -0.866  1.00  0.00    -0.086 C 
HETATM   22  C14 UNL     1       4.712   0.421  -0.123  1.00  0.00    -0.085 C 
BRANCH  22  23
HETATM   23  C15 UNL     1       5.877   0.608   0.772  1.00  0.00     0.215 C 
BRANCH  23  24
HETATM   24  N5  UNL     1       7.106   0.282   0.083  1.00  0.00    -0.366 N 
ATOM     25  H5  UNL     1       7.070  -0.071  -0.873  1.00  0.00     0.162 HD
BRANCH  24  26
HETATM   26  C16 UNL     1       8.230   0.430   0.655  1.00  0.00     0.101 A 
HETATM   27  C17 UNL     1       9.441   0.130   0.031  1.00  0.00     0.048 A 
HETATM   28  C18 UNL     1      10.646   0.299   0.669  1.00  0.00     0.005 A 
HETATM   29  C19 UNL     1      10.680   0.777   1.962  1.00  0.00     0.017 A 
HETATM   30  C20 UNL     1       9.459   1.065   2.548  1.00  0.00     0.089 A 
HETATM   31  N6  UNL     1       8.290   0.895   1.915  1.00  0.00    -0.353 N 
ATOM     32  H6  UNL     1       7.423   1.124   2.402  1.00  0.00     0.166 HD
ENDBRANCH  24  26
ENDBRANCH  23  24
ENDBRANCH  22  23
ENDBRANCH  20  21
ENDBRANCH  18  20
ENDBRANCH  17  18
ENDBRANCH   1  17
TORSDOF 12
