REMARK  8 active torsions:
REMARK  status: ('A' for Active; 'I' for Inactive)
REMARK       I    between atoms: C2_2  and  N1_4 
REMARK    1  A    between atoms: N1_4  and  C3_6 
REMARK    2  A    between atoms: C3_6  and  C4_7 
REMARK    3  A    between atoms: C4_7  and  N2_8 
REMARK    4  A    between atoms: N5_17  and  C8_18 
REMARK    5  A    between atoms: C8_18  and  C9_19 
REMARK    6  A    between atoms: C10_20  and  C11_21 
REMARK    7  A    between atoms: C11_21  and  C12_22 
REMARK    8  A    between atoms: C12_22  and  N6_23 
ROOT
HETATM    1  N2  UNL     1       1.419   0.979  -0.755  1.00  0.00    -0.051 N 
HETATM    2  C5  UNL     1       1.713   2.205   0.028  1.00  0.00     0.274 C 
HETATM    3  C6  UNL     1       0.276   1.395  -1.560  1.00  0.00     0.376 C 
HETATM    4  N3  UNL     1      -0.334   0.301  -2.287  1.00  0.00    -0.202 N 
ATOM      5  H3  UNL     1      -0.294   0.298  -3.306  1.00  0.00     0.179 HD
HETATM    6  C7  UNL     1      -0.998  -0.787  -1.604  1.00  0.00     0.672 C 
HETATM    7  N4  UNL     1      -1.737  -1.527  -2.336  1.00  0.00    -0.235 N 
ATOM      8  H41 UNL     1      -2.205  -2.294  -1.854  1.00  0.00     0.174 HD
ATOM      9  H42 UNL     1      -1.785  -1.278  -3.324  1.00  0.00     0.174 HD
HETATM   10  N5  UNL     1      -0.930  -1.136  -0.218  1.00  0.00    -0.198 N 
HETATM   11  C13 UNL     1      -0.011  -0.497   0.715  1.00  0.00     0.067 C 
HETATM   12  C14 UNL     1      -0.649   0.520   1.589  1.00  0.00     0.041 C 
HETATM   13  C15 UNL     1       0.379  -1.652   1.668  1.00  0.00     0.041 C 
HETATM   14  C16 UNL     1       1.275  -0.117   0.062  1.00  0.00     0.269 C 
ENDROOT
BRANCH  10  15
HETATM   15  C8  UNL     1      -1.826  -2.173   0.255  1.00  0.00     0.236 C 
BRANCH  15  16
HETATM   16  C9  UNL     1      -3.190  -1.599   0.173  1.00  0.00    -0.086 C 
HETATM   17  C10 UNL     1      -4.294  -1.137   0.127  1.00  0.00    -0.103 C 
BRANCH  17  18
HETATM   18  C11 UNL     1      -5.626  -0.588   0.052  1.00  0.00     0.115 C 
BRANCH  18  19
HETATM   19  C12 UNL     1      -5.740   0.589   0.991  1.00  0.00     0.151 C 
BRANCH  19  20
HETATM   20  N6  UNL     1      -7.061   1.150   0.929  1.00  0.00    -0.342 N 
HETATM   21  N7  UNL     1      -7.418   1.882   1.864  1.00  0.00    -0.349 N 
ATOM     22  H72 UNL     1      -6.785   2.069   2.641  1.00  0.00     0.176 HD
ATOM     23  H71 UNL     1      -8.356   2.280   1.820  1.00  0.00     0.176 HD
ATOM     24  H6  UNL     1      -7.683   0.953   0.145  1.00  0.00     0.179 HD
ENDBRANCH  19  20
ENDBRANCH  18  19
ENDBRANCH  17  18
ENDBRANCH  15  16
ENDBRANCH  10  15
BRANCH   1  25
HETATM   25  C4  UNL     1       2.489   0.859  -1.702  1.00  0.00     0.258 C 
BRANCH  25  26
HETATM   26  C3  UNL     1       3.572  -0.081  -1.374  1.00  0.00     0.150 C 
BRANCH  26  27
HETATM   27  N1  UNL     1       4.271   0.262  -0.172  1.00  0.00    -0.360 N 
HETATM   28  C2  UNL     1       5.332  -0.567   0.277  1.00  0.00     0.213 C 
HETATM   29  C1  UNL     1       6.057  -0.207   1.524  1.00  0.00     0.117 C 
HETATM   30  O1  UNL     1       5.647  -1.579  -0.369  1.00  0.00    -0.274 OA
ATOM     31  H1  UNL     1       4.009   1.094   0.356  1.00  0.00     0.162 HD
ENDBRANCH  26  27
ENDBRANCH  25  26
ENDBRANCH   1  25
TORSDOF 8
