REMARK  6 active torsions:
REMARK  status: ('A' for Active; 'I' for Inactive)
REMARK    1  A    between atoms: O1_2  and  C2_3 
REMARK    2  A    between atoms: C2_3  and  C3_5 
REMARK    3  A    between atoms: C7_11  and  C8_12 
REMARK    4  A    between atoms: C8_12  and  O5_14 
REMARK    5  A    between atoms: O5_14  and  N2_15 
REMARK    6  A    between atoms: N2_15  and  C9_17 
ROOT
HETATM    1  C3  UNL     1       2.207  -0.509   0.215  1.00  0.00     0.187 C 
HETATM    2  C4  UNL     1       2.598  -1.513  -0.851  1.00  0.00     0.035 C 
HETATM    3  C5  UNL     1       1.433  -2.036  -1.623  1.00  0.00     0.038 C 
HETATM    4  C6  UNL     1       0.166  -1.296  -1.257  1.00  0.00     0.175 C 
HETATM    5  O3  UNL     1       0.441   0.058  -1.180  1.00  0.00    -0.294 OA
HETATM    6  N1  UNL     1       0.832  -0.110   0.108  1.00  0.00    -0.166 NA
HETATM    7  C7  UNL     1       0.016  -1.294   0.240  1.00  0.00     0.219 C 
ENDROOT
BRANCH   7   8
HETATM    8  C8  UNL     1      -1.353  -1.059   0.747  1.00  0.00     0.303 C 
HETATM    9  O4  UNL     1      -2.135  -2.031   0.895  1.00  0.00    -0.261 OA
BRANCH   8  10
HETATM   10  O5  UNL     1      -1.843   0.194   1.079  1.00  0.00    -0.196 OA
BRANCH  10  11
HETATM   11  N2  UNL     1      -3.115   0.377   1.546  1.00  0.00    -0.246 N 
ATOM     12  H2  UNL     1      -3.234   0.482   2.554  1.00  0.00     0.196 HD
BRANCH  11  13
HETATM   13  C9  UNL     1      -4.270   0.432   0.750  1.00  0.00     0.091 C 
HETATM   14  C10 UNL     1      -4.621   1.686   0.009  1.00  0.00     0.090 C 
HETATM   15  N3  UNL     1      -5.099  -0.556   0.594  1.00  0.00    -0.388 N 
ATOM     16  H32 UNL     1      -4.860  -1.410   1.098  1.00  0.00     0.157 HD
ATOM     17  H31 UNL     1      -5.938  -0.516   0.016  1.00  0.00     0.157 HD
ENDBRANCH  11  13
ENDBRANCH  10  11
ENDBRANCH   8  10
ENDBRANCH   7   8
BRANCH   1  18
HETATM   18  C2  UNL     1       3.140   0.643   0.239  1.00  0.00     0.278 C 
HETATM   19  O2  UNL     1       4.368   0.380   0.332  1.00  0.00    -0.263 OA
BRANCH  18  20
HETATM   20  O1  UNL     1       2.756   1.957   0.169  1.00  0.00    -0.325 OA
HETATM   21  C1  UNL     1       3.696   3.041   0.195  1.00  0.00     0.213 C 
ENDBRANCH  18  20
ENDBRANCH   1  18
TORSDOF 6
