REMARK  3 active torsions:
REMARK  status: ('A' for Active; 'I' for Inactive)
REMARK    1  A    between atoms: C4_4  and  C5_5 
REMARK    2  A    between atoms: C5_5  and  O1_6 
REMARK    3  A    between atoms: C5_5  and  C6_8 
ROOT
HETATM    1  C6  UNL     1       0.120  -1.208  -0.426  1.00  0.00     0.019 C 
HETATM    2  C7  UNL     1      -0.288  -0.786   0.986  1.00  0.00     0.012 C 
HETATM    3  C8  UNL     1      -1.720  -1.121   1.275  1.00  0.00    -0.013 C 
HETATM    4  C9  UNL     1      -2.451   0.215   1.471  1.00  0.00     0.009 C 
HETATM    5  C10 UNL     1      -2.409   0.776   0.068  1.00  0.00    -0.014 C 
HETATM    6  C11 UNL     1      -3.781   1.416  -0.182  1.00  0.00     0.010 C 
HETATM    7  C12 UNL     1      -2.175  -0.360  -0.872  1.00  0.00    -0.010 C 
HETATM    8  C13 UNL     1      -2.436  -1.572  -0.008  1.00  0.00     0.009 C 
HETATM    9  C14 UNL     1      -0.746  -0.436  -1.372  1.00  0.00     0.012 C 
ENDROOT
BRANCH   1  10
HETATM   10  C5  UNL     1       1.582  -0.927  -0.563  1.00  0.00     0.145 C 
BRANCH  10  11
HETATM   11  C4  UNL     1       1.906   0.519  -0.367  1.00  0.00     0.007 C 
HETATM   12  C2  UNL     1       3.156   0.930  -0.198  1.00  0.00    -0.089 C 
HETATM   13  C1  UNL     1       4.280  -0.033  -0.198  1.00  0.00     0.042 C 
HETATM   14  C3  UNL     1       3.440   2.378  -0.006  1.00  0.00     0.042 C 
ENDBRANCH  10  11
BRANCH  10  15
HETATM   15  O1  UNL     1       2.219  -1.601   0.507  1.00  0.00    -0.391 OA
ATOM     16  H1  UNL     1       2.013  -2.520   0.382  1.00  0.00     0.210 HD
ENDBRANCH  10  15
ENDBRANCH   1  10
TORSDOF 3
