REMARK  4 active torsions:
REMARK  status: ('A' for Active; 'I' for Inactive)
REMARK    1  A    between atoms: C2_2  and  C3_3 
REMARK    2  A    between atoms: C3_3  and  C4_4 
REMARK    3  A    between atoms: C5_5  and  N1_6 
REMARK    4  A    between atoms: C7_11  and  C8_12 
ROOT
HETATM    1  C4  UNL     1      -0.965   0.616   0.331  1.00  0.00     0.028 C 
HETATM    2  C5  UNL     1      -0.274   0.605   1.706  1.00  0.00     0.189 C 
HETATM    3  C6  UNL     1       1.074  -0.108   1.490  1.00  0.00     0.043 C 
HETATM    4  C7  UNL     1       1.264   0.119   0.038  1.00  0.00    -0.031 C 
HETATM    5  C10 UNL     1       2.098  -0.853  -0.718  1.00  0.00     0.010 C 
HETATM    6  C11 UNL     1       1.314  -1.110  -1.985  1.00  0.00     0.002 C 
HETATM    7  C12 UNL     1       0.049  -0.235  -1.868  1.00  0.00     0.010 C 
HETATM    8  C13 UNL     1      -0.143  -0.304  -0.417  1.00  0.00    -0.030 C 
HETATM    9  C14 UNL     1      -0.381  -1.742  -0.024  1.00  0.00     0.016 C 
ENDROOT
BRANCH   2  10
HETATM   10  N1  UNL     1      -1.067  -0.023   2.710  1.00  0.00    -0.075 N 
ATOM     11  H13 UNL     1      -1.992   0.403   2.767  1.00  0.00     0.274 HD
ATOM     12  H12 UNL     1      -1.338  -0.965   2.428  1.00  0.00     0.274 HD
ATOM     13  H11 UNL     1      -0.609  -0.030   3.621  1.00  0.00     0.274 HD
ENDBRANCH   2  10
BRANCH   1  14
HETATM   14  C3  UNL     1      -2.398   0.214   0.444  1.00  0.00     0.033 C 
BRANCH  14  15
HETATM   15  C2  UNL     1      -3.098   0.228  -0.868  1.00  0.00    -0.036 C 
HETATM   16  C1  UNL     1      -3.714  -0.815  -1.393  1.00  0.00     0.007 C 
ENDBRANCH  14  15
ENDBRANCH   1  14
BRANCH   4  17
HETATM   17  C8  UNL     1       1.598   1.536  -0.205  1.00  0.00     0.006 C 
HETATM   18  C9  UNL     1       2.905   1.934   0.517  1.00  0.00     0.006 C 
ENDBRANCH   4  17
TORSDOF 4
