REMARK  13 active torsions:
REMARK  status: ('A' for Active; 'I' for Inactive)
REMARK    1  A    between atoms: C2_2  and  C3_6 
REMARK    2  A    between atoms: C4_9  and  C5_10 
REMARK    3  A    between atoms: C5_10  and  C8_22 
REMARK    4  A    between atoms: N3_11  and  O1_13 
REMARK    5  A    between atoms: O1_13  and  C6_14 
REMARK    6  A    between atoms: C6_14  and  N5_18 
REMARK    7  A    between atoms: C8_22  and  O2_23 
REMARK    8  A    between atoms: C8_22  and  O3_25 
REMARK    9  A    between atoms: C9_28  and  C10_29 
REMARK   10  A    between atoms: C10_29  and  O5_30 
REMARK   11  A    between atoms: O5_30  and  C11_31 
REMARK       I    between atoms: C11_31  and  N7_33 
REMARK   12  A    between atoms: N7_33  and  N8_35 
REMARK   13  A    between atoms: N8_35  and  C12_37 
ROOT
HETATM    1  N5  UNL     1      -7.333   1.804   1.487  1.00  0.00    -0.258 N 
ATOM      2  H5  UNL     1      -8.080   2.193   0.911  1.00  0.00     0.181 HD
HETATM    3  C7  UNL     1      -7.287   2.156   2.839  1.00  0.00     0.185 C 
HETATM    4  N6  UNL     1      -7.268   2.456   3.956  1.00  0.00    -0.172 NA
ENDROOT
BRANCH   1   5
HETATM    5  C6  UNL     1      -6.390   0.930   0.872  1.00  0.00     0.249 C 
HETATM    6  N4  UNL     1      -6.630   0.371  -0.238  1.00  0.00    -0.363 N 
ATOM      7  H42 UNL     1      -5.955  -0.254  -0.678  1.00  0.00     0.159 HD
ATOM      8  H41 UNL     1      -7.524   0.557  -0.692  1.00  0.00     0.159 HD
BRANCH   5   9
HETATM    9  O1  UNL     1      -5.161   0.674   1.496  1.00  0.00    -0.200 OA
BRANCH   9  10
HETATM   10  N3  UNL     1      -4.264  -0.225   0.991  1.00  0.00    -0.253 N 
HETATM   11  C5  UNL     1      -3.045   0.069   0.749  1.00  0.00     0.138 C 
ATOM     12  H3  UNL     1      -4.583  -1.175   0.799  1.00  0.00     0.195 HD
BRANCH  11  13
HETATM   13  C4  UNL     1      -2.150  -0.954   0.208  1.00  0.00     0.178 A 
HETATM   14  N2  UNL     1      -2.430  -2.230  -0.093  1.00  0.00    -0.331 N 
HETATM   15  C3  UNL     1      -1.303  -2.851  -0.577  1.00  0.00     0.088 A 
ATOM     16  H2  UNL     1      -3.342  -2.673   0.020  1.00  0.00     0.168 HD
HETATM   17  C9  UNL     1      -0.352  -1.888  -0.547  1.00  0.00     0.108 A 
HETATM   18  O4  UNL     1      -0.901  -0.769  -0.071  1.00  0.00    -0.291 OA
BRANCH  15  19
HETATM   19  C2  UNL     1      -1.202  -4.220  -1.005  1.00  0.00     0.028 C 
HETATM   20  C1  UNL     1       0.027  -4.846  -1.515  1.00  0.00     0.070 C 
HETATM   21  N1  UNL     1      -2.277  -4.959  -0.934  1.00  0.00    -0.401 N 
ATOM     22  H12 UNL     1      -2.205  -5.930  -1.238  1.00  0.00     0.156 HD
ATOM     23  H11 UNL     1      -3.129  -4.525  -0.580  1.00  0.00     0.156 HD
ENDBRANCH  15  19
BRANCH  17  24
HETATM   24  C10 UNL     1       1.071  -1.975  -0.954  1.00  0.00     0.248 C 
BRANCH  24  25
HETATM   25  O5  UNL     1       1.719  -0.702  -0.741  1.00  0.00    -0.296 OA
BRANCH  25  26
HETATM   26  C11 UNL     1       3.043  -0.501  -1.033  1.00  0.00     0.379 C 
HETATM   27  O6  UNL     1       3.754  -1.423  -1.503  1.00  0.00    -0.237 OA
HETATM   28  N7  UNL     1       3.670   0.758  -0.817  1.00  0.00    -0.243 N 
ATOM     29  H7  UNL     1       3.115   1.524  -0.436  1.00  0.00     0.192 HD
BRANCH  28  30
HETATM   30  N8  UNL     1       5.017   0.983  -1.107  1.00  0.00    -0.266 N 
ATOM     31  H8  UNL     1       5.488   0.390  -1.790  1.00  0.00     0.190 HD
BRANCH  30  32
HETATM   32  C12 UNL     1       5.745   2.026  -0.465  1.00  0.00     0.207 C 
HETATM   33  N9  UNL     1       5.751   3.269  -0.777  1.00  0.00    -0.345 N 
HETATM   34  C13 UNL     1       6.607   3.980   0.109  1.00  0.00     0.259 C 
ATOM     35  H9  UNL     1       5.222   3.685  -1.544  1.00  0.00     0.164 HD
HETATM   36  N10 UNL     1       7.384   2.993   0.858  1.00  0.00    -0.119 NA
HETATM   37  N11 UNL     1       6.598   1.835   0.648  1.00  0.00    -0.273 N 
ATOM     38  H11 UNL     1       6.640   0.988   1.215  1.00  0.00     0.185 HD
ENDBRANCH  30  32
ENDBRANCH  28  30
ENDBRANCH  25  26
ENDBRANCH  24  25
ENDBRANCH  17  24
ENDBRANCH  11  13
BRANCH  11  39
HETATM   39  C8  UNL     1      -2.551   1.438   1.014  1.00  0.00     0.311 C 
BRANCH  39  40
HETATM   40  O2  UNL     1      -2.102   2.060  -0.150  1.00  0.00    -0.366 OA
ATOM     41  H2  UNL     1      -1.785   2.939   0.020  1.00  0.00     0.213 HD
ENDBRANCH  39  40
BRANCH  39  42
HETATM   42  O3  UNL     1      -3.407   2.201   1.767  1.00  0.00    -0.366 OA
ATOM     43  H3  UNL     1      -3.090   3.080   1.937  1.00  0.00     0.213 HD
ENDBRANCH  39  42
ENDBRANCH  11  39
ENDBRANCH   9  10
ENDBRANCH   5   9
ENDBRANCH   1   5
TORSDOF 13
