REMARK  8 active torsions:
REMARK  status: ('A' for Active; 'I' for Inactive)
REMARK       I    between atoms: C1_4  and  N3_6 
REMARK    1  A    between atoms: N3_6  and  C2_8 
REMARK    2  A    between atoms: C5_15  and  C6_16 
REMARK    3  A    between atoms: C6_16  and  S1_17 
REMARK    4  A    between atoms: S1_17  and  C7_18 
REMARK    5  A    between atoms: C7_18  and  C8_19 
REMARK    6  A    between atoms: C10_24  and  C11_25 
REMARK    7  A    between atoms: C12_34  and  N12_35 
REMARK    8  A    between atoms: N12_35  and  N13_36 
ROOT
HETATM    1  C8  UNL     1      -1.582  -0.819   0.287  1.00  0.00     0.067 A 
HETATM    2  N6  UNL     1      -2.435  -1.340   1.182  1.00  0.00    -0.192 N 
ATOM      3  H6  UNL     1      -2.286  -2.193   1.722  1.00  0.00     0.184 HD
HETATM    4  C9  UNL     1      -3.521  -0.547   1.247  1.00  0.00     0.685 A 
HETATM    5  N7  UNL     1      -3.381   0.497   0.391  1.00  0.00    -0.140 N 
HETATM    6  C10 UNL     1      -2.189   0.321  -0.192  1.00  0.00     0.126 A 
HETATM    7  C12 UNL     1      -4.388   1.524   0.226  1.00  0.00     0.321 C 
HETATM    8  N14 UNL     1      -5.468   1.453   1.138  1.00  0.00    -0.370 N 
ATOM      9  H14 UNL     1      -6.354   1.916   0.934  1.00  0.00     0.158 HD
HETATM   10  C13 UNL     1      -5.292   0.725   2.338  1.00  0.00     0.259 C 
HETATM   11  N15 UNL     1      -4.728  -0.585   2.003  1.00  0.00    -0.210 N 
ATOM     12  H15 UNL     1      -5.167  -1.460   2.290  1.00  0.00     0.179 HD
ENDROOT
BRANCH   1  13
HETATM   13  C7  UNL     1      -0.261  -1.393  -0.079  1.00  0.00     0.134 C 
BRANCH  13  14
HETATM   14  S1  UNL     1       0.100  -2.900   0.819  1.00  0.00    -0.155 SA
BRANCH  14  15
HETATM   15  C6  UNL     1       1.707  -3.524   0.274  1.00  0.00     0.158 C 
BRANCH  15  16
HETATM   16  C5  UNL     1       2.843  -2.679   0.632  1.00  0.00     0.132 C 
HETATM   17  N5  UNL     1       3.716  -3.200   1.421  1.00  0.00    -0.372 N 
HETATM   18  C4  UNL     1       4.932  -2.595   1.936  1.00  0.00     0.141 C 
ATOM     19  H5  UNL     1       3.531  -4.157   1.722  1.00  0.00     0.161 HD
HETATM   20  C3  UNL     1       5.748  -1.953   0.852  1.00  0.00     0.143 C 
HETATM   21  N4  UNL     1       5.166  -0.715   0.364  1.00  0.00    -0.354 N 
HETATM   22  C2  UNL     1       3.938  -0.482   0.041  1.00  0.00     0.228 C 
ATOM     23  H4  UNL     1       5.809   0.070   0.264  1.00  0.00     0.163 HD
HETATM   24  O1  UNL     1       2.877  -1.408   0.097  1.00  0.00    -0.266 OA
BRANCH  22  25
HETATM   25  N3  UNL     1       3.575   0.813  -0.419  1.00  0.00    -0.296 N 
HETATM   26  C1  UNL     1       4.396   1.932  -0.151  1.00  0.00     0.189 C 
HETATM   27  N1  UNL     1       3.836   3.075   0.045  1.00  0.00    -0.373 N 
HETATM   28  N2  UNL     1       5.801   1.749  -0.110  1.00  0.00    -0.064 NA
ATOM     29  H12 UNL     1       4.428   3.882   0.238  1.00  0.00     0.158 HD
ATOM     30  H11 UNL     1       2.825   3.207   0.015  1.00  0.00     0.158 HD
ATOM     31  H3  UNL     1       2.712   0.936  -0.949  1.00  0.00     0.172 HD
ENDBRANCH  22  25
ENDBRANCH  15  16
ENDBRANCH  14  15
ENDBRANCH  13  14
ENDBRANCH   1  13
BRANCH   6  32
HETATM   32  C11 UNL     1      -1.561   1.177  -1.197  1.00  0.00     0.167 A 
HETATM   33  N8  UNL     1      -2.060   2.307  -1.725  1.00  0.00    -0.267 N 
HETATM   34  N9  UNL     1      -1.200   2.795  -2.600  1.00  0.00    -0.227 N 
ATOM     35  H8  UNL     1      -2.961   2.722  -1.487  1.00  0.00     0.190 HD
HETATM   36  N10 UNL     1      -0.147   2.003  -2.654  1.00  0.00    -0.227 N 
ATOM     37  H9  UNL     1      -1.329   3.647  -3.146  1.00  0.00     0.210 HD
HETATM   38  N11 UNL     1      -0.370   1.023  -1.801  1.00  0.00    -0.267 N 
ATOM     39  H10 UNL     1       0.678   2.125  -3.241  1.00  0.00     0.210 HD
ATOM     40  H11 UNL     1       0.274   0.252  -1.623  1.00  0.00     0.190 HD
ENDBRANCH   6  32
BRANCH   7  41
HETATM   41  N12 UNL     1      -4.987   1.397  -1.117  1.00  0.00    -0.100 NA
BRANCH  41  42
HETATM   42  N13 UNL     1      -5.953   2.350  -1.337  1.00  0.00    -0.345 N 
ATOM     43 2H13 UNL     1      -6.213   3.053  -0.645  1.00  0.00     0.172 HD
ATOM     44 1H13 UNL     1      -6.367   2.262  -2.265  1.00  0.00     0.172 HD
ENDBRANCH  41  42
ENDBRANCH   7  41
TORSDOF 8
