REMARK  8 active torsions:
REMARK  status: ('A' for Active; 'I' for Inactive)
REMARK    1  A    between atoms: C7_10  and  N3_11 
REMARK    2  A    between atoms: N3_11  and  C8_12 
REMARK    3  A    between atoms: C9_13  and  C10_14 
REMARK    4  A    between atoms: N4_15  and  C11_17 
REMARK    5  A    between atoms: C11_17  and  C12_18 
REMARK    6  A    between atoms: C12_18  and  C13_19 
REMARK    7  A    between atoms: C16_22  and  N5_23 
REMARK    8  A    between atoms: N5_23  and  S1_25 
ROOT
HETATM    1  C1  UNL     1      -5.114   1.028  -1.567  1.00  0.00     0.052 C 
HETATM    2  C2  UNL     1      -5.169  -0.456  -1.543  1.00  0.00    -0.017 A 
HETATM    3  C3  UNL     1      -5.722  -1.150  -2.575  1.00  0.00     0.051 A 
HETATM    4  C4  UNL     1      -5.799  -2.526  -2.605  1.00  0.00     0.114 A 
HETATM    5  C5  UNL     1      -6.382  -3.237  -3.703  1.00  0.00     0.117 C 
HETATM    6  N1  UNL     1      -6.831  -3.814  -4.589  1.00  0.00    -0.190 NA
HETATM    7  N2  UNL     1      -5.290  -3.198  -1.538  1.00  0.00    -0.354 N 
ATOM      8  H2  UNL     1      -5.328  -4.217  -1.521  1.00  0.00     0.166 HD
HETATM    9  C6  UNL     1      -4.751  -2.554  -0.530  1.00  0.00     0.134 A 
HETATM   10  C7  UNL     1      -4.640  -1.148  -0.438  1.00  0.00     0.129 A 
ENDROOT
BRANCH  10  11
HETATM   11  N3  UNL     1      -4.081  -0.534   0.604  1.00  0.00    -0.402 NA
BRANCH  11  12
HETATM   12  C8  UNL     1      -3.264  -0.028   1.321  1.00  0.00     0.136 A 
HETATM   13  C9  UNL     1      -1.906   0.075   0.987  1.00  0.00     0.036 A 
HETATM   14  C20 UNL     1      -1.068   0.675   1.893  1.00  0.00     0.106 A 
HETATM   15  N6  UNL     1      -1.467   1.174   3.085  1.00  0.00    -0.351 N 
HETATM   16  C21 UNL     1      -2.766   1.077   3.406  1.00  0.00     0.120 A 
ATOM     17  H6  UNL     1      -0.800   1.611   3.721  1.00  0.00     0.166 HD
HETATM   18  N7  UNL     1      -3.474   1.474   4.513  1.00  0.00    -0.350 N 
HETATM   19  C24 UNL     1      -3.672   0.503   2.583  1.00  0.00     0.073 A 
HETATM   20  C22 UNL     1      -4.768   1.151   4.364  1.00  0.00     0.114 A 
ATOM     21  H7  UNL     1      -3.076   1.944   5.326  1.00  0.00     0.166 HD
HETATM   22  C23 UNL     1      -4.940   0.524   3.135  1.00  0.00     0.066 A 
HETATM   23 CL1  UNL     1      -6.383  -0.104   2.417  1.00  0.00    -0.082 Cl
BRANCH  13  24
HETATM   24  C10 UNL     1      -1.415  -0.439  -0.276  1.00  0.00     0.103 C 
HETATM   25  N4  UNL     1      -0.280  -0.453  -0.760  1.00  0.00    -0.378 N 
ATOM     26  H4  UNL     1      -0.329  -0.905  -1.673  1.00  0.00     0.164 HD
BRANCH  25  27
HETATM   27  C11 UNL     1       1.040  -0.085  -0.529  1.00  0.00     0.065 C 
BRANCH  27  28
HETATM   28  C12 UNL     1       1.918  -0.554  -1.661  1.00  0.00     0.083 C 
BRANCH  28  29
HETATM   29  C13 UNL     1       3.323  -0.230  -1.535  1.00  0.00    -0.053 A 
HETATM   30  C14 UNL     1       3.897   0.915  -2.008  1.00  0.00     0.010 A 
HETATM   31  C15 UNL     1       5.221   1.220  -1.889  1.00  0.00     0.030 A 
HETATM   32  C16 UNL     1       6.073   0.327  -1.250  1.00  0.00     0.042 A 
HETATM   33  C18 UNL     1       5.532  -0.838  -0.760  1.00  0.00     0.030 A 
HETATM   34  C19 UNL     1       4.165  -1.118  -0.900  1.00  0.00     0.010 A 
BRANCH  32  35
HETATM   35  N5  UNL     1       7.439   0.678  -1.143  1.00  0.00    -0.285 N 
ATOM     36  H5  UNL     1       7.942   1.041  -1.953  1.00  0.00     0.178 HD
BRANCH  35  37
HETATM   37  S1  UNL     1       8.242   0.488   0.360  1.00  0.00     0.227 S 
HETATM   38  C17 UNL     1       7.420   1.538   1.551  1.00  0.00     0.186 C 
HETATM   39  O1  UNL     1       9.683   0.898   0.202  1.00  0.00    -0.206 OA
HETATM   40  O2  UNL     1       8.249  -0.932   0.821  1.00  0.00    -0.206 OA
ENDBRANCH  35  37
ENDBRANCH  32  35
ENDBRANCH  28  29
ENDBRANCH  27  28
ENDBRANCH  25  27
ENDBRANCH  13  24
ENDBRANCH  11  12
ENDBRANCH  10  11
TORSDOF 8
