REMARK  9 active torsions:
REMARK  status: ('A' for Active; 'I' for Inactive)
REMARK    1  A    between atoms: C5_5  and  C6_6 
REMARK    2  A    between atoms: C6_6  and  C7_7 
REMARK    3  A    between atoms: C7_7  and  C8_8 
REMARK    4  A    between atoms: C10_10  and  C11_11 
REMARK    5  A    between atoms: C12_12  and  C14_14 
REMARK    6  A    between atoms: C19_19  and  O1_20 
REMARK    7  A    between atoms: C21_23  and  C22_24 
REMARK    8  A    between atoms: C25_28  and  O3_29 
REMARK    9  A    between atoms: C30_36  and  O5_37 
ROOT
HETATM    1  C1  UNL     1      -2.538  -3.662   1.404  1.00  0.00     0.019 C 
HETATM    2  C2  UNL     1      -2.261  -2.633   0.648  1.00  0.00    -0.061 C 
HETATM    3  C3  UNL     1      -2.666  -2.557  -0.781  1.00  0.00     0.039 C 
HETATM    4  C4  UNL     1      -1.617  -1.674  -1.438  1.00  0.00     0.014 C 
HETATM    5  C5  UNL     1      -1.138  -0.756  -0.336  1.00  0.00     0.020 C 
HETATM    6  C20 UNL     1      -1.524  -1.425   0.984  1.00  0.00    -0.048 C 
HETATM    7  C21 UNL     1      -1.903  -0.548   2.067  1.00  0.00     0.022 C 
ENDROOT
BRANCH   5   8
HETATM    8  C6  UNL     1       0.368  -0.510  -0.425  1.00  0.00     0.014 C 
BRANCH   8   9
HETATM    9  C7  UNL     1       0.749   0.120  -1.720  1.00  0.00     0.034 C 
BRANCH   9  10
HETATM   10  C8  UNL     1       2.211   0.341  -1.735  1.00  0.00    -0.084 C 
HETATM   11  C9  UNL     1       2.814   0.966  -2.936  1.00  0.00     0.043 C 
HETATM   12  C10 UNL     1       3.006   0.010  -0.736  1.00  0.00     0.003 C 
BRANCH  12  13
HETATM   13  C11 UNL     1       4.447   0.246  -0.791  1.00  0.00     0.003 C 
HETATM   14  C12 UNL     1       5.259  -0.075   0.193  1.00  0.00    -0.077 C 
HETATM   15  C13 UNL     1       4.730  -0.715   1.448  1.00  0.00     0.044 C 
BRANCH  14  16
HETATM   16  C14 UNL     1       6.704   0.203   0.056  1.00  0.00     0.050 C 
HETATM   17  C15 UNL     1       7.193   1.091   1.188  1.00  0.00     0.045 C 
HETATM   18  C16 UNL     1       8.544   0.592   1.513  1.00  0.00    -0.084 C 
HETATM   19  C17 UNL     1       9.506   1.331   2.381  1.00  0.00     0.043 C 
HETATM   20  C18 UNL     1       8.778  -0.576   0.942  1.00  0.00     0.007 C 
HETATM   21  C19 UNL     1       7.572  -1.011   0.141  1.00  0.00     0.149 C 
BRANCH  21  22
HETATM   22  O1  UNL     1       8.010  -1.379  -1.114  1.00  0.00    -0.391 OA
ATOM     23  H1  UNL     1       8.562  -2.151  -1.060  1.00  0.00     0.210 HD
ENDBRANCH  21  22
ENDBRANCH  14  16
ENDBRANCH  12  13
ENDBRANCH   9  10
ENDBRANCH   8   9
ENDBRANCH   5   8
BRANCH   7  24
HETATM   24  C22 UNL     1      -3.149   0.180   2.250  1.00  0.00     0.025 C 
HETATM   25  C23 UNL     1      -4.398  -0.612   2.351  1.00  0.00     0.161 C 
HETATM   26  O2  UNL     1      -4.504  -1.384   3.273  1.00  0.00    -0.292 OA
HETATM   27  C24 UNL     1      -5.501  -0.494   1.384  1.00  0.00     0.127 C 
HETATM   28  C25 UNL     1      -5.776   0.975   1.090  1.00  0.00     0.122 C 
HETATM   29  C26 UNL     1      -4.477   1.539   0.573  1.00  0.00     0.198 C 
HETATM   30  C30 UNL     1      -6.630   1.022  -0.157  1.00  0.00     0.189 C 
HETATM   31  O4  UNL     1      -4.356   0.877  -0.626  1.00  0.00    -0.367 OA
HETATM   32  C31 UNL     1      -3.327   1.473   1.504  1.00  0.00     0.238 C 
HETATM   33  C27 UNL     1      -5.590   1.187  -1.246  1.00  0.00     0.083 C 
HETATM   34  C28 UNL     1      -5.531   2.608  -1.770  1.00  0.00     0.048 C 
HETATM   35  C29 UNL     1      -5.875   0.243  -2.383  1.00  0.00     0.048 C 
HETATM   36  F1  UNL     1      -3.600   2.477   2.468  1.00  0.00    -0.241 F 
BRANCH  28  37
HETATM   37  O3  UNL     1      -6.304   1.644   2.162  1.00  0.00    -0.384 OA
ATOM     38  H3  UNL     1      -6.476   2.560   1.979  1.00  0.00     0.210 HD
ENDBRANCH  28  37
BRANCH  30  39
HETATM   39  O5  UNL     1      -7.388  -0.117  -0.286  1.00  0.00    -0.389 OA
ATOM     40  H5  UNL     1      -7.925  -0.087  -1.069  1.00  0.00     0.210 HD
ENDBRANCH  30  39
ENDBRANCH   7  24
TORSDOF 9
