REMARK  9 active torsions:
REMARK  status: ('A' for Active; 'I' for Inactive)
REMARK    1  A    between atoms: O1_2  and  C2_3 
REMARK    2  A    between atoms: C2_3  and  N1_4 
REMARK    3  A    between atoms: C2_3  and  O2_44 
REMARK    4  A    between atoms: N1_4  and  C3_6 
REMARK    5  A    between atoms: C5_10  and  C6_11 
REMARK    6  A    between atoms: C9_14  and  C10_15 
REMARK    7  A    between atoms: C12_21  and  C13_22 
REMARK    8  A    between atoms: N6_29  and  C18_31 
REMARK    9  A    between atoms: C18_31  and  C19_32 
ROOT
HETATM    1  C10 UNL     1      -1.508  -2.215   0.384  1.00  0.00     0.071 A 
HETATM    2  N3  UNL     1      -0.883  -3.506   0.199  1.00  0.00    -0.350 N 
ATOM      3  H3  UNL     1       0.053  -3.694  -0.159  1.00  0.00     0.166 HD
HETATM    4  C11 UNL     1      -1.787  -4.396   0.595  1.00  0.00     0.181 A 
HETATM    5  N4  UNL     1      -2.896  -3.764   0.983  1.00  0.00    -0.350 N 
ATOM      6  H4  UNL     1      -3.742  -4.223   1.321  1.00  0.00     0.166 HD
HETATM    7  C12 UNL     1      -2.735  -2.427   0.863  1.00  0.00     0.075 A 
ENDROOT
BRANCH   1   8
HETATM    8  C9  UNL     1      -0.652  -1.091   0.041  1.00  0.00    -0.007 A 
HETATM    9  C8  UNL     1      -0.022  -1.117  -1.194  1.00  0.00     0.014 A 
HETATM   10  C7  UNL     1       1.154  -0.364  -1.419  1.00  0.00     0.013 A 
HETATM   11  C6  UNL     1       1.655   0.396  -0.387  1.00  0.00    -0.023 A 
HETATM   12  C26 UNL     1       1.026   0.452   0.835  1.00  0.00     0.013 A 
HETATM   13  C25 UNL     1      -0.149  -0.312   1.051  1.00  0.00     0.014 A 
BRANCH  11  14
HETATM   14  C5  UNL     1       3.143   0.646  -0.402  1.00  0.00     0.006 A 
HETATM   15  C4  UNL     1       3.930   0.710  -1.499  1.00  0.00     0.119 A 
HETATM   16  N2  UNL     1       5.317   0.716  -1.368  1.00  0.00    -0.201 N 
HETATM   17  C3  UNL     1       5.897   0.657  -0.196  1.00  0.00     0.681 A 
ATOM     18  H2  UNL     1       5.895   0.768  -2.207  1.00  0.00     0.183 HD
HETATM   19  N7  UNL     1       5.123   0.590   0.961  1.00  0.00    -0.201 N 
HETATM   20  C27 UNL     1       3.771   0.589   0.824  1.00  0.00     0.119 A 
ATOM     21  H7  UNL     1       5.558   0.543   1.882  1.00  0.00     0.183 HD
BRANCH  17  22
HETATM   22  N1  UNL     1       7.130   0.724   0.036  1.00  0.00    -0.176 N 
ATOM     23  H1  UNL     1       7.556   0.669   0.961  1.00  0.00     0.182 HD
BRANCH  22  24
HETATM   24  C2  UNL     1       7.969   0.916  -1.398  1.00  0.00     0.384 C 
BRANCH  24  25
HETATM   25  O1  UNL     1       9.389   0.956  -0.530  1.00  0.00    -0.349 OA
HETATM   26  C1  UNL     1       9.668  -0.405  -0.363  1.00  0.00     0.206 C 
ENDBRANCH  24  25
BRANCH  24  27
HETATM   27  O2  UNL     1       7.789   2.190  -1.313  1.00  0.00    -0.349 OA
HETATM   28  C28 UNL     1       8.398   2.906  -0.258  1.00  0.00     0.206 C 
ENDBRANCH  24  27
ENDBRANCH  22  24
ENDBRANCH  17  22
ENDBRANCH  11  14
ENDBRANCH   1   8
BRANCH   7  29
HETATM   29  C13 UNL     1      -3.676  -1.435   1.344  1.00  0.00     0.037 A 
HETATM   30  C14 UNL     1      -4.154  -1.669   2.666  1.00  0.00     0.019 A 
HETATM   31  C15 UNL     1      -5.032  -0.814   3.269  1.00  0.00     0.018 A 
HETATM   32  C16 UNL     1      -5.432   0.292   2.567  1.00  0.00     0.089 A 
HETATM   33  N5  UNL     1      -4.946   0.479   1.303  1.00  0.00    -0.352 N 
HETATM   34  C17 UNL     1      -4.107  -0.323   0.666  1.00  0.00     0.113 A 
ATOM     35  H5  UNL     1      -5.258   1.313   0.805  1.00  0.00     0.166 HD
HETATM   36  N6  UNL     1      -3.737  -0.150  -0.567  1.00  0.00    -0.371 N 
ATOM     37  H6  UNL     1      -3.134  -0.865  -0.973  1.00  0.00     0.161 HD
BRANCH  36  38
HETATM   38  C18 UNL     1      -4.094   0.944  -1.405  1.00  0.00     0.160 C 
BRANCH  38  39
HETATM   39  C19 UNL     1      -5.591   1.042  -1.609  1.00  0.00    -0.039 A 
HETATM   40  C20 UNL     1      -6.319   2.177  -1.387  1.00  0.00     0.009 A 
HETATM   41  C21 UNL     1      -7.667   2.165  -1.438  1.00  0.00     0.002 A 
HETATM   42  C22 UNL     1      -8.319   0.976  -1.721  1.00  0.00     0.024 A 
HETATM   43  C23 UNL     1      -7.578  -0.194  -1.956  1.00  0.00     0.034 A 
HETATM   44 CL1  UNL     1      -8.426  -1.660  -2.327  1.00  0.00    -0.084 Cl
HETATM   45  C24 UNL     1      -6.211  -0.151  -1.896  1.00  0.00     0.032 A 
ENDBRANCH  38  39
ENDBRANCH  36  38
ENDBRANCH   7  29
TORSDOF 9
