REMARK  11 active torsions:
REMARK  status: ('A' for Active; 'I' for Inactive)
REMARK    1  A    between atoms: C2_2  and  C3_3 
REMARK    2  A    between atoms: C3_3  and  C4_4 
REMARK    3  A    between atoms: C3_3  and  N3_20 
REMARK    4  A    between atoms: C6_6  and  C7_7 
REMARK    5  A    between atoms: C13_14  and  N1_15 
REMARK    6  A    between atoms: N1_15  and  N2_17 
REMARK    7  A    between atoms: N3_20  and  C15_21 
REMARK       I    between atoms: N3_20  and  C25_32 
REMARK    8  A    between atoms: C15_21  and  C16_22 
REMARK    9  A    between atoms: C25_32  and  C26_34 
REMARK   10  A    between atoms: C26_34  and  C27_35 
REMARK   11  A    between atoms: C27_35  and  C28_36 
ROOT
HETATM    1  N3  UNL     1       0.733  -0.167   0.825  1.00  0.00    -0.339 N 
HETATM    2  C25 UNL     1       2.066  -0.337   0.390  1.00  0.00     0.221 C 
HETATM    3  O2  UNL     1       3.010   0.453   0.603  1.00  0.00    -0.273 OA
ENDROOT
BRANCH   1   4
HETATM    4  C3  UNL     1      -0.242  -1.154   0.439  1.00  0.00     0.122 C 
BRANCH   4   5
HETATM    5  C2  UNL     1      -0.427  -1.992   1.759  1.00  0.00     0.026 C 
HETATM    6  C1  UNL     1      -1.266  -3.189   1.559  1.00  0.00     0.007 C 
ENDBRANCH   4   5
BRANCH   4   7
HETATM    7  C4  UNL     1      -1.558  -0.756   0.016  1.00  0.00    -0.005 A 
HETATM    8  C5  UNL     1      -2.583  -0.682   0.950  1.00  0.00     0.019 A 
HETATM    9  C6  UNL     1      -3.857  -0.260   0.621  1.00  0.00    -0.048 A 
HETATM   10  C11 UNL     1      -4.081   0.087  -0.683  1.00  0.00     0.034 A 
HETATM   11  C12 UNL     1      -3.093   0.024  -1.629  1.00  0.00     0.063 A 
HETATM   12 CL1  UNL     1      -3.369   0.468  -3.304  1.00  0.00    -0.082 Cl
HETATM   13  C13 UNL     1      -1.819  -0.398  -1.297  1.00  0.00     0.080 A 
BRANCH   9  14
HETATM   14  C7  UNL     1      -4.970  -0.171   1.617  1.00  0.00    -0.024 C 
HETATM   15  C8  UNL     1      -6.317  -0.076   0.910  1.00  0.00     0.019 C 
HETATM   16  C9  UNL     1      -4.779   1.044   2.466  1.00  0.00     0.019 C 
HETATM   17  C10 UNL     1      -5.012  -1.437   2.467  1.00  0.00     0.019 C 
ENDBRANCH   9  14
BRANCH  13  18
HETATM   18  N1  UNL     1      -0.815  -0.484  -2.288  1.00  0.00    -0.301 N 
HETATM   19  C14 UNL     1      -0.659  -1.698  -3.043  1.00  0.00     0.177 C 
BRANCH  18  20
HETATM   20  N2  UNL     1      -0.018   0.606  -2.534  1.00  0.00    -0.343 N 
ATOM     21  H22 UNL     1      -0.129   1.467  -1.999  1.00  0.00     0.177 HD
ATOM     22  H21 UNL     1       0.707   0.544  -3.249  1.00  0.00     0.177 HD
ENDBRANCH  18  20
ENDBRANCH  13  18
ENDBRANCH   4   7
ENDBRANCH   1   4
BRANCH   1  23
HETATM   23  C15 UNL     1       0.424   0.904   1.703  1.00  0.00     0.165 C 
BRANCH  23  24
HETATM   24  C16 UNL     1       0.398   2.275   1.196  1.00  0.00    -0.039 A 
HETATM   25  C17 UNL     1      -0.624   2.836   0.479  1.00  0.00     0.011 A 
HETATM   26  C18 UNL     1      -0.607   4.162   0.021  1.00  0.00     0.039 A 
HETATM   27  C19 UNL     1       0.478   4.952   0.293  1.00  0.00     0.086 A 
HETATM   28  O1  UNL     1       0.731   6.194  -0.019  1.00  0.00    -0.315 OA
HETATM   29  C23 UNL     1       1.536   4.433   1.013  1.00  0.00     0.001 A 
HETATM   30  C20 UNL     1       1.929   6.536   0.468  1.00  0.00     0.050 A 
HETATM   31  C21 UNL     1       2.490   7.893   0.273  1.00  0.00     0.077 C 
HETATM   32  C22 UNL     1       2.457   5.450   1.120  1.00  0.00     0.046 A 
HETATM   33  C24 UNL     1       1.480   3.136   1.444  1.00  0.00     0.023 A 
ENDBRANCH  23  24
ENDBRANCH   1  23
BRANCH   2  34
HETATM   34  C26 UNL     1       2.453  -1.552  -0.396  1.00  0.00     0.108 C 
BRANCH  34  35
HETATM   35  C27 UNL     1       3.905  -1.499  -0.816  1.00  0.00     0.052 C 
BRANCH  35  36
HETATM   36  C28 UNL     1       4.187  -2.772  -1.551  1.00  0.00    -0.011 A 
HETATM   37  C29 UNL     1       4.366  -3.957  -0.826  1.00  0.00     0.030 A 
HETATM   38  C30 UNL     1       4.320  -4.166   0.643  1.00  0.00     0.070 C 
HETATM   39  N4  UNL     1       4.596  -4.893  -1.755  1.00  0.00    -0.305 N 
HETATM   40  N5  UNL     1       4.574  -4.384  -2.970  1.00  0.00    -0.305 N 
ATOM     41  H4  UNL     1       4.767  -5.877  -1.548  1.00  0.00     0.186 HD
HETATM   42  C31 UNL     1       4.319  -3.061  -2.865  1.00  0.00     0.030 A 
ATOM     43  H5  UNL     1       4.723  -4.898  -3.838  1.00  0.00     0.186 HD
HETATM   44  C32 UNL     1       4.196  -2.067  -3.953  1.00  0.00     0.070 C 
ENDBRANCH  35  36
ENDBRANCH  34  35
ENDBRANCH   2  34
TORSDOF 11
