REMARK  11 active torsions:
REMARK  status: ('A' for Active; 'I' for Inactive)
REMARK    1  A    between atoms: C2_2  and  O2_4 
REMARK    2  A    between atoms: O2_4  and  C3_5 
REMARK    3  A    between atoms: C12_14  and  C13_15 
REMARK    4  A    between atoms: C13_15  and  O3_18 
REMARK    5  A    between atoms: C18_22  and  C19_23 
REMARK    6  A    between atoms: C19_23  and  C21_25 
REMARK    7  A    between atoms: C21_25  and  N1_26 
REMARK    8  A    between atoms: N1_26  and  C22_27 
REMARK    9  A    between atoms: N1_26  and  C24_30 
REMARK   10  A    between atoms: C22_27  and  C23_28 
REMARK   11  A    between atoms: C24_30  and  C25_31 
ROOT
HETATM    1  C3  UNL     1       5.444   0.902  -0.543  1.00  0.00     0.154 C 
HETATM    2  C4  UNL     1       4.423   1.551  -1.433  1.00  0.00     0.002 C 
HETATM    3  C5  UNL     1       3.210   1.824  -0.982  1.00  0.00    -0.018 C 
HETATM    4  C6  UNL     1       2.921   1.460   0.429  1.00  0.00    -0.018 C 
HETATM    5  C7  UNL     1       3.741   2.317   1.403  1.00  0.00     0.020 C 
HETATM    6  C8  UNL     1       3.345   0.014   0.534  1.00  0.00     0.004 C 
HETATM    7  C9  UNL     1       2.978  -0.628   1.816  1.00  0.00     0.033 C 
HETATM    8  C10 UNL     1       1.577  -0.811   2.169  1.00  0.00    -0.023 C 
HETATM    9  C11 UNL     1       0.473  -0.684   1.210  1.00  0.00    -0.071 C 
HETATM   10  C12 UNL     1      -0.124  -1.836   0.512  1.00  0.00     0.048 C 
HETATM   11  C16 UNL     1      -0.338  -1.604  -0.977  1.00  0.00     0.012 C 
HETATM   12  C17 UNL     1      -1.301  -0.534  -1.352  1.00  0.00     0.007 C 
HETATM   13  C18 UNL     1      -1.765   0.360  -0.286  1.00  0.00     0.003 C 
HETATM   14  C26 UNL     1      -0.759   1.286   0.255  1.00  0.00    -0.032 C 
HETATM   15  C27 UNL     1      -1.221   1.741   1.635  1.00  0.00     0.016 C 
HETATM   16  C28 UNL     1      -0.327   2.440  -0.583  1.00  0.00     0.011 C 
HETATM   17  C29 UNL     1       0.893   2.897   0.222  1.00  0.00     0.007 C 
HETATM   18  C30 UNL     1       1.471   1.630   0.818  1.00  0.00     0.007 C 
HETATM   19  C31 UNL     1       0.581   0.524   0.346  1.00  0.00     0.028 C 
HETATM   20  C32 UNL     1       4.818  -0.121   0.356  1.00  0.00     0.042 C 
ENDROOT
BRANCH  13  21
HETATM   21  C19 UNL     1      -3.151   0.966  -0.545  1.00  0.00     0.025 C 
HETATM   22  C20 UNL     1      -3.235   1.718  -1.798  1.00  0.00     0.016 C 
BRANCH  21  23
HETATM   23  C21 UNL     1      -4.174  -0.102  -0.361  1.00  0.00     0.068 C 
BRANCH  23  24
HETATM   24  N1  UNL     1      -5.527   0.173  -0.483  1.00  0.00    -0.364 N 
BRANCH  24  25
HETATM   25  C22 UNL     1      -6.198   0.488  -1.648  1.00  0.00     0.078 C 
BRANCH  25  26
HETATM   26  C23 UNL     1      -6.300  -0.621  -2.676  1.00  0.00     0.159 C 
HETATM   27 CL1  UNL     1      -7.181  -0.092  -4.121  1.00  0.00    -0.125 Cl
ENDBRANCH  25  26
ENDBRANCH  24  25
BRANCH  24  28
HETATM   28  C24 UNL     1      -6.250   0.361   0.749  1.00  0.00     0.226 C 
BRANCH  28  29
HETATM   29  C25 UNL     1      -6.408  -0.824   1.582  1.00  0.00     0.249 C 
HETATM   30  N2  UNL     1      -7.103  -0.728   2.809  1.00  0.00    -0.061 NA
HETATM   31  O4  UNL     1      -5.951  -1.947   1.263  1.00  0.00    -0.275 OA
ENDBRANCH  28  29
ENDBRANCH  24  28
ENDBRANCH  23  24
ENDBRANCH  21  23
ENDBRANCH  13  21
BRANCH  10  32
HETATM   32  C13 UNL     1       0.406  -3.219   0.630  1.00  0.00     0.058 C 
HETATM   33  C14 UNL     1       1.796  -3.489   0.153  1.00  0.00     0.046 C 
HETATM   34  C15 UNL     1      -0.454  -4.218  -0.124  1.00  0.00     0.046 C 
BRANCH  32  35
HETATM   35  O3  UNL     1       0.285  -3.718   1.953  1.00  0.00    -0.390 OA
ATOM     36  H3  UNL     1       0.624  -4.602   2.028  1.00  0.00     0.210 HD
ENDBRANCH  32  35
ENDBRANCH  10  32
BRANCH   1  37
HETATM   37  O2  UNL     1       6.491   0.307  -1.296  1.00  0.00    -0.312 OA
BRANCH  37  38
HETATM   38  C2  UNL     1       7.802   0.753  -1.244  1.00  0.00     0.255 C 
HETATM   39  C1  UNL     1       8.921   0.180  -1.998  1.00  0.00     0.126 C 
HETATM   40  O1  UNL     1       8.030   1.733  -0.482  1.00  0.00    -0.266 OA
ENDBRANCH  37  38
ENDBRANCH   1  37
TORSDOF 11
