REMARK  11 active torsions:
REMARK  status: ('A' for Active; 'I' for Inactive)
REMARK    1  A    between atoms: C11_11  and  O1_12 
REMARK    2  A    between atoms: C23_26  and  C24_27 
REMARK    3  A    between atoms: C24_27  and  C25_29 
REMARK    4  A    between atoms: C25_29  and  C26_30 
REMARK    5  A    between atoms: C26_30  and  O4_32 
REMARK    6  A    between atoms: O4_32  and  C27_33 
REMARK    7  A    between atoms: C27_33  and  C28_34 
REMARK    8  A    between atoms: C28_34  and  C29_35 
REMARK    9  A    between atoms: C29_35  and  C30_36 
REMARK   10  A    between atoms: C30_36  and  C31_37 
REMARK   11  A    between atoms: C31_37  and  N1_38 
ROOT
HETATM    1  C1  UNL     1       0.047   1.918   2.220  1.00  0.00     0.015 C 
HETATM    2  C2  UNL     1       0.088   0.533   1.698  1.00  0.00    -0.039 C 
HETATM    3  C3  UNL     1      -0.970  -0.372   2.289  1.00  0.00     0.010 C 
HETATM    4  C4  UNL     1      -2.317   0.028   1.685  1.00  0.00     0.007 C 
HETATM    5  C5  UNL     1      -2.289  -0.193   0.200  1.00  0.00     0.003 C 
HETATM    6  C6  UNL     1      -1.216   0.701  -0.454  1.00  0.00    -0.001 C 
HETATM    7  C7  UNL     1      -1.655   2.106  -0.469  1.00  0.00     0.033 C 
HETATM    8  C8  UNL     1      -2.931   2.181  -1.234  1.00  0.00    -0.023 C 
HETATM    9  C9  UNL     1      -3.783   1.176  -1.236  1.00  0.00    -0.072 C 
HETATM   10  C10 UNL     1      -5.035   1.319  -2.018  1.00  0.00     0.067 C 
HETATM   11  C11 UNL     1      -6.165   1.140  -1.034  1.00  0.00     0.130 C 
HETATM   12  C12 UNL     1      -6.088  -0.095  -0.203  1.00  0.00    -0.013 C 
HETATM   13  C13 UNL     1      -6.717  -1.226  -0.973  1.00  0.00     0.013 C 
HETATM   14  C14 UNL     1      -6.985  -2.455  -0.161  1.00  0.00     0.021 C 
HETATM   15  C15 UNL     1      -7.919  -2.104   0.967  1.00  0.00     0.082 C 
HETATM   16 CL1  UNL     1      -8.372  -3.520   1.939  1.00  0.00    -0.125 Cl
HETATM   17  C16 UNL     1      -7.204  -1.068   1.817  1.00  0.00     0.021 C 
HETATM   18  C17 UNL     1      -7.044   0.159   0.980  1.00  0.00     0.013 C 
HETATM   19  C18 UNL     1      -4.762  -0.406   0.398  1.00  0.00     0.026 C 
HETATM   20  C19 UNL     1      -3.591  -0.111  -0.502  1.00  0.00    -0.016 C 
HETATM   21  C20 UNL     1      -3.569  -1.228  -1.562  1.00  0.00     0.020 C 
HETATM   22  C21 UNL     1       0.027   0.352   0.223  1.00  0.00    -0.001 C 
HETATM   23  C22 UNL     1       1.319   0.909  -0.252  1.00  0.00     0.018 C 
HETATM   24  C23 UNL     1       2.243   0.064   0.656  1.00  0.00     0.057 C 
HETATM   25  C32 UNL     1       1.505   0.004   1.976  1.00  0.00     0.021 C 
ENDROOT
BRANCH  24  26
HETATM   26  C24 UNL     1       3.603   0.558   0.717  1.00  0.00     0.140 C 
HETATM   27  O2  UNL     1       4.112   0.888   1.762  1.00  0.00    -0.297 OA
BRANCH  26  28
HETATM   28  C25 UNL     1       4.398   0.664  -0.528  1.00  0.00     0.189 C 
BRANCH  28  29
HETATM   29  C26 UNL     1       5.340  -0.514  -0.595  1.00  0.00     0.265 C 
HETATM   30  O3  UNL     1       5.373  -1.352   0.342  1.00  0.00    -0.265 OA
BRANCH  29  31
HETATM   31  O4  UNL     1       6.176  -0.700  -1.675  1.00  0.00    -0.321 OA
BRANCH  31  32
HETATM   32  C27 UNL     1       7.082  -1.751  -1.836  1.00  0.00     0.178 C 
BRANCH  32  33
HETATM   33  C28 UNL     1       8.166  -1.822  -0.794  1.00  0.00     0.027 C 
BRANCH  33  34
HETATM   34  C29 UNL     1       9.002  -0.541  -0.814  1.00  0.00     0.004 C 
BRANCH  34  35
HETATM   35  C30 UNL     1      10.089  -0.629   0.225  1.00  0.00     0.027 C 
BRANCH  35  36
HETATM   36  C31 UNL     1      10.916   0.645   0.190  1.00  0.00     0.229 C 
BRANCH  36  37
HETATM   37  N1  UNL     1      10.121   1.815   0.461  1.00  0.00    -0.079 N 
ATOM     38  H13 UNL     1       9.324   1.875  -0.172  1.00  0.00     0.274 HD
ATOM     39  H12 UNL     1       9.619   1.724   1.344  1.00  0.00     0.274 HD
ATOM     40  H11 UNL     1      10.676   2.670   0.438  1.00  0.00     0.274 HD
ENDBRANCH  36  37
ENDBRANCH  35  36
ENDBRANCH  34  35
ENDBRANCH  33  34
ENDBRANCH  32  33
ENDBRANCH  31  32
ENDBRANCH  29  31
ENDBRANCH  28  29
ENDBRANCH  26  28
ENDBRANCH  24  26
BRANCH  11  41
HETATM   41  O1  UNL     1      -6.113   2.233  -0.142  1.00  0.00    -0.394 OA
ATOM     42  H1  UNL     1      -6.824   2.120   0.477  1.00  0.00     0.210 HD
ENDBRANCH  11  41
TORSDOF 11
