REMARK  10 active torsions:
REMARK  status: ('A' for Active; 'I' for Inactive)
REMARK    1  A    between atoms: C2_2  and  O1_5 
REMARK    2  A    between atoms: O1_5  and  C5_6 
REMARK    3  A    between atoms: C5_6  and  C6_7 
REMARK    4  A    between atoms: C6_7  and  N1_8 
REMARK    5  A    between atoms: N1_8  and  C7_10 
REMARK    6  A    between atoms: C7_10  and  C8_11 
REMARK    7  A    between atoms: C8_11  and  C9_13 
REMARK    8  A    between atoms: C10_14  and  C11_15 
REMARK    9  A    between atoms: C24_30  and  C26_32 
REMARK   10  A    between atoms: C26_32  and  C27_33 
ROOT
HETATM    1  C9  UNL     1      -1.759   0.005  -1.034  1.00  0.00     0.080 C 
HETATM    2  C10 UNL     1      -2.046   0.839  -2.251  1.00  0.00     0.060 C 
HETATM    3  C12 UNL     1      -1.142   0.262  -3.343  1.00  0.00     0.017 C 
HETATM    4  C13 UNL     1      -0.367  -0.788  -2.618  1.00  0.00    -0.004 C 
HETATM    5  C14 UNL     1       0.966  -1.077  -3.143  1.00  0.00     0.006 C 
HETATM    6  C15 UNL     1       1.758   0.190  -3.153  1.00  0.00     0.010 C 
HETATM    7  C16 UNL     1       1.822   0.899  -1.841  1.00  0.00    -0.035 C 
HETATM    8  C17 UNL     1       1.845   2.397  -2.218  1.00  0.00     0.016 C 
HETATM    9  C18 UNL     1       3.238   0.674  -1.309  1.00  0.00     0.005 C 
HETATM   10  C19 UNL     1       3.916   1.917  -0.843  1.00  0.00     0.076 C 
HETATM   11  C20 UNL     1       5.030   1.669   0.126  1.00  0.00     0.098 C 
HETATM   12  F1  UNL     1       5.681   2.749   0.685  1.00  0.00    -0.211 F 
HETATM   13  C21 UNL     1       5.435   0.467   0.485  1.00  0.00    -0.032 C 
HETATM   14  C22 UNL     1       4.773  -0.738  -0.082  1.00  0.00     0.023 C 
HETATM   15  C23 UNL     1       5.117  -1.442   1.202  1.00  0.00     0.024 C 
HETATM   16  C24 UNL     1       6.304  -0.499   1.241  1.00  0.00    -0.007 C 
HETATM   17  C25 UNL     1       7.439  -0.952   0.346  1.00  0.00     0.021 C 
HETATM   18  C28 UNL     1       3.345  -0.504  -0.384  1.00  0.00    -0.001 C 
HETATM   19  C29 UNL     1       2.437  -0.359   0.773  1.00  0.00     0.006 C 
HETATM   20  C30 UNL     1       1.293   0.556   0.573  1.00  0.00     0.006 C 
HETATM   21  C31 UNL     1       0.731   0.621  -0.853  1.00  0.00     0.003 C 
HETATM   22  C32 UNL     1      -0.291  -0.379  -1.146  1.00  0.00    -0.025 C 
HETATM   23  C33 UNL     1      -0.105  -1.711  -0.411  1.00  0.00     0.016 C 
ENDROOT
BRANCH   1  24
HETATM   24  C8  UNL     1      -2.295   0.444   0.218  1.00  0.00     0.170 C 
HETATM   25  O2  UNL     1      -2.705   1.598   0.459  1.00  0.00    -0.291 OA
BRANCH  24  26
HETATM   26  C7  UNL     1      -2.429  -0.437   1.406  1.00  0.00     0.138 C 
BRANCH  26  27
HETATM   27  N1  UNL     1      -3.585  -0.208   2.176  1.00  0.00    -0.373 N 
ATOM     28  H1  UNL     1      -3.493   0.270   3.073  1.00  0.00     0.164 HD
BRANCH  27  29
HETATM   29  C6  UNL     1      -4.860  -0.615   1.751  1.00  0.00     0.086 C 
BRANCH  29  30
HETATM   30  C5  UNL     1      -5.483   0.075   0.597  1.00  0.00     0.213 C 
BRANCH  30  31
HETATM   31  O1  UNL     1      -6.716  -0.338   0.197  1.00  0.00    -0.376 OA
BRANCH  31  32
HETATM   32  C2  UNL     1      -7.783  -0.292   1.013  1.00  0.00     0.050 C 
HETATM   33  C1  UNL     1      -8.073   1.086   1.585  1.00  0.00     0.045 C 
HETATM   34  C3  UNL     1      -7.922  -1.335   2.070  1.00  0.00     0.045 C 
HETATM   35  C4  UNL     1      -9.013  -0.532   0.068  1.00  0.00     0.045 C 
ENDBRANCH  31  32
ENDBRANCH  30  31
ENDBRANCH  29  30
ENDBRANCH  27  29
ENDBRANCH  26  27
ENDBRANCH  24  26
ENDBRANCH   1  24
BRANCH   2  36
HETATM   36  C11 UNL     1      -2.023   2.267  -2.157  1.00  0.00     0.236 C 
HETATM   37  O3  UNL     1      -2.410   2.927  -3.124  1.00  0.00    -0.306 OA
ENDBRANCH   2  36
BRANCH  16  38
HETATM   38  C26 UNL     1       6.712   0.018   2.579  1.00  0.00     0.127 C 
BRANCH  38  39
HETATM   39  C27 UNL     1       7.568  -0.933   3.327  1.00  0.00     0.173 C 
HETATM   40  O4  UNL     1       7.842  -2.050   2.787  1.00  0.00    -0.648 OA
HETATM   41  O5  UNL     1       8.084  -0.670   4.577  1.00  0.00    -0.648 OA
ENDBRANCH  38  39
ENDBRANCH  16  38
TORSDOF 10
