REMARK  8 active torsions:
REMARK  status: ('A' for Active; 'I' for Inactive)
REMARK    1  A    between atoms: N2_8  and  C5_10 
REMARK    2  A    between atoms: C5_10  and  C6_11 
REMARK    3  A    between atoms: C6_11  and  C7_12 
REMARK    4  A    between atoms: C7_12  and  N3_13 
REMARK    5  A    between atoms: C12_18  and  C13_19 
REMARK    6  A    between atoms: C17_25  and  C18_26 
REMARK    7  A    between atoms: C18_26  and  C19_27 
REMARK    8  A    between atoms: C19_27  and  C20_28 
ROOT
HETATM    1  C1  UNL     1      -5.315  -2.192  -1.448  1.00  0.00     0.032 C 
HETATM    2  C2  UNL     1      -4.063  -1.943  -1.189  1.00  0.00     0.050 A 
HETATM    3  C3  UNL     1      -3.112  -2.402  -2.123  1.00  0.00     0.271 A 
HETATM    4  O1  UNL     1      -3.519  -3.038  -3.141  1.00  0.00    -0.267 OA
HETATM    5  N1  UNL     1      -1.810  -2.177  -1.950  1.00  0.00    -0.155 N 
ATOM      6  H1  UNL     1      -1.145  -2.521  -2.643  1.00  0.00     0.187 HD
HETATM    7  C4  UNL     1      -1.362  -1.508  -0.884  1.00  0.00     0.681 A 
HETATM    8  N2  UNL     1      -0.104  -1.311  -0.747  1.00  0.00    -0.226 N 
ATOM      9  H2  UNL     1       0.253  -0.803   0.062  1.00  0.00     0.177 HD
HETATM   10  N4  UNL     1      -2.257  -1.075  -0.000  1.00  0.00    -0.191 N 
ATOM     11  H4  UNL     1      -1.905  -0.566   0.811  1.00  0.00     0.184 HD
HETATM   12  C17 UNL     1      -3.619  -1.257  -0.088  1.00  0.00     0.060 A 
ENDROOT
BRANCH   8  13
HETATM   13  C5  UNL     1       0.802  -1.816  -1.750  1.00  0.00     0.139 C 
BRANCH  13  14
HETATM   14  C6  UNL     1       2.244  -1.512  -1.403  1.00  0.00     0.040 C 
BRANCH  14  15
HETATM   15  C7  UNL     1       2.483  -0.023  -1.288  1.00  0.00     0.130 C 
BRANCH  15  16
HETATM   16  N3  UNL     1       3.856   0.243  -0.952  1.00  0.00    -0.360 N 
HETATM   17  C8  UNL     1       4.737   0.469  -1.960  1.00  0.00     0.091 A 
HETATM   18  C9  UNL     1       6.058   0.749  -1.718  1.00  0.00     0.024 A 
HETATM   19  C10 UNL     1       6.545   0.812  -0.434  1.00  0.00    -0.052 A 
HETATM   20  C11 UNL     1       7.955   1.112  -0.163  1.00  0.00     0.049 C 
HETATM   21  C12 UNL     1       5.640   0.580   0.578  1.00  0.00    -0.030 A 
HETATM   22  C15 UNL     1       4.304   0.297   0.300  1.00  0.00     0.014 A 
HETATM   23  C16 UNL     1       3.401   0.038   1.440  1.00  0.00     0.069 C 
BRANCH  21  24
HETATM   24  C13 UNL     1       6.112   0.645   1.967  1.00  0.00     0.036 C 
HETATM   25  C14 UNL     1       6.301   2.091   2.421  1.00  0.00     0.010 C 
ENDBRANCH  21  24
ENDBRANCH  15  16
ENDBRANCH  14  15
ENDBRANCH  13  14
ENDBRANCH   8  13
BRANCH  12  26
HETATM   26  C18 UNL     1      -4.340  -0.804   0.879  1.00  0.00     0.010 C 
BRANCH  26  27
HETATM   27  C19 UNL     1      -5.699  -0.736   1.331  1.00  0.00     0.088 C 
BRANCH  27  28
HETATM   28  C20 UNL     1      -6.210   0.656   1.506  1.00  0.00     0.030 A 
HETATM   29  C21 UNL     1      -6.046   1.500   2.604  1.00  0.00     0.114 A 
HETATM   30  N5  UNL     1      -6.662   2.670   2.379  1.00  0.00    -0.360 N 
HETATM   31  C22 UNL     1      -7.202   2.560   1.161  1.00  0.00     0.182 A 
ATOM     32  H5  UNL     1      -6.709   3.474   3.005  1.00  0.00     0.166 HD
HETATM   33  N6  UNL     1      -6.926   1.333   0.631  1.00  0.00    -0.349 N 
HETATM   34  C23 UNL     1      -7.399   0.942  -0.687  1.00  0.00     0.156 C 
ENDBRANCH  27  28
ENDBRANCH  26  27
ENDBRANCH  12  26
TORSDOF 8
