REMARK  12 active torsions:
REMARK  status: ('A' for Active; 'I' for Inactive)
REMARK    1  A    between atoms: O1_2  and  C2_3 
REMARK    2  A    between atoms: C3_4  and  C4_5 
REMARK    3  A    between atoms: C4_5  and  O2_6 
REMARK    4  A    between atoms: C5_9  and  O4_10 
REMARK    5  A    between atoms: O4_10  and  C6_11 
REMARK    6  A    between atoms: C7_12  and  O5_13 
REMARK    7  A    between atoms: C8_15  and  O6_16 
REMARK    8  A    between atoms: C10_19  and  C11_20 
REMARK    9  A    between atoms: C11_20  and  O7_21 
REMARK   10  A    between atoms: O7_21  and  C12_22 
REMARK   11  A    between atoms: C15_27  and  O9_29 
REMARK   12  A    between atoms: C19_33  and  N2_34 
ROOT
HETATM    1  C6  UNL     1       0.877  -0.700   0.948  1.00  0.00     0.163 C 
HETATM    2  C7  UNL     1       1.224   0.029   2.227  1.00  0.00     0.176 C 
HETATM    3  C8  UNL     1       2.580  -0.265   2.751  1.00  0.00     0.150 C 
HETATM    4  C9  UNL     1       3.677  -0.147   1.759  1.00  0.00     0.046 C 
HETATM    5  C10 UNL     1       3.312  -0.261   0.336  1.00  0.00    -0.007 C 
HETATM    6  C13 UNL     1       4.334  -1.245  -0.266  1.00  0.00     0.015 C 
HETATM    7  C14 UNL     1       3.605  -2.139  -1.193  1.00  0.00     0.038 C 
HETATM    8  C15 UNL     1       2.228  -2.244  -0.522  1.00  0.00     0.061 C 
HETATM    9  C16 UNL     1       1.288  -2.587  -1.676  1.00  0.00     0.046 C 
HETATM   10  C17 UNL     1       1.995  -0.812  -0.016  1.00  0.00     0.062 C 
ENDROOT
BRANCH   1  11
HETATM   11  O4  UNL     1      -0.201   0.029   0.448  1.00  0.00    -0.353 OA
BRANCH  11  12
HETATM   12  C5  UNL     1      -1.402  -0.631   0.383  1.00  0.00     0.263 C 
HETATM   13  O3  UNL     1      -1.735  -0.692  -0.991  1.00  0.00    -0.351 OA
HETATM   14  C3  UNL     1      -2.252   0.561  -1.399  1.00  0.00     0.179 C 
HETATM   15  C2  UNL     1      -3.706   0.542  -1.013  1.00  0.00     0.185 C 
HETATM   16  C19 UNL     1      -3.823  -0.143   0.317  1.00  0.00     0.258 C 
HETATM   17  C18 UNL     1      -2.521   0.046   1.114  1.00  0.00     0.099 C 
BRANCH  14  18
HETATM   18  C4  UNL     1      -2.152   0.565  -2.904  1.00  0.00     0.198 C 
BRANCH  18  19
HETATM   19  O2  UNL     1      -2.917  -0.524  -3.369  1.00  0.00    -0.398 OA
ATOM     20  H2  UNL     1      -2.854  -0.521  -4.317  1.00  0.00     0.209 HD
ENDBRANCH  18  19
ENDBRANCH  14  18
BRANCH  15  21
HETATM   21  O1  UNL     1      -4.370   1.713  -1.164  1.00  0.00    -0.386 OA
HETATM   22  C1  UNL     1      -5.369   1.710  -2.121  1.00  0.00     0.202 C 
ENDBRANCH  15  21
BRANCH  16  23
HETATM   23  N2  UNL     1      -4.960   0.273   1.053  1.00  0.00     0.087 N 
HETATM   24  C20 UNL     1      -5.020   1.630   1.466  1.00  0.00     0.310 C 
HETATM   25  C21 UNL     1      -5.263  -0.621   2.118  1.00  0.00     0.310 C 
ENDBRANCH  16  23
ENDBRANCH  11  12
ENDBRANCH   1  11
BRANCH   2  26
HETATM   26  O5  UNL     1       0.967   1.401   2.116  1.00  0.00    -0.390 OA
ATOM     27  H5  UNL     1       1.185   1.859   2.919  1.00  0.00     0.210 HD
ENDBRANCH   2  26
BRANCH   3  28
HETATM   28  O6  UNL     1       2.555  -1.507   3.389  1.00  0.00    -0.393 OA
ATOM     29  H6  UNL     1       3.424  -1.695   3.725  1.00  0.00     0.210 HD
ENDBRANCH   3  28
BRANCH   5  30
HETATM   30  C11 UNL     1       3.562   1.052  -0.423  1.00  0.00     0.190 C 
BRANCH  30  31
HETATM   31  O7  UNL     1       4.916   1.424  -0.367  1.00  0.00    -0.306 OA
BRANCH  31  32
HETATM   32  C12 UNL     1       5.320   2.578  -0.994  1.00  0.00     0.372 C 
HETATM   33  N1  UNL     1       6.654   3.058  -1.009  1.00  0.00    -0.032 NA
HETATM   34  O8  UNL     1       4.456   3.262  -1.599  1.00  0.00    -0.242 OA
ENDBRANCH  31  32
ENDBRANCH  30  31
ENDBRANCH   5  30
BRANCH   8  35
HETATM   35  O9  UNL     1       2.192  -3.183   0.472  1.00  0.00    -0.390 OA
ATOM     36  H9  UNL     1       1.340  -3.248   0.887  1.00  0.00     0.210 HD
ENDBRANCH   8  35
TORSDOF 12
