REMARK  12 active torsions:
REMARK  status: ('A' for Active; 'I' for Inactive)
REMARK    1  A    between atoms: C2_2  and  O1_4 
REMARK    2  A    between atoms: C2_2  and  C4_6 
REMARK    3  A    between atoms: C5_7  and  C6_8 
REMARK    4  A    between atoms: C7_10  and  O3_11 
REMARK    5  A    between atoms: O3_11  and  C8_12 
REMARK    6  A    between atoms: C10_15  and  O5_16 
REMARK    7  A    between atoms: C11_18  and  O6_19 
REMARK    8  A    between atoms: C12_21  and  O7_22 
REMARK    9  A    between atoms: C14_25  and  S1_26 
REMARK   10  A    between atoms: S1_26  and  C15_27 
REMARK   11  A    between atoms: C17_29  and  C18_30 
REMARK   12  A    between atoms: C19_33  and  O9_34 
ROOT
HETATM    1  C6  UNL     1      -0.822   0.780   0.276  1.00  0.00     0.161 C 
HETATM    2  O2  UNL     1       0.374   0.474   0.898  1.00  0.00    -0.351 OA
HETATM    3  C7  UNL     1       1.319   0.275  -0.104  1.00  0.00     0.265 C 
HETATM    4  C13 UNL     1       0.507  -0.580  -1.088  1.00  0.00     0.079 C 
HETATM    5  C14 UNL     1      -0.774   0.267  -1.121  1.00  0.00     0.085 C 
ENDROOT
BRANCH   3   6
HETATM    6  O3  UNL     1       2.439  -0.379   0.336  1.00  0.00    -0.329 OA
BRANCH   6   7
HETATM    7  C8  UNL     1       3.631   0.277  -0.005  1.00  0.00     0.294 C 
HETATM    8  O4  UNL     1       4.337   0.729   1.079  1.00  0.00    -0.356 OA
HETATM    9  C9  UNL     1       5.168  -0.170   1.690  1.00  0.00     0.205 C 
HETATM   10  C10 UNL     1       6.070  -0.933   0.760  1.00  0.00     0.173 C 
HETATM   11  C11 UNL     1       5.164  -1.622  -0.254  1.00  0.00     0.182 C 
HETATM   12  C12 UNL     1       4.443  -0.522  -0.992  1.00  0.00     0.204 C 
BRANCH  10  13
HETATM   13  O5  UNL     1       7.011  -0.116   0.143  1.00  0.00    -0.391 OA
ATOM     14  H5  UNL     1       7.581  -0.598  -0.445  1.00  0.00     0.210 HD
ENDBRANCH  10  13
BRANCH  11  15
HETATM   15  O6  UNL     1       5.878  -2.459  -1.081  1.00  0.00    -0.390 OA
ATOM     16  H6  UNL     1       5.313  -2.888  -1.713  1.00  0.00     0.210 HD
ENDBRANCH  11  15
BRANCH  12  17
HETATM   17  O7  UNL     1       5.391   0.339  -1.543  1.00  0.00    -0.388 OA
ATOM     18  H7  UNL     1       5.903  -0.165  -2.165  1.00  0.00     0.210 HD
ENDBRANCH  12  17
ENDBRANCH   6   7
ENDBRANCH   3   6
BRANCH   1  19
HETATM   19  C5  UNL     1      -1.049   2.255   0.341  1.00  0.00     0.005 C 
HETATM   20  C4  UNL     1      -2.255   2.729   0.542  1.00  0.00     0.008 C 
BRANCH  20  21
HETATM   21  C2  UNL     1      -2.475   4.209   0.606  1.00  0.00     0.068 C 
HETATM   22  C1  UNL     1      -3.491   4.619  -0.438  1.00  0.00     0.050 C 
HETATM   23  C3  UNL     1      -1.174   4.927   0.365  1.00  0.00     0.050 C 
BRANCH  21  24
HETATM   24  O1  UNL     1      -2.936   4.556   1.881  1.00  0.00    -0.387 OA
ATOM     25  H1  UNL     1      -2.298   4.299   2.536  1.00  0.00     0.211 HD
ENDBRANCH  21  24
ENDBRANCH  20  21
ENDBRANCH   1  19
BRANCH   5  26
HETATM   26  S1  UNL     1      -2.186  -0.660  -1.673  1.00  0.00    -0.154 SA
BRANCH  26  27
HETATM   27  C15 UNL     1      -2.412  -2.224  -0.845  1.00  0.00     0.078 C 
HETATM   28  C16 UNL     1      -2.766  -2.157   0.635  1.00  0.00     0.034 C 
HETATM   29  C17 UNL     1      -3.586  -3.432   0.381  1.00  0.00     0.106 C 
HETATM   30  C19 UNL     1      -3.756  -2.893  -1.047  1.00  0.00     0.144 C 
BRANCH  29  31
HETATM   31  C18 UNL     1      -4.834  -3.520   1.157  1.00  0.00     0.237 C 
HETATM   32  N1  UNL     1      -5.632  -4.679   0.963  1.00  0.00    -0.062 NA
HETATM   33  O8  UNL     1      -5.147  -2.592   1.947  1.00  0.00    -0.276 OA
ENDBRANCH  29  31
BRANCH  30  34
HETATM   34  O9  UNL     1      -3.741  -3.873  -2.028  1.00  0.00    -0.394 OA
ATOM     35  H9  UNL     1      -4.584  -4.293  -2.155  1.00  0.00     0.210 HD
ENDBRANCH  30  34
ENDBRANCH  26  27
ENDBRANCH   5  26
TORSDOF 12
