REMARK  5 active torsions:
REMARK  status: ('A' for Active; 'I' for Inactive)
REMARK    1  A    between atoms: N1_1  and  N2_4 
REMARK    2  A    between atoms: N2_4  and  C1_6 
REMARK    3  A    between atoms: C1_6  and  O1_7 
REMARK    4  A    between atoms: C1_6  and  N3_9 
REMARK    5  A    between atoms: N3_9  and  N4_10 
REMARK       I    between atoms: N3_9  and  C3_15 
ROOT
HETATM    1  N3  UNL     1      -0.504   0.280  -0.128  1.00  0.00    -0.166 N 
HETATM    2  C3  UNL     1      -0.907   1.118   0.895  1.00  0.00     0.357 C 
HETATM    3  N7  UNL     1      -0.227   2.365   1.085  1.00  0.00    -0.038 NA
HETATM    4  O2  UNL     1      -1.831   0.890   1.692  1.00  0.00    -0.248 OA
ENDROOT
BRANCH   1   5
HETATM    5  C1  UNL     1      -1.097  -0.959  -0.403  1.00  0.00     0.261 C 
BRANCH   5   6
HETATM    6  N2  UNL     1      -2.152  -1.595   0.238  1.00  0.00    -0.270 N 
ATOM      7  H2  UNL     1      -2.598  -1.138   1.033  1.00  0.00     0.190 HD
BRANCH   6   8
HETATM    8  N1  UNL     1      -2.620  -2.851  -0.180  1.00  0.00    -0.342 N 
ATOM      9  H12 UNL     1      -2.162  -3.294  -0.977  1.00  0.00     0.176 HD
ATOM     10  H11 UNL     1      -3.395  -3.318   0.291  1.00  0.00     0.176 HD
ENDBRANCH   6   8
ENDBRANCH   5   6
BRANCH   5  11
HETATM   11  O1  UNL     1      -0.600  -1.633  -1.404  1.00  0.00    -0.330 OA
ATOM     12  H1  UNL     1       0.122  -1.198  -1.843  1.00  0.00     0.221 HD
ENDBRANCH   5  11
ENDBRANCH   1   5
BRANCH   1  13
HETATM   13  N4  UNL     1       0.575   0.684  -0.958  1.00  0.00    -0.262 N 
HETATM   14  C2  UNL     1       1.799   0.522  -0.580  1.00  0.00     0.216 C 
HETATM   15  N5  UNL     1       2.163  -0.055   0.653  1.00  0.00    -0.065 NA
HETATM   16  N6  UNL     1       2.821   0.953  -1.468  1.00  0.00    -0.065 NA
ATOM     17  H4  UNL     1       0.381   1.108  -1.865  1.00  0.00     0.190 HD
ENDBRANCH   1  13
TORSDOF 5
