REMARK  6 active torsions:
REMARK  status: ('A' for Active; 'I' for Inactive)
REMARK    1  A    between atoms: C2_2  and  N1_4 
REMARK       I    between atoms: N1_4  and  C4_6 
REMARK       I    between atoms: C4_6  and  N7_28 
REMARK    2  A    between atoms: N2_7  and  C5_9 
REMARK    3  A    between atoms: C5_9  and  C6_10 
REMARK    4  A    between atoms: C6_10  and  O1_11 
REMARK    5  A    between atoms: C6_10  and  N3_13 
REMARK    6  A    between atoms: C11_18  and  C12_19 
REMARK       I    between atoms: C12_19  and  N4_21 
REMARK       I    between atoms: N4_21  and  C13_23 
ROOT
HETATM    1  N1  UNL     1      -3.493   0.385   0.547  1.00  0.00    -0.222 N 
ATOM      2  H1  UNL     1      -3.270   0.860   1.421  1.00  0.00     0.178 HD
HETATM    3  C4  UNL     1      -2.760   0.653  -0.630  1.00  0.00     0.683 C 
HETATM    4  N2  UNL     1      -1.640   0.063  -0.819  1.00  0.00    -0.218 N 
ATOM      5  H2  UNL     1      -1.336  -0.582  -0.089  1.00  0.00     0.178 HD
HETATM    6  N7  UNL     1      -3.272   1.566  -1.577  1.00  0.00    -0.126 N 
ATOM      7  H7  UNL     1      -3.660   1.215  -2.453  1.00  0.00     0.197 HD
HETATM    8  C14 UNL     1      -3.256   2.942  -1.335  1.00  0.00     0.196 C 
HETATM    9  N8  UNL     1      -3.235   4.082  -1.116  1.00  0.00    -0.171 NA
ENDROOT
BRANCH   1  10
HETATM   10  C2  UNL     1      -4.569  -0.581   0.482  1.00  0.00     0.091 C 
HETATM   11  C1  UNL     1      -5.231  -0.738   1.808  1.00  0.00     0.032 C 
HETATM   12  C3  UNL     1      -5.539  -0.139  -0.599  1.00  0.00     0.032 C 
ENDBRANCH   1  10
BRANCH   4  13
HETATM   13  C5  UNL     1      -0.781   0.209  -1.929  1.00  0.00     0.222 C 
BRANCH  13  14
HETATM   14  C6  UNL     1       0.618  -0.053  -1.628  1.00  0.00     0.133 C 
BRANCH  14  15
HETATM   15  O1  UNL     1       1.383   0.077  -2.696  1.00  0.00    -0.348 OA
ATOM     16  H1  UNL     1       2.297  -0.094  -2.499  1.00  0.00     0.219 HD
ENDBRANCH  14  15
BRANCH  14  17
HETATM   17  N3  UNL     1       1.288  -0.406  -0.471  1.00  0.00    -0.351 N 
HETATM   18  C7  UNL     1       0.731  -0.576   0.826  1.00  0.00     0.125 C 
HETATM   19  C8  UNL     1       0.680  -2.102   1.035  1.00  0.00     0.020 C 
HETATM   20  C9  UNL     1       2.058  -2.632   0.892  1.00  0.00     0.004 C 
HETATM   21  C10 UNL     1       3.125  -1.675   0.514  1.00  0.00     0.035 C 
HETATM   22  C11 UNL     1       2.739  -0.677  -0.548  1.00  0.00     0.178 C 
BRANCH  22  23
HETATM   23  C12 UNL     1       3.510   0.573  -0.300  1.00  0.00     0.247 C 
HETATM   24  O2  UNL     1       2.918   1.667  -0.066  1.00  0.00    -0.271 OA
HETATM   25  N4  UNL     1       4.924   0.595  -0.316  1.00  0.00    -0.300 N 
HETATM   26  C13 UNL     1       5.664   1.771  -0.083  1.00  0.00     0.188 C 
ATOM     27  H4  UNL     1       5.427  -0.273  -0.503  1.00  0.00     0.171 HD
HETATM   28  N5  UNL     1       6.957   1.745  -0.107  1.00  0.00    -0.373 N 
HETATM   29  N6  UNL     1       4.962   2.988   0.179  1.00  0.00    -0.064 NA
ATOM     30  H52 UNL     1       7.458   0.876  -0.294  1.00  0.00     0.158 HD
ATOM     31  H51 UNL     1       7.493   2.596   0.062  1.00  0.00     0.158 HD
ENDBRANCH  22  23
ENDBRANCH  14  17
ENDBRANCH  13  14
ENDBRANCH   4  13
TORSDOF 6
