REMARK  3 active torsions:
REMARK  status: ('A' for Active; 'I' for Inactive)
REMARK    1  A    between atoms: N3_4  and  C2_6 
REMARK    2  A    between atoms: C2_6  and  C3_7 
REMARK    3  A    between atoms: C3_7  and  C4_8 
ROOT
HETATM    1  C4  UNL     1       1.512   0.468   0.474  1.00  0.00     0.171 C 
HETATM    2  N4  UNL     1       0.680  -0.564   0.986  1.00  0.00    -0.409 N 
ATOM      3  H4  UNL     1       0.221  -0.497   1.895  1.00  0.00     0.154 HD
HETATM    4  C5  UNL     1       0.532  -1.710   0.129  1.00  0.00     0.114 C 
HETATM    5  C6  UNL     1      -0.359  -2.702   0.885  1.00  0.00     0.021 C 
HETATM    6  C7  UNL     1      -1.137  -3.577  -0.045  1.00  0.00     0.029 C 
HETATM    7  C8  UNL     1      -2.385  -2.951  -0.570  1.00  0.00     0.232 C 
HETATM    8  N5  UNL     1      -3.091  -2.162   0.412  1.00  0.00    -0.075 N 
ATOM      9  H51 UNL     1      -2.530  -1.378   0.745  1.00  0.00     0.277 HD
ATOM     10  H52 UNL     1      -3.195  -2.659   1.296  1.00  0.00     0.277 HD
HETATM   11  C9  UNL     1      -4.355  -1.731  -0.112  1.00  0.00     0.233 C 
HETATM   12  C10 UNL     1      -4.240  -0.617  -1.112  1.00  0.00     0.055 C 
HETATM   13  C11 UNL     1      -4.127   0.734  -0.460  1.00  0.00     0.233 C 
HETATM   14  N6  UNL     1      -2.758   1.247  -0.487  1.00  0.00    -0.075 N 
ATOM     15  H61 UNL     1      -2.122   0.640  -1.004  1.00  0.00     0.277 HD
ATOM     16  H62 UNL     1      -2.299   1.188   0.422  1.00  0.00     0.277 HD
HETATM   17  C12 UNL     1      -2.785   2.583  -1.004  1.00  0.00     0.234 C 
HETATM   18  C13 UNL     1      -1.634   3.411  -0.446  1.00  0.00     0.047 C 
HETATM   19  C14 UNL     1      -0.310   2.692  -0.581  1.00  0.00     0.124 C 
HETATM   20  N7  UNL     1       0.431   2.782   0.661  1.00  0.00    -0.359 N 
ATOM     21  H7  UNL     1       0.428   3.677   1.150  1.00  0.00     0.162 HD
HETATM   22  C15 UNL     1       1.158   1.718   1.243  1.00  0.00     0.240 C 
HETATM   23  O1  UNL     1       1.566   1.728   2.436  1.00  0.00    -0.271 OA
ENDROOT
BRANCH   1  24
HETATM   24  C3  UNL     1       2.984   0.238   0.723  1.00  0.00     0.054 C 
BRANCH  24  25
HETATM   25  C2  UNL     1       3.834   1.354   0.165  1.00  0.00     0.124 C 
BRANCH  25  26
HETATM   26  N3  UNL     1       5.219   1.037   0.455  1.00  0.00    -0.367 N 
HETATM   27  C1  UNL     1       5.891   0.232  -0.293  1.00  0.00     0.196 C 
HETATM   28  N1  UNL     1       7.240  -0.029   0.057  1.00  0.00    -0.067 NA
HETATM   29  N2  UNL     1       5.265  -0.345  -1.408  1.00  0.00    -0.067 NA
ATOM     30  H3  UNL     1       5.670   1.459   1.267  1.00  0.00     0.161 HD
ENDBRANCH  25  26
ENDBRANCH  24  25
ENDBRANCH   1  24
TORSDOF 3
