REMARK  3 active torsions:
REMARK  status: ('A' for Active; 'I' for Inactive)
REMARK       I    between atoms: C1_4  and  N3_6 
REMARK    1  A    between atoms: N3_6  and  C2_8 
REMARK    2  A    between atoms: C2_8  and  C3_9 
REMARK    3  A    between atoms: C3_9  and  C4_10 
REMARK       I    between atoms: N4_13  and  C7_14 
REMARK       I    between atoms: N7_24  and  C12_25 
ROOT
HETATM    1  C2  UNL     1      -1.257   0.891   0.131  1.00  0.00     0.049 C 
HETATM    2  C9  UNL     1      -1.914   0.286   1.338  1.00  0.00     0.034 C 
HETATM    3  C10 UNL     1      -2.284  -1.164   1.162  1.00  0.00     0.022 C 
HETATM    4  C11 UNL     1      -3.219  -1.228  -0.050  1.00  0.00     0.127 C 
HETATM    5  N7  UNL     1      -2.352  -0.935  -1.168  1.00  0.00    -0.334 N 
HETATM    6  C12 UNL     1      -2.246  -1.895  -2.229  1.00  0.00     0.330 C 
HETATM    7  N8  UNL     1      -2.963  -3.096  -2.194  1.00  0.00    -0.040 NA
HETATM    8  O2  UNL     1      -1.500  -1.684  -3.229  1.00  0.00    -0.251 OA
HETATM    9  C13 UNL     1      -1.635   0.311  -1.173  1.00  0.00     0.158 C 
ENDROOT
BRANCH   1  10
HETATM   10  N3  UNL     1      -1.728   2.299   0.111  1.00  0.00    -0.354 N 
HETATM   11  C1  UNL     1      -1.499   3.217   1.130  1.00  0.00     0.182 C 
HETATM   12  N1  UNL     1      -2.238   3.232   2.179  1.00  0.00    -0.374 N 
HETATM   13  N2  UNL     1      -0.439   4.152   1.011  1.00  0.00    -0.064 NA
ATOM     14  H12 UNL     1      -2.070   3.905   2.926  1.00  0.00     0.158 HD
ATOM     15  H11 UNL     1      -3.000   2.560   2.265  1.00  0.00     0.158 HD
ATOM     16  H3  UNL     1      -2.254   2.614  -0.704  1.00  0.00     0.163 HD
ENDBRANCH   1  10
BRANCH   1  17
HETATM   17  C3  UNL     1       0.213   1.051   0.278  1.00  0.00     0.047 C 
BRANCH  17  18
HETATM   18  C4  UNL     1       1.115  -0.071   0.369  1.00  0.00     0.082 C 
HETATM   19  C5  UNL     1       1.236  -1.055  -0.734  1.00  0.00     0.034 C 
HETATM   20  C6  UNL     1       2.566  -1.770  -0.394  1.00  0.00     0.135 C 
HETATM   21  N4  UNL     1       3.372  -0.613  -0.006  1.00  0.00    -0.292 N 
HETATM   22  C7  UNL     1       4.806  -0.562  -0.027  1.00  0.00     0.190 C 
HETATM   23  C8  UNL     1       2.534   0.460   0.398  1.00  0.00     0.230 C 
HETATM   24  N5  UNL     1       5.386   0.318  -0.768  1.00  0.00    -0.373 N 
HETATM   25  N6  UNL     1       5.560  -1.463   0.751  1.00  0.00    -0.063 NA
ATOM     26  H52 UNL     1       4.840   0.970  -1.331  1.00  0.00     0.158 HD
ATOM     27  H51 UNL     1       6.405   0.354  -0.783  1.00  0.00     0.158 HD
HETATM   28  O1  UNL     1       2.952   1.595   0.705  1.00  0.00    -0.273 OA
ENDBRANCH  17  18
ENDBRANCH   1  17
TORSDOF 3
