REMARK  3 active torsions:
REMARK  status: ('A' for Active; 'I' for Inactive)
REMARK    1  A    between atoms: C2_2  and  C3_3 
REMARK    2  A    between atoms: C3_3  and  C4_4 
REMARK    3  A    between atoms: C4_4  and  C5_5 
ROOT
HETATM    1  C5  UNL     1       1.373  -0.025   0.691  1.00  0.00     0.176 C 
HETATM    2  N1  UNL     1       1.437   1.327   1.133  1.00  0.00    -0.348 N 
ATOM      3  H1  UNL     1       2.293   1.592   1.620  1.00  0.00     0.163 HD
HETATM    4  C6  UNL     1       0.477   2.349   0.988  1.00  0.00     0.219 C 
HETATM    5  O1  UNL     1       0.821   3.500   0.525  1.00  0.00    -0.274 OA
HETATM    6  C7  UNL     1      -0.966   2.264   1.322  1.00  0.00     0.122 C 
HETATM    7  C8  UNL     1      -1.859   2.326   0.117  1.00  0.00     0.129 C 
HETATM    8  N2  UNL     1      -2.154   1.096  -0.515  1.00  0.00    -0.386 N 
ATOM      9  H2  UNL     1      -1.578   0.685  -1.250  1.00  0.00     0.160 HD
HETATM   10  C9  UNL     1      -3.356   0.486  -0.009  1.00  0.00     0.178 C 
HETATM   11  N3  UNL     1      -3.646  -0.818  -0.543  1.00  0.00    -0.330 N 
ATOM     12  H3  UNL     1      -4.639  -1.029  -0.638  1.00  0.00     0.169 HD
HETATM   13  C10 UNL     1      -2.782  -1.850  -0.956  1.00  0.00     0.172 C 
HETATM   14  S1  UNL     1      -3.109  -2.487  -2.452  1.00  0.00    -0.041 SA
HETATM   15  N4  UNL     1      -1.673  -2.441  -0.305  1.00  0.00    -0.365 N 
ATOM     16  H4  UNL     1      -0.862  -2.611  -0.900  1.00  0.00     0.161 HD
HETATM   17  C11 UNL     1      -1.517  -2.835   1.057  1.00  0.00     0.141 C 
HETATM   18  C12 UNL     1      -0.755  -1.886   1.914  1.00  0.00     0.142 C 
HETATM   19  N5  UNL     1       0.647  -2.086   1.992  1.00  0.00    -0.358 N 
ATOM     20  H5  UNL     1       0.999  -3.015   2.222  1.00  0.00     0.162 HD
HETATM   21  C13 UNL     1       1.577  -1.039   1.761  1.00  0.00     0.240 C 
HETATM   22  O2  UNL     1       2.632  -0.915   2.456  1.00  0.00    -0.271 OA
ENDROOT
BRANCH   1  23
HETATM   23  C4  UNL     1       2.518  -0.318  -0.302  1.00  0.00     0.038 C 
BRANCH  23  24
HETATM   24  C3  UNL     1       2.416   0.586  -1.506  1.00  0.00     0.029 C 
BRANCH  24  25
HETATM   25  C2  UNL     1       3.535   0.264  -2.423  1.00  0.00    -0.037 C 
HETATM   26  C1  UNL     1       4.416   1.198  -2.737  1.00  0.00     0.007 C 
ENDBRANCH  24  25
ENDBRANCH  23  24
ENDBRANCH   1  23
TORSDOF 3
