REMARK  5 active torsions:
REMARK  status: ('A' for Active; 'I' for Inactive)
REMARK    1  A    between atoms: C3_3  and  C4_4 
REMARK    2  A    between atoms: C4_4  and  O1_5 
REMARK    3  A    between atoms: C9_16  and  C10_17 
REMARK    4  A    between atoms: C10_17  and  C11_18 
REMARK    5  A    between atoms: C11_18  and  C12_19 
ROOT
HETATM    1  C1  UNL     1      -1.481   0.988  -1.622  1.00  0.00     0.027 C 
HETATM    2  C2  UNL     1      -1.827   0.401  -0.505  1.00  0.00    -0.002 C 
HETATM    3  C3  UNL     1      -3.200  -0.121  -0.370  1.00  0.00     0.009 C 
HETATM    4  C5  UNL     1      -3.693  -0.760   0.662  1.00  0.00     0.019 C 
HETATM    5  C6  UNL     1      -5.083  -1.165   0.530  1.00  0.00     0.055 C 
HETATM    6  C7  UNL     1      -2.998  -1.113   1.932  1.00  0.00     0.253 C 
HETATM    7  O2  UNL     1      -3.634  -1.952   2.620  1.00  0.00    -0.268 OA
HETATM    8  N1  UNL     1      -1.759  -0.657   2.469  1.00  0.00    -0.307 N 
ATOM      9  H1  UNL     1      -1.632  -0.756   3.476  1.00  0.00     0.170 HD
HETATM   10  C8  UNL     1      -0.678  -0.076   1.741  1.00  0.00     0.137 A 
HETATM   11  N2  UNL     1       0.572   0.126   2.195  1.00  0.00    -0.330 N 
ATOM     12  H2  UNL     1       0.895  -0.117   3.132  1.00  0.00     0.168 HD
HETATM   13  C9  UNL     1       1.333   0.688   1.252  1.00  0.00     0.086 A 
HETATM   14  N5  UNL     1       0.547   0.847   0.174  1.00  0.00    -0.342 N 
ATOM     15  H5  UNL     1       0.840   1.253  -0.715  1.00  0.00     0.167 HD
HETATM   16  C15 UNL     1      -0.702   0.382   0.452  1.00  0.00     0.088 A 
ENDROOT
BRANCH  13  17
HETATM   17  C10 UNL     1       2.766   1.103   1.263  1.00  0.00     0.106 C 
BRANCH  17  18
HETATM   18  C11 UNL     1       3.670   0.054   0.831  1.00  0.00     0.016 C 
BRANCH  18  19
HETATM   19  C12 UNL     1       4.445   0.150  -0.219  1.00  0.00     0.101 A 
HETATM   20  N3  UNL     1       5.335  -0.927  -0.612  1.00  0.00    -0.304 N 
HETATM   21  C13 UNL     1       6.045  -0.557  -1.777  1.00  0.00     0.327 A 
ATOM     22  H3  UNL     1       5.433  -1.816  -0.122  1.00  0.00     0.171 HD
HETATM   23  O3  UNL     1       6.904  -1.253  -2.394  1.00  0.00    -0.247 OA
HETATM   24  N4  UNL     1       5.660   0.741  -2.184  1.00  0.00    -0.274 N 
HETATM   25  C14 UNL     1       4.673   1.165  -1.214  1.00  0.00     0.276 A 
ATOM     26  H4  UNL     1       6.004   1.266  -2.988  1.00  0.00     0.173 HD
HETATM   27  O4  UNL     1       4.099   2.282  -1.254  1.00  0.00    -0.266 OA
ENDBRANCH  18  19
ENDBRANCH  17  18
ENDBRANCH  13  17
BRANCH   3  28
HETATM   28  C4  UNL     1      -4.012   0.134  -1.502  1.00  0.00     0.144 C 
BRANCH  28  29
HETATM   29  O1  UNL     1      -5.283  -0.206  -1.670  1.00  0.00    -0.372 OA
ATOM     30  H1  UNL     1      -5.828  -0.035  -2.429  1.00  0.00     0.216 HD
ENDBRANCH  28  29
ENDBRANCH   3  28
TORSDOF 5
