REMARK  4 active torsions:
REMARK  status: ('A' for Active; 'I' for Inactive)
REMARK    1  A    between atoms: C2_2  and  N1_3 
REMARK    2  A    between atoms: C2_2  and  C3_11 
REMARK    3  A    between atoms: N1_3  and  S1_5 
REMARK    4  A    between atoms: S1_5  and  N2_6 
ROOT
HETATM    1  C3  UNL     1       1.177  -0.575  -0.255  1.00  0.00     0.441 C 
HETATM    2  N3  UNL     1       0.650  -0.063  -1.506  1.00  0.00    -0.040 N 
ATOM      3  H31 UNL     1      -0.111  -0.651  -1.846  1.00  0.00     0.279 HD
ATOM      4  H32 UNL     1       1.319  -0.198  -2.264  1.00  0.00     0.279 HD
HETATM    5  C4  UNL     1       0.238   1.309  -1.429  1.00  0.00     0.262 C 
HETATM    6  C5  UNL     1      -0.982   1.588  -2.297  1.00  0.00     0.260 C 
HETATM    7  N4  UNL     1      -1.949   2.417  -1.650  1.00  0.00    -0.072 N 
ATOM      8  H41 UNL     1      -2.182   3.233  -2.216  1.00  0.00     0.277 HD
ATOM      9  H42 UNL     1      -1.552   2.896  -0.842  1.00  0.00     0.277 HD
HETATM   10  C6  UNL     1      -3.150   1.648  -1.288  1.00  0.00     0.259 C 
HETATM   11  C7  UNL     1      -3.121   1.399   0.204  1.00  0.00     0.259 C 
HETATM   12  N5  UNL     1      -4.009   0.374   0.636  1.00  0.00    -0.074 N 
ATOM     13  H51 UNL     1      -4.889   0.415   0.122  1.00  0.00     0.277 HD
ATOM     14  H52 UNL     1      -4.356   0.565   1.576  1.00  0.00     0.277 HD
HETATM   15  C8  UNL     1      -3.421  -0.965   0.559  1.00  0.00     0.232 C 
HETATM   16  C9  UNL     1      -2.400  -1.112   1.611  1.00  0.00     0.029 C 
HETATM   17  C10 UNL     1      -1.245  -1.986   1.324  1.00  0.00     0.032 C 
HETATM   18  C11 UNL     1      -0.708  -1.943  -0.064  1.00  0.00     0.275 C 
HETATM   19  N6  UNL     1       0.742  -1.934  -0.120  1.00  0.00     0.117 N 
HETATM   20  C12 UNL     1       1.349  -2.652   0.963  1.00  0.00     0.312 C 
ENDROOT
BRANCH   1  21
HETATM   21  C2  UNL     1       2.671  -0.409  -0.163  1.00  0.00     0.151 C 
HETATM   22  C1  UNL     1       3.419  -1.114  -1.239  1.00  0.00     0.037 C 
BRANCH  21  23
HETATM   23  N1  UNL     1       2.990   1.000  -0.210  1.00  0.00    -0.295 N 
ATOM     24  H1  UNL     1       2.809   1.603  -1.012  1.00  0.00     0.174 HD
BRANCH  23  25
HETATM   25  S1  UNL     1       3.724   1.540   1.281  1.00  0.00     0.313 S 
HETATM   26  O1  UNL     1       4.536   0.451   1.907  1.00  0.00    -0.183 OA
HETATM   27  O2  UNL     1       4.634   2.709   1.025  1.00  0.00    -0.183 OA
BRANCH  25  28
HETATM   28  N2  UNL     1       2.498   2.077   2.384  1.00  0.00    -0.312 N 
ATOM     29  H22 UNL     1       1.499   2.072   2.178  1.00  0.00     0.170 HD
ATOM     30  H21 UNL     1       2.926   2.392   3.254  1.00  0.00     0.170 HD
ENDBRANCH  25  28
ENDBRANCH  23  25
ENDBRANCH  21  23
ENDBRANCH   1  21
TORSDOF 4
