REMARK  1 active torsions:
REMARK  status: ('A' for Active; 'I' for Inactive)
REMARK       I    between atoms: C1_4  and  N3_6 
REMARK    1  A    between atoms: N3_6  and  C2_8 
ROOT
HETATM    1  C2  UNL     1       0.449   0.595  -0.002  1.00  0.00     0.692 A 
HETATM    2  N4  UNL     1       1.715   0.946  -0.295  1.00  0.00    -0.141 N 
ATOM      3  H4  UNL     1       2.096   1.787   0.138  1.00  0.00     0.189 HD
HETATM    4  C3  UNL     1       2.503   0.245  -1.129  1.00  0.00     0.342 A 
HETATM    5  O1  UNL     1       3.699   0.618  -1.377  1.00  0.00    -0.246 OA
HETATM    6  N5  UNL     1       1.983  -0.859  -1.691  1.00  0.00    -0.260 N 
ATOM      7  H5  UNL     1       2.544  -1.421  -2.331  1.00  0.00     0.175 HD
HETATM    8  C4  UNL     1       0.714  -1.221  -1.405  1.00  0.00     0.342 A 
HETATM    9  O2  UNL     1       0.248  -2.275  -1.955  1.00  0.00    -0.246 OA
HETATM   10  N6  UNL     1      -0.065  -0.512  -0.568  1.00  0.00    -0.141 N 
ATOM     11  H6  UNL     1      -1.021  -0.806  -0.368  1.00  0.00     0.189 HD
ENDROOT
BRANCH   1  12
HETATM   12  N3  UNL     1      -0.277   1.313   0.818  1.00  0.00    -0.163 N 
HETATM   13  C1  UNL     1      -1.608   0.898   1.094  1.00  0.00     0.200 C 
HETATM   14  N1  UNL     1      -2.570   1.506   0.509  1.00  0.00    -0.373 N 
HETATM   15  N2  UNL     1      -1.880  -0.161   1.993  1.00  0.00    -0.063 NA
ATOM     16  H12 UNL     1      -3.525   1.208   0.707  1.00  0.00     0.158 HD
ATOM     17  H11 UNL     1      -2.374   2.269  -0.139  1.00  0.00     0.158 HD
ATOM     18  H3  UNL     1       0.105   2.154   1.250  1.00  0.00     0.187 HD
ENDBRANCH   1  12
TORSDOF 1
