REMARK  3 active torsions:
REMARK  status: ('A' for Active; 'I' for Inactive)
REMARK    1  A    between atoms: N1_1  and  N2_4 
REMARK       I    between atoms: N2_4  and  C1_6 
REMARK    2  A    between atoms: C1_6  and  C2_8 
REMARK       I    between atoms: C2_8  and  N3_10 
REMARK    3  A    between atoms: N3_10  and  C3_12 
ROOT
HETATM    1  C2  UNL     1      -0.848  -1.006  -0.625  1.00  0.00     0.329 C 
HETATM    2  O2  UNL     1      -1.629  -1.987  -0.412  1.00  0.00    -0.261 OA
HETATM    3  N3  UNL     1       0.544  -1.284  -0.664  1.00  0.00    -0.151 N 
ATOM      4  H3  UNL     1       0.927  -1.812  -1.448  1.00  0.00     0.188 HD
ENDROOT
BRANCH   1   5
HETATM    5  C1  UNL     1      -1.409   0.311  -0.813  1.00  0.00     0.328 C 
HETATM    6  N2  UNL     1      -2.804   0.518  -0.762  1.00  0.00    -0.268 N 
ATOM      7  H2  UNL     1      -3.433  -0.267  -0.591  1.00  0.00     0.190 HD
HETATM    8  O1  UNL     1      -0.625   1.279  -1.024  1.00  0.00    -0.261 OA
BRANCH   6   9
HETATM    9  N1  UNL     1      -3.322   1.811  -0.948  1.00  0.00    -0.342 N 
ATOM     10  H12 UNL     1      -2.680   2.585  -1.118  1.00  0.00     0.176 HD
ATOM     11  H11 UNL     1      -4.330   1.961  -0.911  1.00  0.00     0.176 HD
ENDBRANCH   6   9
ENDBRANCH   1   5
BRANCH   3  12
HETATM   12  C3  UNL     1       1.345  -0.874   0.289  1.00  0.00     0.684 A 
HETATM   13  N4  UNL     1       2.669  -1.076   0.358  1.00  0.00    -0.200 N 
HETATM   14  C4  UNL     1       3.147  -0.503   1.490  1.00  0.00     0.123 A 
ATOM     15  H4  UNL     1       3.227  -1.580  -0.331  1.00  0.00     0.183 HD
HETATM   16  C5  UNL     1       2.056   0.060   2.113  1.00  0.00     0.123 A 
HETATM   17  N5  UNL     1       0.957  -0.176   1.365  1.00  0.00    -0.200 N 
ATOM     18  H5  UNL     1       0.006   0.122   1.580  1.00  0.00     0.183 HD
ENDBRANCH   3  12
TORSDOF 3
