REMARK  9 active torsions:
REMARK  status: ('A' for Active; 'I' for Inactive)
REMARK    1  A    between atoms: N1_4  and  S1_5 
REMARK    2  A    between atoms: S1_5  and  N2_8 
REMARK       I    between atoms: N2_8  and  C4_10 
REMARK       I    between atoms: C4_10  and  N4_14 
REMARK    3  A    between atoms: N4_14  and  C5_16 
REMARK    4  A    between atoms: C5_16  and  C6_17 
REMARK    5  A    between atoms: C6_17  and  C7_18 
REMARK    6  A    between atoms: C7_18  and  C8_19 
REMARK    7  A    between atoms: C8_19  and  C9_20 
REMARK    8  A    between atoms: C9_20  and  C10_21 
REMARK       I    between atoms: C10_21  and  N5_23 
REMARK    9  A    between atoms: N5_23  and  C11_25 
ROOT
HETATM    1  C6  UNL     1       1.832  -0.737   0.902  1.00  0.00     0.020 C 
ENDROOT
BRANCH   1   2
HETATM    2  C5  UNL     1       3.346  -0.657   0.758  1.00  0.00     0.138 C 
BRANCH   2   3
HETATM    3  N4  UNL     1       3.695   0.415  -0.143  1.00  0.00    -0.226 N 
HETATM    4  C4  UNL     1       5.058   0.664  -0.411  1.00  0.00     0.682 C 
HETATM    5  N2  UNL     1       6.031   0.302   0.539  1.00  0.00    -0.104 N 
HETATM    6  N3  UNL     1       5.387   1.220  -1.518  1.00  0.00    -0.234 N 
ATOM      7  H2  UNL     1       5.840  -0.491   1.152  1.00  0.00     0.198 HD
ATOM      8  H32 UNL     1       6.372   1.400  -1.712  1.00  0.00     0.174 HD
ATOM      9  H31 UNL     1       4.682   1.482  -2.207  1.00  0.00     0.174 HD
ATOM     10  H4  UNL     1       2.969   0.983  -0.579  1.00  0.00     0.177 HD
BRANCH   5  11
HETATM   11  S1  UNL     1       7.517   1.128   0.715  1.00  0.00     0.317 S 
HETATM   12  O1  UNL     1       7.318   2.558   0.281  1.00  0.00    -0.188 OA
HETATM   13  O2  UNL     1       7.931   1.139   2.159  1.00  0.00    -0.188 OA
BRANCH  11  14
HETATM   14  N1  UNL     1       8.798   0.485  -0.204  1.00  0.00    -0.186 NA
HETATM   15  C2  UNL     1       9.187  -0.940   0.122  1.00  0.00     0.086 A 
HETATM   16  C1  UNL     1      10.683  -1.024   0.330  1.00  0.00     0.029 C 
HETATM   17  C3  UNL     1       8.608  -0.570  -1.152  1.00  0.00     0.130 A 
ENDBRANCH  11  14
ENDBRANCH   5  11
ENDBRANCH   2   3
ENDBRANCH   1   2
BRANCH   1  18
HETATM   18  C7  UNL     1       1.313   0.551   1.445  1.00  0.00     0.002 C 
BRANCH  18  19
HETATM   19  C8  UNL     1      -0.171   0.517   1.608  1.00  0.00     0.009 C 
BRANCH  19  20
HETATM   20  C9  UNL     1      -0.922   0.275   0.335  1.00  0.00     0.103 C 
BRANCH  20  21
HETATM   21  C10 UNL     1      -2.387   0.257   0.540  1.00  0.00     0.218 C 
HETATM   22  O3  UNL     1      -2.831   0.441   1.696  1.00  0.00    -0.274 OA
HETATM   23  N5  UNL     1      -3.265   0.039  -0.527  1.00  0.00    -0.352 N 
ATOM     24  H5  UNL     1      -2.857  -0.110  -1.450  1.00  0.00     0.163 HD
BRANCH  23  25
HETATM   25  C11 UNL     1      -4.704   0.008  -0.423  1.00  0.00     0.034 C 
HETATM   26  C12 UNL     1      -5.257  -0.282  -1.818  1.00  0.00     0.035 C 
HETATM   27  C13 UNL     1      -6.755  -0.345  -1.787  1.00  0.00    -0.012 C 
HETATM   28  C14 UNL     1      -7.248   1.030  -1.376  1.00  0.00     0.009 C 
HETATM   29  C18 UNL     1      -7.235  -1.413  -0.849  1.00  0.00     0.009 C 
HETATM   30  C15 UNL     1      -6.768   1.282   0.020  1.00  0.00    -0.012 C 
HETATM   31  C16 UNL     1      -7.217   0.216   0.986  1.00  0.00     0.009 C 
HETATM   32  C20 UNL     1      -5.254   1.345   0.041  1.00  0.00     0.035 C 
HETATM   33  C17 UNL     1      -6.670  -1.115   0.526  1.00  0.00    -0.012 C 
HETATM   34  C19 UNL     1      -5.170  -1.126   0.463  1.00  0.00     0.035 C 
ENDBRANCH  23  25
ENDBRANCH  20  21
ENDBRANCH  19  20
ENDBRANCH  18  19
ENDBRANCH   1  18
TORSDOF 9
