REMARK  11 active torsions:
REMARK  status: ('A' for Active; 'I' for Inactive)
REMARK    1  A    between atoms: C2_2  and  C3_3 
REMARK    2  A    between atoms: C6_6  and  C7_7 
REMARK    3  A    between atoms: C7_7  and  C8_8 
REMARK    4  A    between atoms: C8_8  and  C9_9 
REMARK    5  A    between atoms: C9_9  and  C10_10 
REMARK    6  A    between atoms: C10_10  and  N1_11 
REMARK    7  A    between atoms: C12_13  and  C13_14 
REMARK    8  A    between atoms: C13_14  and  N2_15 
REMARK    9  A    between atoms: C16_21  and  C17_22 
REMARK   10  A    between atoms: C17_22  and  N6_26 
REMARK   11  A    between atoms: N6_26  and  C18_28 
ROOT
HETATM    1  N1  UNL     1      -2.287  -0.394  -0.118  1.00  0.00     0.100 N 
HETATM    2  C11 UNL     1      -2.866  -0.197  -1.435  1.00  0.00     0.279 C 
HETATM    3  C12 UNL     1      -4.226   0.420  -1.206  1.00  0.00     0.034 C 
HETATM    4  C15 UNL     1      -4.017   1.251   0.016  1.00  0.00     0.052 C 
HETATM    5  C16 UNL     1      -2.948   0.495   0.779  1.00  0.00     0.289 C 
ENDROOT
BRANCH   1   6
HETATM    6  C10 UNL     1      -0.866  -0.132  -0.272  1.00  0.00     0.273 C 
BRANCH   6   7
HETATM    7  C9  UNL     1      -0.072  -0.329   0.978  1.00  0.00     0.030 C 
BRANCH   7   8
HETATM    8  C8  UNL     1       1.375  -0.013   0.679  1.00  0.00     0.002 C 
BRANCH   8   9
HETATM    9  C7  UNL     1       1.967  -0.889  -0.401  1.00  0.00     0.005 C 
BRANCH   9  10
HETATM   10  C6  UNL     1       3.420  -0.418  -0.548  1.00  0.00    -0.014 C 
HETATM   11  C5  UNL     1       4.153  -1.194  -1.593  1.00  0.00     0.005 C 
HETATM   12  C4  UNL     1       5.476  -0.475  -1.839  1.00  0.00     0.005 C 
HETATM   13  C3  UNL     1       6.011   0.035  -0.540  1.00  0.00    -0.015 C 
HETATM   14  C22 UNL     1       5.586  -0.890   0.553  1.00  0.00     0.005 C 
HETATM   15  C21 UNL     1       4.087  -0.658   0.779  1.00  0.00     0.005 C 
BRANCH  13  16
HETATM   16  C2  UNL     1       7.494   0.301  -0.575  1.00  0.00     0.000 C 
HETATM   17  C1  UNL     1       7.926   0.810   0.783  1.00  0.00     0.005 C 
ENDBRANCH  13  16
ENDBRANCH   9  10
ENDBRANCH   8   9
ENDBRANCH   7   8
ENDBRANCH   6   7
ENDBRANCH   1   6
BRANCH   5  18
HETATM   18  C17 UNL     1      -3.625  -0.223   1.901  1.00  0.00     0.105 C 
HETATM   19  N5  UNL     1      -3.575  -1.508   1.977  1.00  0.00    -0.387 N 
ATOM     20  H52 UNL     1      -3.065  -2.018   1.256  1.00  0.00     0.157 HD
ATOM     21  H51 UNL     1      -4.037  -1.998   2.743  1.00  0.00     0.157 HD
BRANCH  18  22
HETATM   22  N6  UNL     1      -4.330   0.482   2.897  1.00  0.00    -0.363 N 
ATOM     23  H6  UNL     1      -5.115   1.083   2.646  1.00  0.00     0.161 HD
BRANCH  22  24
HETATM   24  C18 UNL     1      -3.932   0.344   4.265  1.00  0.00     0.193 C 
HETATM   25  C19 UNL     1      -3.994  -1.057   4.839  1.00  0.00     0.157 C 
HETATM   26  N7  UNL     1      -4.643  -0.494   6.032  1.00  0.00    -0.357 N 
HETATM   27  C20 UNL     1      -4.945   0.701   5.284  1.00  0.00     0.242 C 
ATOM     28  H7  UNL     1      -4.809  -0.814   6.986  1.00  0.00     0.162 HD
HETATM   29  O1  UNL     1      -5.776   1.614   5.521  1.00  0.00    -0.271 OA
ENDBRANCH  22  24
ENDBRANCH  18  22
ENDBRANCH   5  18
BRANCH   3  30
HETATM   30  C13 UNL     1      -4.629   1.229  -2.416  1.00  0.00     0.128 C 
BRANCH  30  31
HETATM   31  N2  UNL     1      -4.688   0.380  -3.575  1.00  0.00    -0.366 N 
HETATM   32  C14 UNL     1      -3.975   0.462  -4.622  1.00  0.00     0.196 C 
HETATM   33  N3  UNL     1      -2.962   1.442  -4.835  1.00  0.00    -0.067 NA
HETATM   34  N4  UNL     1      -4.226  -0.513  -5.648  1.00  0.00    -0.067 NA
ATOM     35  H2  UNL     1      -5.378  -0.370  -3.553  1.00  0.00     0.161 HD
ENDBRANCH  30  31
ENDBRANCH   3  30
TORSDOF 11
