REMARK  12 active torsions:
REMARK  status: ('A' for Active; 'I' for Inactive)
REMARK    1  A    between atoms: C3_4  and  N2_5 
REMARK    2  A    between atoms: C3_4  and  C14_17 
REMARK    3  A    between atoms: N2_5  and  C4_7 
REMARK    4  A    between atoms: C4_7  and  C5_8 
REMARK    5  A    between atoms: C5_8  and  C6_9 
REMARK    6  A    between atoms: C6_9  and  C7_10 
REMARK    7  A    between atoms: C7_10  and  C8_11 
REMARK    8  A    between atoms: C14_17  and  N3_18 
REMARK    9  A    between atoms: C14_17  and  C16_22 
REMARK   10  A    between atoms: N3_18  and  C15_20 
REMARK   11  A    between atoms: C16_22  and  O2_23 
REMARK   12  A    between atoms: C16_22  and  N4_25 
REMARK       I    between atoms: N5_29  and  C20_30 
ROOT
HETATM    1  C14 UNL     1      -2.151   0.145  -2.188  1.00  0.00     0.209 C 
ENDROOT
BRANCH   1   2
HETATM    2  C3  UNL     1      -0.720   0.506  -2.517  1.00  0.00     0.056 C 
HETATM    3  C2  UNL     1      -0.216   1.699  -2.519  1.00  0.00     0.045 C 
HETATM    4  C1  UNL     1       1.181   1.974  -2.946  1.00  0.00     0.067 C 
HETATM    5  N1  UNL     1      -0.964   2.857  -2.137  1.00  0.00    -0.105 NA
BRANCH   2   6
HETATM    6  N2  UNL     1       0.132  -0.594  -2.951  1.00  0.00    -0.390 N 
ATOM      7  H2  UNL     1       0.605  -0.519  -3.852  1.00  0.00     0.159 HD
BRANCH   6   8
HETATM    8  C4  UNL     1       0.331  -1.759  -2.179  1.00  0.00     0.119 C 
BRANCH   8   9
HETATM    9  C5  UNL     1       1.259  -1.560  -0.973  1.00  0.00     0.020 C 
BRANCH   9  10
HETATM   10  C6  UNL     1       2.635  -1.315  -1.461  1.00  0.00     0.002 C 
BRANCH  10  11
HETATM   11  C7  UNL     1       3.707  -1.005  -0.523  1.00  0.00     0.005 C 
BRANCH  11  12
HETATM   12  C8  UNL     1       4.115  -1.964   0.553  1.00  0.00    -0.014 C 
HETATM   13  C9  UNL     1       5.296  -1.247   1.236  1.00  0.00     0.004 C 
HETATM   14  C10 UNL     1       5.687  -1.856   2.532  1.00  0.00     0.000 C 
HETATM   15  C11 UNL     1       4.488  -1.610   3.470  1.00  0.00     0.000 C 
HETATM   16  C12 UNL     1       3.397  -2.473   2.942  1.00  0.00     0.000 C 
HETATM   17  C13 UNL     1       3.007  -2.212   1.507  1.00  0.00     0.004 C 
ENDBRANCH  11  12
ENDBRANCH  10  11
ENDBRANCH   9  10
ENDBRANCH   8   9
ENDBRANCH   6   8
ENDBRANCH   2   6
ENDBRANCH   1   2
BRANCH   1  18
HETATM   18  N3  UNL     1      -2.811  -0.018  -3.512  1.00  0.00    -0.351 N 
ATOM     19  H3  UNL     1      -2.935   0.801  -4.108  1.00  0.00     0.163 HD
BRANCH  18  20
HETATM   20  C15 UNL     1      -3.267  -1.266  -3.964  1.00  0.00     0.349 C 
HETATM   21  O1  UNL     1      -3.120  -2.281  -3.251  1.00  0.00    -0.284 OA
ENDBRANCH  18  20
ENDBRANCH   1  18
BRANCH   1  22
HETATM   22  C16 UNL     1      -2.910   1.088  -1.405  1.00  0.00     0.144 C 
BRANCH  22  23
HETATM   23  O2  UNL     1      -3.850   1.718  -2.046  1.00  0.00    -0.348 OA
ATOM     24  H2  UNL     1      -4.350   2.339  -1.530  1.00  0.00     0.219 HD
ENDBRANCH  22  23
BRANCH  22  25
HETATM   25  N4  UNL     1      -2.750   1.400  -0.020  1.00  0.00    -0.347 N 
HETATM   26  C17 UNL     1      -1.822   0.795   0.879  1.00  0.00     0.128 C 
HETATM   27  C18 UNL     1      -2.637   0.081   1.946  1.00  0.00     0.040 C 
HETATM   28  C19 UNL     1      -3.358   1.132   2.752  1.00  0.00     0.129 C 
HETATM   29  N5  UNL     1      -3.967   2.124   1.915  1.00  0.00    -0.339 N 
HETATM   30  C20 UNL     1      -5.070   2.873   2.480  1.00  0.00     0.185 C 
HETATM   31  C21 UNL     1      -3.594   2.440   0.566  1.00  0.00     0.253 C 
HETATM   32  N6  UNL     1      -5.720   2.354   3.402  1.00  0.00    -0.374 N 
HETATM   33  N7  UNL     1      -5.336   4.157   1.939  1.00  0.00    -0.064 NA
ATOM     34  H62 UNL     1      -5.529   1.431   3.791  1.00  0.00     0.158 HD
ATOM     35  H61 UNL     1      -6.497   2.882   3.800  1.00  0.00     0.158 HD
ENDBRANCH  22  25
ENDBRANCH   1  22
TORSDOF 12
