REMARK  12 active torsions:
REMARK  status: ('A' for Active; 'I' for Inactive)
REMARK    1  A    between atoms: C2_2  and  C3_3 
REMARK    2  A    between atoms: C2_2  and  C4_6 
REMARK    3  A    between atoms: C3_3  and  O1_4 
REMARK    4  A    between atoms: C4_6  and  O2_7 
REMARK    5  A    between atoms: C4_6  and  C5_9 
REMARK    6  A    between atoms: C5_9  and  C6_10 
REMARK    7  A    between atoms: C8_13  and  C9_14 
REMARK    8  A    between atoms: C10_15  and  C11_16 
REMARK    9  A    between atoms: C11_16  and  O4_17 
REMARK   10  A    between atoms: C11_16  and  C12_19 
REMARK   11  A    between atoms: C12_19  and  O5_20 
REMARK   12  A    between atoms: C12_19  and  C13_22 
ROOT
HETATM    1  C6  UNL     1       2.767  -0.295  -0.202  1.00  0.00     0.128 C 
HETATM    2  O3  UNL     1       2.196  -0.064  -1.432  1.00  0.00    -0.385 OA
HETATM    3  C7  UNL     1       0.933  -0.622  -1.448  1.00  0.00     0.177 C 
HETATM    4  C8  UNL     1       0.430  -0.404  -0.013  1.00  0.00     0.038 C 
HETATM    5  C19 UNL     1       1.721  -0.772   0.743  1.00  0.00     0.020 C 
HETATM    6  C20 UNL     1       1.770  -2.283   0.929  1.00  0.00     0.013 C 
ENDROOT
BRANCH   4   7
HETATM    7  C9  UNL     1      -0.648  -1.325   0.349  1.00  0.00    -0.021 C 
HETATM    8  C10 UNL     1      -1.773  -0.909   0.903  1.00  0.00     0.003 C 
BRANCH   8   9
HETATM    9  C11 UNL     1      -1.984   0.521   1.176  1.00  0.00     0.169 C 
BRANCH   9  10
HETATM   10  O4  UNL     1      -1.060   0.844   2.216  1.00  0.00    -0.389 OA
ATOM     11  H4  UNL     1      -1.196   1.767   2.392  1.00  0.00     0.210 HD
ENDBRANCH   9  10
BRANCH   9  12
HETATM   12  C12 UNL     1      -3.317   0.914   1.713  1.00  0.00     0.154 C 
BRANCH  12  13
HETATM   13  O5  UNL     1      -3.184   2.307   2.026  1.00  0.00    -0.392 OA
ATOM     14  H5  UNL     1      -4.034   2.558   2.368  1.00  0.00     0.210 HD
ENDBRANCH  12  13
BRANCH  12  15
HETATM   15  C13 UNL     1      -4.482   0.800   0.800  1.00  0.00     0.017 C 
HETATM   16  C14 UNL     1      -4.790  -0.571   0.282  1.00  0.00     0.007 C 
HETATM   17  C15 UNL     1      -6.221  -0.619  -0.260  1.00  0.00     0.000 C 
HETATM   18  C16 UNL     1      -6.666   0.764  -0.674  1.00  0.00     0.000 C 
HETATM   19  C17 UNL     1      -6.858   1.596   0.566  1.00  0.00     0.000 C 
HETATM   20  C18 UNL     1      -5.702   1.381   1.498  1.00  0.00     0.007 C 
ENDBRANCH  12  15
ENDBRANCH   9  12
ENDBRANCH   8   9
ENDBRANCH   4   7
BRANCH   1  21
HETATM   21  C5  UNL     1       3.934  -1.254  -0.259  1.00  0.00     0.064 C 
BRANCH  21  22
HETATM   22  C4  UNL     1       5.040  -0.732  -1.151  1.00  0.00     0.126 C 
BRANCH  22  23
HETATM   23  C2  UNL     1       5.580   0.586  -0.676  1.00  0.00     0.034 C 
HETATM   24  C1  UNL     1       6.190   0.496   0.702  1.00  0.00     0.015 C 
BRANCH  23  25
HETATM   25  C3  UNL     1       6.695   0.988  -1.626  1.00  0.00     0.170 C 
BRANCH  25  26
HETATM   26  O1  UNL     1       7.176   2.239  -1.175  1.00  0.00    -0.400 OA
ATOM     27  H1  UNL     1       7.873   2.490  -1.769  1.00  0.00     0.209 HD
ENDBRANCH  25  26
ENDBRANCH  23  25
ENDBRANCH  22  23
BRANCH  22  28
HETATM   28  O2  UNL     1       4.505  -0.534  -2.421  1.00  0.00    -0.395 OA
ATOM     29  H2  UNL     1       4.163  -1.368  -2.722  1.00  0.00     0.210 HD
ENDBRANCH  22  28
ENDBRANCH  21  22
ENDBRANCH   1  21
TORSDOF 12
