REMARK  12 active torsions:
REMARK  status: ('A' for Active; 'I' for Inactive)
REMARK    1  A    between atoms: C2_2  and  O1_3 
REMARK    2  A    between atoms: C2_2  and  C3_5 
REMARK    3  A    between atoms: C3_5  and  O2_6 
REMARK    4  A    between atoms: C3_5  and  C4_8 
REMARK    5  A    between atoms: C4_8  and  C5_9 
REMARK    6  A    between atoms: C5_9  and  C6_10 
REMARK    7  A    between atoms: C6_10  and  C7_11 
REMARK    8  A    between atoms: C7_11  and  C8_12 
REMARK    9  A    between atoms: C8_12  and  C9_13 
REMARK   10  A    between atoms: C9_13  and  C10_14 
REMARK   11  A    between atoms: C12_17  and  O4_18 
REMARK   12  A    between atoms: C20_27  and  O5_28 
ROOT
HETATM    1  C10 UNL     1      -1.807  -0.921   1.350  1.00  0.00     0.151 C 
HETATM    2  O3  UNL     1      -3.093  -0.463   1.720  1.00  0.00    -0.368 OA
HETATM    3  C11 UNL     1      -3.713   0.203   0.729  1.00  0.00     0.103 A 
HETATM    4  C12 UNL     1      -3.552   1.645   0.450  1.00  0.00     0.155 C 
HETATM    5  C13 UNL     1      -4.933   1.696  -0.217  1.00  0.00     0.048 C 
HETATM    6  C14 UNL     1      -5.123   0.362   0.415  1.00  0.00     0.003 A 
HETATM    7  C15 UNL     1      -6.108   0.239   1.503  1.00  0.00     0.019 C 
HETATM    8  C16 UNL     1      -4.395  -0.766  -0.145  1.00  0.00     0.001 A 
HETATM    9  C17 UNL     1      -4.947  -2.085   0.369  1.00  0.00     0.019 C 
HETATM   10  C18 UNL     1      -3.652  -0.823  -1.408  1.00  0.00     0.016 C 
HETATM   11  C19 UNL     1      -2.171  -0.911  -1.144  1.00  0.00     0.035 C 
HETATM   12  C20 UNL     1      -1.792  -1.661   0.081  1.00  0.00     0.147 C 
ENDROOT
BRANCH   1  13
HETATM   13  C9  UNL     1      -0.784   0.133   1.578  1.00  0.00     0.034 C 
BRANCH  13  14
HETATM   14  C8  UNL     1       0.633  -0.202   1.219  1.00  0.00     0.002 C 
BRANCH  14  15
HETATM   15  C7  UNL     1       1.575   0.937   1.573  1.00  0.00     0.000 C 
BRANCH  15  16
HETATM   16  C6  UNL     1       3.007   0.576   1.229  1.00  0.00     0.000 C 
BRANCH  16  17
HETATM   17  C5  UNL     1       3.228   0.288  -0.211  1.00  0.00     0.002 C 
BRANCH  17  18
HETATM   18  C4  UNL     1       4.613  -0.089  -0.567  1.00  0.00     0.034 C 
BRANCH  18  19
HETATM   19  C3  UNL     1       5.692   0.900  -0.287  1.00  0.00     0.146 C 
BRANCH  19  20
HETATM   20  C2  UNL     1       7.055   0.369  -0.741  1.00  0.00     0.142 C 
HETATM   21  C1  UNL     1       7.077   0.128  -2.222  1.00  0.00     0.042 C 
BRANCH  20  22
HETATM   22  O1  UNL     1       7.303  -0.793  -0.021  1.00  0.00    -0.393 OA
ATOM     23  H1  UNL     1       7.289  -0.640   0.917  1.00  0.00     0.210 HD
ENDBRANCH  20  22
ENDBRANCH  19  20
BRANCH  19  24
HETATM   24  O2  UNL     1       5.877   1.126   1.096  1.00  0.00    -0.393 OA
ATOM     25  H2  UNL     1       5.032   1.455   1.378  1.00  0.00     0.210 HD
ENDBRANCH  19  24
ENDBRANCH  18  19
ENDBRANCH  17  18
ENDBRANCH  16  17
ENDBRANCH  15  16
ENDBRANCH  14  15
ENDBRANCH  13  14
ENDBRANCH   1  13
BRANCH  12  26
HETATM   26  O5  UNL     1      -0.524  -2.193  -0.122  1.00  0.00    -0.393 OA
ATOM     27  H5  UNL     1      -0.514  -2.672  -0.943  1.00  0.00     0.210 HD
ENDBRANCH  12  26
BRANCH   4  28
HETATM   28  O4  UNL     1      -3.626   2.430   1.615  1.00  0.00    -0.392 OA
ATOM     29  H4  UNL     1      -3.522   3.357   1.436  1.00  0.00     0.210 HD
ENDBRANCH   4  28
TORSDOF 12
