REMARK  9 active torsions:
REMARK  status: ('A' for Active; 'I' for Inactive)
REMARK    1  A    between atoms: C2_3  and  C4_6 
REMARK       I    between atoms: C4_6  and  N3_8 
REMARK    2  A    between atoms: N3_8  and  N4_10 
REMARK    3  A    between atoms: N4_10  and  C5_12 
REMARK    4  A    between atoms: C6_15  and  N6_16 
REMARK    5  A    between atoms: N6_16  and  N7_18 
REMARK    6  A    between atoms: C7_23  and  N9_24 
REMARK    7  A    between atoms: N9_24  and  N10_26 
REMARK    8  A    between atoms: C8_28  and  C9_29 
REMARK    9  A    between atoms: C12_36  and  O2_37 
ROOT
HETATM    1  N1  UNL     1      -7.303  -0.215   2.732  1.00  0.00    -0.195 NA
HETATM    2  C1  UNL     1      -6.952  -0.475   1.682  1.00  0.00     0.088 C 
HETATM    3  C2  UNL     1      -6.476  -0.818   0.325  1.00  0.00     0.292 C 
HETATM    4  C3  UNL     1      -7.424  -1.758  -0.230  1.00  0.00     0.088 C 
HETATM    5  N2  UNL     1      -8.175  -2.527  -0.675  1.00  0.00    -0.195 NA
ENDROOT
BRANCH   3   6
HETATM    6  C4  UNL     1      -5.124  -1.417   0.441  1.00  0.00     0.268 C 
HETATM    7  O1  UNL     1      -4.858  -2.582   0.048  1.00  0.00    -0.269 OA
HETATM    8  N3  UNL     1      -4.078  -0.634   1.027  1.00  0.00    -0.254 N 
ATOM      9  H3  UNL     1      -4.279   0.312   1.351  1.00  0.00     0.190 HD
BRANCH   8  10
HETATM   10  N4  UNL     1      -2.791  -1.146   1.161  1.00  0.00    -0.128 N 
ATOM     11  H4  UNL     1      -2.671  -2.102   1.496  1.00  0.00     0.205 HD
BRANCH  10  12
HETATM   12  C5  UNL     1      -1.738  -0.441   0.872  1.00  0.00     0.726 A 
HETATM   13  N5  UNL     1      -1.819   0.819   0.428  1.00  0.00    -0.018 N 
HETATM   14  C6  UNL     1      -0.733   1.548   0.129  1.00  0.00     0.725 A 
ATOM     15  H5  UNL     1      -2.741   1.241   0.313  1.00  0.00     0.203 HD
HETATM   16  N8  UNL     1       0.486   0.965   0.291  1.00  0.00    -0.018 N 
HETATM   17  C7  UNL     1       0.592  -0.306   0.738  1.00  0.00     0.726 A 
ATOM     18  H8  UNL     1       1.330   1.494   0.072  1.00  0.00     0.203 HD
HETATM   19  N13 UNL     1      -0.526  -1.001   1.026  1.00  0.00    -0.018 N 
ATOM     20  H13 UNL     1      -0.452  -1.961   1.364  1.00  0.00     0.203 HD
BRANCH  14  21
HETATM   21  N6  UNL     1      -0.837   2.756  -0.296  1.00  0.00    -0.138 N 
ATOM     22  H6  UNL     1      -0.007   3.304  -0.522  1.00  0.00     0.205 HD
BRANCH  21  23
HETATM   23  N7  UNL     1      -2.110   3.299  -0.441  1.00  0.00    -0.331 N 
ATOM     24  H72 UNL     1      -2.930   2.738  -0.211  1.00  0.00     0.177 HD
ATOM     25  H71 UNL     1      -2.193   4.258  -0.778  1.00  0.00     0.177 HD
ENDBRANCH  21  23
ENDBRANCH  14  21
BRANCH  17  26
HETATM   26  N9  UNL     1       1.716  -0.881   0.900  1.00  0.00    -0.131 N 
ATOM     27  H9  UNL     1       1.747  -1.842   1.240  1.00  0.00     0.205 HD
BRANCH  26  28
HETATM   28  N10 UNL     1       2.905  -0.209   0.617  1.00  0.00    -0.295 N 
HETATM   29  C8  UNL     1       3.775  -0.746  -0.129  1.00  0.00     0.141 C 
ATOM     30  H10 UNL     1       3.074   0.716   1.012  1.00  0.00     0.186 HD
BRANCH  29  31
HETATM   31  C9  UNL     1       5.035  -0.063  -0.443  1.00  0.00     0.098 A 
HETATM   32  N11 UNL     1       5.306   1.160   0.054  1.00  0.00    -0.297 N 
HETATM   33  N12 UNL     1       6.426   1.781  -0.218  1.00  0.00    -0.311 N 
ATOM     34  H11 UNL     1       4.621   1.614   0.658  1.00  0.00     0.187 HD
HETATM   35  C10 UNL     1       7.397   1.263  -1.008  1.00  0.00     0.110 A 
ATOM     36  H12 UNL     1       6.576   2.705   0.187  1.00  0.00     0.186 HD
HETATM   37  C11 UNL     1       7.177   0.012  -1.547  1.00  0.00     0.057 A 
HETATM   38  C12 UNL     1       5.991  -0.638  -1.255  1.00  0.00     0.096 A 
BRANCH  38  39
HETATM   39  O2  UNL     1       5.726  -1.894  -1.772  1.00  0.00    -0.358 OA
ATOM     40  H2  UNL     1       6.384  -2.290  -2.331  1.00  0.00     0.217 HD
ENDBRANCH  38  39
ENDBRANCH  29  31
ENDBRANCH  26  28
ENDBRANCH  17  26
ENDBRANCH  10  12
ENDBRANCH   8  10
ENDBRANCH   3   6
TORSDOF 9
