REMARK  3 active torsions:
REMARK  status: ('A' for Active; 'I' for Inactive)
REMARK    1  A    between atoms: C3_9  and  N4_10 
REMARK    2  A    between atoms: N4_10  and  O2_12 
REMARK    3  A    between atoms: O2_12  and  C4_13 
ROOT
HETATM    1  C1  UNL     1      -0.968  -1.540   0.309  1.00  0.00     0.180 C 
HETATM    2  N1  UNL     1      -1.534  -0.217   0.136  1.00  0.00    -0.133 N 
HETATM    3  C2  UNL     1      -2.776   0.232   0.387  1.00  0.00     0.355 A 
HETATM    4  O1  UNL     1      -3.697  -0.477   0.842  1.00  0.00    -0.244 OA
HETATM    5  N2  UNL     1      -2.857   1.546   0.073  1.00  0.00    -0.236 N 
ATOM      6  H2  UNL     1      -3.675   2.149   0.160  1.00  0.00     0.192 HD
HETATM    7  N3  UNL     1      -1.665   1.887  -0.367  1.00  0.00    -0.126 N 
ATOM      8  H3  UNL     1      -1.406   2.821  -0.684  1.00  0.00     0.206 HD
HETATM    9  C3  UNL     1      -0.840   0.832  -0.339  1.00  0.00     0.723 A 
ENDROOT
BRANCH   9  10
HETATM   10  N4  UNL     1       0.381   0.845  -0.704  1.00  0.00    -0.086 N 
ATOM     11  H4  UNL     1       0.761   1.728  -1.044  1.00  0.00     0.214 HD
BRANCH  10  12
HETATM   12  O2  UNL     1       1.217  -0.228  -0.675  1.00  0.00    -0.190 OA
BRANCH  12  13
HETATM   13  C4  UNL     1       2.533  -0.097  -0.228  1.00  0.00     0.250 C 
HETATM   14  N5  UNL     1       2.878   1.076   0.186  1.00  0.00    -0.366 N 
ATOM     15  H52 UNL     1       2.234   1.867   0.189  1.00  0.00     0.159 HD
ATOM     16  H51 UNL     1       3.840   1.172   0.513  1.00  0.00     0.159 HD
HETATM   17  N6  UNL     1       3.428  -1.195  -0.232  1.00  0.00    -0.055 NA
ENDBRANCH  12  13
ENDBRANCH  10  12
ENDBRANCH   9  10
TORSDOF 3
