REMARK  3 active torsions:
REMARK  status: ('A' for Active; 'I' for Inactive)
REMARK    1  A    between atoms: O1_2  and  N1_3 
REMARK    2  A    between atoms: C4_14  and  N5_15 
REMARK    3  A    between atoms: C5_18  and  N6_19 
ROOT
HETATM    1  N1  UNL     1      -0.889  -0.272  -0.070  1.00  0.00    -0.150 N 
HETATM    2  C2  UNL     1      -0.207  -1.356   0.348  1.00  0.00     0.366 C 
HETATM    3  O2  UNL     1      -0.939  -2.334   0.652  1.00  0.00    -0.244 OA
HETATM    4  N2  UNL     1       1.139  -1.539   0.485  1.00  0.00    -0.139 N 
ATOM      5  H2  UNL     1       1.425  -2.420   0.912  1.00  0.00     0.189 HD
HETATM    6  C3  UNL     1       2.145  -0.704   0.128  1.00  0.00     0.681 C 
HETATM    7  N3  UNL     1       3.292  -1.268   0.114  1.00  0.00    -0.234 N 
ATOM      8  H31 UNL     1       4.049  -0.640  -0.155  1.00  0.00     0.174 HD
ATOM      9  H32 UNL     1       3.338  -2.256   0.363  1.00  0.00     0.174 HD
HETATM   10  N4  UNL     1       2.084   0.600  -0.201  1.00  0.00    -0.173 N 
ATOM     11  H4  UNL     1       2.968   1.066  -0.407  1.00  0.00     0.186 HD
HETATM   12  C4  UNL     1       0.970   1.347  -0.284  1.00  0.00     0.161 C 
HETATM   13  C5  UNL     1      -0.363   0.939  -0.330  1.00  0.00     0.176 C 
ENDROOT
BRANCH  12  14
HETATM   14  N5  UNL     1       1.145   2.607  -0.327  1.00  0.00    -0.382 N 
ATOM     15  H52 UNL     1       2.120   2.905  -0.293  1.00  0.00     0.157 HD
ATOM     16  H51 UNL     1       0.299   3.174  -0.390  1.00  0.00     0.157 HD
ENDBRANCH  12  14
BRANCH   1  17
HETATM   17  O1  UNL     1      -2.241  -0.459  -0.233  1.00  0.00    -0.273 OA
HETATM   18  C1  UNL     1      -3.160  -0.486   0.833  1.00  0.00     0.238 C 
ENDBRANCH   1  17
BRANCH  13  19
HETATM   19  N6  UNL     1      -1.232   1.837  -0.668  1.00  0.00    -0.380 N 
ATOM     20  H62 UNL     1      -2.207   1.539  -0.702  1.00  0.00     0.157 HD
ATOM     21  H61 UNL     1      -0.833   2.755  -0.865  1.00  0.00     0.157 HD
ENDBRANCH  13  19
TORSDOF 3
