REMARK  12 active torsions:
REMARK  status: ('A' for Active; 'I' for Inactive)
REMARK    1  A    between atoms: C2_2  and  C3_3 
REMARK    2  A    between atoms: C3_3  and  C4_4 
REMARK    3  A    between atoms: C9_9  and  C10_10 
REMARK    4  A    between atoms: C10_10  and  C11_11 
REMARK    5  A    between atoms: N1_13  and  S1_14 
REMARK    6  A    between atoms: S1_14  and  C13_17 
REMARK    7  A    between atoms: C13_17  and  C14_18 
REMARK    8  A    between atoms: C21_27  and  N3_28 
REMARK    9  A    between atoms: N3_28  and  C22_30 
REMARK   10  A    between atoms: C22_30  and  C23_31 
REMARK   11  A    between atoms: C26_36  and  N5_37 
REMARK   12  A    between atoms: N5_37  and  C27_39 
ROOT
HETATM    1  C11 UNL     1      -0.541   0.163  -0.564  1.00  0.00     0.054 C 
HETATM    2  C12 UNL     1      -1.944  -0.549  -0.393  1.00  0.00     0.145 C 
HETATM    3  N1  UNL     1      -1.951  -1.859  -0.842  1.00  0.00    -0.310 N 
HETATM    4  C19 UNL     1      -1.222  -2.204  -2.007  1.00  0.00     0.140 C 
HETATM    5  C20 UNL     1       0.248  -1.796  -1.962  1.00  0.00     0.073 C 
HETATM    6  C21 UNL     1       0.401  -0.971  -0.699  1.00  0.00    -0.006 C 
ENDROOT
BRANCH   6   7
HETATM    7  N3  UNL     1       1.678  -0.936  -0.127  1.00  0.00    -0.370 N 
ATOM      8  H3  UNL     1       1.890  -1.642   0.578  1.00  0.00     0.165 HD
BRANCH   7   9
HETATM    9  C22 UNL     1       2.676  -0.034  -0.430  1.00  0.00     0.117 C 
BRANCH   9  10
HETATM   10  C23 UNL     1       3.968  -0.276   0.284  1.00  0.00     0.065 A 
HETATM   11  C24 UNL     1       4.865  -1.203  -0.232  1.00  0.00     0.049 A 
HETATM   12  C25 UNL     1       6.070  -1.469   0.376  1.00  0.00     0.108 A 
HETATM   13  N4  UNL     1       6.377  -0.808   1.501  1.00  0.00    -0.202 N 
HETATM   14  C26 UNL     1       5.522   0.088   2.009  1.00  0.00     0.684 A 
ATOM     15  H4  UNL     1       7.264  -0.988   1.971  1.00  0.00     0.183 HD
HETATM   16  N8  UNL     1       4.346   0.342   1.406  1.00  0.00    -0.190 N 
ATOM     17  H8  UNL     1       3.720   1.032   1.821  1.00  0.00     0.184 HD
BRANCH  14  18
HETATM   18  N5  UNL     1       5.859   0.710   3.114  1.00  0.00    -0.175 N 
ATOM     19  H5  UNL     1       5.231   1.399   3.528  1.00  0.00     0.186 HD
BRANCH  18  20
HETATM   20  C27 UNL     1       7.115   0.413   3.733  1.00  0.00     0.136 A 
HETATM   21  C28 UNL     1       8.329   1.037   3.505  1.00  0.00     0.069 A 
HETATM   22  C29 UNL     1       9.306   0.445   4.297  1.00  0.00     0.111 A 
HETATM   23  N6  UNL     1       8.674  -0.517   4.985  1.00  0.00    -0.310 N 
HETATM   24  N7  UNL     1       7.375  -0.535   4.648  1.00  0.00    -0.285 N 
ATOM     25  H6  UNL     1       9.114  -1.141   5.662  1.00  0.00     0.186 HD
ATOM     26  H7  UNL     1       6.683  -1.178   5.033  1.00  0.00     0.188 HD
ENDBRANCH  18  20
ENDBRANCH  14  18
ENDBRANCH   9  10
ENDBRANCH   7   9
ENDBRANCH   6   7
BRANCH   1  27
HETATM   27  C10 UNL     1      -0.793   1.089  -1.692  1.00  0.00     0.051 C 
BRANCH  27  28
HETATM   28  C9  UNL     1       0.257   1.988  -2.168  1.00  0.00    -0.051 A 
HETATM   29  C4  UNL     1       0.598   3.103  -1.447  1.00  0.00    -0.052 A 
HETATM   30  C5  UNL     1       1.673   3.878  -1.917  1.00  0.00     0.007 A 
HETATM   31  C6  UNL     1       2.363   3.552  -3.052  1.00  0.00     0.001 A 
HETATM   32  C7  UNL     1       2.013   2.419  -3.789  1.00  0.00     0.001 A 
HETATM   33  C8  UNL     1       0.981   1.677  -3.331  1.00  0.00     0.007 A 
BRANCH  29  34
HETATM   34  C3  UNL     1      -0.137   3.675  -0.292  1.00  0.00     0.039 C 
BRANCH  34  35
HETATM   35  C2  UNL     1      -1.058   4.799  -0.666  1.00  0.00     0.000 C 
HETATM   36  C1  UNL     1      -2.130   4.531  -1.638  1.00  0.00     0.005 C 
ENDBRANCH  34  35
ENDBRANCH  29  34
ENDBRANCH  27  28
ENDBRANCH   1  27
BRANCH   3  37
HETATM   37  S1  UNL     1      -2.954  -3.011  -0.186  1.00  0.00     0.229 S 
HETATM   38  O1  UNL     1      -2.583  -3.264   1.259  1.00  0.00    -0.206 OA
HETATM   39  O2  UNL     1      -2.654  -4.360  -0.870  1.00  0.00    -0.206 OA
BRANCH  37  40
HETATM   40  C13 UNL     1      -4.672  -2.772  -0.320  1.00  0.00     0.168 C 
BRANCH  40  41
HETATM   41  C14 UNL     1      -5.275  -1.554   0.255  1.00  0.00     0.004 C 
HETATM   42  C15 UNL     1      -6.788  -1.552   0.005  1.00  0.00     0.025 C 
HETATM   43  C16 UNL     1      -7.376  -2.782   0.616  1.00  0.00     0.114 C 
HETATM   44  N2  UNL     1      -6.909  -3.068   1.924  1.00  0.00    -0.421 N 
HETATM   45  C17 UNL     1      -6.169  -2.051   2.565  1.00  0.00     0.114 C 
ATOM     46  H2  UNL     1      -7.098  -3.962   2.378  1.00  0.00     0.153 HD
HETATM   47  C18 UNL     1      -5.102  -1.390   1.718  1.00  0.00     0.025 C 
ENDBRANCH  40  41
ENDBRANCH  37  40
ENDBRANCH   3  37
TORSDOF 12
