REMARK  15 active torsions:
REMARK  status: ('A' for Active; 'I' for Inactive)
REMARK    1  A    between atoms: C2_2  and  C3_3 
REMARK    2  A    between atoms: C4_4  and  O1_5 
REMARK    3  A    between atoms: C5_9  and  C6_10 
REMARK    4  A    between atoms: C6_10  and  C7_11 
REMARK    5  A    between atoms: C11_18  and  C12_19 
REMARK    6  A    between atoms: C12_19  and  C13_20 
REMARK    7  A    between atoms: C13_20  and  C14_21 
REMARK    8  A    between atoms: C14_21  and  C15_22 
REMARK    9  A    between atoms: C15_22  and  C16_23 
REMARK   10  A    between atoms: C16_23  and  C17_24 
REMARK   11  A    between atoms: C17_24  and  O3_25 
REMARK   12  A    between atoms: N3_27  and  O4_29 
REMARK   13  A    between atoms: C22_37  and  C23_38 
REMARK   14  A    between atoms: C23_38  and  N4_41 
REMARK   15  A    between atoms: C28_44  and  O7_45 
ROOT
HETATM    1  C3  UNL     1      -2.592   1.749  -1.053  1.00  0.00     0.063 C 
HETATM    2  C4  UNL     1      -1.840   2.781  -1.815  1.00  0.00     0.163 C 
HETATM    3  N1  UNL     1      -0.510   2.902  -2.180  1.00  0.00    -0.334 N 
ATOM      4  H1  UNL     1      -0.399   3.179  -3.155  1.00  0.00     0.168 HD
HETATM    5  C5  UNL     1       0.742   2.732  -1.518  1.00  0.00     0.080 C 
HETATM    6  C10 UNL     1       1.296   1.348  -1.549  1.00  0.00     0.264 C 
HETATM    7  O2  UNL     1       0.883   0.743  -2.617  1.00  0.00    -0.266 OA
HETATM    8  N2  UNL     1       2.108   0.642  -0.718  1.00  0.00    -0.342 N 
ATOM      9  H2  UNL     1       2.942   0.327  -1.214  1.00  0.00     0.163 HD
HETATM   10  C11 UNL     1       2.141   0.210   0.644  1.00  0.00     0.184 C 
HETATM   11  C18 UNL     1       0.912   0.303   1.443  1.00  0.00     0.281 C 
HETATM   12  O5  UNL     1       0.970   1.207   2.372  1.00  0.00    -0.263 OA
HETATM   13  O6  UNL     1      -0.166  -0.488   1.215  1.00  0.00    -0.319 OA
HETATM   14  C19 UNL     1      -0.545  -1.744   1.635  1.00  0.00     0.183 C 
HETATM   15  C20 UNL     1      -1.529  -2.439   0.677  1.00  0.00     0.020 C 
HETATM   16  C21 UNL     1      -1.960  -3.664   1.423  1.00  0.00     0.013 C 
HETATM   17  C22 UNL     1      -2.614  -1.492   0.259  1.00  0.00     0.104 C 
HETATM   18  C28 UNL     1      -2.182  -0.812  -0.974  1.00  0.00     0.124 C 
HETATM   19  N5  UNL     1      -2.461   0.415  -1.541  1.00  0.00    -0.335 N 
HETATM   20  C29 UNL     1      -2.692   0.371  -3.023  1.00  0.00     0.158 C 
ENDROOT
BRANCH  10  21
HETATM   21  C12 UNL     1       2.623  -1.238   0.764  1.00  0.00     0.035 C 
BRANCH  21  22
HETATM   22  C13 UNL     1       3.991  -1.476   0.232  1.00  0.00     0.002 C 
BRANCH  22  23
HETATM   23  C14 UNL     1       5.092  -0.704   0.869  1.00  0.00     0.001 C 
BRANCH  23  24
HETATM   24  C15 UNL     1       6.397  -1.079   0.196  1.00  0.00     0.008 C 
BRANCH  24  25
HETATM   25  C16 UNL     1       6.719  -2.552   0.319  1.00  0.00     0.086 C 
BRANCH  25  26
HETATM   26  C17 UNL     1       8.023  -2.754  -0.382  1.00  0.00     0.135 C 
HETATM   27  N3  UNL     1       9.072  -3.209   0.206  1.00  0.00    -0.251 N 
ATOM     28  H3  UNL     1       9.941  -3.329  -0.315  1.00  0.00     0.196 HD
BRANCH  26  29
HETATM   29  O3  UNL     1       8.098  -2.434  -1.724  1.00  0.00    -0.348 OA
ATOM     30  H3  UNL     1       8.927  -2.562  -2.170  1.00  0.00     0.219 HD
ENDBRANCH  26  29
BRANCH  27  31
HETATM   31  O4  UNL     1       9.017  -3.528   1.523  1.00  0.00    -0.288 OA
ATOM     32  H4  UNL     1       9.792  -3.864   1.957  1.00  0.00     0.244 HD
ENDBRANCH  27  31
ENDBRANCH  25  26
ENDBRANCH  24  25
ENDBRANCH  23  24
ENDBRANCH  22  23
ENDBRANCH  21  22
ENDBRANCH  10  21
BRANCH   5  33
HETATM   33  C6  UNL     1       1.076   3.539  -0.330  1.00  0.00     0.067 C 
BRANCH  33  34
HETATM   34  C7  UNL     1       1.188   5.007  -0.482  1.00  0.00    -0.017 C 
HETATM   35  C8  UNL     1       0.010   5.766  -0.951  1.00  0.00     0.010 C 
HETATM   36  C9  UNL     1       1.509   5.556   0.929  1.00  0.00     0.010 C 
ENDBRANCH  33  34
ENDBRANCH   5  33
BRANCH   2  37
HETATM   37  O1  UNL     1      -2.609   3.755  -2.208  1.00  0.00    -0.345 OA
ATOM     38  H1  UNL     1      -2.129   4.414  -2.695  1.00  0.00     0.219 HD
ENDBRANCH   2  37
BRANCH  17  39
HETATM   39  C23 UNL     1      -3.937  -2.222  -0.012  1.00  0.00     0.163 C 
HETATM   40  C24 UNL     1      -3.834  -3.241  -1.097  1.00  0.00     0.049 C 
HETATM   41  C25 UNL     1      -4.958  -1.193  -0.520  1.00  0.00     0.049 C 
BRANCH  39  42
HETATM   42  N4  UNL     1      -4.509  -2.726   1.205  1.00  0.00     0.089 N 
HETATM   43  C26 UNL     1      -4.881  -1.731   2.158  1.00  0.00     0.310 C 
HETATM   44  C27 UNL     1      -5.605  -3.611   0.978  1.00  0.00     0.310 C 
ENDBRANCH  39  42
ENDBRANCH  17  39
BRANCH   1  45
HETATM   45  C2  UNL     1      -2.608   2.005   0.409  1.00  0.00     0.057 C 
HETATM   46  C1  UNL     1      -3.285   3.387   0.581  1.00  0.00     0.011 C 
ENDBRANCH   1  45
BRANCH  18  47
HETATM   47  O7  UNL     1      -1.359  -1.534  -1.678  1.00  0.00    -0.349 OA
ATOM     48  H7  UNL     1      -1.080  -1.095  -2.473  1.00  0.00     0.219 HD
ENDBRANCH  18  47
TORSDOF 15
