REMARK  14 active torsions:
REMARK  status: ('A' for Active; 'I' for Inactive)
REMARK    1  A    between atoms: C4_4  and  N1_5 
REMARK    2  A    between atoms: N2_9  and  C6_10 
REMARK    3  A    between atoms: C6_10  and  C7_11 
REMARK       I    between atoms: C7_11  and  N3_13 
REMARK    4  A    between atoms: N3_13  and  C8_15 
REMARK    5  A    between atoms: C8_15  and  C9_16 
REMARK    6  A    between atoms: C9_16  and  C10_17 
REMARK    7  A    between atoms: N4_19  and  C12_20 
REMARK    8  A    between atoms: C15_28  and  N7_29 
REMARK    9  A    between atoms: C17_37  and  O5_38 
REMARK   10  A    between atoms: O5_38  and  N10_39 
REMARK   11  A    between atoms: N10_39  and  C18_41 
REMARK   12  A    between atoms: C19_44  and  C21_46 
REMARK   13  A    between atoms: C21_46  and  O6_47 
REMARK       I    between atoms: N12_51  and  C23_52 
REMARK   14  A    between atoms: C25_56  and  O10_57 
ROOT
HETATM    1  C12 UNL     1      -2.213  -1.400   0.638  1.00  0.00     0.167 A 
HETATM    2  N5  UNL     1      -2.508  -2.447   1.424  1.00  0.00    -0.331 N 
ATOM      3  H5  UNL     1      -1.816  -2.772   2.099  1.00  0.00     0.168 HD
HETATM    4  C13 UNL     1      -3.691  -3.078   1.345  1.00  0.00     0.148 A 
HETATM    5  C14 UNL     1      -4.003  -4.160   2.152  1.00  0.00     0.290 A 
HETATM    6  O4  UNL     1      -3.152  -4.555   2.978  1.00  0.00    -0.265 OA
HETATM    7  N6  UNL     1      -5.194  -4.791   2.066  1.00  0.00    -0.154 N 
ATOM      8  H6  UNL     1      -5.392  -5.585   2.675  1.00  0.00     0.187 HD
HETATM    9  C15 UNL     1      -6.119  -4.379   1.184  1.00  0.00     0.680 A 
HETATM   10  N8  UNL     1      -5.810  -3.329   0.404  1.00  0.00    -0.174 N 
ATOM     11  H8  UNL     1      -6.511  -3.014  -0.267  1.00  0.00     0.186 HD
HETATM   12  C16 UNL     1      -4.640  -2.663   0.446  1.00  0.00     0.155 A 
HETATM   13  N9  UNL     1      -4.368  -1.620  -0.349  1.00  0.00    -0.316 N 
ATOM     14  H9  UNL     1      -5.064  -1.299  -1.022  1.00  0.00     0.169 HD
HETATM   15  C17 UNL     1      -3.162  -0.984  -0.262  1.00  0.00     0.217 A 
ENDROOT
BRANCH   1  16
HETATM   16  N4  UNL     1      -0.970  -0.699   0.685  1.00  0.00    -0.312 N 
HETATM   17  C11 UNL     1       0.261  -1.261   0.865  1.00  0.00     0.108 A 
HETATM   18  C10 UNL     1       1.249  -0.319   0.862  1.00  0.00    -0.006 A 
HETATM   19  C25 UNL     1       0.632   0.884   0.674  1.00  0.00     0.089 A 
HETATM   20  C24 UNL     1      -0.730   0.619   0.569  1.00  0.00     0.135 A 
BRANCH  18  21
HETATM   21  C9  UNL     1       2.737  -0.469   1.020  1.00  0.00     0.062 C 
BRANCH  21  22
HETATM   22  C8  UNL     1       3.440  -0.367  -0.286  1.00  0.00     0.127 C 
BRANCH  22  23
HETATM   23  N3  UNL     1       4.865  -0.497  -0.112  1.00  0.00    -0.359 N 
HETATM   24  C7  UNL     1       5.406  -1.681   0.423  1.00  0.00     0.235 C 
HETATM   25  O3  UNL     1       4.713  -2.673   0.768  1.00  0.00    -0.272 OA
ATOM     26  H3  UNL     1       5.482   0.270  -0.377  1.00  0.00     0.162 HD
BRANCH  24  27
HETATM   27  C6  UNL     1       6.876  -1.821   0.613  1.00  0.00     0.234 C 
BRANCH  27  28
HETATM   28  N2  UNL     1       7.510  -0.609   0.160  1.00  0.00    -0.313 N 
HETATM   29  C5  UNL     1       7.689   0.379   1.074  1.00  0.00     0.130 A 
HETATM   30  C4  UNL     1       8.285   1.576   0.760  1.00  0.00     0.119 A 
HETATM   31  C3  UNL     1       8.714   1.761  -0.549  1.00  0.00     0.049 A 
HETATM   32  C2  UNL     1       8.524   0.746  -1.462  1.00  0.00     0.009 A 
HETATM   33  C1  UNL     1       8.966   0.899  -2.871  1.00  0.00     0.054 C 
HETATM   34  C26 UNL     1       7.922  -0.449  -1.124  1.00  0.00     0.253 A 
HETATM   35  O11 UNL     1       7.742  -1.383  -1.944  1.00  0.00    -0.267 OA
BRANCH  30  36
HETATM   36  N1  UNL     1       8.469   2.612   1.725  1.00  0.00    -0.114 N 
HETATM   37  O1  UNL     1       9.016   3.674   1.380  1.00  0.00    -0.532 OA
HETATM   38  O2  UNL     1       8.045   2.421   3.004  1.00  0.00    -0.532 OA
ENDBRANCH  30  36
ENDBRANCH  27  28
ENDBRANCH  24  27
ENDBRANCH  22  23
ENDBRANCH  21  22
ENDBRANCH  18  21
BRANCH  19  39
HETATM   39  O10 UNL     1       1.214   2.144   0.597  1.00  0.00    -0.359 OA
ATOM     40  H10 UNL     1       0.785   2.981   0.466  1.00  0.00     0.217 HD
ENDBRANCH  19  39
ENDBRANCH   1  16
BRANCH  15  41
HETATM   41  O5  UNL     1      -2.906   0.100  -1.104  1.00  0.00    -0.201 OA
BRANCH  41  42
HETATM   42  N10 UNL     1      -3.853   0.500  -1.978  1.00  0.00    -0.088 N 
ATOM     43  H10 UNL     1      -3.842   0.162  -2.940  1.00  0.00     0.213 HD
BRANCH  42  44
HETATM   44  C18 UNL     1      -4.886   1.415  -1.534  1.00  0.00     0.714 A 
HETATM   45  N11 UNL     1      -5.623   1.274  -0.498  1.00  0.00    -0.204 N 
HETATM   46  C19 UNL     1      -6.565   2.336  -0.297  1.00  0.00     0.147 A 
ATOM     47  H11 UNL     1      -5.547   0.475   0.131  1.00  0.00     0.179 HD
HETATM   48  C20 UNL     1      -6.316   3.026   1.027  1.00  0.00     0.052 C 
HETATM   49  C22 UNL     1      -6.301   3.242  -1.440  1.00  0.00     0.279 A 
HETATM   50  O7  UNL     1      -6.878   4.340  -1.720  1.00  0.00    -0.269 OA
HETATM   51  N12 UNL     1      -5.255   2.626  -2.172  1.00  0.00    -0.051 N 
HETATM   52  C23 UNL     1      -4.646   3.111  -3.360  1.00  0.00     0.312 C 
HETATM   53  O8  UNL     1      -5.040   4.201  -3.858  1.00  0.00    -0.629 OA
HETATM   54  O9  UNL     1      -3.631   2.432  -3.999  1.00  0.00    -0.629 OA
BRANCH  46  55
HETATM   55  C21 UNL     1      -8.000   1.860  -0.407  1.00  0.00     0.205 C 
BRANCH  55  56
HETATM   56  O6  UNL     1      -8.171   0.880   0.587  1.00  0.00    -0.398 OA
ATOM     57  H6  UNL     1      -9.070   0.582   0.518  1.00  0.00     0.209 HD
ENDBRANCH  55  56
ENDBRANCH  46  55
ENDBRANCH  42  44
ENDBRANCH  41  42
ENDBRANCH  15  41
BRANCH   9  58
HETATM   58  N7  UNL     1      -7.270  -4.993   1.104  1.00  0.00    -0.234 N 
ATOM     59  H72 UNL     1      -7.505  -5.790   1.696  1.00  0.00     0.174 HD
ATOM     60  H71 UNL     1      -7.973  -4.680   0.434  1.00  0.00     0.174 HD
ENDBRANCH   9  58
TORSDOF 14
