REMARK  16 active torsions:
REMARK  status: ('A' for Active; 'I' for Inactive)
REMARK       I    between atoms: C2_2  and  N1_4 
REMARK       I    between atoms: N1_4  and  C3_5 
REMARK    1  A    between atoms: N1_4  and  C16_41 
REMARK    2  A    between atoms: C3_5  and  O3_7 
REMARK    3  A    between atoms: O3_7  and  C4_8 
REMARK    4  A    between atoms: C4_8  and  C5_9 
REMARK    5  A    between atoms: C6_10  and  C7_11 
REMARK    6  A    between atoms: C9_17  and  N3_18 
REMARK    7  A    between atoms: C10_22  and  N4_23 
REMARK    8  A    between atoms: C12_25  and  S1_26 
REMARK    9  A    between atoms: S1_26  and  N5_27 
REMARK   10  A    between atoms: C14_37  and  C15_38 
REMARK   11  A    between atoms: C16_41  and  C17_42 
REMARK   12  A    between atoms: C16_41  and  C20_54 
REMARK   13  A    between atoms: C17_42  and  S2_43 
REMARK   14  A    between atoms: S2_43  and  C18_44 
REMARK   15  A    between atoms: C20_54  and  O10_55 
REMARK   16  A    between atoms: C20_54  and  O11_57 
ROOT
HETATM    1  C5  UNL     1       1.656  -0.886  -1.545  1.00  0.00     0.011 A 
HETATM    2  C6  UNL     1       2.421  -0.109  -2.318  1.00  0.00     0.127 A 
HETATM    3  N2  UNL     1       3.864  -0.017  -2.142  1.00  0.00    -0.261 N 
HETATM    4  C8  UNL     1       4.907   0.736  -2.736  1.00  0.00     0.263 C 
HETATM    5  O6  UNL     1       4.842   1.800  -3.337  1.00  0.00    -0.270 OA
HETATM    6  C9  UNL     1       6.177  -0.034  -2.486  1.00  0.00     0.307 C 
HETATM    7  C10 UNL     1       5.937  -0.577  -1.120  1.00  0.00     0.213 C 
HETATM    8  C13 UNL     1       4.445  -0.808  -1.112  1.00  0.00     0.115 A 
HETATM    9  N8  UNL     1       3.706  -1.542  -0.423  1.00  0.00    -0.359 N 
ATOM     10  H8  UNL     1       4.177  -2.079   0.305  1.00  0.00     0.162 HD
HETATM   11  C14 UNL     1       2.304  -1.733  -0.511  1.00  0.00     0.218 A 
ENDROOT
BRANCH   1  12
HETATM   12  C4  UNL     1       0.209  -1.012  -1.733  1.00  0.00     0.220 C 
BRANCH  12  13
HETATM   13  O3  UNL     1      -0.584  -0.558  -0.613  1.00  0.00    -0.299 OA
BRANCH  13  14
HETATM   14  C3  UNL     1      -1.958  -0.662  -0.687  1.00  0.00     0.374 C 
HETATM   15  N1  UNL     1      -2.926  -0.262   0.256  1.00  0.00    -0.226 N 
HETATM   16  C2  UNL     1      -2.505   0.433   1.400  1.00  0.00     0.229 C 
HETATM   17  C1  UNL     1      -1.103   0.776   1.650  1.00  0.00     0.118 C 
HETATM   18  O1  UNL     1      -3.326   0.795   2.263  1.00  0.00    -0.273 OA
HETATM   19  O2  UNL     1      -2.381  -1.202  -1.772  1.00  0.00    -0.237 OA
BRANCH  15  20
HETATM   20  C16 UNL     1      -4.326  -0.576  -0.024  1.00  0.00     0.085 C 
BRANCH  20  21
HETATM   21  C17 UNL     1      -4.928  -1.672   0.755  1.00  0.00     0.083 C 
BRANCH  21  22
HETATM   22  S2  UNL     1      -5.093  -1.687   2.474  1.00  0.00    -0.073 SA
BRANCH  22  23
HETATM   23  C18 UNL     1      -6.374  -0.721   3.235  1.00  0.00     0.134 A 
HETATM   24  N9  UNL     1      -7.324   0.041   2.739  1.00  0.00    -0.286 N 
HETATM   25  N10 UNL     1      -8.148   0.654   3.493  1.00  0.00    -0.279 N 
ATOM     26  H9  UNL     1      -7.403   0.144   1.727  1.00  0.00     0.188 HD
HETATM   27  C19 UNL     1      -8.028   0.506   4.815  1.00  0.00     0.159 A 
ATOM     28  H10 UNL     1      -8.881   1.243   3.097  1.00  0.00     0.189 HD
HETATM   29  N11 UNL     1      -8.779   1.052   5.748  1.00  0.00    -0.379 N 
HETATM   30  S3  UNL     1      -6.694  -0.541   4.938  1.00  0.00    -0.026 SA
ATOM     31 2H11 UNL     1      -9.579   1.680   5.674  1.00  0.00     0.158 HD
ATOM     32 1H11 UNL     1      -8.687   0.939   6.758  1.00  0.00     0.158 HD
ENDBRANCH  22  23
ENDBRANCH  21  22
ENDBRANCH  20  21
BRANCH  20  33
HETATM   33  C20 UNL     1      -5.173   0.579  -0.399  1.00  0.00     0.306 C 
BRANCH  33  34
HETATM   34  O10 UNL     1      -5.299   1.610   0.481  1.00  0.00    -0.366 OA
ATOM     35  H10 UNL     1      -5.842   2.351   0.240  1.00  0.00     0.213 HD
ENDBRANCH  33  34
BRANCH  33  36
HETATM   36  O11 UNL     1      -6.471   0.069  -0.655  1.00  0.00    -0.366 OA
ATOM     37  H11 UNL     1      -7.014   0.810  -0.896  1.00  0.00     0.213 HD
ENDBRANCH  33  36
ENDBRANCH  20  33
ENDBRANCH  15  20
ENDBRANCH  13  14
ENDBRANCH  12  13
ENDBRANCH   1  12
BRANCH   2  38
HETATM   38  C7  UNL     1       1.873   0.671  -3.396  1.00  0.00     0.227 C 
HETATM   39  O4  UNL     1       2.582   1.387  -4.173  1.00  0.00    -0.643 OA
HETATM   40  O5  UNL     1       0.525   0.749  -3.723  1.00  0.00    -0.643 OA
ENDBRANCH   2  38
BRANCH  11  41
HETATM   41  C15 UNL     1       1.690  -1.762   0.811  1.00  0.00     0.201 C 
HETATM   42  O8  UNL     1       2.219  -1.115   1.752  1.00  0.00    -0.646 OA
HETATM   43  O9  UNL     1       0.544  -2.483   1.090  1.00  0.00    -0.646 OA
ENDBRANCH  11  41
BRANCH   6  44
HETATM   44  N3  UNL     1       6.274  -1.139  -3.418  1.00  0.00    -0.064 N 
ATOM     45  H33 UNL     1       5.450  -1.739  -3.388  1.00  0.00     0.275 HD
ATOM     46  H32 UNL     1       6.197  -0.831  -4.387  1.00  0.00     0.275 HD
ATOM     47  H31 UNL     1       7.134  -1.660  -3.249  1.00  0.00     0.275 HD
ENDBRANCH   6  44
BRANCH   7  48
HETATM   48  N4  UNL     1       6.354   0.315  -0.104  1.00  0.00    -0.269 N 
HETATM   49  C11 UNL     1       6.017   1.630   0.046  1.00  0.00     0.151 A 
HETATM   50  C12 UNL     1       6.648   2.047   1.152  1.00  0.00     0.151 A 
HETATM   51  N6  UNL     1       7.328   1.118   1.675  1.00  0.00    -0.273 N 
HETATM   52  N7  UNL     1       7.167   0.008   0.912  1.00  0.00    -0.019 NA
ATOM     53  H6  UNL     1       7.896   1.190   2.519  1.00  0.00     0.185 HD
BRANCH  50  54
HETATM   54  S1  UNL     1       6.373   3.636   1.815  1.00  0.00     0.163 S 
HETATM   55  O7  UNL     1       7.718   3.899   0.968  1.00  0.00    -0.229 OA
BRANCH  54  56
HETATM   56  N5  UNL     1       5.592   4.224   2.528  1.00  0.00    -0.344 N 
ATOM     57  H52 UNL     1       4.740   4.057   3.064  1.00  0.00     0.166 HD
ATOM     58  H51 UNL     1       5.431   5.154   2.916  1.00  0.00     0.166 HD
ENDBRANCH  54  56
ENDBRANCH  50  54
ENDBRANCH   7  48
TORSDOF 16
