REMARK  13 active torsions:
REMARK  status: ('A' for Active; 'I' for Inactive)
REMARK    1  A    between atoms: O1_2  and  C2_3 
REMARK    2  A    between atoms: C2_3  and  C3_4 
REMARK    3  A    between atoms: C3_4  and  O2_5 
REMARK    4  A    between atoms: O2_5  and  N1_6 
REMARK    5  A    between atoms: N1_6  and  S1_8 
REMARK    6  A    between atoms: S1_8  and  C4_10 
REMARK    7  A    between atoms: C4_10  and  C5_11 
REMARK    8  A    between atoms: C6_16  and  N4_17 
REMARK    9  A    between atoms: C9_23  and  C10_24 
REMARK   10  A    between atoms: C14_31  and  O7_32 
REMARK   11  A    between atoms: C16_38  and  C17_39 
REMARK   12  A    between atoms: C17_39  and  C18_40 
REMARK   13  A    between atoms: C18_40  and  O9_41 
ROOT
HETATM    1  C5  UNL     1       1.800   0.389   0.018  1.00  0.00     0.213 C 
HETATM    2  N2  UNL     1       1.596  -0.530  -1.077  1.00  0.00    -0.298 N 
ATOM      3  H2  UNL     1       1.356  -0.140  -1.988  1.00  0.00     0.183 HD
HETATM    4  N3  UNL     1       1.704  -1.899  -0.972  1.00  0.00    -0.133 N 
ATOM      5  H3  UNL     1       2.465  -2.328  -1.498  1.00  0.00     0.205 HD
HETATM    6  C6  UNL     1       0.958  -2.710  -0.288  1.00  0.00     0.713 C 
HETATM    7  N5  UNL     1      -0.150  -2.302   0.506  1.00  0.00    -0.094 N 
ATOM      8  H5  UNL     1      -0.206  -2.682   1.451  1.00  0.00     0.213 HD
HETATM    9  O4  UNL     1      -1.119  -1.472   0.133  1.00  0.00    -0.242 OA
HETATM   10  C9  UNL     1      -2.411  -1.992   0.205  1.00  0.00     0.192 C 
HETATM   11  C11 UNL     1      -2.476  -2.796   1.498  1.00  0.00     0.064 C 
HETATM   12  C12 UNL     1      -3.903  -3.235   1.712  1.00  0.00     0.078 C 
HETATM   13  S2  UNL     1      -4.826  -1.823   1.052  1.00  0.00    -0.157 SA
HETATM   14  C13 UNL     1      -3.416  -0.892   0.386  1.00  0.00     0.130 C 
HETATM   15  C14 UNL     1      -3.852  -0.147  -0.805  1.00  0.00     0.190 C 
HETATM   16  C15 UNL     1      -4.711   0.999  -0.341  1.00  0.00     0.101 A 
HETATM   17  N6  UNL     1      -5.610   0.964   0.657  1.00  0.00    -0.260 N 
ATOM     18  H6  UNL     1      -5.813   0.145   1.230  1.00  0.00     0.194 HD
HETATM   19  O8  UNL     1      -6.180   2.114   0.788  1.00  0.00    -0.239 OA
HETATM   20  C16 UNL     1      -5.691   2.936  -0.100  1.00  0.00     0.116 A 
HETATM   21  C19 UNL     1      -4.740   2.258  -0.848  1.00  0.00     0.157 A 
HETATM   22  O10 UNL     1      -3.956   2.703  -1.895  1.00  0.00    -0.231 OA
HETATM   23  N7  UNL     1      -2.605   2.647  -2.095  1.00  0.00    -0.229 N 
ATOM     24  H7  UNL     1      -2.268   2.065  -2.862  1.00  0.00     0.198 HD
HETATM   25  C20 UNL     1      -1.632   3.334  -1.320  1.00  0.00     0.241 C 
HETATM   26  O11 UNL     1      -0.691   3.998  -1.866  1.00  0.00    -0.271 OA
HETATM   27  C21 UNL     1      -1.577   3.371   0.170  1.00  0.00     0.114 C 
HETATM   28  C22 UNL     1      -0.511   2.417   0.684  1.00  0.00     0.112 C 
HETATM   29  C23 UNL     1       0.832   2.739   0.134  1.00  0.00     0.219 C 
HETATM   30  O12 UNL     1       1.326   3.895   0.194  1.00  0.00    -0.274 OA
HETATM   31  N8  UNL     1       1.614   1.733  -0.490  1.00  0.00    -0.338 N 
ATOM     32  H8  UNL     1       2.081   1.975  -1.364  1.00  0.00     0.164 HD
ENDROOT
BRANCH   1  33
HETATM   33  C4  UNL     1       3.278   0.354   0.437  1.00  0.00     0.181 C 
BRANCH  33  34
HETATM   34  S1  UNL     1       3.806  -1.230   0.974  1.00  0.00     0.137 S 
HETATM   35  O3  UNL     1       3.020  -1.534   2.456  1.00  0.00    -0.234 OA
BRANCH  34  36
HETATM   36  N1  UNL     1       5.496  -1.069   1.398  1.00  0.00    -0.214 N 
ATOM     37  H1  UNL     1       6.000  -1.693   2.028  1.00  0.00     0.205 HD
BRANCH  36  38
HETATM   38  O2  UNL     1       6.033  -0.011   0.779  1.00  0.00    -0.270 OA
BRANCH  38  39
HETATM   39  C3  UNL     1       7.110  -0.426  -0.001  1.00  0.00     0.228 C 
BRANCH  39  40
HETATM   40  C2  UNL     1       7.750   0.715  -0.716  1.00  0.00     0.195 C 
BRANCH  40  41
HETATM   41  O1  UNL     1       8.248   1.702   0.092  1.00  0.00    -0.394 OA
HETATM   42  C1  UNL     1       9.218   1.204   0.941  1.00  0.00     0.201 C 
ENDBRANCH  40  41
ENDBRANCH  39  40
ENDBRANCH  38  39
ENDBRANCH  36  38
ENDBRANCH  34  36
ENDBRANCH  33  34
ENDBRANCH   1  33
BRANCH   6  43
HETATM   43  N4  UNL     1       1.231  -4.134  -0.301  1.00  0.00    -0.224 N 
HETATM   44  C7  UNL     1       1.468  -4.755  -1.596  1.00  0.00     0.168 C 
HETATM   45  C8  UNL     1       1.275  -4.933   0.889  1.00  0.00     0.168 C 
ENDBRANCH   6  43
BRANCH  10  46
HETATM   46  C10 UNL     1      -2.609  -2.844  -0.972  1.00  0.00     0.213 C 
HETATM   47  O5  UNL     1      -1.718  -2.972  -1.877  1.00  0.00    -0.646 OA
HETATM   48  O6  UNL     1      -3.767  -3.592  -1.221  1.00  0.00    -0.646 OA
ENDBRANCH  10  46
BRANCH  15  49
HETATM   49  O7  UNL     1      -4.547  -0.912  -1.754  1.00  0.00    -0.388 OA
ATOM     50  H7  UNL     1      -4.829  -0.431  -2.523  1.00  0.00     0.210 HD
ENDBRANCH  15  49
BRANCH  20  51
HETATM   51  C17 UNL     1      -6.148   4.372  -0.219  1.00  0.00     0.096 C 
BRANCH  51  52
HETATM   52  C18 UNL     1      -5.144   5.316   0.369  1.00  0.00     0.170 C 
BRANCH  52  53
HETATM   53  O9  UNL     1      -4.991   4.985   1.717  1.00  0.00    -0.400 OA
ATOM     54  H9  UNL     1      -4.354   5.584   2.090  1.00  0.00     0.209 HD
ENDBRANCH  52  53
ENDBRANCH  51  52
ENDBRANCH  20  51
TORSDOF 13
