REMARK  20 active torsions:
REMARK  status: ('A' for Active; 'I' for Inactive)
REMARK    1  A    between atoms: O1_2  and  C2_3 
REMARK    2  A    between atoms: C3_5  and  C4_6 
REMARK    3  A    between atoms: C5_7  and  C6_8 
REMARK    4  A    between atoms: C6_8  and  O3_9 
REMARK    5  A    between atoms: C7_12  and  S1_13 
REMARK    6  A    between atoms: S1_13  and  C8_16 
REMARK    7  A    between atoms: C10_23  and  C11_24 
REMARK    8  A    between atoms: C12_27  and  C13_28 
REMARK    9  A    between atoms: C13_28  and  N3_29 
REMARK   10  A    between atoms: N3_29  and  C14_32 
REMARK   11  A    between atoms: C14_32  and  O10_35 
REMARK   12  A    between atoms: C17_38  and  O12_39 
REMARK   13  A    between atoms: O12_39  and  C18_40 
REMARK   14  A    between atoms: C18_40  and  N8_51 
REMARK   15  A    between atoms: N4_41  and  C19_43 
REMARK   16  A    between atoms: C19_43  and  C20_44 
REMARK   17  A    between atoms: C20_44  and  N5_45 
REMARK   18  A    between atoms: N5_45  and  N6_47 
REMARK   19  A    between atoms: N6_47  and  N7_48 
REMARK   20  A    between atoms: C22_55  and  N10_56 
ROOT
HETATM    1  C8  UNL     1      -6.857   0.149  -1.407  1.00  0.00     0.348 C 
HETATM    2  O7  UNL     1      -6.781  -0.164  -2.618  1.00  0.00    -0.263 OA
HETATM    3  C9  UNL     1      -7.392  -0.811  -0.493  1.00  0.00     0.155 C 
HETATM    4  N1  UNL     1      -7.816  -1.604   0.233  1.00  0.00    -0.187 NA
ENDROOT
BRANCH   1   5
HETATM    5  S1  UNL     1      -6.314   1.723  -0.893  1.00  0.00     0.276 S 
HETATM    6  O5  UNL     1      -6.572   2.769  -1.949  1.00  0.00    -0.214 OA
HETATM    7  O6  UNL     1      -7.160   2.112   0.292  1.00  0.00    -0.214 OA
BRANCH   5   8
HETATM    8  C7  UNL     1      -4.574   1.717  -0.441  1.00  0.00     0.455 C 
HETATM    9  O4  UNL     1      -3.748   1.502  -1.497  1.00  0.00    -0.340 OA
HETATM   10  C5  UNL     1      -2.673   0.680  -1.290  1.00  0.00     0.158 C 
HETATM   11  C4  UNL     1      -2.021   0.851   0.067  1.00  0.00     0.090 C 
HETATM   12  C10 UNL     1      -2.994   0.947   1.167  1.00  0.00     0.299 C 
HETATM   13  N2  UNL     1      -4.353   0.784   0.631  1.00  0.00    -0.020 N 
ATOM     14  H22 UNL     1      -5.063   0.863   1.359  1.00  0.00     0.282 HD
ATOM     15  H21 UNL     1      -4.539  -0.177   0.345  1.00  0.00     0.282 HD
BRANCH  10  16
HETATM   16  C6  UNL     1      -3.020  -0.687  -1.712  1.00  0.00     0.196 C 
BRANCH  16  17
HETATM   17  O3  UNL     1      -3.357  -0.585  -3.098  1.00  0.00    -0.398 OA
ATOM     18  H3  UNL     1      -3.581  -1.467  -3.370  1.00  0.00     0.209 HD
ENDBRANCH  16  17
ENDBRANCH  10  16
BRANCH  11  19
HETATM   19  C3  UNL     1      -0.865  -0.099   0.207  1.00  0.00     0.164 C 
HETATM   20  O2  UNL     1       0.084   0.039  -0.788  1.00  0.00    -0.351 OA
HETATM   21  C2  UNL     1       0.687   1.210  -1.013  1.00  0.00     0.294 C 
HETATM   22  C22 UNL     1       1.815   1.509  -0.040  1.00  0.00     0.293 C 
HETATM   23  C17 UNL     1       1.898   0.263   0.862  1.00  0.00     0.305 C 
HETATM   24  O11 UNL     1       0.920   0.291   1.821  1.00  0.00    -0.349 OA
HETATM   25  C12 UNL     1      -0.282  -0.287   1.566  1.00  0.00     0.180 C 
BRANCH  21  26
HETATM   26  O1  UNL     1       1.339   1.094  -2.271  1.00  0.00    -0.364 OA
HETATM   27  C1  UNL     1       1.023   2.130  -3.118  1.00  0.00     0.204 C 
ENDBRANCH  21  26
BRANCH  22  28
HETATM   28  N10 UNL     1       1.583   2.690   0.748  1.00  0.00    -0.066 N 
ATOM     29 3H10 UNL     1       1.396   3.495   0.150  1.00  0.00     0.275 HD
ATOM     30 2H10 UNL     1       0.689   2.632   1.235  1.00  0.00     0.275 HD
ATOM     31 1H10 UNL     1       2.340   2.891   1.401  1.00  0.00     0.275 HD
ENDBRANCH  22  28
BRANCH  23  32
HETATM   32  O12 UNL     1       3.129   0.390   1.550  1.00  0.00    -0.288 OA
BRANCH  32  33
HETATM   33  C18 UNL     1       4.366   0.398   0.973  1.00  0.00     0.230 C 
HETATM   34  N4  UNL     1       4.509  -0.281  -0.116  1.00  0.00    -0.354 N 
ATOM     35  H4  UNL     1       3.737  -0.802  -0.533  1.00  0.00     0.163 HD
BRANCH  34  36
HETATM   36  C19 UNL     1       5.828  -0.260  -0.711  1.00  0.00     0.145 C 
BRANCH  36  37
HETATM   37  C20 UNL     1       5.777  -0.013  -2.202  1.00  0.00     0.175 C 
BRANCH  37  38
HETATM   38  N5  UNL     1       5.147   1.275  -2.414  1.00  0.00    -0.251 N 
ATOM     39  H5  UNL     1       4.222   1.327  -2.840  1.00  0.00     0.197 HD
BRANCH  38  40
HETATM   40  N6  UNL     1       5.735   2.315  -2.077  1.00  0.00    -0.249 NA
BRANCH  40  41
HETATM   41  N7  UNL     1       6.423   3.334  -1.978  1.00  0.00    -0.261 N 
ATOM     42  H72 UNL     1       6.782   3.197  -2.923  1.00  0.00     0.193 HD
ATOM     43  H71 UNL     1       6.906   4.189  -1.701  1.00  0.00     0.193 HD
ENDBRANCH  40  41
ENDBRANCH  38  40
ENDBRANCH  37  38
ENDBRANCH  36  37
ENDBRANCH  34  36
BRANCH  33  44
HETATM   44  N8  UNL     1       5.410   1.136   1.587  1.00  0.00    -0.259 N 
HETATM   45  C21 UNL     1       5.277   2.527   1.714  1.00  0.00     0.185 C 
HETATM   46  N9  UNL     1       5.165   3.697   1.800  1.00  0.00    -0.172 NA
ATOM     47  H8  UNL     1       6.245   0.662   1.931  1.00  0.00     0.181 HD
ENDBRANCH  33  44
ENDBRANCH  32  33
ENDBRANCH  23  32
BRANCH  25  48
HETATM   48  C13 UNL     1      -0.324  -1.758   2.022  1.00  0.00     0.270 C 
BRANCH  48  49
HETATM   49  N3  UNL     1       0.665  -2.554   1.371  1.00  0.00    -0.041 N 
ATOM     50  H32 UNL     1       0.583  -2.481   0.357  1.00  0.00     0.280 HD
ATOM     51  H31 UNL     1       1.595  -2.152   1.492  1.00  0.00     0.280 HD
BRANCH  49  52
HETATM   52  C14 UNL     1       0.641  -3.944   1.795  1.00  0.00     0.216 C 
HETATM   53  C15 UNL     1       1.667  -4.682   0.921  1.00  0.00     0.078 C 
HETATM   54  C16 UNL     1      -0.694  -4.583   1.468  1.00  0.00     0.078 C 
BRANCH  52  55
HETATM   55  O10 UNL     1       0.972  -4.083   3.130  1.00  0.00    -0.365 OA
ATOM     56  H10 UNL     1       0.956  -4.992   3.407  1.00  0.00     0.212 HD
ENDBRANCH  52  55
ENDBRANCH  49  52
ENDBRANCH  48  49
ENDBRANCH  25  48
ENDBRANCH  11  19
BRANCH  12  57
HETATM   57  C11 UNL     1      -3.027   2.210   1.934  1.00  0.00     0.205 C 
HETATM   58  O8  UNL     1      -4.134   2.749   2.201  1.00  0.00    -0.646 OA
HETATM   59  O9  UNL     1      -1.850   2.843   2.380  1.00  0.00    -0.646 OA
ENDBRANCH  12  57
ENDBRANCH   5   8
ENDBRANCH   1   5
TORSDOF 20
