REMARK  15 active torsions:
REMARK  status: ('A' for Active; 'I' for Inactive)
REMARK       I    between atoms: N1_2  and  C2_3 
REMARK    1  A    between atoms: N1_2  and  C9_18 
REMARK    2  A    between atoms: C2_3  and  C3_5 
REMARK    3  A    between atoms: C3_5  and  O2_6 
REMARK    4  A    between atoms: C3_5  and  N2_8 
REMARK    5  A    between atoms: N2_8  and  C4_10 
REMARK    6  A    between atoms: C6_13  and  C7_14 
REMARK    7  A    between atoms: C11_21  and  O7_22 
REMARK    8  A    between atoms: C11_21  and  O8_24 
REMARK    9  A    between atoms: O8_24  and  C12_25 
REMARK   10  A    between atoms: C13_27  and  O10_28 
REMARK   11  A    between atoms: O10_28  and  C14_29 
REMARK   12  A    between atoms: C14_29  and  C15_31 
REMARK   13  A    between atoms: C15_31  and  N3_32 
REMARK   14  A    between atoms: C15_31  and  C16_36 
REMARK   15  A    between atoms: C16_36  and  C17_37 
ROOT
HETATM    1  C9  UNL     1      -1.227  -1.087  -1.713  1.00  0.00     0.260 C 
HETATM    2  O6  UNL     1      -1.646  -2.216  -2.347  1.00  0.00    -0.358 OA
HETATM    3  C10 UNL     1      -2.197  -3.104  -1.457  1.00  0.00     0.242 C 
HETATM    4  C11 UNL     1      -2.198  -2.506  -0.097  1.00  0.00     0.223 C 
HETATM    5  C13 UNL     1      -1.689  -1.103  -0.281  1.00  0.00     0.245 C 
ENDROOT
BRANCH   1   6
HETATM    6  N1  UNL     1       0.250  -1.044  -1.777  1.00  0.00    -0.324 N 
HETATM    7  C1  UNL     1       1.003  -2.140  -1.249  1.00  0.00     0.155 C 
HETATM    8  C2  UNL     1       0.835   0.071  -2.376  1.00  0.00     0.270 C 
HETATM    9  O1  UNL     1       0.049   0.982  -2.846  1.00  0.00    -0.268 OA
BRANCH   8  10
HETATM   10  C3  UNL     1       2.283   0.304  -2.530  1.00  0.00     0.308 C 
BRANCH  10  11
HETATM   11  O2  UNL     1       2.378   1.151  -3.704  1.00  0.00    -0.368 OA
ATOM     12  H2  UNL     1       3.311   1.301  -3.803  1.00  0.00     0.212 HD
ENDBRANCH  10  11
BRANCH  10  13
HETATM   13  N2  UNL     1       2.868   1.075  -1.496  1.00  0.00    -0.383 N 
ATOM     14  H2  UNL     1       3.199   2.008  -1.740  1.00  0.00     0.156 HD
BRANCH  13  15
HETATM   15  C4  UNL     1       3.028   0.671  -0.187  1.00  0.00     0.106 C 
HETATM   16  C5  UNL     1       4.031  -0.480   0.007  1.00  0.00     0.193 C 
HETATM   17  O3  UNL     1       5.251   0.156   0.214  1.00  0.00    -0.373 OA
HETATM   18  C6  UNL     1       4.899   1.092   1.196  1.00  0.00     0.224 C 
HETATM   19  C8  UNL     1       3.703   1.771   0.616  1.00  0.00     0.070 C 
BRANCH  18  20
HETATM   20  C7  UNL     1       6.011   2.033   1.415  1.00  0.00     0.203 C 
HETATM   21  O4  UNL     1       5.864   2.939   2.265  1.00  0.00    -0.646 OA
HETATM   22  O5  UNL     1       7.172   1.900   0.692  1.00  0.00    -0.646 OA
ENDBRANCH  18  20
ENDBRANCH  13  15
ENDBRANCH  10  13
ENDBRANCH   8  10
ENDBRANCH   1   6
BRANCH   5  23
HETATM   23  O10 UNL     1      -2.668  -0.131  -0.005  1.00  0.00    -0.304 OA
BRANCH  23  24
HETATM   24  C14 UNL     1      -2.573   0.910   0.868  1.00  0.00     0.290 C 
HETATM   25  O11 UNL     1      -1.468   1.011   1.505  1.00  0.00    -0.263 OA
BRANCH  24  26
HETATM   26  C15 UNL     1      -3.608   1.910   1.138  1.00  0.00     0.292 C 
BRANCH  26  27
HETATM   27  N3  UNL     1      -4.767   1.583   0.300  1.00  0.00    -0.065 N 
ATOM     28  H33 UNL     1      -4.534   1.510  -0.690  1.00  0.00     0.275 HD
ATOM     29  H32 UNL     1      -5.095   0.626   0.431  1.00  0.00     0.275 HD
ATOM     30  H31 UNL     1      -5.488   2.280   0.488  1.00  0.00     0.275 HD
ENDBRANCH  26  27
BRANCH  26  31
HETATM   31  C16 UNL     1      -4.079   1.933   2.551  1.00  0.00     0.156 C 
BRANCH  31  32
HETATM   32  C17 UNL     1      -5.127   2.954   2.795  1.00  0.00     0.175 C 
HETATM   33  O12 UNL     1      -5.582   3.044   3.965  1.00  0.00    -0.648 OA
HETATM   34  O13 UNL     1      -5.635   3.807   1.837  1.00  0.00    -0.648 OA
ENDBRANCH  31  32
ENDBRANCH  26  31
ENDBRANCH  24  26
ENDBRANCH  23  24
ENDBRANCH   5  23
BRANCH   4  35
HETATM   35  O7  UNL     1      -3.528  -2.508   0.369  1.00  0.00    -0.361 OA
ATOM     36  H7  UNL     1      -3.529  -2.126   1.239  1.00  0.00     0.213 HD
ENDBRANCH   4  35
BRANCH   4  37
HETATM   37  O8  UNL     1      -1.354  -3.168   0.831  1.00  0.00    -0.285 OA
BRANCH  37  38
HETATM   38  C12 UNL     1      -1.508  -4.489   1.179  1.00  0.00     0.401 C 
HETATM   39  O9  UNL     1      -2.436  -5.145   0.654  1.00  0.00    -0.276 OA
ENDBRANCH  37  38
ENDBRANCH   4  37
TORSDOF 15
