REMARK  12 active torsions:
REMARK  status: ('A' for Active; 'I' for Inactive)
REMARK    1  A    between atoms: O1_1  and  N1_3 
REMARK    2  A    between atoms: C1_5  and  N3_6 
REMARK    3  A    between atoms: N3_6  and  O2_7 
REMARK    4  A    between atoms: O2_7  and  C2_8 
REMARK    5  A    between atoms: C2_8  and  C3_9 
REMARK    6  A    between atoms: C3_9  and  O3_10 
REMARK    7  A    between atoms: O3_10  and  C4_11 
REMARK    8  A    between atoms: C4_11  and  C5_12 
REMARK    9  A    between atoms: C5_12  and  N4_13 
REMARK       I    between atoms: N4_13  and  C6_15 
REMARK   10  A    between atoms: C6_15  and  C7_17 
REMARK   11  A    between atoms: C7_17  and  C8_18 
REMARK   12  A    between atoms: C8_18  and  N5_19 
ROOT
HETATM    1  N4  UNL     1       1.552   2.149   0.812  1.00  0.00    -0.359 N 
ATOM      2  H4  UNL     1       2.021   2.011  -0.083  1.00  0.00     0.162 HD
HETATM    3  C6  UNL     1       0.151   2.578   0.832  1.00  0.00     0.222 C 
HETATM    4  O4  UNL     1      -0.293   2.713   1.991  1.00  0.00    -0.273 OA
ENDROOT
BRANCH   3   5
HETATM    5  C7  UNL     1      -0.527   2.787  -0.432  1.00  0.00     0.147 C 
BRANCH   5   6
HETATM    6  C8  UNL     1      -1.987   2.949  -0.474  1.00  0.00     0.067 C 
BRANCH   6   7
HETATM    7  N5  UNL     1      -2.770   1.875  -0.086  1.00  0.00    -0.391 N 
HETATM    8  C9  UNL     1      -2.938   1.401   1.200  1.00  0.00     0.123 C 
HETATM    9  C10 UNL     1      -4.255   0.614   1.289  1.00  0.00     0.047 C 
HETATM   10  C11 UNL     1      -4.443   0.095   2.711  1.00  0.00     0.234 C 
HETATM   11  N6  UNL     1      -5.723  -0.568   2.852  1.00  0.00    -0.074 N 
HETATM   12  C12 UNL     1      -5.631  -1.925   2.406  1.00  0.00     0.251 C 
ATOM     13  H62 UNL     1      -6.082  -0.504   3.805  1.00  0.00     0.277 HD
ATOM     14  H61 UNL     1      -6.469  -0.061   2.376  1.00  0.00     0.277 HD
HETATM   15  C13 UNL     1      -6.640  -2.259   1.329  1.00  0.00     0.141 C 
HETATM   16  N7  UNL     1      -6.034  -2.867   0.177  1.00  0.00    -0.420 N 
HETATM   17  C14 UNL     1      -6.229  -2.160  -1.052  1.00  0.00     0.115 C 
ATOM     18  H7  UNL     1      -5.505  -3.737   0.231  1.00  0.00     0.153 HD
HETATM   19  C15 UNL     1      -4.908  -2.104  -1.820  1.00  0.00     0.038 C 
HETATM   20  C16 UNL     1      -4.842  -0.886  -2.713  1.00  0.00     0.115 C 
HETATM   21  N8  UNL     1      -3.529  -0.385  -2.922  1.00  0.00    -0.420 N 
HETATM   22  C17 UNL     1      -2.879   0.207  -1.799  1.00  0.00     0.133 C 
ATOM     23  H8  UNL     1      -3.073  -0.446  -3.832  1.00  0.00     0.153 HD
HETATM   24  C18 UNL     1      -3.605   1.323  -1.131  1.00  0.00     0.141 C 
ENDBRANCH   6   7
ENDBRANCH   5   6
ENDBRANCH   3   5
BRANCH   1  25
HETATM   25  C5  UNL     1       2.276   1.919   2.029  1.00  0.00     0.148 C 
BRANCH  25  26
HETATM   26  C4  UNL     1       3.707   1.495   1.662  1.00  0.00     0.187 C 
BRANCH  26  27
HETATM   27  O3  UNL     1       4.246   2.522   0.955  1.00  0.00    -0.387 OA
BRANCH  27  28
HETATM   28  C3  UNL     1       5.526   2.428   0.510  1.00  0.00     0.195 C 
BRANCH  28  29
HETATM   29  C2  UNL     1       5.858   1.343  -0.443  1.00  0.00     0.222 C 
BRANCH  29  30
HETATM   30  O2  UNL     1       5.649   0.053   0.015  1.00  0.00    -0.281 OA
BRANCH  30  31
HETATM   31  N3  UNL     1       5.961  -0.871  -0.898  1.00  0.00    -0.049 NA
BRANCH  31  32
HETATM   32  C1  UNL     1       7.370  -1.182  -0.955  1.00  0.00     0.360 C 
HETATM   33  N2  UNL     1       7.765  -1.721   0.332  1.00  0.00    -0.057 NA
HETATM   34  N1  UNL     1       8.761  -2.699   0.192  1.00  0.00    -0.126 N 
HETATM   35  C20 UNL     1       9.454  -2.917  -1.020  1.00  0.00     0.283 C 
HETATM   36  C19 UNL     1       8.908  -2.322  -2.264  1.00  0.00     0.278 C 
HETATM   37  O6  UNL     1      10.502  -3.594  -1.058  1.00  0.00    -0.267 OA
HETATM   38  O5  UNL     1       7.547  -2.075  -1.999  1.00  0.00    -0.343 OA
BRANCH  34  39
HETATM   39  O1  UNL     1       9.054  -3.452   1.265  1.00  0.00    -0.268 OA
ATOM     40  H1  UNL     1       9.728  -4.114   1.170  1.00  0.00     0.246 HD
ENDBRANCH  34  39
ENDBRANCH  31  32
ENDBRANCH  30  31
ENDBRANCH  29  30
ENDBRANCH  28  29
ENDBRANCH  27  28
ENDBRANCH  26  27
ENDBRANCH  25  26
ENDBRANCH   1  25
TORSDOF 12
