REMARK  10 active torsions:
REMARK  status: ('A' for Active; 'I' for Inactive)
REMARK    1  A    between atoms: N1_1  and  N2_4 
REMARK    2  A    between atoms: N2_4  and  C1_5 
REMARK    3  A    between atoms: C1_5  and  N3_6 
REMARK    4  A    between atoms: C1_5  and  C2_10 
REMARK    5  A    between atoms: C2_10  and  C3_12 
REMARK       I    between atoms: C3_12  and  N4_14 
REMARK    6  A    between atoms: N4_14  and  N5_16 
REMARK    7  A    between atoms: N5_16  and  C4_18 
REMARK    8  A    between atoms: C4_18  and  N6_20 
REMARK    9  A    between atoms: N6_20  and  N7_22 
REMARK   10  A    between atoms: C5_24  and  C6_25 
ROOT
HETATM    1  N5  UNL     1       0.615   0.019   1.324  1.00  0.00    -0.272 N 
ATOM      2  H5  UNL     1      -0.206   0.419   0.870  1.00  0.00     0.189 HD
ENDROOT
BRANCH   1   3
HETATM    3  N4  UNL     1       1.835   0.681   1.296  1.00  0.00    -0.261 N 
HETATM    4  C3  UNL     1       2.887   0.153   0.511  1.00  0.00     0.309 C 
HETATM    5  O2  UNL     1       2.677  -0.906  -0.139  1.00  0.00    -0.263 OA
ATOM      6  H4  UNL     1       1.971   1.537   1.834  1.00  0.00     0.190 HD
BRANCH   4   7
HETATM    7  C2  UNL     1       4.192   0.821   0.455  1.00  0.00     0.265 C 
HETATM    8  O1  UNL     1       4.342   1.868   1.120  1.00  0.00    -0.283 OA
BRANCH   7   9
HETATM    9  C1  UNL     1       5.237   0.191  -0.398  1.00  0.00     0.373 C 
BRANCH   9  10
HETATM   10  N2  UNL     1       6.466   0.922  -0.423  1.00  0.00    -0.106 NA
BRANCH  10  11
HETATM   11  N1  UNL     1       6.326   2.121  -1.105  1.00  0.00    -0.346 N 
ATOM     12  H12 UNL     1       5.451   2.428  -1.529  1.00  0.00     0.172 HD
ATOM     13  H11 UNL     1       7.203   2.642  -1.123  1.00  0.00     0.172 HD
ENDBRANCH  10  11
ENDBRANCH   9  10
BRANCH   9  14
HETATM   14  N3  UNL     1       5.441  -1.150   0.179  1.00  0.00    -0.052 N 
ATOM     15  H33 UNL     1       6.176  -1.663  -0.307  1.00  0.00     0.276 HD
ATOM     16  H32 UNL     1       5.872  -1.103   1.102  1.00  0.00     0.276 HD
ATOM     17  H31 UNL     1       4.564  -1.671   0.197  1.00  0.00     0.276 HD
ENDBRANCH   9  14
ENDBRANCH   7   9
ENDBRANCH   4   7
ENDBRANCH   1   3
BRANCH   1  18
HETATM   18  C4  UNL     1       0.535  -1.226   1.998  1.00  0.00     0.205 C 
HETATM   19  S1  UNL     1       1.846  -1.873   2.729  1.00  0.00    -0.038 SA
BRANCH  18  20
HETATM   20  N6  UNL     1      -0.692  -1.922   2.045  1.00  0.00    -0.275 N 
ATOM     21  H6  UNL     1      -0.759  -2.818   2.528  1.00  0.00     0.189 HD
BRANCH  20  22
HETATM   22  N7  UNL     1      -1.807  -1.373   1.427  1.00  0.00    -0.309 N 
HETATM   23  C5  UNL     1      -2.023  -1.541   0.144  1.00  0.00     0.118 C 
ATOM     24  H7  UNL     1      -2.470  -0.830   1.980  1.00  0.00     0.186 HD
BRANCH  23  25
HETATM   25  C6  UNL     1      -3.225  -0.918  -0.389  1.00  0.00    -0.017 A 
HETATM   26  C7  UNL     1      -3.500  -1.062  -1.728  1.00  0.00     0.016 A 
HETATM   27  C8  UNL     1      -4.632  -0.489  -2.285  1.00  0.00     0.040 A 
HETATM   28  C9  UNL     1      -5.517   0.243  -1.511  1.00  0.00     0.105 A 
HETATM   29  C10 UNL     1      -5.244   0.388  -0.168  1.00  0.00     0.105 A 
HETATM   30  O4  UNL     1      -6.697   0.907  -1.806  1.00  0.00    -0.323 OA
HETATM   31  C11 UNL     1      -4.116  -0.186   0.373  1.00  0.00     0.052 A 
HETATM   32  O3  UNL     1      -6.271   1.151   0.361  1.00  0.00    -0.323 OA
HETATM   33  C12 UNL     1      -7.226   1.452  -0.637  1.00  0.00     0.352 A 
ENDBRANCH  23  25
ENDBRANCH  20  22
ENDBRANCH  18  20
ENDBRANCH   1  18
TORSDOF 10
