REMARK  10 active torsions:
REMARK  status: ('A' for Active; 'I' for Inactive)
REMARK    1  A    between atoms: N1_1  and  C1_5 
REMARK    2  A    between atoms: C3_7  and  N2_8 
REMARK    3  A    between atoms: C4_12  and  O1_13 
REMARK    4  A    between atoms: O1_13  and  C5_14 
REMARK    5  A    between atoms: C6_15  and  N3_16 
REMARK    6  A    between atoms: C10_23  and  O2_24 
REMARK    7  A    between atoms: C11_27  and  O4_28 
REMARK    8  A    between atoms: O4_28  and  C12_29 
REMARK    9  A    between atoms: C13_30  and  N4_31 
REMARK   10  A    between atoms: C16_37  and  N5_38 
ROOT
HETATM    1  C1  UNL     1       1.099  -1.397   2.506  1.00  0.00     0.240 C 
HETATM    2  C2  UNL     1      -0.310  -1.840   2.842  1.00  0.00     0.075 C 
HETATM    3  C3  UNL     1      -1.336  -0.873   2.259  1.00  0.00     0.240 C 
HETATM    4  C4  UNL     1      -1.266  -0.959   0.782  1.00  0.00     0.294 C 
HETATM    5  O3  UNL     1      -0.044  -1.499   0.401  1.00  0.00    -0.327 OA
HETATM    6  C11 UNL     1       1.034  -0.918   1.056  1.00  0.00     0.293 C 
ENDROOT
BRANCH   6   7
HETATM    7  O4  UNL     1       2.181  -1.277   0.408  1.00  0.00    -0.350 OA
BRANCH   7   8
HETATM    8  C12 UNL     1       2.978  -0.278  -0.036  1.00  0.00     0.185 C 
HETATM    9  C13 UNL     1       4.365  -0.241   0.498  1.00  0.00     0.214 C 
HETATM   10  C14 UNL     1       5.299   0.072  -0.652  1.00  0.00     0.037 C 
HETATM   11  C15 UNL     1       4.349   0.718  -1.647  1.00  0.00     0.037 C 
HETATM   12  C16 UNL     1       3.159  -0.233  -1.534  1.00  0.00     0.214 C 
BRANCH   9  13
HETATM   13  N4  UNL     1       4.564   0.825   1.488  1.00  0.00    -0.072 N 
ATOM     14  H43 UNL     1       4.294   1.732   1.108  1.00  0.00     0.274 HD
ATOM     15  H42 UNL     1       3.883   0.754   2.244  1.00  0.00     0.274 HD
ATOM     16  H41 UNL     1       5.516   0.850   1.854  1.00  0.00     0.274 HD
ENDBRANCH   9  13
BRANCH  12  17
HETATM   17  N5  UNL     1       2.011   0.253  -2.228  1.00  0.00    -0.072 N 
ATOM     18  H53 UNL     1       1.182  -0.287  -1.980  1.00  0.00     0.274 HD
ATOM     19  H52 UNL     1       1.731   1.166  -1.870  1.00  0.00     0.274 HD
ATOM     20  H51 UNL     1       2.133   0.283  -3.240  1.00  0.00     0.274 HD
ENDBRANCH  12  17
ENDBRANCH   7   8
ENDBRANCH   6   7
BRANCH   1  21
HETATM   21  N1  UNL     1       1.430  -0.298   3.373  1.00  0.00    -0.070 N 
ATOM     22  H13 UNL     1       0.753   0.463   3.324  1.00  0.00     0.274 HD
ATOM     23  H12 UNL     1       1.310  -0.522   4.361  1.00  0.00     0.274 HD
ATOM     24  H11 UNL     1       2.379   0.000   3.147  1.00  0.00     0.274 HD
ENDBRANCH   1  21
BRANCH   4  25
HETATM   25  O1  UNL     1      -1.497   0.208   0.090  1.00  0.00    -0.349 OA
BRANCH  25  26
HETATM   26  C5  UNL     1      -2.539   0.184  -0.791  1.00  0.00     0.183 C 
HETATM   27  C6  UNL     1      -3.451   1.352  -0.572  1.00  0.00     0.215 C 
HETATM   28  C7  UNL     1      -4.640   1.326  -1.530  1.00  0.00     0.035 C 
HETATM   29  C8  UNL     1      -4.227   0.755  -2.874  1.00  0.00     0.005 C 
HETATM   30  C9  UNL     1      -2.811   1.181  -3.097  1.00  0.00     0.034 C 
HETATM   31  C10 UNL     1      -1.919   0.371  -2.185  1.00  0.00     0.149 C 
BRANCH  27  32
HETATM   32  N3  UNL     1      -3.994   1.450   0.757  1.00  0.00    -0.072 N 
ATOM     33  H33 UNL     1      -4.464   0.581   1.012  1.00  0.00     0.274 HD
ATOM     34  H32 UNL     1      -3.243   1.453   1.447  1.00  0.00     0.274 HD
ATOM     35  H31 UNL     1      -4.615   2.245   0.906  1.00  0.00     0.274 HD
ENDBRANCH  27  32
BRANCH  31  36
HETATM   36  O2  UNL     1      -1.651  -0.855  -2.743  1.00  0.00    -0.393 OA
ATOM     37  H2  UNL     1      -1.268  -0.739  -3.605  1.00  0.00     0.210 HD
ENDBRANCH  31  36
ENDBRANCH  25  26
ENDBRANCH   4  25
BRANCH   3  38
HETATM   38  N2  UNL     1      -2.610  -1.285   2.814  1.00  0.00    -0.070 N 
ATOM     39  H23 UNL     1      -2.831  -2.267   2.650  1.00  0.00     0.274 HD
ATOM     40  H22 UNL     1      -2.619  -1.329   3.833  1.00  0.00     0.274 HD
ATOM     41  H21 UNL     1      -3.296  -0.639   2.424  1.00  0.00     0.274 HD
ENDBRANCH   3  38
TORSDOF 10
