REMARK  10 active torsions:
REMARK  status: ('A' for Active; 'I' for Inactive)
REMARK    1  A    between atoms: S1_2  and  C2_3 
REMARK    2  A    between atoms: C2_3  and  C3_4 
REMARK    3  A    between atoms: C3_4  and  C4_5 
REMARK    4  A    between atoms: C4_5  and  N1_6 
REMARK    5  A    between atoms: C4_5  and  C5_10 
REMARK       I    between atoms: C5_10  and  N2_12 
REMARK    6  A    between atoms: N2_12  and  N3_14 
REMARK       I    between atoms: N3_14  and  C6_15 
REMARK    7  A    between atoms: C6_15  and  C7_17 
REMARK    8  A    between atoms: N6_22  and  C8_23 
REMARK    9  A    between atoms: C9_29  and  N9_30 
REMARK   10  A    between atoms: C10_33  and  N10_34 
ROOT
HETATM    1  C7  UNL     1      -0.016   1.413  -0.815  1.00  0.00     0.182 A 
HETATM    2  N4  UNL     1       0.446   2.688  -1.063  1.00  0.00    -0.276 N 
ATOM      3  H4  UNL     1       1.420   2.964  -1.190  1.00  0.00     0.189 HD
HETATM    4  N5  UNL     1      -0.598   3.481  -1.105  1.00  0.00    -0.232 N 
ATOM      5  H5  UNL     1      -0.550   4.485  -1.278  1.00  0.00     0.209 HD
HETATM    6  N6  UNL     1      -1.705   2.823  -0.897  1.00  0.00    -0.199 N 
HETATM    7  C10 UNL     1      -1.314   1.488  -0.709  1.00  0.00     0.189 A 
ENDROOT
BRANCH   1   8
HETATM    8  C6  UNL     1       0.891   0.208  -0.671  1.00  0.00     0.367 C 
HETATM    9  N3  UNL     1       2.198   0.493  -0.415  1.00  0.00    -0.277 NA
HETATM   10  O2  UNL     1       0.422  -0.932  -0.795  1.00  0.00    -0.247 OA
BRANCH   9  11
HETATM   11  N2  UNL     1       3.453   0.750  -0.170  1.00  0.00    -0.197 N 
HETATM   12  C5  UNL     1       4.682   0.413  -0.825  1.00  0.00     0.277 C 
HETATM   13  O1  UNL     1       4.676  -0.283  -1.863  1.00  0.00    -0.269 OA
ATOM     14  H2  UNL     1       3.589   1.313   0.670  1.00  0.00     0.205 HD
BRANCH  12  15
HETATM   15  C4  UNL     1       5.948   0.908  -0.239  1.00  0.00     0.278 C 
BRANCH  15  16
HETATM   16  C3  UNL     1       6.887  -0.152   0.186  1.00  0.00     0.053 C 
BRANCH  16  17
HETATM   17  C2  UNL     1       7.337  -1.111  -0.858  1.00  0.00     0.076 C 
BRANCH  17  18
HETATM   18  S1  UNL     1       8.582  -2.257  -0.186  1.00  0.00    -0.173 SA
HETATM   19  C1  UNL     1       7.869  -3.323   1.052  1.00  0.00     0.089 C 
ENDBRANCH  17  18
ENDBRANCH  16  17
ENDBRANCH  15  16
BRANCH  15  20
HETATM   20  N1  UNL     1       5.644   1.775   0.926  1.00  0.00    -0.066 N 
ATOM     21  H13 UNL     1       5.297   1.245   1.725  1.00  0.00     0.275 HD
ATOM     22  H12 UNL     1       6.486   2.152   1.361  1.00  0.00     0.275 HD
ATOM     23  H11 UNL     1       4.996   2.506   0.633  1.00  0.00     0.275 HD
ENDBRANCH  15  20
ENDBRANCH  12  15
ENDBRANCH   9  11
ENDBRANCH   1   8
BRANCH   7  24
HETATM   24  N10 UNL     1      -2.324   0.500  -0.368  1.00  0.00    -0.217 N 
HETATM   25  N11 UNL     1      -2.984   0.541   0.790  1.00  0.00    -0.275 N 
HETATM   26  C11 UNL     1      -3.923  -0.369   0.841  1.00  0.00     0.135 A 
ATOM     27  H11 UNL     1      -2.782   1.200   1.542  1.00  0.00     0.189 HD
HETATM   28  N12 UNL     1      -4.870  -0.732   1.777  1.00  0.00    -0.344 N 
HETATM   29  C17 UNL     1      -3.898  -1.062  -0.334  1.00  0.00     0.061 A 
HETATM   30  C12 UNL     1      -5.757  -1.730   1.549  1.00  0.00     0.007 A 
ATOM     31  H12 UNL     1      -4.903  -0.234   2.667  1.00  0.00     0.167 HD
HETATM   32  C13 UNL     1      -6.805  -2.108   2.585  1.00  0.00     0.068 C 
HETATM   33  C14 UNL     1      -5.719  -2.415   0.364  1.00  0.00     0.032 A 
HETATM   34  C15 UNL     1      -4.755  -2.064  -0.605  1.00  0.00    -0.042 A 
HETATM   35  C16 UNL     1      -4.714  -2.809  -1.888  1.00  0.00     0.049 C 
HETATM   36  C18 UNL     1      -2.805  -0.437  -1.111  1.00  0.00     0.137 A 
HETATM   37  N13 UNL     1      -2.637  -1.017  -2.236  1.00  0.00    -0.383 N 
ATOM     38 2H13 UNL     1      -1.883  -0.586  -2.772  1.00  0.00     0.157 HD
ATOM     39 1H13 UNL     1      -3.018  -1.758  -2.824  1.00  0.00     0.157 HD
ENDBRANCH   7  24
BRANCH   6  40
HETATM   40  C8  UNL     1      -3.059   3.237  -0.856  1.00  0.00     0.198 A 
HETATM   41  N7  UNL     1      -3.936   2.993  -1.842  1.00  0.00    -0.220 N 
HETATM   42  O3  UNL     1      -5.106   3.488  -1.507  1.00  0.00    -0.153 OA
ATOM     43  H7  UNL     1      -3.728   2.502  -2.712  1.00  0.00     0.198 HD
HETATM   44  N8  UNL     1      -5.031   4.054  -0.326  1.00  0.00    -0.222 N 
HETATM   45  C9  UNL     1      -3.741   3.907   0.114  1.00  0.00     0.169 A 
ATOM     46  H8  UNL     1      -5.791   4.517   0.172  1.00  0.00     0.198 HD
BRANCH  45  47
HETATM   47  N9  UNL     1      -3.345   4.324   1.267  1.00  0.00    -0.381 N 
ATOM     48  H92 UNL     1      -2.385   4.215   1.594  1.00  0.00     0.157 HD
ATOM     49  H91 UNL     1      -3.856   4.826   1.993  1.00  0.00     0.157 HD
ENDBRANCH  45  47
ENDBRANCH   6  40
TORSDOF 10
