REMARK  14 active torsions:
REMARK  status: ('A' for Active; 'I' for Inactive)
REMARK    1  A    between atoms: C2_2  and  O1_4 
REMARK    2  A    between atoms: C2_2  and  C4_6 
REMARK    3  A    between atoms: C6_12  and  N3_13 
REMARK    4  A    between atoms: C8_15  and  C9_16 
REMARK    5  A    between atoms: C9_16  and  O2_17 
REMARK    6  A    between atoms: O2_17  and  C10_18 
REMARK    7  A    between atoms: C13_21  and  N4_22 
REMARK       I    between atoms: N4_22  and  C14_24 
REMARK    8  A    between atoms: C14_24  and  C15_26 
REMARK    9  A    between atoms: C15_26  and  N5_27 
REMARK   10  A    between atoms: C15_26  and  C16_31 
REMARK   11  A    between atoms: C16_31  and  O4_32 
REMARK   12  A    between atoms: C18_35  and  S1_36 
REMARK   13  A    between atoms: S1_36  and  N6_37 
REMARK   14  A    between atoms: C19_46  and  N10_47 
ROOT
HETATM    1  N3  UNL     1      -2.547  -0.150   0.297  1.00  0.00    -0.080 N 
HETATM    2  C7  UNL     1      -1.665   0.020   1.294  1.00  0.00     0.165 A 
HETATM    3  C8  UNL     1      -0.380   0.093   0.746  1.00  0.00     0.069 A 
HETATM    4  N7  UNL     1      -0.555  -0.037  -0.563  1.00  0.00    -0.286 N 
ATOM      5  H7  UNL     1       0.184  -0.028  -1.266  1.00  0.00     0.188 HD
HETATM    6  N8  UNL     1      -1.871  -0.182  -0.807  1.00  0.00    -0.222 N 
ATOM      7  H8  UNL     1      -2.279  -0.301  -1.734  1.00  0.00     0.209 HD
ENDROOT
BRANCH   3   8
HETATM    8  C9  UNL     1       0.876   0.270   1.555  1.00  0.00     0.236 C 
BRANCH   8   9
HETATM    9  O2  UNL     1       2.020   0.227   0.974  1.00  0.00    -0.344 OA
BRANCH   9  10
HETATM   10  C10 UNL     1       3.169   0.179   0.388  1.00  0.00     0.087 A 
HETATM   11  C11 UNL     1       3.620  -0.942  -0.322  1.00  0.00     0.040 A 
HETATM   12  C12 UNL     1       4.860  -0.914  -0.907  1.00  0.00     0.032 A 
HETATM   13  C13 UNL     1       5.682   0.178  -0.824  1.00  0.00     0.036 A 
HETATM   14  C17 UNL     1       5.255   1.275  -0.139  1.00  0.00     0.052 A 
HETATM   15  C18 UNL     1       4.031   1.300   0.462  1.00  0.00     0.056 A 
BRANCH  13  16
HETATM   16  N4  UNL     1       6.986   0.109  -1.420  1.00  0.00    -0.325 N 
HETATM   17  C14 UNL     1       8.052  -0.350  -0.606  1.00  0.00     0.255 C 
HETATM   18  O3  UNL     1       7.777  -0.676   0.598  1.00  0.00    -0.271 OA
ATOM     19  H4  UNL     1       7.140   0.380  -2.391  1.00  0.00     0.169 HD
BRANCH  17  20
HETATM   20  C15 UNL     1       9.457  -0.486  -1.022  1.00  0.00     0.298 C 
BRANCH  20  21
HETATM   21  N5  UNL     1       9.775  -0.006  -2.321  1.00  0.00    -0.064 N 
ATOM     22  H53 UNL     1       9.167  -0.447  -3.011  1.00  0.00     0.275 HD
ATOM     23  H52 UNL     1       9.481   0.966  -2.411  1.00  0.00     0.275 HD
ATOM     24  H51 UNL     1      10.749  -0.100  -2.609  1.00  0.00     0.275 HD
ENDBRANCH  20  21
BRANCH  20  25
HETATM   25  C16 UNL     1      10.313   0.200   0.029  1.00  0.00     0.206 C 
BRANCH  25  26
HETATM   26  O4  UNL     1      11.660  -0.047  -0.209  1.00  0.00    -0.398 OA
ATOM     27  H4  UNL     1      12.195   0.382   0.448  1.00  0.00     0.209 HD
ENDBRANCH  25  26
ENDBRANCH  20  25
ENDBRANCH  17  20
ENDBRANCH  13  16
BRANCH  15  28
HETATM   28  S1  UNL     1       3.441   2.740   1.356  1.00  0.00    -0.019 SA
BRANCH  28  29
HETATM   29  N6  UNL     1       3.991   2.602   3.018  1.00  0.00    -0.370 N 
ATOM     30  H62 UNL     1       4.547   1.833   3.394  1.00  0.00     0.164 HD
ATOM     31  H61 UNL     1       3.656   3.420   3.526  1.00  0.00     0.164 HD
ENDBRANCH  28  29
ENDBRANCH  15  28
ENDBRANCH   9  10
ENDBRANCH   8   9
ENDBRANCH   3   8
BRANCH   1  32
HETATM   32  C6  UNL     1      -3.959  -0.277   0.504  1.00  0.00     0.733 A 
HETATM   33  N2  UNL     1      -4.841  -0.167  -0.493  1.00  0.00    -0.017 N 
HETATM   34  C5  UNL     1      -6.176  -0.282  -0.301  1.00  0.00     0.734 A 
ATOM     35  H2  UNL     1      -4.495   0.011  -1.436  1.00  0.00     0.203 HD
HETATM   36  N1  UNL     1      -7.276  -0.217  -1.094  1.00  0.00    -0.173 N 
HETATM   37  N11 UNL     1      -6.609  -0.515   0.944  1.00  0.00     0.092 N 
HETATM   38  C4  UNL     1      -8.388  -0.408  -0.360  1.00  0.00     0.147 A 
ATOM     39  H1  UNL     1      -7.262  -0.048  -2.100  1.00  0.00     0.185 HD
HETATM   40  N12 UNL     1      -7.944  -0.589   0.895  1.00  0.00    -0.250 N 
ATOM     41  H12 UNL     1      -8.544  -0.760   1.702  1.00  0.00     0.190 HD
HETATM   42  C19 UNL     1      -5.748  -0.636   1.992  1.00  0.00     0.727 A 
HETATM   43  N9  UNL     1      -4.447  -0.514   1.747  1.00  0.00    -0.018 N 
ATOM     44  H9  UNL     1      -3.791  -0.602   2.523  1.00  0.00     0.203 HD
BRANCH  38  45
HETATM   45  C2  UNL     1      -9.814  -0.421  -0.791  1.00  0.00     0.110 C 
HETATM   46  C1  UNL     1     -10.070  -1.602  -1.692  1.00  0.00     0.054 C 
HETATM   47  C3  UNL     1     -10.208   0.884  -1.435  1.00  0.00     0.054 C 
BRANCH  45  48
HETATM   48  O1  UNL     1     -10.618  -0.575   0.334  1.00  0.00    -0.383 OA
ATOM     49  H1  UNL     1     -10.457   0.169   0.902  1.00  0.00     0.211 HD
ENDBRANCH  45  48
ENDBRANCH  38  45
BRANCH  42  50
HETATM   50  N10 UNL     1      -6.260  -0.855   3.139  1.00  0.00    -0.232 N 
ATOM     51 2H10 UNL     1      -5.615  -0.946   3.924  1.00  0.00     0.174 HD
ATOM     52 1H10 UNL     1      -7.258  -0.949   3.327  1.00  0.00     0.174 HD
ENDBRANCH  42  50
ENDBRANCH   1  32
TORSDOF 14
