REMARK  5 active torsions:
REMARK  status: ('A' for Active; 'I' for Inactive)
REMARK       I    between atoms: C1_4  and  N3_6 
REMARK    1  A    between atoms: N3_6  and  C2_8 
REMARK    2  A    between atoms: C2_8  and  C3_9 
REMARK    3  A    between atoms: C3_9  and  N4_10 
REMARK    4  A    between atoms: C6_13  and  N5_14 
REMARK    5  A    between atoms: N5_14  and  C7_16 
ROOT
HETATM    1  N4  UNL     1       0.260  -0.802   0.187  1.00  0.00    -0.411 N 
HETATM    2  C4  UNL     1      -0.616  -0.315   1.202  1.00  0.00     0.119 C 
HETATM    3  C5  UNL     1      -1.791   0.478   0.682  1.00  0.00     0.044 C 
HETATM    4  C6  UNL     1      -2.530  -0.299  -0.375  1.00  0.00     0.086 C 
HETATM    5  C8  UNL     1      -1.817  -1.606  -0.659  1.00  0.00     0.044 C 
HETATM    6  C9  UNL     1      -0.381  -1.257  -0.993  1.00  0.00     0.119 C 
ENDROOT
BRANCH   1   7
HETATM    7  C3  UNL     1       1.473  -0.074   0.012  1.00  0.00     0.136 C 
BRANCH   7   8
HETATM    8  C2  UNL     1       2.441  -0.172   1.140  1.00  0.00     0.141 C 
BRANCH   8   9
HETATM    9  N3  UNL     1       3.609   0.613   0.815  1.00  0.00    -0.363 N 
HETATM   10  C1  UNL     1       4.539   0.289  -0.205  1.00  0.00     0.181 C 
HETATM   11  N1  UNL     1       4.503  -0.870  -0.793  1.00  0.00    -0.374 N 
HETATM   12  N2  UNL     1       5.532   1.212  -0.603  1.00  0.00    -0.064 NA
ATOM     13  H12 UNL     1       5.172  -1.103  -1.527  1.00  0.00     0.158 HD
ATOM     14  H11 UNL     1       3.786  -1.536  -0.506  1.00  0.00     0.158 HD
ATOM     15  H3  UNL     1       3.777   1.460   1.358  1.00  0.00     0.162 HD
ENDBRANCH   8   9
ENDBRANCH   7   8
ENDBRANCH   1   7
BRANCH   4  16
HETATM   16  N5  UNL     1      -3.905  -0.525  -0.045  1.00  0.00    -0.365 N 
ATOM     17  H5  UNL     1      -4.246  -1.483   0.036  1.00  0.00     0.162 HD
BRANCH  16  18
HETATM   18  C7  UNL     1      -4.799   0.544   0.171  1.00  0.00     0.181 C 
HETATM   19  N6  UNL     1      -4.376   1.888   0.069  1.00  0.00    -0.070 NA
HETATM   20  S1  UNL     1      -6.358   0.235   0.547  1.00  0.00    -0.044 SA
ENDBRANCH  16  18
ENDBRANCH   4  16
TORSDOF 5
