REMARK  4 active torsions:
REMARK  status: ('A' for Active; 'I' for Inactive)
REMARK    1  A    between atoms: C3_3  and  C4_4 
REMARK    2  A    between atoms: C4_4  and  N1_5 
REMARK       I    between atoms: N1_5  and  C5_7 
REMARK       I    between atoms: C5_7  and  N3_11 
REMARK    3  A    between atoms: N3_11  and  C6_13 
REMARK    4  A    between atoms: C6_13  and  C7_14 
REMARK       I    between atoms: C7_14  and  N4_16 
ROOT
HETATM    1  C1  UNL     1       6.902  -1.113   1.118  1.00  0.00     0.012 C 
HETATM    2  C2  UNL     1       6.479   0.008   0.976  1.00  0.00    -0.116 C 
HETATM    3  C3  UNL     1       5.958   1.373   0.777  1.00  0.00     0.113 C 
ENDROOT
BRANCH   3   4
HETATM    4  C4  UNL     1       4.885   1.259  -0.298  1.00  0.00     0.150 C 
BRANCH   4   5
HETATM    5  N1  UNL     1       3.858   0.358   0.180  1.00  0.00    -0.226 N 
HETATM    6  C5  UNL     1       2.738   0.087  -0.653  1.00  0.00     0.667 C 
HETATM    7  N2  UNL     1       2.826  -0.585  -1.748  1.00  0.00    -0.235 N 
HETATM    8  N3  UNL     1       1.446   0.570  -0.280  1.00  0.00    -0.218 N 
ATOM      9  H22 UNL     1       3.748  -0.930  -2.014  1.00  0.00     0.174 HD
ATOM     10  H21 UNL     1       2.023  -0.779  -2.346  1.00  0.00     0.174 HD
ATOM     11  H3  UNL     1       1.374   1.512   0.105  1.00  0.00     0.178 HD
ATOM     12  H1  UNL     1       3.936  -0.076   1.100  1.00  0.00     0.177 HD
BRANCH   8  13
HETATM   13  C6  UNL     1       0.249  -0.201  -0.419  1.00  0.00     0.241 C 
BRANCH  13  14
HETATM   14  C7  UNL     1      -0.907   0.559   0.045  1.00  0.00     0.242 C 
HETATM   15  O1  UNL     1      -0.705   1.721   0.479  1.00  0.00    -0.271 OA
HETATM   16  N4  UNL     1      -2.242   0.081   0.042  1.00  0.00    -0.313 N 
HETATM   17  C8  UNL     1      -3.249   0.989   0.544  1.00  0.00     0.133 C 
HETATM   18  C12 UNL     1      -2.526  -1.251  -0.449  1.00  0.00     0.185 C 
HETATM   19  C9  UNL     1      -4.523   0.887  -0.267  1.00  0.00     0.025 C 
HETATM   20  C10 UNL     1      -5.405  -0.220   0.222  1.00  0.00     0.046 C 
HETATM   21  C11 UNL     1      -4.881  -1.589  -0.062  1.00  0.00     0.062 C 
HETATM   22  N5  UNL     1      -3.548  -1.834   0.318  1.00  0.00    -0.366 N 
ATOM     23  H5  UNL     1      -3.331  -2.417   1.126  1.00  0.00     0.165 HD
ENDBRANCH  13  14
ENDBRANCH   8  13
ENDBRANCH   4   5
ENDBRANCH   3   4
TORSDOF 4
