REMARK  6 active torsions:
REMARK  status: ('A' for Active; 'I' for Inactive)
REMARK    1  A    between atoms: N1_2  and  C4_5 
REMARK    2  A    between atoms: C4_5  and  C5_6 
REMARK    3  A    between atoms: C5_6  and  C6_7 
REMARK    4  A    between atoms: C6_7  and  N2_8 
REMARK    5  A    between atoms: C8_10  and  O1_11 
REMARK    6  A    between atoms: C9_13  and  O2_14 
ROOT
HETATM    1  N2  UNL     1      -1.008  -0.592   0.772  1.00  0.00    -0.367 N 
HETATM    2  C7  UNL     1      -1.294   0.801   0.532  1.00  0.00     0.158 C 
HETATM    3  C8  UNL     1      -1.742   1.008  -0.872  1.00  0.00     0.166 C 
HETATM    4  C9  UNL     1      -3.248   1.263  -0.980  1.00  0.00     0.174 C 
HETATM    5  C10 UNL     1      -4.006   0.091  -0.343  1.00  0.00     0.266 C 
HETATM    6  N3  UNL     1      -3.574  -1.115  -0.994  1.00  0.00    -0.066 N 
ATOM      7  H31 UNL     1      -2.866  -0.910  -1.699  1.00  0.00     0.277 HD
ATOM      8  H32 UNL     1      -4.311  -1.484  -1.595  1.00  0.00     0.277 HD
HETATM    9  C11 UNL     1      -3.109  -2.123  -0.087  1.00  0.00     0.307 C 
HETATM   10  C12 UNL     1      -1.742  -1.759   0.368  1.00  0.00     0.099 C 
HETATM   11  N4  UNL     1      -0.957  -2.804   0.430  1.00  0.00    -0.388 N 
ATOM     12  H41 UNL     1      -1.478  -3.633   0.143  1.00  0.00     0.157 HD
ATOM     13  H42 UNL     1      -0.019  -2.554   0.742  1.00  0.00     0.157 HD
ENDROOT
BRANCH   1  14
HETATM   14  C6  UNL     1       0.156  -0.919   1.510  1.00  0.00     0.126 C 
BRANCH  14  15
HETATM   15  C5  UNL     1       1.486  -0.751   0.916  1.00  0.00     0.048 C 
BRANCH  15  16
HETATM   16  C4  UNL     1       1.925   0.584   0.454  1.00  0.00     0.237 C 
BRANCH  16  17
HETATM   17  N1  UNL     1       3.290   0.571  -0.072  1.00  0.00    -0.079 N 
HETATM   18  C1  UNL     1       3.416   1.700  -0.967  1.00  0.00     0.271 C 
HETATM   19  C2  UNL     1       3.615  -0.623  -0.793  1.00  0.00     0.271 C 
HETATM   20  C3  UNL     1       4.261   0.728   0.990  1.00  0.00     0.271 C 
ENDBRANCH  16  17
ENDBRANCH  15  16
ENDBRANCH  14  15
ENDBRANCH   1  14
BRANCH   3  21
HETATM   21  O1  UNL     1      -1.428  -0.063  -1.721  1.00  0.00    -0.391 OA
ATOM     22  H1  UNL     1      -1.714   0.069  -2.617  1.00  0.00     0.210 HD
ENDBRANCH   3  21
BRANCH   4  23
HETATM   23  O2  UNL     1      -3.541   2.461  -0.367  1.00  0.00    -0.391 OA
ATOM     24  H2  UNL     1      -4.475   2.619  -0.434  1.00  0.00     0.210 HD
ENDBRANCH   4  23
TORSDOF 6
