REMARK  7 active torsions:
REMARK  status: ('A' for Active; 'I' for Inactive)
REMARK       I    between atoms: N1_2  and  C2_4 
REMARK    1  A    between atoms: C2_4  and  C3_6 
REMARK    2  A    between atoms: C3_6  and  C4_7 
REMARK    3  A    between atoms: C4_7  and  N2_8 
REMARK    4  A    between atoms: C7_13  and  C8_14 
REMARK    5  A    between atoms: C8_14  and  C9_15 
REMARK    6  A    between atoms: C8_14  and  N4_20 
REMARK    7  A    between atoms: C9_15  and  N3_16 
REMARK       I    between atoms: N4_20  and  C13_22 
REMARK       I    between atoms: C13_22  and  N5_24 
ROOT
HETATM    1  C4  UNL     1       2.329  -0.285  -1.024  1.00  0.00     0.220 C 
HETATM    2  C6  UNL     1       1.006  -0.306  -0.345  1.00  0.00     0.078 C 
HETATM    3  C7  UNL     1      -0.180  -0.684  -1.239  1.00  0.00     0.107 C 
HETATM    4  C15 UNL     1      -0.316   0.314  -2.317  1.00  0.00     0.242 C 
HETATM    5  O3  UNL     1      -1.069   0.034  -3.277  1.00  0.00    -0.272 OA
HETATM    6  N6  UNL     1       0.318   1.609  -2.432  1.00  0.00    -0.160 N 
ATOM      7  H6  UNL     1      -0.249   2.362  -2.821  1.00  0.00     0.187 HD
HETATM    8  C16 UNL     1       1.654   1.943  -2.058  1.00  0.00     0.676 C 
HETATM    9  N7  UNL     1       2.033   3.186  -2.196  1.00  0.00    -0.235 N 
ATOM     10  H71 UNL     1       2.988   3.425  -1.929  1.00  0.00     0.174 HD
ATOM     11  H72 UNL     1       1.327   3.823  -2.565  1.00  0.00     0.174 HD
HETATM   12  N8  UNL     1       2.641   1.053  -1.542  1.00  0.00    -0.191 N 
ATOM     13  H8  UNL     1       3.613   1.361  -1.532  1.00  0.00     0.180 HD
ENDROOT
BRANCH   3  14
HETATM   14  C8  UNL     1      -1.378  -0.726  -0.313  1.00  0.00     0.125 C 
BRANCH  14  15
HETATM   15  C9  UNL     1      -2.598  -1.089  -1.047  1.00  0.00     0.262 C 
BRANCH  15  16
HETATM   16  N3  UNL     1      -3.816  -1.201  -0.272  1.00  0.00    -0.077 N 
HETATM   17  C10 UNL     1      -4.318   0.000   0.286  1.00  0.00     0.271 C 
HETATM   18  C11 UNL     1      -4.815  -1.704  -1.241  1.00  0.00     0.271 C 
HETATM   19  C12 UNL     1      -3.759  -2.223   0.750  1.00  0.00     0.271 C 
ENDBRANCH  15  16
ENDBRANCH  14  15
BRANCH  14  20
HETATM   20  N4  UNL     1      -1.432   0.568   0.335  1.00  0.00    -0.336 N 
HETATM   21  C13 UNL     1      -1.242   0.671   1.736  1.00  0.00     0.316 C 
HETATM   22  O2  UNL     1      -1.027  -0.371   2.395  1.00  0.00    -0.247 OA
HETATM   23  N5  UNL     1      -1.286   1.912   2.420  1.00  0.00    -0.347 N 
HETATM   24  C14 UNL     1      -1.081   1.925   3.849  1.00  0.00     0.151 C 
ATOM     25  H5  UNL     1      -1.459   2.779   1.912  1.00  0.00     0.163 HD
ATOM     26  H4  UNL     1      -1.607   1.407  -0.218  1.00  0.00     0.164 HD
ENDBRANCH  14  20
ENDBRANCH   3  14
BRANCH   1  27
HETATM   27  C3  UNL     1       3.404  -0.618  -0.017  1.00  0.00     0.164 C 
BRANCH  27  28
HETATM   28  C2  UNL     1       3.456   0.316   1.124  1.00  0.00     0.221 C 
HETATM   29  N1  UNL     1       4.379   0.089   2.187  1.00  0.00    -0.365 N 
HETATM   30  C1  UNL     1       4.427   0.995   3.293  1.00  0.00     0.149 C 
ATOM     31  H1  UNL     1       5.003  -0.717   2.159  1.00  0.00     0.161 HD
HETATM   32  O1  UNL     1       2.715   1.313   1.204  1.00  0.00    -0.273 OA
ENDBRANCH  27  28
ENDBRANCH   1  27
BRANCH   1  33
HETATM   33  N2  UNL     1       2.445  -1.284  -2.070  1.00  0.00    -0.051 N 
HETATM   34  C5  UNL     1       3.752  -1.154  -2.677  1.00  0.00     0.270 C 
ATOM     35  H22 UNL     1       2.260  -2.229  -1.733  1.00  0.00     0.279 HD
ATOM     36  H21 UNL     1       1.688  -1.230  -2.751  1.00  0.00     0.279 HD
ENDBRANCH   1  33
TORSDOF 7
