REMARK  11 active torsions:
REMARK  status: ('A' for Active; 'I' for Inactive)
REMARK    1  A    between atoms: N1_2  and  C3_4 
REMARK    2  A    between atoms: N1_2  and  C12_33 
REMARK    3  A    between atoms: C3_4  and  C4_5 
REMARK    4  A    between atoms: C4_5  and  N2_6 
REMARK    5  A    between atoms: N2_6  and  C5_8 
REMARK    6  A    between atoms: C5_8  and  N3_10 
REMARK    7  A    between atoms: N3_10  and  C6_12 
REMARK    8  A    between atoms: C6_12  and  C7_13 
REMARK    9  A    between atoms: C7_13  and  N4_14 
REMARK       I    between atoms: N4_14  and  C8_16 
REMARK       I    between atoms: C8_16  and  N6_20 
REMARK   10  A    between atoms: N6_20  and  N7_22 
REMARK   11  A    between atoms: C11_28  and  N9_29 
ROOT
HETATM    1  C7  UNL     1       2.950   0.328   0.455  1.00  0.00     0.123 C 
ENDROOT
BRANCH   1   2
HETATM    2  C6  UNL     1       1.945   1.345   0.126  1.00  0.00     0.108 C 
BRANCH   2   3
HETATM    3  N3  UNL     1       0.588   0.968   0.164  1.00  0.00    -0.342 N 
ATOM      4  H3  UNL     1       0.100   1.251   1.014  1.00  0.00     0.167 HD
BRANCH   3   5
HETATM    5  C5  UNL     1      -0.204   0.283  -0.742  1.00  0.00     0.171 C 
HETATM    6  S1  UNL     1       0.239  -0.169  -2.268  1.00  0.00    -0.041 SA
BRANCH   5   7
HETATM    7  N2  UNL     1      -1.571  -0.007  -0.411  1.00  0.00    -0.365 N 
ATOM      8  H2  UNL     1      -2.163  -0.518  -1.066  1.00  0.00     0.161 HD
BRANCH   7   9
HETATM    9  C4  UNL     1      -2.093   0.427   0.844  1.00  0.00     0.150 C 
BRANCH   9  10
HETATM   10  C3  UNL     1      -3.499   0.059   1.143  1.00  0.00     0.258 C 
BRANCH  10  11
HETATM   11  N1  UNL     1      -4.532   0.528   0.301  1.00  0.00    -0.044 N 
HETATM   12  C1  UNL     1      -4.195   1.227  -0.880  1.00  0.00     0.274 C 
HETATM   13  C2  UNL     1      -5.276   1.522   1.126  1.00  0.00     0.274 C 
BRANCH  11  14
HETATM   14  C12 UNL     1      -5.510  -0.524   0.121  1.00  0.00     0.386 C 
HETATM   15  C13 UNL     1      -5.353  -1.383  -1.056  1.00  0.00     0.065 C 
HETATM   16  C14 UNL     1      -6.385  -0.960  -2.042  1.00  0.00     0.031 C 
HETATM   17  C15 UNL     1      -7.411  -0.275  -1.207  1.00  0.00     0.235 C 
HETATM   18  N10 UNL     1      -6.861  -0.024   0.082  1.00  0.00    -0.046 N 
ATOM     19 2H10 UNL     1      -7.438  -0.405   0.832  1.00  0.00     0.279 HD
ATOM     20 1H10 UNL     1      -6.919   0.960   0.344  1.00  0.00     0.279 HD
ENDBRANCH  11  14
ENDBRANCH  10  11
ENDBRANCH   9  10
ENDBRANCH   7   9
ENDBRANCH   5   7
ENDBRANCH   3   5
ENDBRANCH   2   3
ENDBRANCH   1   2
BRANCH   1  21
HETATM   21  N4  UNL     1       3.137  -0.847  -0.279  1.00  0.00    -0.200 N 
HETATM   22  C8  UNL     1       4.128  -1.780   0.220  1.00  0.00     0.690 C 
HETATM   23  N5  UNL     1       3.738  -2.700   1.004  1.00  0.00    -0.233 N 
HETATM   24  N6  UNL     1       5.456  -1.614  -0.192  1.00  0.00    -0.131 N 
ATOM     25  H52 UNL     1       2.771  -2.821   1.304  1.00  0.00     0.174 HD
ATOM     26  H51 UNL     1       4.435  -3.356   1.355  1.00  0.00     0.174 HD
ATOM     27  H6  UNL     1       5.945  -2.397  -0.627  1.00  0.00     0.205 HD
ATOM     28  H4  UNL     1       2.601  -1.039  -1.126  1.00  0.00     0.183 HD
BRANCH  24  29
HETATM   29  N7  UNL     1       6.125  -0.404  -0.021  1.00  0.00    -0.273 N 
HETATM   30  C9  UNL     1       7.371  -0.317   0.262  1.00  0.00     0.124 C 
HETATM   31  N8  UNL     1       8.408  -1.258   0.481  1.00  0.00    -0.374 N 
HETATM   32  C11 UNL     1       8.349   0.769   0.502  1.00  0.00     0.269 C 
HETATM   33  C10 UNL     1       9.089  -0.269   1.290  1.00  0.00     0.162 C 
ATOM     34  H8  UNL     1       8.594  -2.219   0.193  1.00  0.00     0.160 HD
ATOM     35  H7  UNL     1       5.593   0.460  -0.127  1.00  0.00     0.189 HD
BRANCH  32  36
HETATM   36  N9  UNL     1       8.970   1.191  -0.737  1.00  0.00    -0.067 N 
ATOM     37  H93 UNL     1       9.393   0.406  -1.232  1.00  0.00     0.275 HD
ATOM     38  H92 UNL     1       8.275   1.458  -1.434  1.00  0.00     0.275 HD
ATOM     39  H91 UNL     1       9.644   1.939  -0.572  1.00  0.00     0.275 HD
ENDBRANCH  32  36
ENDBRANCH  24  29
ENDBRANCH   1  21
TORSDOF 11
