REMARK  10 active torsions:
REMARK  status: ('A' for Active; 'I' for Inactive)
REMARK    1  A    between atoms: C3_5  and  N2_6 
REMARK       I    between atoms: N2_6  and  C4_8 
REMARK       I    between atoms: C4_8  and  N4_12 
REMARK    2  A    between atoms: N4_12  and  C5_14 
REMARK    3  A    between atoms: N5_18  and  C10_20 
REMARK    4  A    between atoms: C10_20  and  C11_21 
REMARK    5  A    between atoms: C11_21  and  C12_22 
REMARK    6  A    between atoms: C12_22  and  C13_23 
REMARK       I    between atoms: C13_23  and  N6_25 
REMARK    7  A    between atoms: N6_25  and  N7_27 
REMARK    8  A    between atoms: N7_27  and  C14_29 
REMARK    9  A    between atoms: C14_29  and  N8_31 
REMARK   10  A    between atoms: N8_31  and  N9_33 
ROOT
HETATM    1  C1  UNL     1       0.098  -1.848  -1.169  1.00  0.00     0.188 C 
HETATM    2  N1  UNL     1      -0.447  -0.707  -0.455  1.00  0.00    -0.179 N 
HETATM    3  C2  UNL     1      -1.269  -0.819   0.696  1.00  0.00     0.268 C 
HETATM    4  O1  UNL     1      -1.290  -1.722   1.571  1.00  0.00    -0.269 OA
HETATM    5  C3  UNL     1      -2.151   0.393   0.678  1.00  0.00     0.221 C 
HETATM    6  C8  UNL     1      -1.365   1.355  -0.153  1.00  0.00     0.300 C 
HETATM    7  N5  UNL     1      -0.265   0.642  -0.761  1.00  0.00     0.015 N 
HETATM    8  C9  UNL     1      -0.266   0.805  -2.200  1.00  0.00     0.302 C 
ENDROOT
BRANCH   7   9
HETATM    9  C10 UNL     1       1.019   1.084  -0.279  1.00  0.00     0.265 C 
BRANCH   9  10
HETATM   10  C11 UNL     1       1.575   0.307   0.838  1.00  0.00     0.039 C 
BRANCH  10  11
HETATM   11  C12 UNL     1       2.895   0.873   1.255  1.00  0.00     0.106 C 
BRANCH  11  12
HETATM   12  C13 UNL     1       3.947   0.811   0.229  1.00  0.00     0.236 C 
HETATM   13  O2  UNL     1       3.793   0.185  -0.847  1.00  0.00    -0.272 OA
HETATM   14  N6  UNL     1       5.208   1.459   0.386  1.00  0.00    -0.268 N 
ATOM     15  H6  UNL     1       5.389   1.984   1.241  1.00  0.00     0.190 HD
BRANCH  14  16
HETATM   16  N7  UNL     1       6.194   1.399  -0.583  1.00  0.00    -0.273 N 
ATOM     17  H7  UNL     1       6.205   2.149  -1.274  1.00  0.00     0.189 HD
BRANCH  16  18
HETATM   18  C14 UNL     1       7.186   0.404  -0.711  1.00  0.00     0.205 C 
HETATM   19  S1  UNL     1       8.275   0.510  -1.947  1.00  0.00    -0.038 SA
BRANCH  18  20
HETATM   20  N8  UNL     1       7.316  -0.701   0.163  1.00  0.00    -0.282 N 
ATOM     21  H8  UNL     1       8.064  -1.374  -0.005  1.00  0.00     0.189 HD
BRANCH  20  22
HETATM   22  N9  UNL     1       6.457  -0.907   1.251  1.00  0.00    -0.343 N 
ATOM     23  H92 UNL     1       5.715  -0.225   1.405  1.00  0.00     0.176 HD
ATOM     24  H91 UNL     1       6.551  -1.704   1.881  1.00  0.00     0.176 HD
ENDBRANCH  20  22
ENDBRANCH  18  20
ENDBRANCH  16  18
ENDBRANCH  14  16
ENDBRANCH  11  12
ENDBRANCH  10  11
ENDBRANCH   9  10
ENDBRANCH   7   9
BRANCH   5  25
HETATM   25  N2  UNL     1      -3.393   0.018   0.018  1.00  0.00    -0.212 N 
HETATM   26  C4  UNL     1      -4.202  -1.001   0.550  1.00  0.00     0.668 C 
HETATM   27  N3  UNL     1      -4.069  -2.255   0.194  1.00  0.00    -0.235 N 
HETATM   28  N4  UNL     1      -5.218  -0.739   1.509  1.00  0.00    -0.222 N 
ATOM     29  H32 UNL     1      -3.340  -2.443  -0.494  1.00  0.00     0.174 HD
ATOM     30  H31 UNL     1      -4.656  -2.994   0.580  1.00  0.00     0.174 HD
ATOM     31  H4  UNL     1      -4.946  -0.574   2.478  1.00  0.00     0.178 HD
ATOM     32  H2  UNL     1      -3.678   0.498  -0.836  1.00  0.00     0.178 HD
BRANCH  28  33
HETATM   33  C5  UNL     1      -6.620  -0.697   1.166  1.00  0.00     0.099 A 
HETATM   34  C6  UNL     1      -7.083   0.311   0.144  1.00  0.00     0.028 A 
HETATM   35  C7  UNL     1      -7.069  -1.143  -0.187  1.00  0.00     0.028 A 
ENDBRANCH  28  33
ENDBRANCH   5  25
TORSDOF 10
