REMARK  6 active torsions:
REMARK  status: ('A' for Active; 'I' for Inactive)
REMARK       I    between atoms: C1_4  and  N2_5 
REMARK       I    between atoms: C1_4  and  N6_26 
REMARK    1  A    between atoms: N2_5  and  C2_7 
REMARK    2  A    between atoms: C2_7  and  C3_8 
REMARK    3  A    between atoms: C6_11  and  N3_12 
REMARK       I    between atoms: N3_12  and  C7_14 
REMARK       I    between atoms: C7_14  and  N4_16 
REMARK    4  A    between atoms: N4_16  and  C8_18 
REMARK    5  A    between atoms: C8_18  and  C9_19 
REMARK    6  A    between atoms: C13_29  and  C14_30 
ROOT
HETATM    1  C3  UNL     1      -0.603  -0.272   0.249  1.00  0.00     0.103 C 
HETATM    2  C4  UNL     1      -0.990   0.979  -0.466  1.00  0.00     0.029 C 
HETATM    3  C5  UNL     1      -1.982   1.844   0.251  1.00  0.00     0.037 C 
HETATM    4  C6  UNL     1      -3.030   1.029   1.006  1.00  0.00     0.178 C 
HETATM    5  C10 UNL     1      -2.282   0.197   1.973  1.00  0.00     0.240 C 
HETATM    6  O4  UNL     1      -2.791  -0.180   3.048  1.00  0.00    -0.271 OA
HETATM    7  N5  UNL     1      -0.954  -0.177   1.660  1.00  0.00    -0.353 N 
ATOM      8  H5  UNL     1      -0.271  -0.372   2.392  1.00  0.00     0.163 HD
ENDROOT
BRANCH   1   9
HETATM    9  C2  UNL     1       0.874  -0.565   0.166  1.00  0.00     0.163 C 
BRANCH   9  10
HETATM   10  N2  UNL     1       1.316  -0.724  -1.205  1.00  0.00    -0.225 N 
HETATM   11  C1  UNL     1       2.680  -1.006  -1.465  1.00  0.00     0.669 C 
HETATM   12  N1  UNL     1       2.986  -1.839  -2.389  1.00  0.00    -0.235 N 
HETATM   13  N6  UNL     1       3.693  -0.378  -0.715  1.00  0.00    -0.218 N 
ATOM     14  H12 UNL     1       2.252  -2.294  -2.932  1.00  0.00     0.174 HD
ATOM     15  H11 UNL     1       3.968  -2.042  -2.576  1.00  0.00     0.174 HD
HETATM   16  C11 UNL     1       4.138   0.992  -0.909  1.00  0.00     0.142 C 
HETATM   17  C15 UNL     1       4.503  -0.891   0.370  1.00  0.00     0.155 C 
HETATM   18  C12 UNL     1       5.642   0.846  -0.817  1.00  0.00     0.036 C 
HETATM   19  C13 UNL     1       5.785  -0.108   0.365  1.00  0.00     0.095 C 
ATOM     20  H2  UNL     1       0.652  -0.634  -1.974  1.00  0.00     0.177 HD
BRANCH  19  21
HETATM   21  C14 UNL     1       6.966  -0.948   0.094  1.00  0.00     0.236 C 
HETATM   22  N7  UNL     1       8.229  -0.346  -0.065  1.00  0.00    -0.062 NA
HETATM   23  O5  UNL     1       6.832  -2.186   0.008  1.00  0.00    -0.276 OA
ENDBRANCH  19  21
ENDBRANCH   9  10
ENDBRANCH   1   9
BRANCH   4  24
HETATM   24  N3  UNL     1      -3.840   0.234   0.121  1.00  0.00    -0.330 N 
HETATM   25  C7  UNL     1      -5.236   0.465   0.018  1.00  0.00     0.317 C 
HETATM   26  O1  UNL     1      -5.763   1.376   0.710  1.00  0.00    -0.247 OA
HETATM   27  N4  UNL     1      -5.996  -0.346  -0.869  1.00  0.00    -0.333 N 
ATOM     28  H4  UNL     1      -5.538  -1.070  -1.423  1.00  0.00     0.164 HD
ATOM     29  H3  UNL     1      -3.407  -0.502  -0.437  1.00  0.00     0.165 HD
BRANCH  27  30
HETATM   30  C8  UNL     1      -7.414  -0.138  -0.979  1.00  0.00     0.237 C 
BRANCH  30  31
HETATM   31  C9  UNL     1      -8.067  -0.391   0.304  1.00  0.00     0.191 C 
HETATM   32  O2  UNL     1      -7.471  -0.775   1.331  1.00  0.00    -0.647 OA
HETATM   33  O3  UNL     1      -9.456  -0.184   0.372  1.00  0.00    -0.647 OA
ENDBRANCH  30  31
ENDBRANCH  27  30
ENDBRANCH   4  24
TORSDOF 6
