REMARK  3 active torsions:
REMARK  status: ('A' for Active; 'I' for Inactive)
REMARK    1  A    between atoms: C3_3  and  C4_4 
REMARK    2  A    between atoms: C4_4  and  S1_5 
REMARK    3  A    between atoms: S1_5  and  C6_7 
ROOT
HETATM    1  C1  UNL     1       4.308   1.008   2.792  1.00  0.00     0.112 C 
HETATM    2  C2  UNL     1       4.145   0.647   1.374  1.00  0.00    -0.110 C 
HETATM    3  C3  UNL     1       4.029   0.361   0.209  1.00  0.00    -0.097 C 
ENDROOT
BRANCH   3   4
HETATM    4  C4  UNL     1       3.912   0.014  -1.228  1.00  0.00     0.163 C 
BRANCH   4   5
HETATM    5  S1  UNL     1       2.779  -1.354  -1.296  1.00  0.00    -0.163 SA
HETATM    6  C5  UNL     1       2.597  -1.817  -2.999  1.00  0.00     0.086 C 
BRANCH   5   7
HETATM    7  C6  UNL     1       1.280  -1.006  -0.523  1.00  0.00     0.063 A 
HETATM    8  C7  UNL     1       0.184  -0.449  -1.176  1.00  0.00     0.052 A 
HETATM    9  C8  UNL     1      -0.862  -0.296  -0.274  1.00  0.00     0.021 A 
HETATM   10  C9  UNL     1      -2.160   0.122  -0.075  1.00  0.00     0.006 A 
HETATM   11  C11 UNL     1      -0.368  -0.771   0.923  1.00  0.00     0.117 A 
HETATM   12  C10 UNL     1      -2.451  -0.099   1.241  1.00  0.00     0.111 A 
HETATM   13  C14 UNL     1      -3.323   0.711  -0.757  1.00  0.00     0.167 A 
HETATM   14  N1  UNL     1      -1.353  -0.641   1.830  1.00  0.00    -0.337 N 
HETATM   15  C12 UNL     1      -3.819   0.341   1.452  1.00  0.00     0.271 A 
ATOM     16  H1  UNL     1      -1.286  -0.909   2.812  1.00  0.00     0.167 HD
HETATM   17  O1  UNL     1      -4.446   0.294   2.551  1.00  0.00    -0.266 OA
HETATM   18  N3  UNL     1      -4.344   0.832   0.238  1.00  0.00    -0.347 N 
HETATM   19  C13 UNL     1      -5.676   1.371  -0.001  1.00  0.00     0.153 C 
HETATM   20  N2  UNL     1       0.905  -1.191   0.767  1.00  0.00    -0.337 N 
ATOM     21  H2  UNL     1       1.492  -1.585   1.502  1.00  0.00     0.168 HD
ENDBRANCH   5   7
ENDBRANCH   4   5
ENDBRANCH   3   4
TORSDOF 3
