REMARK  4 active torsions:
REMARK  status: ('A' for Active; 'I' for Inactive)
REMARK    1  A    between atoms: C2_2  and  C3_3 
REMARK    2  A    between atoms: C3_3  and  C4_4 
REMARK    3  A    between atoms: C15_18  and  N3_19 
REMARK    4  A    between atoms: N3_19  and  C16_21 
ROOT
HETATM    1  C4  UNL     1       2.967   0.338   0.142  1.00  0.00     0.078 A 
HETATM    2  C5  UNL     1       1.987   1.137   0.685  1.00  0.00     0.068 A 
HETATM    3  C6  UNL     1       0.693   0.754   0.814  1.00  0.00     0.048 A 
HETATM    4  N1  UNL     1      -0.418   1.289   1.191  1.00  0.00    -0.355 N 
ATOM      5  H1  UNL     1      -0.471   2.238   1.561  1.00  0.00     0.166 HD
HETATM    6  C7  UNL     1      -1.507   0.500   1.060  1.00  0.00     0.046 A 
HETATM    7  C8  UNL     1      -1.024  -0.691   0.531  1.00  0.00     0.005 A 
HETATM    8  C9  UNL     1       0.336  -0.549   0.383  1.00  0.00     0.025 A 
HETATM    9  C10 UNL     1       1.306  -1.344  -0.131  1.00  0.00     0.021 A 
HETATM   10  C11 UNL     1       0.934  -2.732  -0.499  1.00  0.00     0.069 C 
HETATM   11  N2  UNL     1       2.612  -0.920  -0.265  1.00  0.00    -0.348 N 
HETATM   12  C12 UNL     1       3.538  -1.862  -0.817  1.00  0.00     0.157 C 
HETATM   13  C13 UNL     1      -1.994  -1.661  -0.039  1.00  0.00     0.017 C 
HETATM   14  C14 UNL     1      -3.294  -1.208  -0.017  1.00  0.00     0.030 C 
HETATM   15  C15 UNL     1      -3.609   0.111   0.523  1.00  0.00     0.030 C 
HETATM   16  C18 UNL     1      -2.752   0.612   1.376  1.00  0.00     0.059 C 
ENDROOT
BRANCH  15  17
HETATM   17  N3  UNL     1      -4.716   0.927   0.201  1.00  0.00    -0.390 N 
ATOM     18  H3  UNL     1      -4.696   1.875   0.577  1.00  0.00     0.159 HD
BRANCH  17  19
HETATM   19  C16 UNL     1      -5.874   0.586  -0.596  1.00  0.00     0.115 C 
HETATM   20  C17 UNL     1      -6.735  -0.462   0.096  1.00  0.00     0.026 C 
ENDBRANCH  17  19
ENDBRANCH  15  17
BRANCH   1  21
HETATM   21  C3  UNL     1       4.014   0.980  -0.256  1.00  0.00    -0.127 C 
BRANCH  21  22
HETATM   22  C2  UNL     1       5.156   1.651  -0.694  1.00  0.00     0.083 C 
HETATM   23  C1  UNL     1       4.992   3.208  -0.476  1.00  0.00     0.017 C 
ENDBRANCH  21  22
ENDBRANCH   1  21
TORSDOF 4
