REMARK  10 active torsions:
REMARK  status: ('A' for Active; 'I' for Inactive)
REMARK    1  A    between atoms: C3_3  and  C4_4 
REMARK    2  A    between atoms: C4_4  and  C5_5 
REMARK    3  A    between atoms: C5_5  and  C6_6 
REMARK    4  A    between atoms: C6_6  and  C7_7 
REMARK    5  A    between atoms: C7_7  and  C8_8 
REMARK    6  A    between atoms: N1_11  and  C11_12 
REMARK    7  A    between atoms: C11_12  and  C12_13 
REMARK    8  A    between atoms: C12_13  and  N2_14 
REMARK    9  A    between atoms: N2_14  and  C13_16 
REMARK   10  A    between atoms: C13_16  and  C14_17 
ROOT
HETATM    1  C1  UNL     1       8.794  -2.632  -0.247  1.00  0.00     0.112 C 
HETATM    2  C2  UNL     1       7.416  -2.152  -0.309  1.00  0.00    -0.111 C 
HETATM    3  C3  UNL     1       6.283  -1.736  -0.371  1.00  0.00    -0.107 C 
ENDROOT
BRANCH   3   4
HETATM    4  C4  UNL     1       4.903  -1.207  -0.466  1.00  0.00     0.094 C 
BRANCH   4   5
HETATM    5  C5  UNL     1       4.892   0.162   0.136  1.00  0.00     0.012 C 
BRANCH   5   6
HETATM    6  C6  UNL     1       3.563   0.845   0.113  1.00  0.00     0.001 C 
BRANCH   6   7
HETATM    7  C7  UNL     1       2.491   0.098   0.858  1.00  0.00     0.005 C 
BRANCH   7   8
HETATM    8  C8  UNL     1       1.163   0.836   0.810  1.00  0.00    -0.007 C 
HETATM    9  C9  UNL     1       0.757   0.977  -0.615  1.00  0.00     0.033 C 
HETATM   10  C10 UNL     1      -0.667   1.340  -0.839  1.00  0.00     0.238 C 
HETATM   11  N1  UNL     1      -1.478   1.155   0.355  1.00  0.00    -0.065 N 
HETATM   12  C17 UNL     1      -1.076   2.129   1.376  1.00  0.00     0.238 C 
HETATM   13  C20 UNL     1      -1.142  -0.146   0.874  1.00  0.00     0.242 C 
HETATM   14  C18 UNL     1      -0.483   1.312   2.529  1.00  0.00     0.034 C 
HETATM   15  C19 UNL     1       0.127   0.183   1.677  1.00  0.00     0.017 C 
BRANCH  11  16
HETATM   16  C11 UNL     1      -2.863   1.382   0.123  1.00  0.00     0.256 C 
BRANCH  16  17
HETATM   17  C12 UNL     1      -3.433   0.888  -1.148  1.00  0.00     0.142 C 
BRANCH  17  18
HETATM   18  N2  UNL     1      -3.348  -0.527  -1.250  1.00  0.00    -0.419 N 
ATOM     19  H2  UNL     1      -2.703  -0.981  -1.897  1.00  0.00     0.153 HD
BRANCH  18  20
HETATM   20  C13 UNL     1      -4.212  -1.280  -0.399  1.00  0.00     0.118 C 
BRANCH  20  21
HETATM   21  C14 UNL     1      -5.670  -1.126  -0.809  1.00  0.00     0.003 A 
HETATM   22  C15 UNL     1      -6.720  -1.818  -0.064  1.00  0.00     0.007 A 
HETATM   23  C16 UNL     1      -6.548  -0.331   0.205  1.00  0.00     0.007 A 
ENDBRANCH  20  21
ENDBRANCH  18  20
ENDBRANCH  17  18
ENDBRANCH  16  17
ENDBRANCH  11  16
ENDBRANCH   7   8
ENDBRANCH   6   7
ENDBRANCH   5   6
ENDBRANCH   4   5
ENDBRANCH   3   4
TORSDOF 10
