REMARK  11 active torsions:
REMARK  status: ('A' for Active; 'I' for Inactive)
REMARK    1  A    between atoms: C2_2  and  C4_4 
REMARK    2  A    between atoms: C4_4  and  N1_5 
REMARK    3  A    between atoms: C4_4  and  C30_36 
REMARK       I    between atoms: N1_5  and  C5_7 
REMARK    4  A    between atoms: C5_7  and  C6_9 
REMARK    5  A    between atoms: C9_12  and  N2_13 
REMARK    6  A    between atoms: N2_13  and  C10_14 
REMARK    7  A    between atoms: N2_13  and  C16_20 
REMARK    8  A    between atoms: C10_14  and  C11_15 
REMARK    9  A    between atoms: C24_28  and  C25_29 
REMARK   10  A    between atoms: C25_29  and  C26_30 
REMARK   11  A    between atoms: C26_30  and  O2_31 
ROOT
HETATM    1  N2  UNL     1      -1.315   0.623  -0.141  1.00  0.00    -0.359 N 
ENDROOT
BRANCH   1   2
HETATM    2  C9  UNL     1       0.026   0.260   0.050  1.00  0.00    -0.011 C 
HETATM    3  C8  UNL     1       0.914   1.554   0.083  1.00  0.00     0.053 C 
HETATM    4  C7  UNL     1       2.083   1.333   0.935  1.00  0.00     0.020 C 
HETATM    5  C6  UNL     1       2.754   0.007   0.801  1.00  0.00     0.078 C 
HETATM    6  C29 UNL     1       1.916  -1.141   0.387  1.00  0.00     0.020 C 
HETATM    7  C28 UNL     1       0.833  -0.729  -0.621  1.00  0.00     0.053 C 
BRANCH   5   8
HETATM    8  C5  UNL     1       3.944   0.067  -0.081  1.00  0.00     0.222 C 
HETATM    9  N1  UNL     1       5.221  -0.502   0.262  1.00  0.00    -0.346 N 
ATOM     10  H1  UNL     1       5.390  -0.981   1.147  1.00  0.00     0.163 HD
HETATM   11  O1  UNL     1       3.791   0.664  -1.199  1.00  0.00    -0.273 OA
BRANCH   9  12
HETATM   12  C4  UNL     1       6.258  -0.340  -0.758  1.00  0.00     0.189 C 
BRANCH  12  13
HETATM   13  C2  UNL     1       7.553  -0.089  -0.012  1.00  0.00     0.010 C 
HETATM   14  C1  UNL     1       7.397   1.183   0.835  1.00  0.00     0.012 C 
HETATM   15  C3  UNL     1       7.879  -1.197   0.938  1.00  0.00     0.012 C 
ENDBRANCH  12  13
BRANCH  12  16
HETATM   16  C30 UNL     1       6.336  -1.704  -1.378  1.00  0.00     0.197 C 
HETATM   17  O3  UNL     1       7.418  -2.362  -1.233  1.00  0.00    -0.646 OA
HETATM   18  O4  UNL     1       5.287  -2.246  -2.070  1.00  0.00    -0.646 OA
ENDBRANCH  12  16
ENDBRANCH   9  12
ENDBRANCH   5   8
ENDBRANCH   1   2
BRANCH   1  19
HETATM   19  C10 UNL     1      -1.513   1.538  -1.230  1.00  0.00     0.133 C 
BRANCH  19  20
HETATM   20  C11 UNL     1      -2.755   2.388  -1.107  1.00  0.00     0.004 C 
HETATM   21  C12 UNL     1      -2.725   3.352  -2.274  1.00  0.00     0.006 C 
HETATM   22  C13 UNL     1      -3.298   4.659  -1.762  1.00  0.00     0.000 C 
HETATM   23  C14 UNL     1      -3.534   4.527  -0.290  1.00  0.00     0.000 C 
HETATM   24  C15 UNL     1      -2.697   3.316   0.065  1.00  0.00     0.006 C 
ENDBRANCH  19  20
ENDBRANCH   1  19
BRANCH   1  25
HETATM   25  C16 UNL     1      -2.370  -0.116   0.364  1.00  0.00     0.002 C 
HETATM   26  C17 UNL     1      -2.334  -0.266   1.892  1.00  0.00     0.033 C 
HETATM   27  C18 UNL     1      -1.826  -1.590   2.339  1.00  0.00     0.015 C 
HETATM   28  C22 UNL     1      -3.758  -0.185   2.386  1.00  0.00     0.015 C 
HETATM   29  C19 UNL     1      -2.706  -2.715   1.799  1.00  0.00    -0.012 C 
HETATM   30  C20 UNL     1      -4.114  -2.596   2.265  1.00  0.00     0.009 C 
HETATM   31  C27 UNL     1      -2.561  -2.600   0.297  1.00  0.00     0.020 C 
HETATM   32  C21 UNL     1      -4.622  -1.251   1.763  1.00  0.00    -0.012 C 
HETATM   33  C23 UNL     1      -4.525  -1.267   0.265  1.00  0.00     0.020 C 
HETATM   34  C24 UNL     1      -3.081  -1.243  -0.215  1.00  0.00     0.001 C 
BRANCH  34  35
HETATM   35  C25 UNL     1      -3.144  -1.363  -1.716  1.00  0.00     0.041 C 
BRANCH  35  36
HETATM   36  C26 UNL     1      -3.986  -2.500  -2.214  1.00  0.00     0.165 C 
BRANCH  36  37
HETATM   37  O2  UNL     1      -3.877  -2.510  -3.633  1.00  0.00    -0.401 OA
ATOM     38  H2  UNL     1      -4.410  -3.230  -3.948  1.00  0.00     0.209 HD
ENDBRANCH  36  37
ENDBRANCH  35  36
ENDBRANCH  34  35
ENDBRANCH   1  25
TORSDOF 11
