REMARK  10 active torsions:
REMARK  status: ('A' for Active; 'I' for Inactive)
REMARK    1  A    between atoms: C2_2  and  C3_3 
REMARK    2  A    between atoms: C3_3  and  C4_4 
REMARK    3  A    between atoms: C4_4  and  C5_5 
REMARK    4  A    between atoms: C7_7  and  C8_8 
REMARK    5  A    between atoms: C17_17  and  C18_18 
REMARK    6  A    between atoms: C18_18  and  C20_20 
REMARK    7  A    between atoms: C20_20  and  C21_21 
REMARK    8  A    between atoms: C21_21  and  C22_22 
REMARK       I    between atoms: C22_22  and  N1_24 
REMARK    9  A    between atoms: N1_24  and  C23_26 
REMARK   10  A    between atoms: C23_26  and  C24_27 
ROOT
HETATM    1  C5  UNL     1      -4.718   0.296  -0.191  1.00  0.00    -0.009 C 
HETATM    2  C6  UNL     1      -4.745  -0.951  -1.067  1.00  0.00     0.010 C 
HETATM    3  C7  UNL     1      -3.469  -0.848  -1.865  1.00  0.00    -0.006 C 
HETATM    4  C10 UNL     1      -2.678   0.273  -1.291  1.00  0.00    -0.032 C 
HETATM    5  C11 UNL     1      -3.002   1.545  -2.049  1.00  0.00     0.016 C 
HETATM    6  C12 UNL     1      -3.244   0.443   0.091  1.00  0.00    -0.002 C 
HETATM    7  C13 UNL     1      -2.694  -0.489   1.101  1.00  0.00     0.006 C 
HETATM    8  C14 UNL     1      -1.195  -0.388   1.117  1.00  0.00     0.010 C 
HETATM    9  C15 UNL     1      -0.612  -0.780  -0.253  1.00  0.00    -0.036 C 
HETATM   10  C16 UNL     1      -0.699  -2.264  -0.311  1.00  0.00     0.016 C 
HETATM   11  C17 UNL     1       0.857  -0.382  -0.158  1.00  0.00    -0.002 C 
HETATM   12  C28 UNL     1       0.791   1.078  -0.523  1.00  0.00     0.006 C 
HETATM   13  C29 UNL     1      -0.406   1.298  -1.389  1.00  0.00     0.006 C 
HETATM   14  C30 UNL     1      -1.217  -0.010  -1.353  1.00  0.00     0.003 C 
ENDROOT
BRANCH  11  15
HETATM   15  C18 UNL     1       1.794  -1.163  -0.980  1.00  0.00    -0.013 C 
HETATM   16  C19 UNL     1       1.576  -1.138  -2.471  1.00  0.00     0.010 C 
BRANCH  15  17
HETATM   17  C20 UNL     1       3.206  -0.685  -0.747  1.00  0.00     0.014 C 
BRANCH  17  18
HETATM   18  C21 UNL     1       3.689  -0.803   0.655  1.00  0.00     0.103 C 
BRANCH  18  19
HETATM   19  C22 UNL     1       5.120  -0.293   0.691  1.00  0.00     0.221 C 
HETATM   20  O1  UNL     1       5.592   0.102  -0.372  1.00  0.00    -0.273 OA
HETATM   21  N1  UNL     1       5.828  -0.291   1.899  1.00  0.00    -0.340 N 
ATOM     22  H1  UNL     1       5.292  -0.664   2.683  1.00  0.00     0.167 HD
BRANCH  21  23
HETATM   23  C23 UNL     1       7.127   0.119   2.256  1.00  0.00     0.087 C 
BRANCH  23  24
HETATM   24  C24 UNL     1       7.553   1.524   2.181  1.00  0.00     0.209 C 
HETATM   25  C25 UNL     1       8.980   1.550   2.707  1.00  0.00     0.243 C 
HETATM   26  O2  UNL     1       9.210   2.058   3.806  1.00  0.00    -0.272 OA
HETATM   27  N2  UNL     1       9.986   0.991   1.917  1.00  0.00    -0.278 N 
HETATM   28  C26 UNL     1       9.865   0.940   0.495  1.00  0.00     0.329 C 
ATOM     29  H2  UNL     1      10.822   0.613   2.363  1.00  0.00     0.173 HD
HETATM   30  O3  UNL     1      10.765   0.440  -0.220  1.00  0.00    -0.247 OA
HETATM   31  N3  UNL     1       8.675   1.487  -0.044  1.00  0.00    -0.278 N 
HETATM   32  C27 UNL     1       7.662   2.055   0.814  1.00  0.00     0.243 C 
ATOM     33  H3  UNL     1       8.531   1.480  -1.054  1.00  0.00     0.173 HD
HETATM   34  O4  UNL     1       6.922   2.974   0.366  1.00  0.00    -0.272 OA
ENDBRANCH  23  24
ENDBRANCH  21  23
ENDBRANCH  18  19
ENDBRANCH  17  18
ENDBRANCH  15  17
ENDBRANCH  11  15
BRANCH   3  35
HETATM   35  C8  UNL     1      -3.703  -0.798  -3.343  1.00  0.00     0.001 C 
HETATM   36  C9  UNL     1      -4.426  -2.068  -3.808  1.00  0.00     0.005 C 
ENDBRANCH   3  35
BRANCH   1  37
HETATM   37  C4  UNL     1      -5.569   0.089   0.997  1.00  0.00     0.005 C 
BRANCH  37  38
HETATM   38  C3  UNL     1      -5.618   1.280   1.929  1.00  0.00     0.000 C 
BRANCH  38  39
HETATM   39  C2  UNL     1      -6.532   0.909   3.105  1.00  0.00    -0.005 C 
HETATM   40  C1  UNL     1      -7.913   0.583   2.639  1.00  0.00     0.005 C 
ENDBRANCH  38  39
ENDBRANCH  37  38
ENDBRANCH   1  37
TORSDOF 10
