REMARK  11 active torsions:
REMARK  status: ('A' for Active; 'I' for Inactive)
REMARK    1  A    between atoms: C2_2  and  C4_4 
REMARK    2  A    between atoms: C4_4  and  C5_5 
REMARK    3  A    between atoms: C5_5  and  C6_6 
REMARK    4  A    between atoms: C6_6  and  N1_7 
REMARK    5  A    between atoms: N2_10  and  C9_11 
REMARK    6  A    between atoms: C9_11  and  C10_12 
REMARK    7  A    between atoms: C10_12  and  N3_13 
REMARK    8  A    between atoms: N3_13  and  C11_15 
REMARK    9  A    between atoms: C11_15  and  C12_16 
REMARK   10  A    between atoms: C12_16  and  N4_17 
REMARK   11  A    between atoms: N4_17  and  C13_18 
ROOT
HETATM    1  C13 UNL     1      -4.579   0.876   0.600  1.00  0.00     0.133 A 
HETATM    2  C14 UNL     1      -5.277  -0.272   0.097  1.00  0.00     0.033 A 
HETATM    3  C15 UNL     1      -4.771  -1.528   0.179  1.00  0.00     0.025 A 
HETATM    4  C16 UNL     1      -5.458  -2.643  -0.270  1.00  0.00    -0.051 A 
HETATM    5  C17 UNL     1      -6.738  -2.449  -0.830  1.00  0.00    -0.050 A 
HETATM    6  C18 UNL     1      -7.250  -1.196  -0.919  1.00  0.00     0.038 A 
HETATM    7  C19 UNL     1      -6.520  -0.091  -0.448  1.00  0.00     0.048 A 
HETATM    8  N5  UNL     1      -7.112   1.091  -0.541  1.00  0.00    -0.341 N 
ATOM      9  H5  UNL     1      -8.038   1.179  -0.959  1.00  0.00     0.167 HD
HETATM   10  C20 UNL     1      -6.456   2.184  -0.066  1.00  0.00     0.120 A 
HETATM   11  N6  UNL     1      -6.836   3.468  -0.011  1.00  0.00    -0.341 N 
ATOM     12  H6  UNL     1      -7.722   3.825  -0.368  1.00  0.00     0.167 HD
HETATM   13  C21 UNL     1      -5.900   4.217   0.573  1.00  0.00     0.045 A 
HETATM   14  C22 UNL     1      -5.830   5.555   0.900  1.00  0.00     0.030 A 
HETATM   15  C23 UNL     1      -4.730   6.070   1.566  1.00  0.00     0.002 A 
HETATM   16  C24 UNL     1      -3.703   5.251   1.902  1.00  0.00     0.001 A 
HETATM   17  C25 UNL     1      -3.747   3.909   1.590  1.00  0.00     0.015 A 
HETATM   18  C26 UNL     1      -4.832   3.395   0.935  1.00  0.00     0.008 A 
HETATM   19  C27 UNL     1      -5.204   2.098   0.509  1.00  0.00     0.062 A 
HETATM   20  C28 UNL     1      -7.275  -3.788  -1.228  1.00  0.00     0.039 C 
HETATM   21  C29 UNL     1      -6.621  -4.639  -0.157  1.00  0.00     0.009 C 
HETATM   22  C30 UNL     1      -5.176  -4.136  -0.278  1.00  0.00     0.039 C 
ENDROOT
BRANCH   1  23
HETATM   23  N4  UNL     1      -3.481   0.677   1.023  1.00  0.00    -0.415 NA
BRANCH  23  24
HETATM   24  C12 UNL     1      -2.234   0.540   1.518  1.00  0.00     0.199 C 
BRANCH  24  25
HETATM   25  C11 UNL     1      -1.097   1.198   0.746  1.00  0.00     0.115 C 
BRANCH  25  26
HETATM   26  N3  UNL     1      -0.684   0.703  -0.471  1.00  0.00    -0.395 N 
ATOM     27  H3  UNL     1      -1.001   1.110  -1.351  1.00  0.00     0.159 HD
BRANCH  26  28
HETATM   28  C10 UNL     1       0.243  -0.450  -0.436  1.00  0.00     0.149 C 
BRANCH  28  29
HETATM   29  C9  UNL     1       1.532   0.019   0.182  1.00  0.00     0.292 C 
BRANCH  29  30
HETATM   30  N2  UNL     1       2.514  -1.010   0.195  1.00  0.00     0.093 N 
HETATM   31  C8  UNL     1       3.643  -0.613   1.063  1.00  0.00     0.302 C 
HETATM   32  C7  UNL     1       4.705  -1.664   0.912  1.00  0.00     0.302 C 
HETATM   33  N1  UNL     1       5.378  -1.437  -0.362  1.00  0.00     0.091 N 
HETATM   34  C32 UNL     1       4.458  -0.849  -1.315  1.00  0.00     0.302 C 
HETATM   35  C31 UNL     1       3.046  -1.306  -1.123  1.00  0.00     0.302 C 
BRANCH  33  36
HETATM   36  C6  UNL     1       6.584  -0.665  -0.208  1.00  0.00     0.273 C 
BRANCH  36  37
HETATM   37  C5  UNL     1       7.641  -1.441   0.485  1.00  0.00     0.034 C 
BRANCH  37  38
HETATM   38  C4  UNL     1       8.909  -0.713   0.770  1.00  0.00     0.034 C 
BRANCH  38  39
HETATM   39  C2  UNL     1       9.722  -0.164  -0.284  1.00  0.00    -0.093 C 
HETATM   40  C1  UNL     1      10.915  -0.650  -0.646  1.00  0.00     0.014 C 
HETATM   41  C3  UNL     1       9.335   1.112  -0.987  1.00  0.00     0.042 C 
ENDBRANCH  38  39
ENDBRANCH  37  38
ENDBRANCH  36  37
ENDBRANCH  33  36
ENDBRANCH  29  30
ENDBRANCH  28  29
ENDBRANCH  26  28
ENDBRANCH  25  26
ENDBRANCH  24  25
ENDBRANCH  23  24
ENDBRANCH   1  23
TORSDOF 11
