REMARK  2 active torsions:
REMARK  status: ('A' for Active; 'I' for Inactive)
REMARK    1  A    between atoms: N1_1  and  C1_5 
REMARK    2  A    between atoms: C1_5  and  C2_6 
ROOT
HETATM    1  C1  UNL     1      -0.458   0.557   0.241  1.00  0.00     0.291 C 
HETATM    2  C3  UNL     1       0.084  -0.331   1.300  1.00  0.00     0.272 C 
HETATM    3  O1  UNL     1      -0.442  -0.400   2.441  1.00  0.00    -0.270 OA
HETATM    4  N2  UNL     1       1.235  -1.149   1.062  1.00  0.00    -0.276 N 
ATOM      5  H2  UNL     1       1.483  -1.883   1.726  1.00  0.00     0.173 HD
HETATM    6  C4  UNL     1       2.032  -0.943  -0.094  1.00  0.00     0.329 C 
HETATM    7  O2  UNL     1       3.057  -1.662  -0.319  1.00  0.00    -0.247 OA
HETATM    8  N3  UNL     1       1.703   0.073  -1.028  1.00  0.00    -0.276 N 
ATOM      9  H3  UNL     1       2.276   0.221  -1.859  1.00  0.00     0.173 HD
HETATM   10  C5  UNL     1       0.553   0.885  -0.782  1.00  0.00     0.272 C 
HETATM   11  O3  UNL     1       0.443   1.917  -1.499  1.00  0.00    -0.270 OA
ENDROOT
BRANCH   1  12
HETATM   12  N1  UNL     1      -0.844   1.804   0.879  1.00  0.00    -0.052 N 
ATOM     13  H13 UNL     1      -1.306   2.447   0.236  1.00  0.00     0.276 HD
ATOM     14  H12 UNL     1      -1.616   1.687   1.535  1.00  0.00     0.276 HD
ATOM     15  H11 UNL     1      -0.017   2.211   1.315  1.00  0.00     0.276 HD
ENDBRANCH   1  12
BRANCH   1  16
HETATM   16  C2  UNL     1      -1.690  -0.049  -0.408  1.00  0.00     0.145 C 
HETATM   17  S1  UNL     1      -1.279  -1.609  -1.224  1.00  0.00    -0.094 SA
ENDBRANCH   1  16
TORSDOF 2
