REMARK  5 active torsions:
REMARK  status: ('A' for Active; 'I' for Inactive)
REMARK    1  A    between atoms: N1_1  and  C1_5 
REMARK    2  A    between atoms: C1_5  and  C2_6 
REMARK    3  A    between atoms: C2_6  and  N2_7 
REMARK    4  A    between atoms: C2_6  and  N3_11 
REMARK    5  A    between atoms: N3_11  and  C3_13 
ROOT
HETATM    1  C3  UNL     1       0.261  -0.062   0.359  1.00  0.00     0.133 A 
HETATM    2  N4  UNL     1       0.082   0.779   1.387  1.00  0.00    -0.337 N 
ATOM      3  H4  UNL     1      -0.860   0.987   1.720  1.00  0.00     0.168 HD
HETATM    4  C4  UNL     1       1.157   1.353   1.984  1.00  0.00     0.182 A 
HETATM    5  N5  UNL     1       2.397   1.081   1.545  1.00  0.00    -0.346 N 
ATOM      6  H5  UNL     1       3.195   1.522   2.003  1.00  0.00     0.167 HD
HETATM    7  C5  UNL     1       2.613   0.242   0.516  1.00  0.00     0.132 A 
HETATM    8  C6  UNL     1       3.904  -0.035   0.067  1.00  0.00     0.275 A 
HETATM    9  O1  UNL     1       4.885   0.510   0.636  1.00  0.00    -0.266 OA
HETATM   10  N6  UNL     1       4.059  -0.893  -0.981  1.00  0.00    -0.318 N 
ATOM     11  H6  UNL     1       5.000  -1.101  -1.317  1.00  0.00     0.169 HD
HETATM   12  C7  UNL     1       3.006  -1.473  -1.585  1.00  0.00     0.184 A 
HETATM   13  N7  UNL     1       1.759  -1.201  -1.147  1.00  0.00    -0.347 N 
ATOM     14  H7  UNL     1       0.958  -1.638  -1.603  1.00  0.00     0.167 HD
HETATM   15  C8  UNL     1       1.560  -0.356  -0.111  1.00  0.00     0.110 A 
ENDROOT
BRANCH   1  16
HETATM   16  N3  UNL     1      -0.662  -0.659  -0.278  1.00  0.00    -0.346 N 
ATOM     17  H3  UNL     1      -0.365  -1.269  -1.039  1.00  0.00     0.163 HD
BRANCH  16  18
HETATM   18  C2  UNL     1      -2.042  -0.574  -0.053  1.00  0.00     0.308 C 
BRANCH  18  19
HETATM   19  C1  UNL     1      -2.653   0.706  -0.590  1.00  0.00     0.283 C 
BRANCH  19  20
HETATM   20  N1  UNL     1      -4.116   0.594  -0.634  1.00  0.00    -0.076 N 
ATOM     21  H13 UNL     1      -4.419  -0.223  -1.164  1.00  0.00     0.274 HD
ATOM     22  H12 UNL     1      -4.505   0.339   0.274  1.00  0.00     0.274 HD
ATOM     23  H11 UNL     1      -4.527   1.455  -0.995  1.00  0.00     0.274 HD
ENDBRANCH  19  20
ENDBRANCH  18  19
BRANCH  18  24
HETATM   24  N2  UNL     1      -2.510  -0.850   1.279  1.00  0.00    -0.057 N 
ATOM     25  H23 UNL     1      -2.345  -0.063   1.906  1.00  0.00     0.276 HD
ATOM     26  H22 UNL     1      -3.529  -0.872   1.323  1.00  0.00     0.276 HD
ATOM     27  H21 UNL     1      -2.099  -1.711   1.640  1.00  0.00     0.276 HD
ENDBRANCH  18  24
ENDBRANCH  16  18
ENDBRANCH   1  16
TORSDOF 5
