REMARK  6 active torsions:
REMARK  status: ('A' for Active; 'I' for Inactive)
REMARK    1  A    between atoms: N1_1  and  C1_4 
REMARK    2  A    between atoms: N2_7  and  C4_8 
REMARK    3  A    between atoms: C5_10  and  C6_11 
REMARK       I    between atoms: C6_11  and  N3_13 
REMARK       I    between atoms: N3_13  and  C7_15 
REMARK       I    between atoms: C7_15  and  N4_17 
REMARK    4  A    between atoms: N4_17  and  N5_19 
REMARK    5  A    between atoms: C8_22  and  O4_23 
REMARK    6  A    between atoms: C8_22  and  C9_25 
ROOT
HETATM    1  C4  UNL     1      -0.910   1.148  -0.370  1.00  0.00     0.385 C 
HETATM    2  O1  UNL     1       0.066   0.826   0.538  1.00  0.00    -0.322 OA
HETATM    3  C5  UNL     1       1.252   1.212  -0.062  1.00  0.00     0.292 C 
HETATM    4  C8  UNL     1       0.876   1.294  -1.518  1.00  0.00     0.293 C 
HETATM    5  O7  UNL     1      -0.338   0.611  -1.544  1.00  0.00    -0.294 OA
ENDROOT
BRANCH   1   6
HETATM    6  N2  UNL     1      -2.210   0.612  -0.126  1.00  0.00    -0.259 N 
HETATM    7  C3  UNL     1      -3.157   1.193   0.629  1.00  0.00     0.104 A 
HETATM    8  C2  UNL     1      -4.423   0.623   0.823  1.00  0.00     0.065 A 
HETATM    9  C1  UNL     1      -4.724  -0.590   0.218  1.00  0.00     0.103 A 
HETATM   10  N6  UNL     1      -3.742  -1.143  -0.535  1.00  0.00    -0.295 N 
HETATM   11  C10 UNL     1      -2.537  -0.579  -0.707  1.00  0.00     0.331 A 
ATOM     12  H6  UNL     1      -3.929  -2.034  -0.995  1.00  0.00     0.172 HD
HETATM   13  O8  UNL     1      -1.665  -1.141  -1.418  1.00  0.00    -0.246 OA
BRANCH   9  14
HETATM   14  N1  UNL     1      -5.868  -1.159   0.348  1.00  0.00    -0.385 N 
ATOM     15  H12 UNL     1      -6.607  -0.743   0.915  1.00  0.00     0.157 HD
ATOM     16  H11 UNL     1      -6.089  -2.050  -0.096  1.00  0.00     0.157 HD
ENDBRANCH   9  14
ENDBRANCH   1   6
BRANCH   3  17
HETATM   17  C6  UNL     1       2.362   0.394   0.256  1.00  0.00     0.261 C 
HETATM   18  O2  UNL     1       3.493   0.344  -0.011  1.00  0.00    -0.270 OA
HETATM   19  N3  UNL     1       1.913  -0.875   1.332  1.00  0.00    -0.276 N 
HETATM   20  C7  UNL     1       3.123  -1.519   1.441  1.00  0.00     0.341 C 
ATOM     21  H3  UNL     1       1.013  -1.087   1.762  1.00  0.00     0.173 HD
HETATM   22  O3  UNL     1       4.188  -1.133   0.807  1.00  0.00    -0.245 OA
HETATM   23  N4  UNL     1       3.352  -2.656   2.244  1.00  0.00    -0.258 N 
ATOM     24  H4  UNL     1       2.579  -3.038   2.789  1.00  0.00     0.191 HD
BRANCH  23  25
HETATM   25  N5  UNL     1       4.607  -3.279   2.318  1.00  0.00    -0.341 N 
ATOM     26  H52 UNL     1       5.369  -2.884   1.766  1.00  0.00     0.177 HD
ATOM     27  H51 UNL     1       4.773  -4.101   2.899  1.00  0.00     0.177 HD
ENDBRANCH  23  25
ENDBRANCH   3  17
BRANCH   4  28
HETATM   28  O4  UNL     1       0.556   2.647  -1.791  1.00  0.00    -0.355 OA
ATOM     29  H4  UNL     1       0.319   2.699  -2.709  1.00  0.00     0.213 HD
ENDBRANCH   4  28
BRANCH   4  30
HETATM   30  C9  UNL     1       1.870   0.872  -2.478  1.00  0.00     0.242 C 
HETATM   31  O5  UNL     1       2.347  -0.270  -2.571  1.00  0.00    -0.644 OA
HETATM   32  O6  UNL     1       2.361   1.835  -3.409  1.00  0.00    -0.644 OA
ENDBRANCH   4  30
TORSDOF 6
