REMARK  8 active torsions:
REMARK  status: ('A' for Active; 'I' for Inactive)
REMARK    1  A    between atoms: N1_1  and  C1_4 
REMARK    2  A    between atoms: C2_7  and  O1_8 
REMARK    3  A    between atoms: C3_10  and  N3_11 
REMARK    4  A    between atoms: N4_13  and  N5_15 
REMARK    5  A    between atoms: C5_17  and  O2_18 
REMARK    6  A    between atoms: C6_23  and  C7_24 
REMARK    7  A    between atoms: C8_27  and  C9_28 
REMARK       I    between atoms: C9_28  and  N8_30 
REMARK    8  A    between atoms: N8_30  and  N9_32 
ROOT
HETATM    1  N5  UNL     1      -0.402   0.110  -0.073  1.00  0.00    -0.293 N 
HETATM    2  C4  UNL     1       0.164  -0.795  -1.042  1.00  0.00     0.206 C 
HETATM    3  C5  UNL     1      -0.875  -1.893  -1.276  1.00  0.00     0.339 C 
HETATM    4  N6  UNL     1      -2.125  -1.312  -1.726  1.00  0.00    -0.032 N 
ATOM      5  H61 UNL     1      -2.789  -2.023  -2.032  1.00  0.00     0.281 HD
ATOM      6  H62 UNL     1      -2.020  -0.816  -2.611  1.00  0.00     0.281 HD
HETATM    7  C6  UNL     1      -2.685  -0.451  -0.676  1.00  0.00     0.310 C 
HETATM    8  C8  UNL     1      -1.700   0.687  -0.410  1.00  0.00     0.236 C 
ENDROOT
BRANCH   1   9
HETATM    9  N4  UNL     1       0.226   0.416   1.080  1.00  0.00    -0.243 N 
HETATM   10  N3  UNL     1       1.373   0.455   1.450  1.00  0.00    -0.278 N 
ATOM     11  H3  UNL     1       1.443   0.742   2.426  1.00  0.00     0.189 HD
ATOM     12  H4  UNL     1      -0.427   0.678   1.818  1.00  0.00     0.208 HD
BRANCH  10  13
HETATM   13  C3  UNL     1       2.615   0.214   0.901  1.00  0.00     0.169 A 
HETATM   14  C2  UNL     1       3.432  -0.867   1.255  1.00  0.00     0.189 A 
HETATM   15  N2  UNL     1       4.636  -1.037   0.691  1.00  0.00    -0.168 N 
HETATM   16  C1  UNL     1       5.112  -0.183  -0.238  1.00  0.00     0.680 A 
ATOM     17  H2  UNL     1       5.208  -1.834   0.972  1.00  0.00     0.186 HD
HETATM   18  N10 UNL     1       4.338   0.855  -0.586  1.00  0.00    -0.154 N 
HETATM   19  C10 UNL     1       3.145   1.053  -0.048  1.00  0.00     0.292 A 
ATOM     20  H10 UNL     1       4.679   1.513  -1.287  1.00  0.00     0.187 HD
HETATM   21  O5  UNL     1       2.441   2.047  -0.401  1.00  0.00    -0.265 OA
BRANCH  14  22
HETATM   22  O1  UNL     1       2.973  -1.752   2.197  1.00  0.00    -0.344 OA
ATOM     23  H1  UNL     1       2.120  -1.632   2.597  1.00  0.00     0.219 HD
ENDBRANCH  14  22
BRANCH  16  24
HETATM   24  N1  UNL     1       6.288  -0.395  -0.757  1.00  0.00    -0.234 N 
ATOM     25  H12 UNL     1       6.877  -1.185  -0.492  1.00  0.00     0.174 HD
ATOM     26  H11 UNL     1       6.648   0.251  -1.460  1.00  0.00     0.174 HD
ENDBRANCH  16  24
ENDBRANCH  10  13
ENDBRANCH   1   9
BRANCH   8  27
HETATM   27  C9  UNL     1      -2.170   1.590   0.629  1.00  0.00     0.262 C 
HETATM   28  O4  UNL     1      -2.628   2.737   0.280  1.00  0.00    -0.269 OA
HETATM   29  N8  UNL     1      -2.192   1.362   2.025  1.00  0.00    -0.275 N 
ATOM     30  H8  UNL     1      -1.850   0.469   2.381  1.00  0.00     0.189 HD
BRANCH  29  31
HETATM   31  N9  UNL     1      -2.655   2.295   2.919  1.00  0.00    -0.343 N 
ATOM     32  H92 UNL     1      -2.993   3.182   2.546  1.00  0.00     0.176 HD
ATOM     33  H91 UNL     1      -2.671   2.131   3.926  1.00  0.00     0.176 HD
ENDBRANCH  29  31
ENDBRANCH   8  27
BRANCH   3  34
HETATM   34  O2  UNL     1      -0.428  -2.759  -2.259  1.00  0.00    -0.368 OA
ATOM     35  H2  UNL     1      -1.073  -3.441  -2.404  1.00  0.00     0.212 HD
ENDBRANCH   3  34
BRANCH   7  36
HETATM   36  C7  UNL     1      -3.936   0.098  -1.204  1.00  0.00     0.264 C 
HETATM   37  N7  UNL     1      -5.005   0.541  -0.383  1.00  0.00    -0.060 NA
HETATM   38  O3  UNL     1      -4.142   0.207  -2.457  1.00  0.00    -0.274 OA
ENDBRANCH   7  36
TORSDOF 8
