REMARK  2 active torsions:
REMARK  status: ('A' for Active; 'I' for Inactive)
REMARK    1  A    between atoms: C2_2  and  C3_7 
REMARK    2  A    between atoms: N1_3  and  O1_5 
REMARK       I    between atoms: C3_7  and  N2_9 
ROOT
HETATM    1  C3  UNL     1       2.534  -0.904   0.106  1.00  0.00     0.270 C 
HETATM    2  O2  UNL     1       3.133  -1.701   0.870  1.00  0.00    -0.266 OA
HETATM    3  N2  UNL     1       1.257  -1.297  -0.361  1.00  0.00    -0.319 N 
ATOM      4  H2  UNL     1       1.197  -2.029  -1.069  1.00  0.00     0.169 HD
HETATM    5  C4  UNL     1       0.176  -0.769   0.071  1.00  0.00     0.063 C 
HETATM    6  S1  UNL     1       0.289   0.508   1.303  1.00  0.00    -0.079 SA
HETATM    7  C5  UNL     1      -1.283   1.361   1.243  1.00  0.00    -0.001 C 
HETATM    8  C6  UNL     1      -1.499   2.451   2.244  1.00  0.00     0.058 C 
HETATM    9  C7  UNL     1      -2.178   1.015   0.345  1.00  0.00     0.043 C 
HETATM   10 CL1  UNL     1      -3.695   1.945   0.396  1.00  0.00    -0.086 Cl
HETATM   11  C8  UNL     1      -2.082  -0.020  -0.674  1.00  0.00     0.152 C 
HETATM   12  C9  UNL     1      -1.782   0.534  -2.017  1.00  0.00     0.070 C 
HETATM   13  N3  UNL     1      -1.541   0.953  -3.067  1.00  0.00    -0.197 NA
HETATM   14  C10 UNL     1      -1.161  -1.155  -0.394  1.00  0.00     0.023 C 
HETATM   15  C11 UNL     1      -1.837  -2.058   0.631  1.00  0.00     0.024 C 
HETATM   16  C12 UNL     1      -0.973  -1.921  -1.711  1.00  0.00     0.024 C 
ENDROOT
BRANCH   1  17
HETATM   17  C2  UNL     1       3.175   0.340  -0.243  1.00  0.00     0.096 C 
HETATM   18  C1  UNL     1       2.491   1.296  -1.141  1.00  0.00     0.076 C 
HETATM   19  N1  UNL     1       4.333   0.639   0.212  1.00  0.00    -0.268 N 
ATOM     20  H1  UNL     1       4.736   1.533  -0.068  1.00  0.00     0.194 HD
BRANCH  19  21
HETATM   21  O1  UNL     1       5.068  -0.156   1.048  1.00  0.00    -0.290 OA
ATOM     22  H1  UNL     1       5.928   0.066   1.386  1.00  0.00     0.244 HD
ENDBRANCH  19  21
ENDBRANCH   1  17
TORSDOF 2
