REMARK  2 active torsions:
REMARK  status: ('A' for Active; 'I' for Inactive)
REMARK    1  A    between atoms: O1_1  and  C1_3 
REMARK    2  A    between atoms: C8_10  and  N1_11 
ROOT
HETATM    1  C1  UNL     1      -1.538   1.395  -0.105  1.00  0.00     0.126 C 
HETATM    2  C2  UNL     1      -1.162   0.497  -1.247  1.00  0.00     0.017 C 
HETATM    3  C3  UNL     1      -1.718  -0.906  -1.098  1.00  0.00     0.012 C 
HETATM    4  C4  UNL     1      -1.215  -1.494   0.194  1.00  0.00    -0.011 C 
HETATM    5  C5  UNL     1      -1.689  -0.575   1.317  1.00  0.00     0.012 C 
HETATM    6  C6  UNL     1      -1.041   0.776   1.202  1.00  0.00     0.017 C 
HETATM    7  C7  UNL     1       0.460   0.710   1.136  1.00  0.00     0.042 C 
HETATM    8  C8  UNL     1       0.854  -0.189  -0.021  1.00  0.00     0.073 C 
HETATM    9  C10 UNL     1       0.277  -1.562   0.274  1.00  0.00     0.039 C 
HETATM   10  C11 UNL     1       0.327   0.363  -1.340  1.00  0.00     0.042 C 
ENDROOT
BRANCH   8  11
HETATM   11  N1  UNL     1       2.301  -0.224  -0.078  1.00  0.00    -0.209 N 
HETATM   12  N2  UNL     1       3.017   0.760  -0.615  1.00  0.00    -0.277 N 
HETATM   13  C9  UNL     1       4.336   0.450  -0.526  1.00  0.00     0.217 A 
ATOM     14  H2  UNL     1       2.636   1.611  -1.028  1.00  0.00     0.189 HD
HETATM   15  N3  UNL     1       4.404  -0.730   0.069  1.00  0.00    -0.279 N 
HETATM   16  N4  UNL     1       3.153  -1.128   0.336  1.00  0.00    -0.224 N 
ATOM     17  H3  UNL     1       5.257  -1.245   0.286  1.00  0.00     0.189 HD
ATOM     18  H4  UNL     1       2.902  -2.004   0.793  1.00  0.00     0.210 HD
ENDBRANCH   8  11
BRANCH   1  19
HETATM   19  O1  UNL     1      -2.912   1.488  -0.003  1.00  0.00    -0.395 OA
ATOM     20  H1  UNL     1      -3.150   2.056   0.720  1.00  0.00     0.210 HD
ENDBRANCH   1  19
TORSDOF 2
