REMARK  2 active torsions:
REMARK  status: ('A' for Active; 'I' for Inactive)
REMARK    1  A    between atoms: C2_2  and  C3_3 
REMARK    2  A    between atoms: C5_5  and  O1_6 
ROOT
HETATM    1  C3  UNL     1       0.474  -0.501  -0.038  1.00  0.00     0.021 A 
HETATM    2  C4  UNL     1       0.633  -2.033   0.172  1.00  0.00     0.021 C 
HETATM    3  C5  UNL     1      -0.403  -0.286  -1.214  1.00  0.00     0.169 A 
HETATM    4  C6  UNL     1      -1.529   0.155  -0.320  1.00  0.00     0.198 A 
HETATM    5  C7  UNL     1      -1.980   1.540  -0.518  1.00  0.00     0.090 C 
HETATM    6  N1  UNL     1      -2.340   2.631  -0.677  1.00  0.00    -0.195 NA
HETATM    7  C8  UNL     1      -2.647  -0.750  -0.224  1.00  0.00     0.090 C 
HETATM    8  N2  UNL     1      -3.537  -1.472  -0.159  1.00  0.00    -0.195 NA
HETATM    9  C9  UNL     1      -0.596  -0.034   0.874  1.00  0.00     0.183 A 
HETATM   10  C10 UNL     1      -1.101  -1.062   1.821  1.00  0.00     0.088 C 
HETATM   11  N3  UNL     1      -1.480  -1.875   2.552  1.00  0.00    -0.195 NA
HETATM   12  C11 UNL     1      -0.466   1.209   1.577  1.00  0.00     0.088 C 
HETATM   13  N4  UNL     1      -0.383   2.210   2.161  1.00  0.00    -0.195 NA
ENDROOT
BRANCH   3  14
HETATM   14  O1  UNL     1      -0.058   0.716  -2.101  1.00  0.00    -0.392 OA
ATOM     15  H1  UNL     1      -0.620   0.854  -2.855  1.00  0.00     0.210 HD
ENDBRANCH   3  14
BRANCH   1  16
HETATM   16  C2  UNL     1       1.799   0.099   0.050  1.00  0.00     0.010 C 
HETATM   17  C1  UNL     1       2.005   1.545  -0.127  1.00  0.00     0.006 C 
ENDBRANCH   1  16
TORSDOF 2
