REMARK  3 active torsions:
REMARK  status: ('A' for Active; 'I' for Inactive)
REMARK    1  A    between atoms: C5_6  and  O2_7 
REMARK    2  A    between atoms: C8_11  and  C9_12 
REMARK    3  A    between atoms: C10_17  and  C11_18 
ROOT
HETATM    1  O1  UNL     1       0.218  -1.634  -1.906  1.00  0.00    -0.297 OA
HETATM    2  C1  UNL     1      -0.258  -0.686  -1.290  1.00  0.00     0.143 C 
HETATM    3  C2  UNL     1      -1.351   0.046  -1.930  1.00  0.00     0.080 C 
HETATM    4  C3  UNL     1      -2.652   0.021  -1.266  1.00  0.00     0.015 C 
HETATM    5  C4  UNL     1      -2.813   0.426   0.122  1.00  0.00     0.020 C 
HETATM    6  C5  UNL     1      -2.166   1.672   0.580  1.00  0.00     0.127 C 
HETATM    7  C6  UNL     1      -1.174   0.811   1.370  1.00  0.00     0.021 C 
HETATM    8  C7  UNL     1       0.133   0.734   0.706  1.00  0.00     0.033 C 
HETATM    9  C8  UNL     1       0.445  -0.537   0.006  1.00  0.00     0.087 C 
HETATM   10  C12 UNL     1      -0.004  -1.679   0.879  1.00  0.00     0.026 C 
HETATM   11  C13 UNL     1      -1.539  -1.633   0.831  1.00  0.00     0.007 C 
HETATM   12  C14 UNL     1      -2.113  -0.334   1.176  1.00  0.00    -0.001 C 
ENDROOT
BRANCH   9  13
HETATM   13  C9  UNL     1       1.922  -0.585  -0.282  1.00  0.00     0.156 A 
HETATM   14  N1  UNL     1       2.558  -1.454  -1.087  1.00  0.00    -0.280 N 
HETATM   15  N2  UNL     1       3.850  -1.176  -1.081  1.00  0.00    -0.281 N 
ATOM     16  H1  UNL     1       2.115  -2.205  -1.616  1.00  0.00     0.189 HD
HETATM   17  C10 UNL     1       4.024  -0.122  -0.265  1.00  0.00     0.154 A 
ATOM     18  H2  UNL     1       4.578  -1.669  -1.598  1.00  0.00     0.189 HD
HETATM   19  O3  UNL     1       2.847   0.205   0.196  1.00  0.00    -0.280 OA
BRANCH  17  20
HETATM   20  C11 UNL     1       5.343   0.548   0.050  1.00  0.00     0.200 C 
HETATM   21 CL1  UNL     1       6.080  -0.212   1.452  1.00  0.00    -0.122 Cl
ENDBRANCH  17  20
ENDBRANCH   9  13
BRANCH   6  22
HETATM   22  O2  UNL     1      -1.606   2.520  -0.327  1.00  0.00    -0.395 OA
ATOM     23  H2  UNL     1      -1.190   3.322  -0.032  1.00  0.00     0.210 HD
ENDBRANCH   6  22
TORSDOF 3
