REMARK  2 active torsions:
REMARK  status: ('A' for Active; 'I' for Inactive)
REMARK    1  A    between atoms: C3_6  and  N3_7 
REMARK       I    between atoms: N3_7  and  C4_9 
REMARK    2  A    between atoms: C4_9  and  C5_11 
ROOT
HETATM    1  N1  UNL     1       4.655   2.177  -0.381  1.00  0.00    -0.190 NA
HETATM    2  C1  UNL     1       3.951   1.291  -0.076  1.00  0.00     0.120 C 
HETATM    3  C2  UNL     1       3.083   0.164   0.323  1.00  0.00     0.143 A 
HETATM    4  N2  UNL     1       1.853   0.032  -0.100  1.00  0.00    -0.326 N 
ATOM      5  H2  UNL     1       1.445   0.719  -0.734  1.00  0.00     0.169 HD
HETATM    6  C3  UNL     1       1.143  -1.017   0.312  1.00  0.00     0.153 A 
HETATM    7  S2  UNL     1       2.227  -1.846   1.325  1.00  0.00    -0.040 SA
HETATM    8  C9  UNL     1       3.566  -0.799   1.175  1.00  0.00     0.126 A 
HETATM    9  C10 UNL     1       4.889  -0.886   1.786  1.00  0.00     0.110 C 
HETATM   10  N4  UNL     1       5.928  -0.972   2.280  1.00  0.00    -0.191 NA
ENDROOT
BRANCH   6  11
HETATM   11  N3  UNL     1      -0.085  -1.356   0.029  1.00  0.00    -0.302 N 
HETATM   12  C4  UNL     1      -0.890  -0.590  -0.824  1.00  0.00     0.264 C 
HETATM   13  O1  UNL     1      -0.545  -0.220  -1.958  1.00  0.00    -0.267 OA
ATOM     14  H3  UNL     1      -0.471  -2.205   0.442  1.00  0.00     0.171 HD
BRANCH  12  15
HETATM   15  C5  UNL     1      -2.231  -0.208  -0.325  1.00  0.00     0.074 A 
HETATM   16  C6  UNL     1      -3.193   0.529  -0.963  1.00  0.00     0.027 A 
HETATM   17  C7  UNL     1      -4.336   0.745  -0.301  1.00  0.00     0.033 A 
HETATM   18  C8  UNL     1      -4.453   0.214   0.953  1.00  0.00     0.075 A 
HETATM   19 CL1  UNL     1      -5.836   0.334   2.055  1.00  0.00    -0.076 Cl
HETATM   20  S1  UNL     1      -2.955  -0.574   1.172  1.00  0.00    -0.072 SA
ENDBRANCH  12  15
ENDBRANCH   6  11
TORSDOF 2
