REMARK  10 active torsions:
REMARK  status: ('A' for Active; 'I' for Inactive)
REMARK    1  A    between atoms: N1_1  and  N2_4 
REMARK    2  A    between atoms: N2_4  and  C1_5 
REMARK    3  A    between atoms: C1_5  and  O1_6 
REMARK    4  A    between atoms: C1_5  and  N3_8 
REMARK    5  A    between atoms: N3_8  and  C2_9 
REMARK    6  A    between atoms: N3_8  and  S1_27 
REMARK    7  A    between atoms: C2_9  and  N4_10 
REMARK    8  A    between atoms: C3_11  and  O2_12 
REMARK    9  A    between atoms: C4_14  and  O3_15 
REMARK   10  A    between atoms: S1_27  and  N7_28 
ROOT
HETATM    1  N4  UNL     1      -0.676  -0.264   0.633  1.00  0.00    -0.278 N 
HETATM    2  C3  UNL     1      -0.716  -0.266   1.997  1.00  0.00     0.184 A 
HETATM    3  C4  UNL     1      -2.013   0.070   2.329  1.00  0.00     0.147 A 
HETATM    4  C5  UNL     1      -2.732   0.266   1.180  1.00  0.00     0.107 A 
HETATM    5  N5  UNL     1      -3.999   0.579   0.931  1.00  0.00    -0.304 N 
ATOM      6  H5  UNL     1      -4.625   0.739   1.720  1.00  0.00     0.171 HD
HETATM    7  C6  UNL     1      -4.498   0.696  -0.325  1.00  0.00     0.327 A 
HETATM    8  O4  UNL     1      -5.692   0.992  -0.528  1.00  0.00    -0.247 OA
HETATM    9  N6  UNL     1      -3.704   0.491  -1.386  1.00  0.00    -0.273 N 
ATOM     10  H6  UNL     1      -4.072   0.575  -2.334  1.00  0.00     0.173 HD
HETATM   11  C7  UNL     1      -2.407   0.171  -1.177  1.00  0.00     0.279 A 
HETATM   12  O5  UNL     1      -1.684  -0.022  -2.182  1.00  0.00    -0.265 OA
HETATM   13  C8  UNL     1      -1.861   0.046   0.105  1.00  0.00     0.140 A 
ENDROOT
BRANCH   1  14
HETATM   14  C2  UNL     1       0.523  -0.603  -0.107  1.00  0.00     0.210 C 
BRANCH  14  15
HETATM   15  N3  UNL     1       1.507   0.344  -0.263  1.00  0.00    -0.211 N 
BRANCH  15  16
HETATM   16  C1  UNL     1       2.829  -0.161   0.055  1.00  0.00     0.355 C 
BRANCH  16  17
HETATM   17  N2  UNL     1       2.851  -1.578  -0.122  1.00  0.00    -0.094 NA
BRANCH  17  18
HETATM   18  N1  UNL     1       4.091  -2.125   0.157  1.00  0.00    -0.344 N 
ATOM     19  H12 UNL     1       4.890  -1.565   0.455  1.00  0.00     0.172 HD
ATOM     20  H11 UNL     1       4.107  -3.137   0.031  1.00  0.00     0.172 HD
ENDBRANCH  17  18
ENDBRANCH  16  17
BRANCH  16  21
HETATM   21  O1  UNL     1       3.140   0.197   1.359  1.00  0.00    -0.361 OA
ATOM     22  H1  UNL     1       3.125   1.140   1.477  1.00  0.00     0.213 HD
ENDBRANCH  16  21
ENDBRANCH  15  16
BRANCH  15  23
HETATM   23  S1  UNL     1       1.530   1.491  -1.487  1.00  0.00     0.323 S 
HETATM   24  O6  UNL     1       0.381   2.482  -1.359  1.00  0.00    -0.182 OA
HETATM   25  O7  UNL     1       2.771   2.372  -1.417  1.00  0.00    -0.182 OA
BRANCH  23  26
HETATM   26  N7  UNL     1       1.479   0.857  -3.090  1.00  0.00    -0.311 N 
ATOM     27  H72 UNL     1       1.438  -0.147  -3.265  1.00  0.00     0.170 HD
ATOM     28  H71 UNL     1       1.493   1.554  -3.834  1.00  0.00     0.170 HD
ENDBRANCH  23  26
ENDBRANCH  15  23
ENDBRANCH  14  15
ENDBRANCH   1  14
BRANCH   2  29
HETATM   29  O2  UNL     1       0.314  -0.545   2.883  1.00  0.00    -0.344 OA
ATOM     30  H2  UNL     1       0.286  -0.546   3.833  1.00  0.00     0.219 HD
ENDBRANCH   2  29
BRANCH   3  31
HETATM   31  O3  UNL     1      -2.481   0.182   3.645  1.00  0.00    -0.355 OA
ATOM     32  H3  UNL     1      -3.374   0.413   3.873  1.00  0.00     0.218 HD
ENDBRANCH   3  31
TORSDOF 10
