REMARK  7 active torsions:
REMARK  status: ('A' for Active; 'I' for Inactive)
REMARK    1  A    between atoms: N3_14  and  C6_15 
REMARK    2  A    between atoms: C8_17  and  O5_18 
REMARK    3  A    between atoms: C8_17  and  C9_20 
REMARK    4  A    between atoms: C9_20  and  O6_21 
REMARK    5  A    between atoms: C9_20  and  O7_23 
REMARK    6  A    between atoms: C9_20  and  N4_25 
REMARK    7  A    between atoms: N4_25  and  O8_26 
ROOT
HETATM    1  O1  UNL     1      -2.821   3.474   0.243  1.00  0.00    -0.247 OA
HETATM    2  C1  UNL     1      -2.938   2.227   0.097  1.00  0.00     0.328 A 
HETATM    3  N1  UNL     1      -4.115   1.753  -0.340  1.00  0.00    -0.275 N 
ATOM      4  H1  UNL     1      -4.888   2.385  -0.547  1.00  0.00     0.173 HD
HETATM    5  C2  UNL     1      -4.251   0.411  -0.500  1.00  0.00     0.269 A 
HETATM    6  O2  UNL     1      -5.335  -0.090  -0.907  1.00  0.00    -0.267 OA
HETATM    7  C3  UNL     1      -3.207  -0.442  -0.221  1.00  0.00     0.144 A 
HETATM    8  C4  UNL     1      -3.319  -1.812  -0.369  1.00  0.00     0.269 A 
HETATM    9  O3  UNL     1      -4.412  -2.262  -0.775  1.00  0.00    -0.267 OA
HETATM   10  N2  UNL     1      -2.282  -2.614  -0.082  1.00  0.00    -0.274 N 
ATOM     11  H2  UNL     1      -2.385  -3.622  -0.197  1.00  0.00     0.173 HD
HETATM   12  C5  UNL     1      -1.102  -2.116   0.357  1.00  0.00     0.333 A 
HETATM   13  O4  UNL     1      -0.150  -2.888   0.619  1.00  0.00    -0.246 OA
HETATM   14  N3  UNL     1      -0.959  -0.804   0.510  1.00  0.00    -0.256 N 
HETATM   15  C10 UNL     1      -2.006   0.056   0.226  1.00  0.00     0.139 A 
HETATM   16  N5  UNL     1      -1.908   1.385   0.372  1.00  0.00    -0.293 N 
ATOM     17  H5  UNL     1      -1.027   1.779   0.702  1.00  0.00     0.172 HD
ENDROOT
BRANCH  14  18
HETATM   18  C6  UNL     1       0.222  -0.148   0.952  1.00  0.00     0.243 C 
HETATM   19  C7  UNL     1       1.538  -0.756   1.066  1.00  0.00     0.130 C 
HETATM   20  C8  UNL     1       1.884  -0.161  -0.291  1.00  0.00     0.245 C 
HETATM   21  O9  UNL     1       0.724   0.577  -0.178  1.00  0.00    -0.323 OA
BRANCH  20  22
HETATM   22  O5  UNL     1       1.968  -1.075  -1.309  1.00  0.00    -0.360 OA
ATOM     23  H5  UNL     1       2.184  -0.704  -2.156  1.00  0.00     0.213 HD
ENDBRANCH  20  22
BRANCH  20  24
HETATM   24  C9  UNL     1       3.085   0.775  -0.249  1.00  0.00     0.322 C 
BRANCH  24  25
HETATM   25  O6  UNL     1       2.857   1.692   0.745  1.00  0.00    -0.346 OA
ATOM     26  H6  UNL     1       3.606   2.276   0.771  1.00  0.00     0.214 HD
ENDBRANCH  24  25
BRANCH  24  27
HETATM   27  O7  UNL     1       3.205   1.451  -1.461  1.00  0.00    -0.346 OA
ATOM     28  H7  UNL     1       3.954   2.035  -1.435  1.00  0.00     0.214 HD
ENDBRANCH  24  27
BRANCH  24  29
HETATM   29  N4  UNL     1       4.307   0.020  -0.056  1.00  0.00    -0.029 NA
BRANCH  29  30
HETATM   30  O8  UNL     1       5.393   0.785  -0.012  1.00  0.00    -0.291 OA
ATOM     31  H8  UNL     1       6.194   0.290   0.115  1.00  0.00     0.239 HD
ENDBRANCH  29  30
ENDBRANCH  24  29
ENDBRANCH  20  24
ENDBRANCH  14  18
TORSDOF 7
