REMARK  6 active torsions:
REMARK  status: ('A' for Active; 'I' for Inactive)
REMARK    1  A    between atoms: C2_7  and  C3_8 
REMARK    2  A    between atoms: C3_8  and  O1_9 
REMARK    3  A    between atoms: C4_14  and  C5_15 
REMARK    4  A    between atoms: C5_15  and  N4_16 
REMARK    5  A    between atoms: C5_15  and  C6_20 
REMARK    6  A    between atoms: C10_30  and  O4_31 
ROOT
HETATM    1  C3  UNL     1       1.038   0.047   0.094  1.00  0.00     0.301 C 
HETATM    2  N3  UNL     1      -0.145   0.750  -0.355  1.00  0.00    -0.023 N 
ATOM      3  H31 UNL     1      -0.391   0.512  -1.316  1.00  0.00     0.282 HD
ATOM      4  H32 UNL     1       0.028   1.746  -0.490  1.00  0.00     0.282 HD
HETATM    5  C4  UNL     1      -1.240   0.505   0.567  1.00  0.00     0.285 C 
HETATM    6  C7  UNL     1      -1.560  -0.923   0.809  1.00  0.00     0.355 C 
HETATM    7  N6  UNL     1      -0.549  -1.498   1.699  1.00  0.00    -0.038 N 
ATOM      8  H61 UNL     1      -0.917  -2.025   2.491  1.00  0.00     0.281 HD
ATOM      9  H62 UNL     1      -0.036  -0.823   2.266  1.00  0.00     0.281 HD
HETATM   10  C8  UNL     1       0.263  -2.268   0.764  1.00  0.00     0.246 C 
HETATM   11  C9  UNL     1      -0.917  -2.922   0.009  1.00  0.00     0.206 C 
HETATM   12  O3  UNL     1      -1.636  -1.745  -0.281  1.00  0.00    -0.355 OA
HETATM   13  C10 UNL     1       0.974  -1.420  -0.263  1.00  0.00     0.221 C 
ENDROOT
BRANCH   1  14
HETATM   14  C2  UNL     1       2.312   0.603  -0.394  1.00  0.00     0.149 A 
HETATM   15  N2  UNL     1       3.208   1.029   0.529  1.00  0.00    -0.316 N 
HETATM   16  C1  UNL     1       4.415   1.539   0.261  1.00  0.00     0.241 A 
ATOM     17  H2  UNL     1       2.939   0.954   1.510  1.00  0.00     0.169 HD
HETATM   18  N1  UNL     1       5.229   1.930   1.174  1.00  0.00    -0.364 N 
HETATM   19  O6  UNL     1       4.732   1.622  -1.015  1.00  0.00    -0.198 OA
ATOM     20  H12 UNL     1       4.984   1.866   2.162  1.00  0.00     0.159 HD
ATOM     21  H11 UNL     1       6.150   2.319   0.970  1.00  0.00     0.159 HD
HETATM   22  N7  UNL     1       3.932   1.237  -1.944  1.00  0.00    -0.220 N 
HETATM   23  C11 UNL     1       2.705   0.718  -1.700  1.00  0.00     0.293 A 
ATOM     24  H7  UNL     1       4.236   1.327  -2.913  1.00  0.00     0.198 HD
HETATM   25  O5  UNL     1       1.957   0.359  -2.610  1.00  0.00    -0.264 OA
ENDBRANCH   1  14
BRANCH   1  26
HETATM   26  O1  UNL     1       1.098   0.179   1.512  1.00  0.00    -0.358 OA
ATOM     27  H1  UNL     1       0.276  -0.180   1.827  1.00  0.00     0.213 HD
ENDBRANCH   1  26
BRANCH  13  28
HETATM   28  O4  UNL     1       0.348  -1.530  -1.514  1.00  0.00    -0.388 OA
ATOM     29  H4  UNL     1       0.308  -2.452  -1.738  1.00  0.00     0.210 HD
ENDBRANCH  13  28
BRANCH   5  30
HETATM   30  C5  UNL     1      -2.426   1.382   0.288  1.00  0.00     0.306 C 
BRANCH  30  31
HETATM   31  N4  UNL     1      -3.462   1.071   1.251  1.00  0.00    -0.065 N 
ATOM     32  H43 UNL     1      -3.702   0.080   1.262  1.00  0.00     0.275 HD
ATOM     33  H42 UNL     1      -3.137   1.147   2.215  1.00  0.00     0.275 HD
ATOM     34  H41 UNL     1      -4.268   1.667   1.061  1.00  0.00     0.275 HD
ENDBRANCH  30  31
BRANCH  30  35
HETATM   35  C6  UNL     1      -2.909   1.356  -1.096  1.00  0.00     0.264 C 
HETATM   36  N5  UNL     1      -4.285   1.039  -1.296  1.00  0.00    -0.060 NA
HETATM   37  O2  UNL     1      -2.249   1.581  -2.114  1.00  0.00    -0.275 OA
ENDBRANCH  30  35
ENDBRANCH   5  30
TORSDOF 6
