REMARK  2 active torsions:
REMARK  status: ('A' for Active; 'I' for Inactive)
REMARK    1  A    between atoms: C2_2  and  C4_4 
REMARK    2  A    between atoms: C4_4  and  N1_6 
ROOT
HETATM    1  C4  UNL     1       0.682  -0.178   0.075  1.00  0.00     0.200 C 
HETATM    2  C5  UNL     1       0.570  -1.569  -0.558  1.00  0.00     0.064 C 
HETATM    3  S1  UNL     1       1.272  -0.376   1.774  1.00  0.00    -0.051 SA
ENDROOT
BRANCH   1   4
HETATM    4  C2  UNL     1      -0.658   0.439   0.051  1.00  0.00    -0.047 C 
HETATM    5  C1  UNL     1      -0.902   1.567  -0.582  1.00  0.00     0.017 C 
HETATM    6  C3  UNL     1      -1.779  -0.225   0.760  1.00  0.00     0.046 C 
ENDBRANCH   1   4
BRANCH   1   7
HETATM    7  N1  UNL     1       1.658   0.544  -0.680  1.00  0.00    -0.057 N 
ATOM      8  H13 UNL     1       1.342   0.682  -1.640  1.00  0.00     0.276 HD
ATOM      9  H12 UNL     1       1.703   1.516  -0.375  1.00  0.00     0.276 HD
ATOM     10  H11 UNL     1       2.584   0.117  -0.663  1.00  0.00     0.276 HD
ENDBRANCH   1   7
TORSDOF 2
