REMARK  0 active torsions:
REMARK  status: ('A' for Active; 'I' for Inactive)
ROOT
HETATM    1  C1  UNL     1       2.246   0.458   0.120  1.00  0.00     0.033 C 
HETATM    2  C2  UNL     1       1.233  -0.450  -0.537  1.00  0.00     0.091 C 
HETATM    3  C3  UNL     1       0.424  -1.186   0.494  1.00  0.00     0.026 C 
HETATM    4  C4  UNL     1      -0.578  -0.346   1.201  1.00  0.00     0.003 C 
HETATM    5  C5  UNL     1      -1.840  -0.098   0.438  1.00  0.00     0.018 C 
HETATM    6  C6  UNL     1      -1.699   0.766  -0.755  1.00  0.00     0.134 C 
HETATM    7  N1  UNL     1      -0.374   1.203  -1.051  1.00  0.00    -0.146 NA
HETATM    8  N2  UNL     1       0.453   0.219  -1.527  1.00  0.00    -0.335 N 
ATOM      9  H2  UNL     1       0.507  -0.018  -2.518  1.00  0.00     0.176 HD
ENDROOT
TORSDOF 0
