REMARK  14 active torsions:
REMARK  status: ('A' for Active; 'I' for Inactive)
REMARK    1  A    between atoms: C2_2  and  O2_4 
REMARK    2  A    between atoms: O2_4  and  C3_5 
REMARK    3  A    between atoms: C6_9  and  O4_10 
REMARK    4  A    between atoms: O4_10  and  C7_11 
REMARK    5  A    between atoms: C8_12  and  O5_13 
REMARK    6  A    between atoms: O5_13  and  C9_14 
REMARK    7  A    between atoms: C11_17  and  O7_18 
REMARK    8  A    between atoms: O7_18  and  C12_19 
REMARK    9  A    between atoms: C15_24  and  O9_26 
REMARK   10  A    between atoms: C17_28  and  O10_29 
REMARK   11  A    between atoms: O10_29  and  C18_30 
REMARK   12  A    between atoms: C20_33  and  O12_34 
REMARK   13  A    between atoms: C21_36  and  O13_37 
REMARK   14  A    between atoms: O13_37  and  C22_38 
ROOT
HETATM    1  C7  UNL     1      -1.551  -0.130  -0.280  1.00  0.00     0.189 C 
HETATM    2  C8  UNL     1      -2.404   0.607   0.728  1.00  0.00     0.194 C 
HETATM    3  C11 UNL     1      -3.733   0.996   0.125  1.00  0.00     0.181 C 
HETATM    4  C14 UNL     1      -4.414  -0.108  -0.591  1.00  0.00     0.127 C 
HETATM    5  S1  UNL     1      -4.894   0.409  -2.286  1.00  0.00    -0.086 SA
HETATM    6  C15 UNL     1      -3.697  -1.392  -0.667  1.00  0.00     0.099 C 
HETATM    7  C16 UNL     1      -4.269  -2.170  -1.858  1.00  0.00     0.050 C 
HETATM    8  C17 UNL     1      -2.229  -1.344  -0.835  1.00  0.00     0.198 C 
ENDROOT
BRANCH   1   9
HETATM    9  O4  UNL     1      -0.370  -0.453   0.332  1.00  0.00    -0.348 OA
BRANCH   9  10
HETATM   10  C6  UNL     1       0.753   0.164  -0.215  1.00  0.00     0.292 C 
HETATM   11  O3  UNL     1       1.548  -0.825  -0.755  1.00  0.00    -0.351 OA
HETATM   12  C4  UNL     1       2.723  -0.399  -1.302  1.00  0.00     0.152 C 
HETATM   13  C3  UNL     1       3.293   0.848  -0.701  1.00  0.00     0.192 C 
HETATM   14  C5  UNL     1       3.732  -1.523  -1.241  1.00  0.00     0.042 C 
HETATM   15  C21 UNL     1       2.899   1.042   0.744  1.00  0.00     0.197 C 
HETATM   16  C20 UNL     1       1.402   0.947   0.874  1.00  0.00     0.205 C 
BRANCH  13  17
HETATM   17  O2  UNL     1       4.709   0.721  -0.724  1.00  0.00    -0.311 OA
BRANCH  17  18
HETATM   18  C2  UNL     1       5.522   1.631  -1.384  1.00  0.00     0.255 C 
HETATM   19  C1  UNL     1       6.999   1.517  -1.420  1.00  0.00     0.126 C 
HETATM   20  O1  UNL     1       4.952   2.587  -1.970  1.00  0.00    -0.266 OA
ENDBRANCH  17  18
ENDBRANCH  13  17
BRANCH  15  21
HETATM   21  O13 UNL     1       3.454   0.027   1.560  1.00  0.00    -0.311 OA
BRANCH  21  22
HETATM   22  C22 UNL     1       4.352   0.278   2.589  1.00  0.00     0.255 C 
HETATM   23  C23 UNL     1       4.911  -0.827   3.425  1.00  0.00     0.126 C 
HETATM   24  O14 UNL     1       4.670   1.485   2.781  1.00  0.00    -0.266 OA
ENDBRANCH  21  22
ENDBRANCH  15  21
BRANCH  16  25
HETATM   25  O12 UNL     1       0.923   2.275   0.799  1.00  0.00    -0.388 OA
ATOM     26  H12 UNL     1       1.337   2.774   1.493  1.00  0.00     0.210 HD
ENDBRANCH  16  25
ENDBRANCH   9  10
ENDBRANCH   1   9
BRANCH   2  27
HETATM   27  O5  UNL     1      -2.605  -0.108   1.903  1.00  0.00    -0.311 OA
BRANCH  27  28
HETATM   28  C9  UNL     1      -2.164   0.398   3.114  1.00  0.00     0.255 C 
HETATM   29  C10 UNL     1      -2.338  -0.299   4.401  1.00  0.00     0.126 C 
HETATM   30  O6  UNL     1      -1.578   1.528   3.098  1.00  0.00    -0.266 OA
ENDBRANCH  27  28
ENDBRANCH   2  27
BRANCH   8  31
HETATM   31  O10 UNL     1      -1.675  -2.482  -0.187  1.00  0.00    -0.310 OA
BRANCH  31  32
HETATM   32  C18 UNL     1      -0.976  -3.457  -0.844  1.00  0.00     0.255 C 
HETATM   33  C19 UNL     1      -0.391  -4.652  -0.183  1.00  0.00     0.126 C 
HETATM   34  O11 UNL     1      -0.822  -3.322  -2.095  1.00  0.00    -0.266 OA
ENDBRANCH  31  32
ENDBRANCH   8  31
BRANCH   3  35
HETATM   35  O7  UNL     1      -3.460   2.033  -0.817  1.00  0.00    -0.312 OA
BRANCH  35  36
HETATM   36  C12 UNL     1      -3.911   3.328  -0.665  1.00  0.00     0.255 C 
HETATM   37  C13 UNL     1      -3.601   4.394  -1.684  1.00  0.00     0.126 C 
HETATM   38  O8  UNL     1      -4.593   3.593   0.356  1.00  0.00    -0.266 OA
ENDBRANCH  35  36
ENDBRANCH   3  35
BRANCH   6  39
HETATM   39  O9  UNL     1      -4.019  -2.177   0.465  1.00  0.00    -0.386 OA
ATOM     40  H9  UNL     1      -3.556  -3.005   0.416  1.00  0.00     0.210 HD
ENDBRANCH   6  39
TORSDOF 14
