REMARK  10 active torsions:
REMARK  status: ('A' for Active; 'I' for Inactive)
REMARK    1  A    between atoms: C11_11  and  C12_12 
REMARK    2  A    between atoms: C12_12  and  C13_13 
REMARK    3  A    between atoms: C12_12  and  C17_20 
REMARK    4  A    between atoms: C13_13  and  C14_14 
REMARK    5  A    between atoms: C14_14  and  C15_15 
REMARK    6  A    between atoms: C15_15  and  N1_16 
REMARK       I    between atoms: C17_20  and  N2_22 
REMARK    7  A    between atoms: N2_22  and  C18_24 
REMARK    8  A    between atoms: C18_24  and  C19_25 
REMARK    9  A    between atoms: C19_25  and  C20_26 
REMARK   10  A    between atoms: C20_26  and  C21_27 
ROOT
HETATM    1  C1  UNL     1      -7.384   0.307   0.270  1.00  0.00     0.015 C 
HETATM    2  C2  UNL     1      -6.280   0.828  -0.254  1.00  0.00    -0.081 C 
HETATM    3  C3  UNL     1      -6.209   1.767  -1.372  1.00  0.00     0.034 C 
HETATM    4  C4  UNL     1      -4.824   2.296  -1.343  1.00  0.00     0.010 C 
HETATM    5  C5  UNL     1      -4.057   1.524  -0.289  1.00  0.00     0.002 C 
HETATM    6  C6  UNL     1      -2.689   1.085  -0.792  1.00  0.00    -0.005 C 
HETATM    7  C7  UNL     1      -1.659   1.264   0.294  1.00  0.00     0.006 C 
HETATM    8  C8  UNL     1      -1.211  -0.011   0.918  1.00  0.00     0.010 C 
HETATM    9  C9  UNL     1      -0.716  -1.026  -0.063  1.00  0.00    -0.036 C 
HETATM   10  C10 UNL     1      -0.714  -2.344   0.662  1.00  0.00     0.016 C 
HETATM   11  C11 UNL     1       0.624  -0.598  -0.570  1.00  0.00     0.007 C 
HETATM   12  C23 UNL     1       0.774  -1.490  -1.781  1.00  0.00     0.007 C 
HETATM   13  C24 UNL     1      -0.530  -1.073  -2.485  1.00  0.00     0.006 C 
HETATM   14  C25 UNL     1      -1.516  -1.125  -1.322  1.00  0.00    -0.002 C 
HETATM   15  C26 UNL     1      -2.662  -0.189  -1.518  1.00  0.00    -0.005 C 
HETATM   16  C27 UNL     1      -4.005  -0.944  -1.483  1.00  0.00     0.006 C 
HETATM   17  C28 UNL     1      -4.634  -0.922  -0.129  1.00  0.00     0.014 C 
HETATM   18  C29 UNL     1      -4.922   0.495   0.269  1.00  0.00    -0.017 C 
HETATM   19  C30 UNL     1      -5.055   0.543   1.793  1.00  0.00     0.020 C 
ENDROOT
BRANCH  11  20
HETATM   20  C12 UNL     1       1.757  -0.414   0.299  1.00  0.00     0.083 C 
BRANCH  20  21
HETATM   21  C13 UNL     1       2.351  -1.461   1.115  1.00  0.00     0.016 C 
BRANCH  21  22
HETATM   22  C14 UNL     1       2.908  -2.690   0.505  1.00  0.00     0.028 C 
BRANCH  22  23
HETATM   23  C15 UNL     1       3.462  -3.574   1.658  1.00  0.00     0.231 C 
BRANCH  23  24
HETATM   24  N1  UNL     1       2.371  -3.896   2.566  1.00  0.00    -0.079 N 
HETATM   25  C16 UNL     1       2.826  -4.704   3.660  1.00  0.00     0.266 C 
ATOM     26  H12 UNL     1       1.896  -3.055   2.894  1.00  0.00     0.276 HD
ATOM     27  H11 UNL     1       1.592  -4.335   2.075  1.00  0.00     0.276 HD
ENDBRANCH  23  24
ENDBRANCH  22  23
ENDBRANCH  21  22
ENDBRANCH  20  21
BRANCH  20  28
HETATM   28  C17 UNL     1       2.845   0.306  -0.481  1.00  0.00     0.222 C 
HETATM   29  O1  UNL     1       3.920  -0.302  -0.625  1.00  0.00    -0.273 OA
HETATM   30  N2  UNL     1       2.614   1.598  -1.002  1.00  0.00    -0.361 N 
ATOM     31  H2  UNL     1       1.684   1.978  -0.827  1.00  0.00     0.162 HD
BRANCH  30  32
HETATM   32  C18 UNL     1       3.481   2.440  -1.729  1.00  0.00     0.122 C 
BRANCH  32  33
HETATM   33  C19 UNL     1       4.677   3.031  -1.120  1.00  0.00     0.020 C 
BRANCH  33  34
HETATM   34  C20 UNL     1       5.737   2.197  -0.538  1.00  0.00     0.001 C 
BRANCH  34  35
HETATM   35  C21 UNL     1       6.889   3.096  -0.059  1.00  0.00    -0.004 C 
HETATM   36  C22 UNL     1       6.403   4.067   0.989  1.00  0.00     0.005 C 
ENDBRANCH  34  35
ENDBRANCH  33  34
ENDBRANCH  32  33
ENDBRANCH  30  32
ENDBRANCH  20  28
ENDBRANCH  11  20
TORSDOF 10
