REMARK  12 active torsions:
REMARK  status: ('A' for Active; 'I' for Inactive)
REMARK    1  A    between atoms: C2_2  and  C4_4 
REMARK    2  A    between atoms: C11_11  and  N1_12 
REMARK    3  A    between atoms: N1_12  and  C12_14 
REMARK    4  A    between atoms: C12_14  and  C13_15 
REMARK    5  A    between atoms: C12_14  and  C17_19 
REMARK    6  A    between atoms: C13_15  and  C14_16 
REMARK       I    between atoms: C17_19  and  N2_21 
REMARK    7  A    between atoms: N2_21  and  C18_23 
REMARK    8  A    between atoms: C18_23  and  C19_24 
REMARK    9  A    between atoms: C19_24  and  C20_25 
REMARK   10  A    between atoms: C20_25  and  C21_26 
REMARK   11  A    between atoms: C21_26  and  C22_27 
REMARK   12  A    between atoms: C23_28  and  C24_29 
ROOT
HETATM    1  N1  UNL     1      -0.473  -0.857  -0.192  1.00  0.00    -0.404 N 
ATOM      2  H1  UNL     1      -0.638  -0.033   0.387  1.00  0.00     0.154 HD
ENDROOT
BRANCH   1   3
HETATM    3  C11 UNL     1      -1.411  -1.237  -1.122  1.00  0.00     0.085 C 
HETATM    4  C10 UNL     1      -2.228  -2.485  -0.951  1.00  0.00     0.026 C 
HETATM    5  C9  UNL     1      -3.705  -2.042  -1.138  1.00  0.00     0.008 C 
HETATM    6  C8  UNL     1      -3.589  -0.687  -0.573  1.00  0.00     0.001 C 
HETATM    7  C7  UNL     1      -4.730   0.149  -0.341  1.00  0.00    -0.001 C 
HETATM    8  C26 UNL     1      -2.458  -0.140  -1.427  1.00  0.00    -0.020 C 
HETATM    9  C6  UNL     1      -6.035   0.043  -0.976  1.00  0.00     0.006 C 
HETATM   10  C30 UNL     1      -4.447   1.656  -0.478  1.00  0.00    -0.033 C 
HETATM   11  C5  UNL     1      -6.710   1.352  -0.520  1.00  0.00     0.010 C 
HETATM   12  C4  UNL     1      -5.663   2.135   0.238  1.00  0.00     0.022 C 
HETATM   13  C29 UNL     1      -3.110   1.838   0.049  1.00  0.00     0.011 C 
HETATM   14  C31 UNL     1      -4.625   2.224  -1.859  1.00  0.00     0.016 C 
HETATM   15  C28 UNL     1      -2.103   1.195  -0.920  1.00  0.00     0.012 C 
HETATM   16  C27 UNL     1      -2.698  -0.278  -2.896  1.00  0.00     0.018 C 
BRANCH  12  17
HETATM   17  C2  UNL     1      -5.736   2.039   1.672  1.00  0.00    -0.088 C 
HETATM   18  C1  UNL     1      -6.663   1.339   2.291  1.00  0.00     0.014 C 
HETATM   19  C3  UNL     1      -4.753   2.760   2.544  1.00  0.00     0.043 C 
ENDBRANCH  12  17
ENDBRANCH   1   3
BRANCH   1  20
HETATM   20  C12 UNL     1       0.728  -1.607  -0.032  1.00  0.00     0.170 C 
BRANCH  20  21
HETATM   21  C13 UNL     1       0.523  -2.976   0.458  1.00  0.00     0.038 C 
BRANCH  21  22
HETATM   22  C14 UNL     1       1.705  -3.863   0.688  1.00  0.00    -0.020 C 
HETATM   23  C15 UNL     1       2.556  -4.113  -0.525  1.00  0.00     0.009 C 
HETATM   24  C16 UNL     1       2.504  -3.643   1.913  1.00  0.00     0.009 C 
ENDBRANCH  21  22
ENDBRANCH  20  21
BRANCH  20  25
HETATM   25  C17 UNL     1       1.672  -0.845   0.855  1.00  0.00     0.240 C 
HETATM   26  O1  UNL     1       1.199  -0.291   1.878  1.00  0.00    -0.271 OA
HETATM   27  N2  UNL     1       3.047  -0.737   0.563  1.00  0.00    -0.359 N 
ATOM     28  H2  UNL     1       3.408  -1.190  -0.277  1.00  0.00     0.162 HD
BRANCH  27  29
HETATM   29  C18 UNL     1       3.966  -0.006   1.412  1.00  0.00     0.122 C 
BRANCH  29  30
HETATM   30  C19 UNL     1       5.381  -0.026   0.849  1.00  0.00     0.021 C 
BRANCH  30  31
HETATM   31  C20 UNL     1       5.409   0.623  -0.516  1.00  0.00     0.014 C 
BRANCH  31  32
HETATM   32  C21 UNL     1       6.822   0.573  -1.032  1.00  0.00     0.094 C 
BRANCH  32  33
HETATM   33  C22 UNL     1       7.706   1.285  -0.125  1.00  0.00    -0.107 C 
HETATM   34  C23 UNL     1       8.460   1.866   0.624  1.00  0.00    -0.107 C 
BRANCH  34  35
HETATM   35  C24 UNL     1       9.389   2.554   1.514  1.00  0.00     0.089 C 
HETATM   36  C25 UNL     1       9.661   3.941   0.980  1.00  0.00     0.018 C 
ENDBRANCH  34  35
ENDBRANCH  32  33
ENDBRANCH  31  32
ENDBRANCH  30  31
ENDBRANCH  29  30
ENDBRANCH  27  29
ENDBRANCH  20  25
ENDBRANCH   1  20
TORSDOF 12
