REMARK  11 active torsions:
REMARK  status: ('A' for Active; 'I' for Inactive)
REMARK    1  A    between atoms: C2_5  and  C3_6 
REMARK    2  A    between atoms: C3_6  and  C4_7 
REMARK    3  A    between atoms: C4_7  and  N2_8 
REMARK    4  A    between atoms: C12_16  and  O1_17 
REMARK    5  A    between atoms: C12_16  and  C13_19 
REMARK    6  A    between atoms: C13_19  and  C14_20 
REMARK    7  A    between atoms: C14_20  and  C15_21 
REMARK    8  A    between atoms: C15_21  and  C16_22 
REMARK    9  A    between atoms: C16_22  and  C17_23 
REMARK   10  A    between atoms: N3_30  and  C24_31 
REMARK   11  A    between atoms: C24_31  and  C25_32 
ROOT
HETATM    1  N1  UNL     1      -3.617   1.564   0.417  1.00  0.00    -0.389 N 
ATOM      2  H11 UNL     1      -4.281   2.302   0.185  1.00  0.00     0.157 HD
ATOM      3  H12 UNL     1      -4.107   0.853   0.960  1.00  0.00     0.157 HD
HETATM    4  C1  UNL     1      -2.384   1.529   0.086  1.00  0.00     0.080 C 
HETATM    5  C2  UNL     1      -1.406   0.442   0.428  1.00  0.00     0.090 C 
HETATM    6  C12 UNL     1      -0.349   0.714  -0.567  1.00  0.00     0.084 C 
HETATM    7  C23 UNL     1      -0.291   2.252  -0.453  1.00  0.00     0.162 C 
HETATM    8  N3  UNL     1      -1.696   2.528  -0.677  1.00  0.00    -0.367 N 
ENDROOT
BRANCH   6   9
HETATM    9  O1  UNL     1      -0.693   0.495  -1.891  1.00  0.00    -0.387 OA
ATOM     10  H1  UNL     1      -0.013   0.670  -2.531  1.00  0.00     0.210 HD
ENDBRANCH   6   9
BRANCH   6  11
HETATM   11  C13 UNL     1       0.993   0.099  -0.323  1.00  0.00     0.040 C 
BRANCH  11  12
HETATM   12  C14 UNL     1       1.641   0.505   0.946  1.00  0.00     0.003 C 
BRANCH  12  13
HETATM   13  C15 UNL     1       2.978  -0.166   1.094  1.00  0.00     0.000 C 
BRANCH  13  14
HETATM   14  C16 UNL     1       3.874   0.216  -0.025  1.00  0.00     0.004 C 
BRANCH  14  15
HETATM   15  C17 UNL     1       5.262  -0.379   0.050  1.00  0.00    -0.014 C 
HETATM   16  C18 UNL     1       6.034  -0.009   1.268  1.00  0.00     0.004 C 
HETATM   17  C19 UNL     1       6.840  -1.222   1.702  1.00  0.00     0.000 C 
HETATM   18  C20 UNL     1       7.620  -1.773   0.552  1.00  0.00     0.000 C 
HETATM   19  C21 UNL     1       6.751  -2.161  -0.608  1.00  0.00     0.000 C 
HETATM   20  C22 UNL     1       5.292  -1.863  -0.244  1.00  0.00     0.004 C 
ENDBRANCH  14  15
ENDBRANCH  13  14
ENDBRANCH  12  13
ENDBRANCH  11  12
ENDBRANCH   6  11
BRANCH   5  21
HETATM   21  C3  UNL     1      -1.988  -0.904   0.500  1.00  0.00     0.043 C 
BRANCH  21  22
HETATM   22  C4  UNL     1      -2.633  -1.449  -0.717  1.00  0.00     0.238 C 
BRANCH  22  23
HETATM   23  N2  UNL     1      -3.183  -2.784  -0.523  1.00  0.00    -0.067 N 
HETATM   24  C5  UNL     1      -4.010  -2.909   0.632  1.00  0.00     0.238 C 
HETATM   25  C6  UNL     1      -4.933  -4.108   0.404  1.00  0.00     0.032 C 
HETATM   26  C7  UNL     1      -4.228  -5.098  -0.519  1.00  0.00    -0.010 C 
HETATM   27  C8  UNL     1      -2.749  -5.133  -0.203  1.00  0.00     0.032 C 
HETATM   28  C10 UNL     1      -4.331  -4.470  -1.916  1.00  0.00     0.032 C 
HETATM   29  C9  UNL     1      -2.121  -3.773  -0.415  1.00  0.00     0.238 C 
HETATM   30  C11 UNL     1      -3.969  -3.027  -1.749  1.00  0.00     0.238 C 
ENDBRANCH  22  23
ENDBRANCH  21  22
ENDBRANCH   5  21
BRANCH   8  31
HETATM   31  C24 UNL     1      -2.225   3.577  -1.493  1.00  0.00     0.128 C 
BRANCH  31  32
HETATM   32  C25 UNL     1      -2.051   4.962  -1.018  1.00  0.00     0.004 C 
HETATM   33  C26 UNL     1      -2.680   5.266   0.328  1.00  0.00     0.006 C 
HETATM   34  C27 UNL     1      -2.274   6.739   0.475  1.00  0.00     0.000 C 
HETATM   35  C28 UNL     1      -0.871   6.778  -0.050  1.00  0.00     0.000 C 
HETATM   36  C29 UNL     1      -0.672   5.481  -0.849  1.00  0.00     0.006 C 
ENDBRANCH  31  32
ENDBRANCH   8  31
TORSDOF 11
