REMARK  10 active torsions:
REMARK  status: ('A' for Active; 'I' for Inactive)
REMARK    1  A    between atoms: C2_2  and  N1_3 
REMARK    2  A    between atoms: N1_3  and  C3_4 
REMARK    3  A    between atoms: N1_3  and  C5_6 
REMARK    4  A    between atoms: C5_6  and  C6_7 
REMARK    5  A    between atoms: C6_7  and  C7_8 
REMARK    6  A    between atoms: C7_8  and  C8_9 
REMARK    7  A    between atoms: C8_9  and  N2_10 
REMARK       I    between atoms: N2_10  and  C9_12 
REMARK       I    between atoms: C9_12  and  N3_14 
REMARK    8  A    between atoms: N3_14  and  C10_16 
REMARK    9  A    between atoms: C21_27  and  C22_28 
REMARK   10  A    between atoms: C22_28  and  C24_30 
ROOT
HETATM    1  C10 UNL     1      -0.492  -1.123  -0.381  1.00  0.00     0.096 C 
HETATM    2  C11 UNL     1      -0.228  -2.644  -0.367  1.00  0.00     0.036 C 
HETATM    3  C12 UNL     1      -1.724  -2.793  -0.684  1.00  0.00    -0.029 C 
HETATM    4  C13 UNL     1      -1.857  -3.013  -2.177  1.00  0.00     0.016 C 
HETATM    5  C14 UNL     1      -2.280  -3.910   0.076  1.00  0.00    -0.010 C 
HETATM    6  C15 UNL     1      -3.419  -4.592  -0.664  1.00  0.00     0.011 C 
HETATM    7  C16 UNL     1      -2.688  -3.672   1.475  1.00  0.00     0.005 C 
HETATM    8  C17 UNL     1      -2.308  -2.329   2.017  1.00  0.00     0.006 C 
HETATM    9  C18 UNL     1      -2.613  -1.197   1.050  1.00  0.00    -0.003 C 
HETATM   10  C19 UNL     1      -4.103  -1.017   0.929  1.00  0.00     0.006 C 
HETATM   11  C20 UNL     1      -4.612   0.281   0.503  1.00  0.00     0.005 C 
HETATM   12  C21 UNL     1      -3.582   1.332   0.181  1.00  0.00    -0.010 C 
HETATM   13  C27 UNL     1      -2.603   0.887  -0.844  1.00  0.00     0.006 C 
HETATM   14  C28 UNL     1      -2.715  -0.548  -1.269  1.00  0.00     0.013 C 
HETATM   15  C29 UNL     1      -1.937  -1.398  -0.250  1.00  0.00    -0.009 C 
ENDROOT
BRANCH   1  16
HETATM   16  N3  UNL     1       0.245  -0.549   0.694  1.00  0.00    -0.338 N 
HETATM   17  C9  UNL     1       1.572  -0.091   0.459  1.00  0.00     0.316 C 
HETATM   18  N2  UNL     1       2.367   0.482   1.471  1.00  0.00    -0.343 N 
HETATM   19  O1  UNL     1       2.032  -0.220  -0.713  1.00  0.00    -0.247 OA
ATOM     20  H2  UNL     1       1.958   0.573   2.401  1.00  0.00     0.164 HD
ATOM     21  H3  UNL     1      -0.173  -0.467   1.621  1.00  0.00     0.164 HD
BRANCH  18  22
HETATM   22  C8  UNL     1       3.701   0.943   1.288  1.00  0.00     0.124 C 
BRANCH  22  23
HETATM   23  C7  UNL     1       3.771   2.054   0.306  1.00  0.00     0.021 C 
BRANCH  23  24
HETATM   24  C6  UNL     1       5.110   2.659   0.063  1.00  0.00     0.032 C 
BRANCH  24  25
HETATM   25  C5  UNL     1       6.173   1.745  -0.446  1.00  0.00     0.272 C 
BRANCH  25  26
HETATM   26  N1  UNL     1       6.555   0.673   0.407  1.00  0.00     0.087 N 
BRANCH  26  27
HETATM   27  C2  UNL     1       7.241   1.104   1.581  1.00  0.00     0.268 C 
HETATM   28  C1  UNL     1       8.477   1.941   1.305  1.00  0.00     0.037 C 
ENDBRANCH  26  27
BRANCH  26  29
HETATM   29  C3  UNL     1       7.347  -0.281  -0.312  1.00  0.00     0.268 C 
HETATM   30  C4  UNL     1       6.643  -0.801  -1.556  1.00  0.00     0.037 C 
ENDBRANCH  26  29
ENDBRANCH  25  26
ENDBRANCH  24  25
ENDBRANCH  23  24
ENDBRANCH  22  23
ENDBRANCH  18  22
ENDBRANCH   1  16
BRANCH  12  31
HETATM   31  C22 UNL     1      -4.294   2.635  -0.149  1.00  0.00    -0.011 C 
HETATM   32  C23 UNL     1      -5.131   3.111   1.023  1.00  0.00     0.011 C 
BRANCH  31  33
HETATM   33  C24 UNL     1      -5.090   2.557  -1.411  1.00  0.00    -0.010 A 
HETATM   34  C25 UNL     1      -5.867   3.771  -1.867  1.00  0.00     0.005 A 
HETATM   35  C26 UNL     1      -6.540   2.490  -1.509  1.00  0.00     0.005 A 
ENDBRANCH  31  33
ENDBRANCH  12  31
TORSDOF 10
