REMARK  5 active torsions:
REMARK  status: ('A' for Active; 'I' for Inactive)
REMARK    1  A    between atoms: N1_4  and  C4_5 
REMARK    2  A    between atoms: C7_8  and  N2_9 
REMARK    3  A    between atoms: C17_27  and  C18_28 
REMARK    4  A    between atoms: C18_28  and  O1_29 
REMARK    5  A    between atoms: O1_29  and  C19_30 
ROOT
HETATM    1  N2  UNL     1      -0.385  -0.083   0.877  1.00  0.00    -0.313 N 
HETATM    2  C8  UNL     1      -0.937  -1.341   1.315  1.00  0.00     0.176 C 
HETATM    3  C9  UNL     1      -0.733  -2.410   0.269  1.00  0.00     0.075 C 
HETATM    4  N3  UNL     1      -1.097  -3.717   0.649  1.00  0.00    -0.401 N 
ATOM      5  H3  UNL     1      -0.458  -4.498   0.501  1.00  0.00     0.158 HD
HETATM    6  C10 UNL     1      -2.367  -3.926   1.240  1.00  0.00     0.120 C 
HETATM    7  C11 UNL     1      -3.359  -4.653   0.356  1.00  0.00     0.047 C 
HETATM    8  C12 UNL     1      -4.206  -3.725  -0.473  1.00  0.00     0.234 C 
HETATM    9  N4  UNL     1      -5.535  -3.552   0.060  1.00  0.00    -0.075 N 
ATOM     10  H41 UNL     1      -5.552  -3.508   1.079  1.00  0.00     0.277 HD
ATOM     11  H42 UNL     1      -6.118  -4.382  -0.048  1.00  0.00     0.277 HD
HETATM   12  C13 UNL     1      -6.110  -2.370  -0.568  1.00  0.00     0.233 C 
HETATM   13  C14 UNL     1      -5.641  -1.100   0.077  1.00  0.00     0.055 C 
HETATM   14  C15 UNL     1      -5.189  -0.100  -0.994  1.00  0.00     0.234 C 
HETATM   15  N5  UNL     1      -4.516   1.036  -0.346  1.00  0.00    -0.074 N 
ATOM     16  H51 UNL     1      -5.130   1.575   0.265  1.00  0.00     0.277 HD
ATOM     17  H52 UNL     1      -4.285   1.792  -0.991  1.00  0.00     0.277 HD
HETATM   18  C16 UNL     1      -3.348   0.484   0.344  1.00  0.00     0.248 C 
HETATM   19  C17 UNL     1      -2.301   1.587   0.325  1.00  0.00     0.128 C 
HETATM   20  C22 UNL     1      -0.997   1.181   0.882  1.00  0.00     0.232 C 
HETATM   21  O2  UNL     1      -0.350   2.146   1.448  1.00  0.00    -0.272 OA
ENDROOT
BRANCH   1  22
HETATM   22  C7  UNL     1       0.975  -0.155   0.397  1.00  0.00     0.037 A 
HETATM   23  C6  UNL     1       1.927  -0.261   1.393  1.00  0.00     0.032 A 
HETATM   24  C5  UNL     1       3.270  -0.334   1.061  1.00  0.00     0.031 A 
HETATM   25  C4  UNL     1       3.686  -0.303  -0.244  1.00  0.00     0.030 A 
HETATM   26  C24 UNL     1       2.695  -0.196  -1.211  1.00  0.00     0.031 A 
HETATM   27  C23 UNL     1       1.345  -0.122  -0.905  1.00  0.00     0.032 A 
BRANCH  25  28
HETATM   28  N1  UNL     1       5.063  -0.366  -0.577  1.00  0.00    -0.377 N 
HETATM   29  C3  UNL     1       6.071  -0.312   0.477  1.00  0.00     0.155 C 
HETATM   30  C2  UNL     1       7.315   0.317  -0.146  1.00  0.00     0.199 C 
HETATM   31  C1  UNL     1       8.275   0.795   0.891  1.00  0.00     0.041 C 
HETATM   32  N8  UNL     1       7.888  -0.600  -1.106  1.00  0.00    -0.068 N 
HETATM   33  C26 UNL     1       6.860  -1.295  -1.860  1.00  0.00     0.252 C 
ATOM     34  H82 UNL     1       8.549  -0.128  -1.724  1.00  0.00     0.277 HD
ATOM     35  H81 UNL     1       8.529  -1.255  -0.659  1.00  0.00     0.277 HD
HETATM   36  C25 UNL     1       5.566  -0.492  -1.925  1.00  0.00     0.150 C 
ENDBRANCH  25  28
ENDBRANCH   1  22
BRANCH  19  37
HETATM   37  C18 UNL     1      -2.884   2.707   1.114  1.00  0.00     0.192 C 
BRANCH  37  38
HETATM   38  O1  UNL     1      -2.142   3.853   1.267  1.00  0.00    -0.337 OA
BRANCH  38  39
HETATM   39  C19 UNL     1      -1.681   4.704   0.302  1.00  0.00     0.130 C 
HETATM   40  N6  UNL     1      -1.652   4.399  -0.946  1.00  0.00    -0.287 N 
HETATM   41  N7  UNL     1      -1.132   5.459  -1.700  1.00  0.00    -0.139 NA
ATOM     42  H6  UNL     1      -1.964   3.509  -1.334  1.00  0.00     0.184 HD
HETATM   43  C20 UNL     1      -0.579   6.456  -0.803  1.00  0.00     0.143 C 
HETATM   44  C21 UNL     1      -1.148   6.090   0.531  1.00  0.00     0.103 C 
ENDBRANCH  38  39
ENDBRANCH  37  38
ENDBRANCH  19  37
TORSDOF 5
