REMARK  6 active torsions:
REMARK  status: ('A' for Active; 'I' for Inactive)
REMARK    1  A    between atoms: N2_5  and  C4_6 
REMARK    2  A    between atoms: C5_11  and  N5_12 
REMARK    3  A    between atoms: N5_12  and  C6_14 
REMARK    4  A    between atoms: C9_19  and  N7_20 
REMARK    5  A    between atoms: N7_20  and  C10_22 
REMARK    6  A    between atoms: C22_42  and  N12_43 
ROOT
HETATM    1  C6  UNL     1       0.819  -1.096   1.862  1.00  0.00     0.698 A 
HETATM    2  N6  UNL     1       0.782  -0.359   0.741  1.00  0.00    -0.201 N 
ATOM      3  H6  UNL     1       1.662  -0.082   0.306  1.00  0.00     0.183 HD
HETATM    4  C7  UNL     1      -0.370   0.027   0.171  1.00  0.00     0.110 A 
HETATM    5  C8  UNL     1      -1.573  -0.328   0.727  1.00  0.00     0.066 A 
HETATM    6  C9  UNL     1      -1.538  -1.096   1.898  1.00  0.00     0.122 A 
HETATM    7  N10 UNL     1      -0.349  -1.449   2.415  1.00  0.00    -0.176 N 
ATOM      8  H10 UNL     1      -0.335  -2.011   3.266  1.00  0.00     0.186 HD
ENDROOT
BRANCH   1   9
HETATM    9  N5  UNL     1       1.926  -1.465   2.436  1.00  0.00    -0.021 N 
ATOM     10  H5  UNL     1       1.936  -2.028   3.287  1.00  0.00     0.203 HD
BRANCH   9  11
HETATM   11  C5  UNL     1       3.129  -1.030   1.797  1.00  0.00     0.713 A 
HETATM   12  N4  UNL     1       3.635  -1.701   0.752  1.00  0.00    -0.130 N 
HETATM   13  N3  UNL     1       4.743  -1.279   0.125  1.00  0.00    -0.268 N 
ATOM     14  H4  UNL     1       3.168  -2.548   0.428  1.00  0.00     0.205 HD
HETATM   15  C4  UNL     1       5.380  -0.166   0.528  1.00  0.00     0.163 A 
ATOM     16  H3  UNL     1       5.107  -1.809  -0.667  1.00  0.00     0.189 HD
HETATM   17  C22 UNL     1       4.902   0.538   1.577  1.00  0.00     0.160 A 
HETATM   18  N11 UNL     1       3.770   0.073   2.189  1.00  0.00    -0.171 N 
ATOM     19  H11 UNL     1       3.398   0.594   2.983  1.00  0.00     0.186 HD
BRANCH  15  20
HETATM   20  N2  UNL     1       6.534   0.208  -0.170  1.00  0.00    -0.360 N 
HETATM   21  C3  UNL     1       7.799   0.376   0.500  1.00  0.00     0.154 C 
HETATM   22  C2  UNL     1       8.814  -0.393  -0.349  1.00  0.00     0.291 C 
HETATM   23  N1  UNL     1       8.933   0.207  -1.644  1.00  0.00     0.087 N 
HETATM   24  C1  UNL     1      10.210   0.893  -1.712  1.00  0.00     0.310 C 
HETATM   25  C24 UNL     1       7.847   1.080  -1.972  1.00  0.00     0.291 C 
HETATM   26  C23 UNL     1       6.542   0.426  -1.613  1.00  0.00     0.154 C 
ENDBRANCH  15  20
BRANCH  17  27
HETATM   27  N12 UNL     1       5.392   1.605   2.004  1.00  0.00    -0.382 N 
ATOM     28 2H12 UNL     1       6.236   1.952   1.548  1.00  0.00     0.157 HD
ATOM     29 1H12 UNL     1       5.031   2.137   2.796  1.00  0.00     0.157 HD
ENDBRANCH  17  27
ENDBRANCH   9  11
ENDBRANCH   1   9
BRANCH   6  30
HETATM   30  N7  UNL     1      -2.686  -1.420   2.428  1.00  0.00    -0.342 N 
ATOM     31  H7  UNL     1      -2.709  -1.979   3.281  1.00  0.00     0.167 HD
BRANCH  30  32
HETATM   32  C10 UNL     1      -3.903  -1.001   1.827  1.00  0.00     0.034 A 
HETATM   33  C11 UNL     1      -4.399   0.241   2.158  1.00  0.00     0.032 A 
HETATM   34  C12 UNL     1      -5.571   0.722   1.596  1.00  0.00     0.033 A 
HETATM   35  C13 UNL     1      -6.248  -0.074   0.686  1.00  0.00     0.045 A 
HETATM   36  C14 UNL     1      -5.774  -1.321   0.339  1.00  0.00    -0.005 A 
HETATM   37  N8  UNL     1      -7.404   0.136  -0.016  1.00  0.00    -0.341 N 
HETATM   38  C15 UNL     1      -4.595  -1.786   0.911  1.00  0.00     0.043 A 
HETATM   39  C16 UNL     1      -6.647  -1.861  -0.575  1.00  0.00     0.039 A 
HETATM   40  C17 UNL     1      -7.643  -0.941  -0.774  1.00  0.00     0.015 A 
HETATM   41  C21 UNL     1      -8.769  -1.148  -1.690  1.00  0.00     0.077 C 
HETATM   42  C20 UNL     1      -8.732  -0.174  -2.847  1.00  0.00     0.128 C 
HETATM   43  N9  UNL     1      -8.681   1.190  -2.443  1.00  0.00    -0.359 N 
HETATM   44  C19 UNL     1      -8.740   1.797  -1.166  1.00  0.00     0.235 C 
ATOM     45  H9  UNL     1      -8.584   1.850  -3.215  1.00  0.00     0.162 HD
HETATM   46  C18 UNL     1      -8.152   1.351   0.127  1.00  0.00     0.231 C 
HETATM   47  O1  UNL     1      -9.399   2.888  -1.130  1.00  0.00    -0.272 OA
ENDBRANCH  30  32
ENDBRANCH   6  30
TORSDOF 6
