REMARK  5 active torsions:
REMARK  status: ('A' for Active; 'I' for Inactive)
REMARK    1  A    between atoms: C2_2  and  O1_5 
REMARK    2  A    between atoms: O1_5  and  C5_6 
REMARK       I    between atoms: C5_6  and  N1_8 
REMARK    3  A    between atoms: N1_8  and  C6_10 
REMARK    4  A    between atoms: C19_35  and  C20_36 
REMARK    5  A    between atoms: C20_36  and  C21_37 
ROOT
HETATM    1  C6  UNL     1      -1.939  -0.821  -1.243  1.00  0.00     0.212 C 
HETATM    2  C7  UNL     1      -1.417  -2.145  -1.763  1.00  0.00     0.267 C 
HETATM    3  N2  UNL     1      -0.108  -2.035  -2.341  1.00  0.00    -0.071 N 
ATOM      4  H21 UNL     1       0.621  -1.894  -1.642  1.00  0.00     0.277 HD
ATOM      5  H22 UNL     1       0.025  -1.164  -2.855  1.00  0.00     0.277 HD
HETATM    6  C8  UNL     1       0.121  -3.215  -3.164  1.00  0.00     0.258 C 
HETATM    7  C9  UNL     1       1.265  -4.047  -2.635  1.00  0.00     0.195 C 
HETATM    8  O3  UNL     1       2.236  -3.257  -2.031  1.00  0.00    -0.387 OA
HETATM    9  C10 UNL     1       3.461  -3.907  -2.175  1.00  0.00     0.193 C 
HETATM   10  C11 UNL     1       4.567  -3.129  -1.482  1.00  0.00     0.193 C 
HETATM   11  O4  UNL     1       4.085  -2.473  -0.347  1.00  0.00    -0.387 OA
HETATM   12  C12 UNL     1       5.230  -2.129   0.408  1.00  0.00     0.193 C 
HETATM   13  C13 UNL     1       4.847  -1.370   1.656  1.00  0.00     0.193 C 
HETATM   14  O5  UNL     1       5.301  -0.048   1.608  1.00  0.00    -0.387 OA
HETATM   15  C14 UNL     1       5.140   0.521   2.870  1.00  0.00     0.195 C 
HETATM   16  C15 UNL     1       5.186   2.027   2.718  1.00  0.00     0.258 C 
HETATM   17  N3  UNL     1       4.489   2.442   1.516  1.00  0.00    -0.073 N 
ATOM     18  H31 UNL     1       4.728   1.843   0.725  1.00  0.00     0.277 HD
ATOM     19  H32 UNL     1       4.854   3.327   1.165  1.00  0.00     0.277 HD
HETATM   20  C16 UNL     1       3.059   2.506   1.710  1.00  0.00     0.234 C 
HETATM   21  C17 UNL     1       2.395   1.946   0.479  1.00  0.00     0.055 C 
HETATM   22  C18 UNL     1       0.917   1.650   0.728  1.00  0.00     0.237 C 
HETATM   23  N4  UNL     1       0.285   1.291  -0.502  1.00  0.00    -0.048 N 
ATOM     24  H41 UNL     1       0.017   0.307  -0.494  1.00  0.00     0.280 HD
ATOM     25  H42 UNL     1       0.963   1.278  -1.264  1.00  0.00     0.280 HD
HETATM   26  C19 UNL     1      -0.835   2.115  -0.838  1.00  0.00     0.330 C 
HETATM   27  O6  UNL     1      -1.660   1.554  -1.815  1.00  0.00    -0.286 OA
HETATM   28  C24 UNL     1      -1.759   0.268  -2.227  1.00  0.00     0.285 C 
HETATM   29  O7  UNL     1      -1.704  -0.051  -3.434  1.00  0.00    -0.263 OA
ENDROOT
BRANCH   1  30
HETATM   30  N1  UNL     1      -3.365  -0.997  -1.079  1.00  0.00    -0.321 N 
HETATM   31  C5  UNL     1      -3.923  -0.886   0.218  1.00  0.00     0.362 C 
HETATM   32  O2  UNL     1      -3.185  -0.639   1.202  1.00  0.00    -0.238 OA
ATOM     33  H1  UNL     1      -3.959  -1.198  -1.884  1.00  0.00     0.165 HD
BRANCH  31  34
HETATM   34  O1  UNL     1      -5.269  -1.040   0.452  1.00  0.00    -0.294 OA
BRANCH  34  35
HETATM   35  C2  UNL     1      -5.917  -0.954   1.681  1.00  0.00     0.061 C 
HETATM   36  C1  UNL     1      -5.430  -1.969   2.689  1.00  0.00     0.046 C 
HETATM   37  C3  UNL     1      -7.411  -1.168   1.492  1.00  0.00     0.046 C 
HETATM   38  C4  UNL     1      -5.642   0.413   2.270  1.00  0.00     0.046 C 
ENDBRANCH  34  35
ENDBRANCH  31  34
ENDBRANCH   1  30
BRANCH  26  39
HETATM   39  C20 UNL     1      -0.410   3.480  -1.355  1.00  0.00     0.066 C 
BRANCH  39  40
HETATM   40  C21 UNL     1      -1.608   4.331  -1.702  1.00  0.00    -0.010 A 
HETATM   41  C22 UNL     1      -2.603   4.668  -0.648  1.00  0.00     0.005 A 
HETATM   42  C23 UNL     1      -1.635   5.711  -1.069  1.00  0.00     0.005 A 
ENDBRANCH  39  40
ENDBRANCH  26  39
TORSDOF 5
