REMARK  5 active torsions:
REMARK  status: ('A' for Active; 'I' for Inactive)
REMARK       I    between atoms: N1_2  and  C2_4 
REMARK    1  A    between atoms: C2_4  and  C3_6 
REMARK    2  A    between atoms: C3_6  and  C4_7 
REMARK    3  A    between atoms: C3_6  and  O3_40 
REMARK    4  A    between atoms: C4_7  and  N2_8 
REMARK    5  A    between atoms: O3_40  and  C23_41 
ROOT
HETATM    1  N2  UNL     1      -2.032  -0.352   0.657  1.00  0.00     0.094 N 
HETATM    2  C5  UNL     1      -1.336   0.872   0.429  1.00  0.00     0.300 C 
HETATM    3  C6  UNL     1      -1.056   1.532   1.762  1.00  0.00     0.262 C 
HETATM    4  N3  UNL     1       0.302   2.075   1.801  1.00  0.00    -0.072 N 
ATOM      5  H31 UNL     1       1.011   1.391   1.537  1.00  0.00     0.277 HD
ATOM      6  H32 UNL     1       0.633   2.251   2.750  1.00  0.00     0.277 HD
HETATM    7  C7  UNL     1       0.321   3.251   0.974  1.00  0.00     0.259 C 
HETATM    8  C8  UNL     1       1.693   3.721   0.619  1.00  0.00     0.260 C 
HETATM    9  N4  UNL     1       2.613   3.637   1.716  1.00  0.00    -0.070 N 
ATOM     10  H41 UNL     1       2.521   2.749   2.209  1.00  0.00     0.277 HD
ATOM     11  H42 UNL     1       2.347   4.269   2.471  1.00  0.00     0.277 HD
HETATM   12  C9  UNL     1       3.981   3.866   1.296  1.00  0.00     0.270 C 
HETATM   13  C10 UNL     1       4.681   2.651   0.730  1.00  0.00    -0.033 A 
HETATM   14  C11 UNL     1       5.403   1.816   1.542  1.00  0.00     0.009 A 
HETATM   15  C12 UNL     1       6.080   0.663   1.057  1.00  0.00     0.009 A 
HETATM   16  C13 UNL     1       6.048   0.311  -0.273  1.00  0.00    -0.033 A 
HETATM   17  C14 UNL     1       5.320   1.157  -1.075  1.00  0.00     0.009 A 
HETATM   18  C15 UNL     1       4.638   2.314  -0.600  1.00  0.00     0.009 A 
HETATM   19  C16 UNL     1       6.750  -0.900  -0.831  1.00  0.00     0.270 C 
HETATM   20  N5  UNL     1       6.518  -2.176  -0.186  1.00  0.00    -0.069 N 
ATOM     21  H51 UNL     1       6.464  -2.072   0.827  1.00  0.00     0.277 HD
ATOM     22  H52 UNL     1       7.343  -2.774  -0.244  1.00  0.00     0.277 HD
HETATM   23  C17 UNL     1       5.346  -2.849  -0.707  1.00  0.00     0.258 C 
HETATM   24  C18 UNL     1       4.615  -3.584   0.371  1.00  0.00     0.195 C 
HETATM   25  O2  UNL     1       3.285  -3.176   0.481  1.00  0.00    -0.388 OA
HETATM   26  C19 UNL     1       2.532  -3.877  -0.483  1.00  0.00     0.195 C 
HETATM   27  C20 UNL     1       1.092  -3.886   0.027  1.00  0.00     0.258 C 
HETATM   28  N6  UNL     1       0.838  -2.594   0.634  1.00  0.00    -0.071 N 
ATOM     29  H61 UNL     1       1.620  -1.947   0.531  1.00  0.00     0.277 HD
ATOM     30  H62 UNL     1       0.826  -2.630   1.653  1.00  0.00     0.277 HD
HETATM   31  C21 UNL     1      -0.395  -2.079   0.075  1.00  0.00     0.262 C 
HETATM   32  C22 UNL     1      -1.112  -1.337   1.187  1.00  0.00     0.300 C 
ENDROOT
BRANCH   1  33
HETATM   33  C4  UNL     1      -2.769  -0.900  -0.399  1.00  0.00     0.314 C 
BRANCH  33  34
HETATM   34  C3  UNL     1      -4.027  -0.224  -0.842  1.00  0.00     0.242 C 
BRANCH  34  35
HETATM   35  C2  UNL     1      -4.416  -0.892  -2.157  1.00  0.00     0.248 C 
HETATM   36  N1  UNL     1      -5.695  -1.409  -2.409  1.00  0.00    -0.363 N 
HETATM   37  C1  UNL     1      -5.969  -2.022  -3.688  1.00  0.00     0.149 C 
ATOM     38  H1  UNL     1      -6.423  -1.353  -1.697  1.00  0.00     0.162 HD
HETATM   39  O1  UNL     1      -3.544  -0.979  -3.051  1.00  0.00    -0.271 OA
ENDBRANCH  34  35
BRANCH  34  40
HETATM   40  O3  UNL     1      -5.030  -0.114   0.007  1.00  0.00    -0.365 OA
BRANCH  40  41
HETATM   41  C23 UNL     1      -5.670   0.968   0.403  1.00  0.00     0.051 C 
HETATM   42  C24 UNL     1      -6.813   0.745   1.379  1.00  0.00     0.045 C 
HETATM   43  C25 UNL     1      -4.865   2.127   0.952  1.00  0.00     0.045 C 
HETATM   44  C26 UNL     1      -6.359   1.578  -0.838  1.00  0.00     0.045 C 
ENDBRANCH  40  41
ENDBRANCH  34  40
ENDBRANCH  33  34
ENDBRANCH   1  33
TORSDOF 5
