REMARK  2 active torsions:
REMARK  status: ('A' for Active; 'I' for Inactive)
REMARK    1  A    between atoms: N1_2  and  C3_5 
REMARK    2  A    between atoms: C3_5  and  C4_6 
ROOT
HETATM    1  C4  UNL     1       3.199  -0.121   0.542  1.00  0.00     0.020 C 
HETATM    2  C5  UNL     1       2.938   0.598  -0.722  1.00  0.00     0.012 C 
HETATM    3  C6  UNL     1       1.557   1.112  -0.923  1.00  0.00     0.075 C 
HETATM    4  C7  UNL     1       0.487   0.528  -0.088  1.00  0.00     0.230 C 
HETATM    5  C8  UNL     1       0.884  -0.133   1.179  1.00  0.00     0.075 C 
HETATM    6  C9  UNL     1       2.259   0.276   1.666  1.00  0.00     0.012 C 
HETATM    7  O2  UNL     1      -0.475   1.512   0.248  1.00  0.00    -0.195 OA
HETATM    8  O3  UNL     1      -1.608   0.940   0.633  1.00  0.00    -0.194 OA
HETATM    9  C10 UNL     1      -2.248   0.332  -0.460  1.00  0.00     0.237 C 
HETATM   10  O4  UNL     1      -1.281   0.128  -1.425  1.00  0.00    -0.194 OA
HETATM   11  O5  UNL     1      -0.247  -0.426  -0.834  1.00  0.00    -0.195 OA
HETATM   12  C11 UNL     1      -2.776  -0.996   0.002  1.00  0.00     0.055 C 
HETATM   13  C12 UNL     1      -3.648  -1.665  -1.020  1.00  0.00     0.015 C 
HETATM   14  C13 UNL     1      -4.790  -0.749  -1.391  1.00  0.00    -0.013 C 
HETATM   15  C14 UNL     1      -5.633  -0.436  -0.185  1.00  0.00     0.009 C 
HETATM   16  C15 UNL     1      -4.746   0.201   0.863  1.00  0.00    -0.013 C 
HETATM   17  C16 UNL     1      -3.635  -0.733   1.232  1.00  0.00     0.015 C 
HETATM   18  C17 UNL     1      -4.220   1.508   0.345  1.00  0.00     0.015 C 
HETATM   19  C18 UNL     1      -3.372   1.218  -0.901  1.00  0.00     0.055 C 
HETATM   20  C19 UNL     1      -4.258   0.578  -1.923  1.00  0.00     0.015 C 
ENDROOT
BRANCH   1  21
HETATM   21  C3  UNL     1       4.599   0.044   1.045  1.00  0.00     0.315 C 
BRANCH  21  22
HETATM   22  N1  UNL     1       5.644  -0.418   0.196  1.00  0.00     0.005 N 
HETATM   23  C1  UNL     1       6.121   0.558  -0.765  1.00  0.00     0.355 C 
HETATM   24  C2  UNL     1       5.374  -1.673  -0.466  1.00  0.00     0.355 C 
HETATM   25  O1  UNL     1       6.720  -0.644   1.036  1.00  0.00    -0.065 OA
ENDBRANCH  21  22
ENDBRANCH   1  21
TORSDOF 2
