REMARK  3 active torsions:
REMARK  status: ('A' for Active; 'I' for Inactive)
REMARK    1  A    between atoms: C2_2  and  O1_3 
REMARK    2  A    between atoms: O1_3  and  C3_4 
REMARK    3  A    between atoms: C3_4  and  C4_6 
ROOT
HETATM    1  C4  UNL     1       3.154  -0.036  -0.354  1.00  0.00     0.085 C 
HETATM    2  C5  UNL     1       2.523   0.151   0.999  1.00  0.00     0.018 C 
HETATM    3  C6  UNL     1       1.479   1.245   0.972  1.00  0.00     0.044 C 
HETATM    4  C7  UNL     1       0.446   1.006  -0.110  1.00  0.00     0.118 C 
HETATM    5  C8  UNL     1       1.183   0.918  -1.429  1.00  0.00     0.044 C 
HETATM    6  C9  UNL     1       2.676   1.074  -1.252  1.00  0.00     0.018 C 
HETATM    7  C10 UNL     1      -0.532   2.133  -0.075  1.00  0.00     0.212 C 
HETATM    8  O3  UNL     1      -1.841   1.800  -0.040  1.00  0.00    -0.349 OA
HETATM    9  C11 UNL     1      -2.169   0.550   0.375  1.00  0.00     0.204 C 
HETATM   10  O4  UNL     1      -1.116  -0.121   1.011  1.00  0.00    -0.199 OA
HETATM   11  O5  UNL     1      -0.133  -0.233   0.147  1.00  0.00    -0.224 OA
HETATM   12  C12 UNL     1      -3.335   0.528   1.341  1.00  0.00     0.052 C 
HETATM   13  C13 UNL     1      -3.531  -0.874   1.853  1.00  0.00     0.014 C 
HETATM   14  C14 UNL     1      -3.814  -1.796   0.693  1.00  0.00    -0.013 C 
HETATM   15  C15 UNL     1      -5.112  -1.365   0.046  1.00  0.00     0.009 C 
HETATM   16  C16 UNL     1      -4.952   0.034  -0.475  1.00  0.00    -0.013 C 
HETATM   17  C17 UNL     1      -4.627   0.963   0.692  1.00  0.00     0.014 C 
HETATM   18  C18 UNL     1      -3.826   0.174  -1.465  1.00  0.00     0.014 C 
HETATM   19  C19 UNL     1      -2.552  -0.282  -0.831  1.00  0.00     0.052 C 
HETATM   20  C20 UNL     1      -2.721  -1.711  -0.337  1.00  0.00     0.014 C 
ENDROOT
BRANCH   1  21
HETATM   21  C3  UNL     1       4.644  -0.082  -0.284  1.00  0.00     0.263 C 
HETATM   22  O2  UNL     1       5.297   0.795  -0.928  1.00  0.00    -0.265 OA
BRANCH  21  23
HETATM   23  O1  UNL     1       5.330  -1.020   0.438  1.00  0.00    -0.322 OA
BRANCH  23  24
HETATM   24  C2  UNL     1       6.753  -1.051   0.495  1.00  0.00     0.174 C 
HETATM   25  C1  UNL     1       7.360  -1.233  -0.871  1.00  0.00     0.034 C 
ENDBRANCH  23  24
ENDBRANCH  21  23
ENDBRANCH   1  21
TORSDOF 3
