REMARK  3 active torsions:
REMARK  status: ('A' for Active; 'I' for Inactive)
REMARK    1  A    between atoms: C2_2  and  S1_4 
REMARK    2  A    between atoms: S1_4  and  C3_5 
REMARK    3  A    between atoms: C3_5  and  C5_7 
ROOT
HETATM    1  C5  UNL     1       1.672  -1.119  -0.375  1.00  0.00     0.069 C 
HETATM    2  C6  UNL     1       1.156  -1.002  -1.777  1.00  0.00     0.014 C 
HETATM    3  C7  UNL     1      -0.167  -1.624  -2.011  1.00  0.00     0.011 C 
HETATM    4  C8  UNL     1      -1.171  -1.470  -0.880  1.00  0.00    -0.033 C 
HETATM    5  C9  UNL     1      -1.224  -2.790  -0.169  1.00  0.00     0.016 C 
HETATM    6  C10 UNL     1      -2.510  -1.217  -1.546  1.00  0.00     0.012 C 
HETATM    7  C11 UNL     1      -3.203   0.011  -0.996  1.00  0.00     0.034 C 
HETATM    8  C12 UNL     1      -3.113  -0.104   0.509  1.00  0.00     0.141 C 
HETATM    9  O2  UNL     1      -4.094   0.682   1.147  1.00  0.00    -0.315 OA
HETATM   10  C13 UNL     1      -3.947   2.004   1.428  1.00  0.00     0.259 C 
HETATM   11  O3  UNL     1      -4.935   2.744   1.558  1.00  0.00    -0.265 OA
HETATM   12  C14 UNL     1      -2.582   2.548   1.577  1.00  0.00     0.112 C 
HETATM   13  C15 UNL     1      -1.554   1.798   0.821  1.00  0.00     0.022 C 
HETATM   14  C16 UNL     1      -1.689   0.274   0.895  1.00  0.00    -0.006 C 
HETATM   15  C17 UNL     1      -1.547  -0.071   2.355  1.00  0.00     0.019 C 
HETATM   16  C18 UNL     1      -0.702  -0.324  -0.023  1.00  0.00     0.074 C 
HETATM   17  C19 UNL     1       0.590  -0.740   0.571  1.00  0.00     0.138 C 
HETATM   18  O4  UNL     1       0.840  -0.797   1.753  1.00  0.00    -0.297 OA
ENDROOT
BRANCH   1  19
HETATM   19  C3  UNL     1       2.910  -0.284  -0.198  1.00  0.00     0.062 C 
HETATM   20  C4  UNL     1       4.066  -0.779  -1.028  1.00  0.00     0.022 C 
BRANCH  19  21
HETATM   21  S1  UNL     1       2.623   1.462  -0.517  1.00  0.00    -0.088 SA
BRANCH  21  22
HETATM   22  C2  UNL     1       3.973   2.474   0.072  1.00  0.00     0.182 C 
HETATM   23  C1  UNL     1       5.175   1.972   0.756  1.00  0.00     0.104 C 
HETATM   24  O1  UNL     1       3.913   3.700  -0.098  1.00  0.00    -0.286 OA
ENDBRANCH  21  22
ENDBRANCH  19  21
ENDBRANCH   1  19
TORSDOF 3
