REMARK  7 active torsions:
REMARK  status: ('A' for Active; 'I' for Inactive)
REMARK    1  A    between atoms: C2_2  and  O1_3 
REMARK    2  A    between atoms: O1_3  and  C3_4 
REMARK    3  A    between atoms: C3_4  and  C4_5 
REMARK    4  A    between atoms: C7_8  and  C8_9 
REMARK    5  A    between atoms: C8_9  and  O2_10 
REMARK    6  A    between atoms: O2_10  and  C9_11 
REMARK    7  A    between atoms: C9_11  and  C10_12 
ROOT
HETATM    1  C8  UNL     1       0.464  -0.769   1.282  1.00  0.00     0.199 C 
ENDROOT
BRANCH   1   2
HETATM    2  C7  UNL     1      -0.973  -0.845   0.822  1.00  0.00     0.145 C 
HETATM    3  C6  UNL     1      -1.152  -1.592  -0.445  1.00  0.00     0.034 C 
HETATM    4  C5  UNL     1      -2.346  -1.051  -1.181  1.00  0.00     0.011 C 
HETATM    5  C4  UNL     1      -3.434  -0.712  -0.138  1.00  0.00     0.033 C 
HETATM    6  C14 UNL     1      -2.915   0.394   0.738  1.00  0.00     0.174 C 
HETATM    7  O7  UNL     1      -1.508   0.409   0.745  1.00  0.00    -0.383 OA
BRANCH   5   8
HETATM    8  C3  UNL     1      -4.603  -0.255  -0.952  1.00  0.00     0.174 C 
BRANCH   8   9
HETATM    9  O1  UNL     1      -5.757   0.080  -0.387  1.00  0.00    -0.391 OA
BRANCH   9  10
HETATM   10  C2  UNL     1      -5.883   1.082   0.484  1.00  0.00     0.163 C 
HETATM   11  C1  UNL     1      -7.393   1.192   0.850  1.00  0.00     0.033 C 
ENDBRANCH   9  10
ENDBRANCH   8   9
ENDBRANCH   5   8
ENDBRANCH   1   2
BRANCH   1  12
HETATM   12  O2  UNL     1       1.273  -0.039   0.447  1.00  0.00    -0.384 OA
BRANCH  12  13
HETATM   13  C9  UNL     1       2.553  -0.038   0.963  1.00  0.00     0.234 C 
BRANCH  13  14
HETATM   14  C10 UNL     1       3.538   0.737   0.127  1.00  0.00     0.357 C 
HETATM   15  O3  UNL     1       3.621   0.209  -1.138  1.00  0.00    -0.200 OA
HETATM   16  O4  UNL     1       4.754   0.398  -1.740  1.00  0.00    -0.196 OA
HETATM   17  C11 UNL     1       5.867   0.167  -0.962  1.00  0.00     0.222 C 
HETATM   18  C12 UNL     1       6.597   1.502  -0.764  1.00  0.00     0.084 C 
HETATM   19  C13 UNL     1       6.798  -0.868  -1.503  1.00  0.00     0.084 C 
HETATM   20  O5  UNL     1       5.478  -0.245   0.326  1.00  0.00    -0.196 OA
HETATM   21  O6  UNL     1       4.752   0.737   0.814  1.00  0.00    -0.200 OA
ENDBRANCH  13  14
ENDBRANCH  12  13
ENDBRANCH   1  12
TORSDOF 7
