REMARK  8 active torsions:
REMARK  status: ('A' for Active; 'I' for Inactive)
REMARK    1  A    between atoms: C2_2  and  C3_3 
REMARK    2  A    between atoms: C3_3  and  C4_4 
REMARK    3  A    between atoms: C4_4  and  S1_5 
REMARK    4  A    between atoms: S1_5  and  C5_6 
REMARK    5  A    between atoms: C10_12  and  O1_13 
REMARK    6  A    between atoms: N3_18  and  O2_20 
REMARK    7  A    between atoms: O2_20  and  C13_21 
REMARK    8  A    between atoms: C13_21  and  O3_22 
ROOT
HETATM    1  C5  UNL     1      -1.580  -0.173   0.141  1.00  0.00     0.087 C 
HETATM    2  C6  UNL     1      -1.819   1.297  -0.028  1.00  0.00     0.290 C 
HETATM    3  N1  UNL     1      -2.959   1.643  -0.807  1.00  0.00     0.106 N 
HETATM    4  C7  UNL     1      -3.009   0.965  -2.055  1.00  0.00     0.275 C 
HETATM    5  C8  UNL     1      -2.698  -0.493  -2.009  1.00  0.00     0.044 C 
HETATM    6  C9  UNL     1      -2.622  -1.015  -0.589  1.00  0.00     0.077 C 
HETATM    7  C10 UNL     1      -3.910  -0.807   0.093  1.00  0.00     0.119 C 
HETATM    8  N2  UNL     1      -4.538   0.287   0.284  1.00  0.00    -0.349 N 
ATOM      9  H2  UNL     1      -5.421   0.187   0.785  1.00  0.00     0.163 HD
HETATM   10  C12 UNL     1      -4.206   1.660  -0.094  1.00  0.00     0.396 C 
ENDROOT
BRANCH   1  11
HETATM   11  S1  UNL     1       0.037  -0.690  -0.479  1.00  0.00    -0.156 SA
BRANCH  11  12
HETATM   12  C4  UNL     1       1.374   0.033   0.514  1.00  0.00     0.133 C 
BRANCH  12  13
HETATM   13  C3  UNL     1       2.705  -0.383   0.016  1.00  0.00     0.040 C 
HETATM   14  N3  UNL     1       3.410  -1.132   0.821  1.00  0.00    -0.268 N 
ATOM     15  H3  UNL     1       3.005  -1.369   1.727  1.00  0.00     0.194 HD
BRANCH  13  16
HETATM   16  C2  UNL     1       3.219  -0.003  -1.293  1.00  0.00     0.017 C 
HETATM   17  C1  UNL     1       2.483   0.760  -2.075  1.00  0.00     0.013 C 
ENDBRANCH  13  16
BRANCH  14  18
HETATM   18  O2  UNL     1       4.638  -1.614   0.535  1.00  0.00    -0.254 OA
BRANCH  18  19
HETATM   19  C13 UNL     1       5.851  -1.091   1.042  1.00  0.00     0.369 C 
BRANCH  19  20
HETATM   20  O3  UNL     1       5.931   0.220   0.631  1.00  0.00    -0.369 OA
HETATM   21  C14 UNL     1       7.072   0.869   1.054  1.00  0.00     0.204 C 
ENDBRANCH  19  20
ENDBRANCH  18  19
ENDBRANCH  14  18
ENDBRANCH  12  13
ENDBRANCH  11  12
ENDBRANCH   1  11
BRANCH   7  22
HETATM   22  O1  UNL     1      -4.509  -1.944   0.584  1.00  0.00    -0.344 OA
HETATM   23  C11 UNL     1      -5.622  -1.914   1.465  1.00  0.00     0.211 C 
ENDBRANCH   7  22
TORSDOF 8
