REMARK  8 active torsions:
REMARK  status: ('A' for Active; 'I' for Inactive)
REMARK    1  A    between atoms: O1_2  and  C2_3 
REMARK    2  A    between atoms: N1_4  and  C3_5 
REMARK    3  A    between atoms: C3_5  and  C4_6 
REMARK    4  A    between atoms: N3_16  and  N4_17 
REMARK    5  A    between atoms: N4_17  and  O2_18 
REMARK    6  A    between atoms: N5_20  and  O3_22 
REMARK    7  A    between atoms: O3_22  and  N6_23 
REMARK    8  A    between atoms: N6_23  and  O4_25 
ROOT
HETATM    1  C4  UNL     1       2.125  -0.431  -0.199  1.00  0.00    -0.030 A 
HETATM    2  C5  UNL     1       3.122  -1.297   0.272  1.00  0.00     0.010 A 
HETATM    3  C6  UNL     1       4.401  -0.835   0.471  1.00  0.00     0.023 A 
HETATM    4  C7  UNL     1       4.698   0.482   0.204  1.00  0.00     0.044 A 
HETATM    5  C8  UNL     1       6.042   0.986   0.408  1.00  0.00     0.099 C 
HETATM    6  N2  UNL     1       7.107   1.397   0.577  1.00  0.00    -0.191 NA
HETATM    7  C9  UNL     1       3.705   1.338  -0.263  1.00  0.00     0.023 A 
HETATM    8  C10 UNL     1       2.417   0.890  -0.467  1.00  0.00     0.010 A 
ENDROOT
BRANCH   1   9
HETATM    9  C3  UNL     1       0.749  -0.949  -0.412  1.00  0.00     0.317 C 
BRANCH   9  10
HETATM   10  N1  UNL     1      -0.222   0.126  -0.493  1.00  0.00     0.144 N 
HETATM   11  C2  UNL     1      -1.563  -0.425  -0.731  1.00  0.00     0.487 C 
HETATM   12  N3  UNL     1      -2.398   0.117   0.310  1.00  0.00    -0.228 N 
HETATM   13  C12 UNL     1      -1.533   0.256   1.458  1.00  0.00     0.182 C 
HETATM   14  C11 UNL     1      -0.280   0.789   0.794  1.00  0.00     0.300 C 
BRANCH  11  15
HETATM   15  O1  UNL     1      -1.485  -1.796  -0.623  1.00  0.00    -0.346 OA
HETATM   16  C1  UNL     1      -1.870  -2.446  -1.797  1.00  0.00     0.206 C 
ENDBRANCH  11  15
BRANCH  12  17
HETATM   17  N4  UNL     1      -3.742   0.456   0.293  1.00  0.00    -0.071 N 
HETATM   18  N5  UNL     1      -4.230   1.317   1.101  1.00  0.00    -0.138 N 
ATOM     19  H5  UNL     1      -3.603   1.760   1.772  1.00  0.00     0.222 HD
BRANCH  17  20
HETATM   20  O2  UNL     1      -4.575  -0.142  -0.607  1.00  0.00    -0.252 OA
ATOM     21  H2  UNL     1      -5.496   0.090  -0.619  1.00  0.00     0.248 HD
ENDBRANCH  17  20
BRANCH  18  22
HETATM   22  O3  UNL     1      -5.539   1.673   1.113  1.00  0.00    -0.117 OA
BRANCH  22  23
HETATM   23  N6  UNL     1      -5.855   3.011   0.969  1.00  0.00    -0.147 N 
ATOM     24  H6  UNL     1      -6.782   3.338   1.241  1.00  0.00     0.226 HD
BRANCH  23  25
HETATM   25  O4  UNL     1      -5.031   3.825   0.514  1.00  0.00    -0.268 OA
ATOM     26  H4  UNL     1      -5.248   4.745   0.415  1.00  0.00     0.246 HD
ENDBRANCH  23  25
ENDBRANCH  22  23
ENDBRANCH  18  22
ENDBRANCH  12  17
ENDBRANCH   9  10
ENDBRANCH   1   9
TORSDOF 8
