REMARK  7 active torsions:
REMARK  status: ('A' for Active; 'I' for Inactive)
REMARK    1  A    between atoms: C1_1  and  C2_2 
REMARK    2  A    between atoms: C1_1  and  O3_19 
REMARK    3  A    between atoms: C2_2  and  N1_3 
REMARK    4  A    between atoms: C6_8  and  C7_9 
REMARK    5  A    between atoms: C8_13  and  C9_14 
REMARK    6  A    between atoms: O3_19  and  C12_20 
REMARK    7  A    between atoms: C12_20  and  C13_21 
ROOT
HETATM    1  N1  UNL     1       0.138   0.675  -0.098  1.00  0.00    -0.356 N 
HETATM    2  C3  UNL     1      -0.046   2.048  -0.334  1.00  0.00     0.090 C 
HETATM    3  C4  UNL     1       1.303   2.721  -0.134  1.00  0.00     0.212 C 
HETATM    4  O1  UNL     1       1.768   2.610   1.149  1.00  0.00    -0.384 OA
HETATM    5  C5  UNL     1       1.520   1.421   1.774  1.00  0.00     0.201 C 
HETATM    6  C6  UNL     1       1.065   0.308   0.910  1.00  0.00     0.181 C 
ENDROOT
BRANCH   6   7
HETATM    7  C7  UNL     1       2.180  -0.460   0.299  1.00  0.00     0.129 A 
HETATM    8  N2  UNL     1       2.167  -1.444  -0.600  1.00  0.00    -0.245 N 
HETATM    9  O2  UNL     1       3.369  -1.824  -0.840  1.00  0.00    -0.222 OA
ATOM     10  H2  UNL     1       1.330  -1.835  -1.031  1.00  0.00     0.196 HD
HETATM   11  C8  UNL     1       4.231  -1.129  -0.130  1.00  0.00     0.152 A 
HETATM   12  N3  UNL     1       3.500  -0.268   0.590  1.00  0.00    -0.325 N 
ATOM     13  H3  UNL     1       3.869   0.419   1.248  1.00  0.00     0.169 HD
BRANCH  11  14
HETATM   14  C9  UNL     1       5.726  -1.279  -0.134  1.00  0.00     0.063 A 
HETATM   15  C10 UNL     1       6.570  -0.017  -0.298  1.00  0.00     0.013 A 
HETATM   16  C11 UNL     1       6.442  -1.038  -1.413  1.00  0.00     0.013 A 
ENDBRANCH  11  14
ENDBRANCH   6   7
BRANCH   1  17
HETATM   17  C2  UNL     1      -0.781  -0.255  -0.539  1.00  0.00     0.090 C 
BRANCH  17  18
HETATM   18  C1  UNL     1      -2.145  -0.267   0.123  1.00  0.00     0.212 C 
BRANCH  18  19
HETATM   19  O3  UNL     1      -2.852  -1.290  -0.494  1.00  0.00    -0.386 OA
BRANCH  19  20
HETATM   20  C12 UNL     1      -4.114  -1.478  -0.011  1.00  0.00     0.176 C 
BRANCH  20  21
HETATM   21  C13 UNL     1      -5.057  -0.327  -0.130  1.00  0.00     0.057 C 
HETATM   22  C14 UNL     1      -6.410  -0.745   0.466  1.00  0.00     0.176 C 
HETATM   23  O4  UNL     1      -7.007  -0.017  -0.537  1.00  0.00    -0.390 OA
HETATM   24  C15 UNL     1      -5.908  -0.288  -1.383  1.00  0.00     0.176 C 
ENDBRANCH  20  21
ENDBRANCH  19  20
ENDBRANCH  18  19
ENDBRANCH  17  18
ENDBRANCH   1  17
TORSDOF 7
