REMARK  9 active torsions:
REMARK  status: ('A' for Active; 'I' for Inactive)
REMARK    1  A    between atoms: N1_1  and  C1_4 
REMARK    2  A    between atoms: C3_8  and  N3_9 
REMARK    3  A    between atoms: N3_9  and  C4_11 
REMARK    4  A    between atoms: C4_11  and  C5_12 
REMARK    5  A    between atoms: C5_12  and  N4_13 
REMARK    6  A    between atoms: N4_13  and  O1_14 
REMARK    7  A    between atoms: N5_17  and  C7_19 
REMARK    8  A    between atoms: C7_19  and  C8_20 
REMARK    9  A    between atoms: C8_20  and  N6_21 
ROOT
HETATM    1  C1  UNL     1      -1.566   3.831  -0.918  1.00  0.00     0.677 A 
HETATM    2  N2  UNL     1      -2.599   3.094  -1.368  1.00  0.00    -0.200 N 
ATOM      3  H2  UNL     1      -3.460   3.542  -1.682  1.00  0.00     0.183 HD
HETATM    4  C2  UNL     1      -2.474   1.773  -1.394  1.00  0.00     0.139 A 
HETATM    5  C3  UNL     1      -1.294   1.153  -0.964  1.00  0.00     0.089 A 
HETATM    6  C6  UNL     1      -0.231   1.896  -0.501  1.00  0.00     0.145 A 
HETATM    7  N5  UNL     1       0.843   1.451  -0.103  1.00  0.00    -0.372 N 
ATOM      8  H5  UNL     1       1.390   2.271   0.159  1.00  0.00     0.161 HD
HETATM    9  N9  UNL     1      -0.441   3.271  -0.506  1.00  0.00    -0.175 N 
ATOM     10  H9  UNL     1       0.310   3.877  -0.176  1.00  0.00     0.186 HD
ENDROOT
BRANCH   5  11
HETATM   11  N3  UNL     1      -1.220  -0.253  -1.016  1.00  0.00    -0.385 N 
ATOM     12  H3  UNL     1      -0.380  -0.745  -0.713  1.00  0.00     0.159 HD
BRANCH  11  13
HETATM   13  C4  UNL     1      -2.382  -0.988  -1.517  1.00  0.00     0.138 C 
BRANCH  13  14
HETATM   14  C5  UNL     1      -2.141  -2.481  -1.507  1.00  0.00     0.162 C 
BRANCH  14  15
HETATM   15  N4  UNL     1      -1.868  -2.956  -0.164  1.00  0.00    -0.102 NA
BRANCH  15  16
HETATM   16  O1  UNL     1      -1.667  -4.287  -0.249  1.00  0.00    -0.296 OA
ATOM     17  H1  UNL     1      -1.488  -4.598   0.631  1.00  0.00     0.238 HD
ENDBRANCH  15  16
ENDBRANCH  14  15
ENDBRANCH  13  14
ENDBRANCH  11  13
ENDBRANCH   5  11
BRANCH   7  18
HETATM   18  C7  UNL     1       1.656   0.383   0.157  1.00  0.00     0.141 C 
BRANCH  18  19
HETATM   19  C8  UNL     1       2.986   0.761   0.830  1.00  0.00     0.141 C 
BRANCH  19  20
HETATM   20  N6  UNL     1       3.704  -0.471   1.026  1.00  0.00    -0.365 N 
HETATM   21  C9  UNL     1       3.527  -1.259   2.016  1.00  0.00     0.197 C 
HETATM   22  N7  UNL     1       4.284  -2.446   2.115  1.00  0.00    -0.067 NA
HETATM   23  N8  UNL     1       2.575  -0.942   3.008  1.00  0.00    -0.067 NA
ATOM     24  H6  UNL     1       4.400  -0.732   0.328  1.00  0.00     0.161 HD
ENDBRANCH  19  20
ENDBRANCH  18  19
ENDBRANCH   7  18
BRANCH   1  25
HETATM   25  N1  UNL     1      -1.717   5.134  -0.902  1.00  0.00    -0.234 N 
ATOM     26  H12 UNL     1      -2.585   5.566  -1.220  1.00  0.00     0.174 HD
ATOM     27  H11 UNL     1      -0.934   5.692  -0.561  1.00  0.00     0.174 HD
ENDBRANCH   1  25
TORSDOF 9
