REMARK  10 active torsions:
REMARK  status: ('A' for Active; 'I' for Inactive)
REMARK    1  A    between atoms: N1_1  and  C1_4 
REMARK    2  A    between atoms: N3_8  and  C3_10 
REMARK    3  A    between atoms: C3_10  and  C4_11 
REMARK    4  A    between atoms: C4_11  and  N4_12 
REMARK    5  A    between atoms: N4_12  and  C5_14 
REMARK    6  A    between atoms: C5_14  and  C6_15 
REMARK    7  A    between atoms: C6_15  and  C7_16 
REMARK    8  A    between atoms: C7_16  and  N5_17 
REMARK    9  A    between atoms: N7_25  and  C10_26 
REMARK   10  A    between atoms: C10_26  and  O1_27 
ROOT
HETATM    1  C1  UNL     1      -3.189  -1.528   0.237  1.00  0.00     0.679 A 
HETATM    2  N2  UNL     1      -1.940  -1.435  -0.306  1.00  0.00    -0.175 N 
ATOM      3  H2  UNL     1      -1.375  -2.278  -0.410  1.00  0.00     0.186 HD
HETATM    4  C2  UNL     1      -1.448  -0.265  -0.702  1.00  0.00     0.147 A 
HETATM    5  N3  UNL     1      -0.300  -0.141  -1.192  1.00  0.00    -0.372 N 
ATOM      6  H3  UNL     1      -0.040   0.809  -1.458  1.00  0.00     0.161 HD
HETATM    7  C8  UNL     1      -2.272   0.857  -0.535  1.00  0.00     0.123 A 
HETATM    8  N6  UNL     1      -2.105   2.169  -0.813  1.00  0.00    -0.346 N 
ATOM      9  H6  UNL     1      -1.272   2.584  -1.231  1.00  0.00     0.167 HD
HETATM   10  C9  UNL     1      -3.216   2.843  -0.449  1.00  0.00     0.187 A 
HETATM   11  N7  UNL     1      -4.111   1.979   0.065  1.00  0.00    -0.305 N 
HETATM   12  C11 UNL     1      -3.533   0.764   0.012  1.00  0.00     0.156 A 
HETATM   13  N8  UNL     1      -3.959  -0.446   0.387  1.00  0.00    -0.174 N 
ATOM     14  H8  UNL     1      -4.889  -0.545   0.795  1.00  0.00     0.186 HD
ENDROOT
BRANCH   5  15
HETATM   15  C3  UNL     1       0.681  -1.121  -1.428  1.00  0.00     0.141 C 
BRANCH  15  16
HETATM   16  C4  UNL     1       1.880  -0.744  -0.487  1.00  0.00     0.138 C 
BRANCH  16  17
HETATM   17  N4  UNL     1       2.870  -1.685  -0.707  1.00  0.00    -0.401 N 
ATOM     18  H4  UNL     1       2.726  -2.333  -1.482  1.00  0.00     0.158 HD
BRANCH  17  19
HETATM   19  C5  UNL     1       4.033  -1.832   0.020  1.00  0.00     0.057 C 
BRANCH  19  20
HETATM   20  C6  UNL     1       5.089  -0.808  -0.104  1.00  0.00     0.071 C 
BRANCH  20  21
HETATM   21  C7  UNL     1       4.708   0.568   0.341  1.00  0.00     0.234 C 
BRANCH  21  22
HETATM   22  N5  UNL     1       5.980   1.353   0.195  1.00  0.00    -0.079 N 
ATOM     23  H53 UNL     1       6.779   0.956   0.689  1.00  0.00     0.274 HD
ATOM     24  H52 UNL     1       6.397   1.311  -0.735  1.00  0.00     0.274 HD
ATOM     25  H51 UNL     1       5.720   2.291   0.499  1.00  0.00     0.274 HD
ENDBRANCH  21  22
ENDBRANCH  20  21
ENDBRANCH  19  20
ENDBRANCH  17  19
ENDBRANCH  16  17
ENDBRANCH  15  16
ENDBRANCH   5  15
BRANCH   1  26
HETATM   26  N1  UNL     1      -3.627  -2.705   0.611  1.00  0.00    -0.234 N 
ATOM     27  H12 UNL     1      -3.039  -3.531   0.497  1.00  0.00     0.174 HD
ATOM     28  H11 UNL     1      -4.560  -2.774   1.017  1.00  0.00     0.174 HD
ENDBRANCH   1  26
BRANCH  11  29
HETATM   29  C10 UNL     1      -5.431   2.349   0.565  1.00  0.00     0.298 C 
BRANCH  29  30
HETATM   30  O1  UNL     1      -6.382   2.306  -0.425  1.00  0.00    -0.382 OA
ATOM     31  H1  UNL     1      -7.241   2.547  -0.099  1.00  0.00     0.211 HD
ENDBRANCH  29  30
ENDBRANCH  11  29
TORSDOF 10
