REMARK  11 active torsions:
REMARK  status: ('A' for Active; 'I' for Inactive)
REMARK    1  A    between atoms: N1_1  and  C1_4 
REMARK    2  A    between atoms: C2_7  and  N3_8 
REMARK    3  A    between atoms: N3_8  and  C3_10 
REMARK    4  A    between atoms: C3_10  and  C4_11 
REMARK    5  A    between atoms: C4_11  and  O1_12 
REMARK    6  A    between atoms: C6_19  and  N6_20 
REMARK    7  A    between atoms: N6_20  and  C7_21 
REMARK    8  A    between atoms: N6_20  and  C8_26 
REMARK    9  A    between atoms: C7_21  and  N7_22 
REMARK   10  A    between atoms: C8_26  and  C9_27 
REMARK   11  A    between atoms: C9_27  and  O2_28 
ROOT
HETATM    1  C1  UNL     1       1.610  -1.248  -0.663  1.00  0.00     0.146 A 
HETATM    2  N2  UNL     1       2.751  -0.588  -0.437  1.00  0.00    -0.174 N 
ATOM      3  H2  UNL     1       3.647  -0.988  -0.715  1.00  0.00     0.186 HD
HETATM    4  C2  UNL     1       2.691   0.634   0.174  1.00  0.00     0.685 A 
HETATM    5  N4  UNL     1       1.466   1.119   0.522  1.00  0.00    -0.173 N 
ATOM      6  H4  UNL     1       1.418   2.030   0.977  1.00  0.00     0.186 HD
HETATM    7  C5  UNL     1       0.329   0.464   0.298  1.00  0.00     0.167 A 
HETATM    8  N5  UNL     1      -0.981   0.727   0.545  1.00  0.00    -0.173 N 
ATOM      9  H5  UNL     1      -1.320   1.577   0.996  1.00  0.00     0.186 HD
HETATM   10  C6  UNL     1      -1.769  -0.263   0.125  1.00  0.00     0.688 A 
HETATM   11  N8  UNL     1      -0.891  -1.175  -0.405  1.00  0.00    -0.184 N 
ATOM     12  H8  UNL     1      -1.162  -2.066  -0.822  1.00  0.00     0.184 HD
HETATM   13  C10 UNL     1       0.352  -0.742  -0.301  1.00  0.00     0.138 A 
ENDROOT
BRANCH  10  14
HETATM   14  N6  UNL     1      -3.168  -0.372   0.157  1.00  0.00    -0.170 N 
BRANCH  14  15
HETATM   15  C7  UNL     1      -3.682  -1.746  -0.103  1.00  0.00     0.376 C 
BRANCH  15  16
HETATM   16  N7  UNL     1      -5.103  -1.799  -0.165  1.00  0.00    -0.062 N 
ATOM     17  H73 UNL     1      -5.521  -1.406   0.678  1.00  0.00     0.276 HD
ATOM     18  H72 UNL     1      -5.464  -1.137  -0.852  1.00  0.00     0.276 HD
ATOM     19  H71 UNL     1      -5.455  -2.740  -0.343  1.00  0.00     0.276 HD
ENDBRANCH  15  16
ENDBRANCH  14  15
BRANCH  14  20
HETATM   20  C8  UNL     1      -4.165   0.582   0.388  1.00  0.00     0.109 C 
BRANCH  20  21
HETATM   21  C9  UNL     1      -3.873   2.010   0.493  1.00  0.00     0.209 C 
BRANCH  21  22
HETATM   22  O2  UNL     1      -3.296   2.504  -0.686  1.00  0.00    -0.396 OA
ATOM     23  H2  UNL     1      -3.106   3.432  -0.618  1.00  0.00     0.209 HD
ENDBRANCH  21  22
ENDBRANCH  20  21
ENDBRANCH  14  20
ENDBRANCH  10  14
BRANCH   1  24
HETATM   24  N1  UNL     1       1.679  -2.393  -1.237  1.00  0.00    -0.383 N 
ATOM     25  H12 UNL     1       2.593  -2.761  -1.500  1.00  0.00     0.157 HD
ATOM     26  H11 UNL     1       0.809  -2.896  -1.409  1.00  0.00     0.157 HD
ENDBRANCH   1  24
BRANCH   4  27
HETATM   27  N3  UNL     1       3.754   1.245   0.386  1.00  0.00    -0.203 N 
ATOM     28  H3  UNL     1       3.633   2.150   0.840  1.00  0.00     0.183 HD
BRANCH  27  29
HETATM   29  C3  UNL     1       5.076   0.916   0.116  1.00  0.00     0.105 C 
BRANCH  29  30
HETATM   30  C4  UNL     1       5.681   0.023   1.199  1.00  0.00     0.209 C 
BRANCH  30  31
HETATM   31  O1  UNL     1       6.990  -0.260   0.879  1.00  0.00    -0.396 OA
ATOM     32  H1  UNL     1       7.366  -0.815   1.552  1.00  0.00     0.209 HD
ENDBRANCH  30  31
ENDBRANCH  29  30
ENDBRANCH  27  29
ENDBRANCH   4  27
TORSDOF 11
