REMARK  3 active torsions:
REMARK  status: ('A' for Active; 'I' for Inactive)
REMARK    1  A    between atoms: N1_1  and  C1_4 
REMARK    2  A    between atoms: C2_7  and  C3_8 
REMARK    3  A    between atoms: C8_20  and  C9_21 
ROOT
HETATM    1  C1  UNL     1       0.573  -1.412   1.082  1.00  0.00     0.699 A 
HETATM    2  N2  UNL     1      -0.771  -1.172   1.110  1.00  0.00    -0.188 N 
ATOM      3  H2  UNL     1      -1.372  -1.724   1.722  1.00  0.00     0.184 HD
HETATM    4  C2  UNL     1      -1.304  -0.215   0.338  1.00  0.00     0.076 A 
HETATM    5  C6  UNL     1      -0.458   0.504  -0.472  1.00  0.00     0.083 A 
HETATM    6  C7  UNL     1       0.903   0.244  -0.486  1.00  0.00     0.149 A 
HETATM    7  N5  UNL     1       1.902   0.810  -1.185  1.00  0.00    -0.322 N 
ATOM      8  H5  UNL     1       1.808   1.569  -1.859  1.00  0.00     0.169 HD
HETATM    9  C8  UNL     1       3.038   0.202  -0.840  1.00  0.00     0.169 A 
HETATM   10  N10 UNL     1       2.718  -0.731   0.068  1.00  0.00    -0.259 N 
ATOM     11  H10 UNL     1       3.384  -1.359   0.518  1.00  0.00     0.190 HD
HETATM   12  N11 UNL     1       1.403  -0.720   0.299  1.00  0.00    -0.068 N 
ENDROOT
BRANCH   4  13
HETATM   13  C3  UNL     1      -2.770   0.036   0.378  1.00  0.00     0.060 C 
HETATM   14  N3  UNL     1      -3.406   0.913  -0.303  1.00  0.00    -0.367 N 
HETATM   15  C4  UNL     1      -4.822   0.921  -0.050  1.00  0.00     0.355 C 
ATOM     16  H3  UNL     1      -2.952   1.546  -0.962  1.00  0.00     0.161 HD
HETATM   17  N4  UNL     1      -4.938   0.136   1.168  1.00  0.00    -0.054 N 
HETATM   18  C5  UNL     1      -3.755  -0.684   1.213  1.00  0.00     0.293 C 
ATOM     19  H42 UNL     1      -5.078   0.699   2.007  1.00  0.00     0.279 HD
ATOM     20  H41 UNL     1      -5.807  -0.394   1.232  1.00  0.00     0.279 HD
ENDBRANCH   4  13
BRANCH   1  21
HETATM   21  N1  UNL     1       1.053  -2.339   1.837  1.00  0.00    -0.233 N 
ATOM     22  H12 UNL     1       0.419  -2.868   2.435  1.00  0.00     0.174 HD
ATOM     23  H11 UNL     1       2.057  -2.518   1.816  1.00  0.00     0.174 HD
ENDBRANCH   1  21
BRANCH   9  24
HETATM   24  C9  UNL     1       4.358   0.530  -1.381  1.00  0.00     0.177 A 
HETATM   25  N6  UNL     1       5.493  -0.089  -1.026  1.00  0.00    -0.267 N 
HETATM   26  N7  UNL     1       6.492   0.471  -1.719  1.00  0.00    -0.007 NA
ATOM     27  H6  UNL     1       5.580  -0.849  -0.351  1.00  0.00     0.185 HD
HETATM   28  N8  UNL     1       5.997   1.427  -2.498  1.00  0.00    -0.007 NA
HETATM   29  N9  UNL     1       4.671   1.466  -2.291  1.00  0.00    -0.267 N 
ATOM     30  H9  UNL     1       4.014   2.099  -2.747  1.00  0.00     0.185 HD
ENDBRANCH   9  24
TORSDOF 3
