REMARK  4 active torsions:
REMARK  status: ('A' for Active; 'I' for Inactive)
REMARK    1  A    between atoms: N1_1  and  C1_4 
REMARK    2  A    between atoms: N4_11  and  C3_12 
REMARK    3  A    between atoms: N6_16  and  N7_17 
REMARK    4  A    between atoms: C7_22  and  N8_23 
ROOT
HETATM    1  C3  UNL     1      -0.263   0.093  -0.043  1.00  0.00     0.117 A 
HETATM    2  C4  UNL     1       0.549   1.038   0.548  1.00  0.00     0.082 A 
HETATM    3  C5  UNL     1       1.935   0.901   0.571  1.00  0.00     0.143 A 
HETATM    4  N5  UNL     1       2.681   1.907   1.191  1.00  0.00    -0.081 NA
HETATM    5  N6  UNL     1       2.506  -0.173   0.006  1.00  0.00    -0.211 N 
HETATM    6  C6  UNL     1       1.759  -1.119  -0.581  1.00  0.00     0.303 A 
HETATM    7  O2  UNL     1       2.290  -2.140  -1.118  1.00  0.00    -0.263 OA
HETATM    8  C7  UNL     1       0.363  -0.996  -0.613  1.00  0.00     0.201 A 
ENDROOT
BRANCH   1   9
HETATM    9  N4  UNL     1      -1.672   0.173  -0.100  1.00  0.00    -0.080 N 
HETATM   10  C1  UNL     1      -2.574  -0.142   0.865  1.00  0.00     0.702 A 
HETATM   11  N2  UNL     1      -3.773   0.108   0.321  1.00  0.00    -0.139 N 
HETATM   12  C2  UNL     1      -3.638   0.562  -0.936  1.00  0.00     0.354 A 
ATOM     13  H2  UNL     1      -4.665  -0.028   0.796  1.00  0.00     0.189 HD
HETATM   14  O1  UNL     1      -4.510   0.906  -1.776  1.00  0.00    -0.245 OA
HETATM   15  N3  UNL     1      -2.332   0.599  -1.189  1.00  0.00    -0.229 N 
ATOM     16  H3  UNL     1      -1.904   0.901  -2.064  1.00  0.00     0.193 HD
BRANCH  10  17
HETATM   17  N1  UNL     1      -2.258  -0.577   2.018  1.00  0.00    -0.233 N 
ATOM     18  H12 UNL     1      -2.936  -0.814   2.743  1.00  0.00     0.174 HD
ATOM     19  H11 UNL     1      -1.345  -0.767   2.432  1.00  0.00     0.174 HD
ENDBRANCH  10  17
ENDBRANCH   1   9
BRANCH   8  20
HETATM   20  N8  UNL     1      -0.434  -1.976  -1.224  1.00  0.00    -0.107 N 
HETATM   21  O3  UNL     1      -1.097  -2.746  -0.541  1.00  0.00    -0.531 OA
HETATM   22  O4  UNL     1      -0.460  -2.059  -2.574  1.00  0.00    -0.531 OA
ENDBRANCH   8  20
BRANCH   5  23
HETATM   23  N7  UNL     1       3.895  -0.285   0.044  1.00  0.00    -0.334 N 
ATOM     24  H72 UNL     1       4.463   0.435   0.491  1.00  0.00     0.177 HD
ATOM     25  H71 UNL     1       4.329  -1.102  -0.386  1.00  0.00     0.177 HD
ENDBRANCH   5  23
TORSDOF 4
