REMARK  9 active torsions:
REMARK  status: ('A' for Active; 'I' for Inactive)
REMARK    1  A    between atoms: C2_2  and  C3_3 
REMARK    2  A    between atoms: C2_2  and  C12_18 
REMARK    3  A    between atoms: C3_3  and  C4_4 
REMARK    4  A    between atoms: C5_7  and  C6_8 
REMARK    5  A    between atoms: C6_8  and  S1_9 
REMARK    6  A    between atoms: S1_9  and  C7_10 
REMARK    7  A    between atoms: C11_14  and  O3_15 
REMARK    8  A    between atoms: C14_20  and  O5_21 
REMARK    9  A    between atoms: C20_28  and  C21_29 
ROOT
HETATM    1  C12 UNL     1      -0.967  -0.369   0.574  1.00  0.00     0.002 A 
HETATM    2  C13 UNL     1      -1.650  -0.939   1.801  1.00  0.00     0.024 A 
HETATM    3  C14 UNL     1      -2.638  -0.135   2.550  1.00  0.00     0.123 C 
HETATM    4  C15 UNL     1      -3.984  -0.757   2.418  1.00  0.00     0.038 C 
HETATM    5  C16 UNL     1      -4.437  -1.044   1.022  1.00  0.00     0.001 C 
HETATM    6  C17 UNL     1      -5.631  -0.178   0.735  1.00  0.00    -0.005 C 
HETATM    7  C18 UNL     1      -6.739  -0.933   0.016  1.00  0.00     0.006 C 
HETATM    8  C19 UNL     1      -7.615   0.139  -0.561  1.00  0.00     0.016 C 
HETATM    9  C20 UNL     1      -6.844   1.447  -0.434  1.00  0.00     0.091 C 
HETATM   10  C22 UNL     1      -5.423   1.012  -0.101  1.00  0.00     0.004 C 
HETATM   11  C23 UNL     1      -4.724   0.591  -1.376  1.00  0.00     0.007 C 
HETATM   12  C24 UNL     1      -3.350   0.122  -0.946  1.00  0.00     0.010 C 
HETATM   13  C25 UNL     1      -3.402  -1.076  -0.033  1.00  0.00    -0.035 C 
HETATM   14  C26 UNL     1      -3.783  -2.225  -0.999  1.00  0.00     0.016 C 
HETATM   15  C27 UNL     1      -2.006  -1.385   0.446  1.00  0.00     0.006 A 
ENDROOT
BRANCH   1  16
HETATM   16  C2  UNL     1       0.513  -0.673   0.410  1.00  0.00    -0.009 C 
HETATM   17  C1  UNL     1       0.841  -2.120   0.333  1.00  0.00     0.010 C 
BRANCH  16  18
HETATM   18  C3  UNL     1       1.042   0.055  -0.785  1.00  0.00     0.068 C 
BRANCH  18  19
HETATM   19  C4  UNL     1       2.530  -0.042  -0.924  1.00  0.00     0.300 C 
HETATM   20  O1  UNL     1       3.026  -1.309  -1.067  1.00  0.00    -0.207 OA
HETATM   21  O2  UNL     1       4.297  -1.416  -1.269  1.00  0.00    -0.227 OA
HETATM   22  C5  UNL     1       5.068  -0.444  -0.610  1.00  0.00     0.224 C 
HETATM   23  C11 UNL     1       4.234  -0.035   0.606  1.00  0.00     0.292 C 
HETATM   24  O4  UNL     1       3.094   0.636   0.167  1.00  0.00    -0.326 OA
BRANCH  22  25
HETATM   25  C6  UNL     1       6.288  -1.113  -0.084  1.00  0.00     0.114 C 
BRANCH  25  26
HETATM   26  S1  UNL     1       7.448  -0.061   0.785  1.00  0.00    -0.157 SA
BRANCH  26  27
HETATM   27  C7  UNL     1       8.342   1.067  -0.280  1.00  0.00    -0.003 C 
HETATM   28  C8  UNL     1       9.336   1.865   0.557  1.00  0.00     0.026 C 
HETATM   29  C9  UNL     1       9.117   0.255  -1.324  1.00  0.00     0.026 C 
HETATM   30  C10 UNL     1       7.402   2.022  -0.957  1.00  0.00     0.026 C 
ENDBRANCH  26  27
ENDBRANCH  25  26
ENDBRANCH  22  25
BRANCH  23  31
HETATM   31  O3  UNL     1       4.957   0.703   1.505  1.00  0.00    -0.368 OA
ATOM     32  H3  UNL     1       4.439   0.957   2.260  1.00  0.00     0.212 HD
ENDBRANCH  23  31
ENDBRANCH  18  19
ENDBRANCH  16  18
ENDBRANCH   1  16
BRANCH   3  33
HETATM   33  O5  UNL     1      -2.616   1.232   2.273  1.00  0.00    -0.395 OA
ATOM     34  H5  UNL     1      -3.251   1.749   2.755  1.00  0.00     0.210 HD
ENDBRANCH   3  33
BRANCH   9  35
HETATM   35  C21 UNL     1      -6.922   2.208  -1.681  1.00  0.00     0.177 C 
HETATM   36  O6  UNL     1      -7.560   1.763  -2.665  1.00  0.00    -0.648 OA
HETATM   37  O7  UNL     1      -6.291   3.436  -1.791  1.00  0.00    -0.648 OA
ENDBRANCH   9  35
TORSDOF 9
