REMARK  8 active torsions:
REMARK  status: ('A' for Active; 'I' for Inactive)
REMARK    1  A    between atoms: C5_5  and  C6_6 
REMARK    2  A    between atoms: C7_9  and  N2_10 
REMARK    3  A    between atoms: C10_13  and  C11_14 
REMARK    4  A    between atoms: C11_14  and  C12_15 
REMARK    5  A    between atoms: C17_26  and  C18_27 
REMARK    6  A    between atoms: C21_32  and  N7_33 
REMARK    7  A    between atoms: N7_33  and  C22_35 
REMARK    8  A    between atoms: C25_38  and  N8_39 
ROOT
HETATM    1  C6  UNL     1       0.299  -2.158  -0.449  1.00  0.00     0.089 A 
HETATM    2  N1  UNL     1       1.643  -2.178  -0.279  1.00  0.00    -0.189 N 
ATOM      3  H1  UNL     1       2.193  -2.986   0.014  1.00  0.00     0.184 HD
HETATM    4  C7  UNL     1       2.130  -0.964  -0.558  1.00  0.00     0.681 A 
HETATM    5  N5  UNL     1       1.105  -0.194  -0.898  1.00  0.00    -0.187 N 
ATOM      6  H5  UNL     1       1.181   0.788  -1.162  1.00  0.00     0.184 HD
HETATM    7  C17 UNL     1      -0.046  -0.884  -0.847  1.00  0.00     0.104 A 
ENDROOT
BRANCH   7   8
HETATM    8  C18 UNL     1      -1.417  -0.434  -1.142  1.00  0.00     0.080 A 
HETATM    9  C19 UNL     1      -2.092  -1.009  -2.209  1.00  0.00     0.050 A 
HETATM   10  C20 UNL     1      -3.376  -0.630  -2.531  1.00  0.00     0.108 A 
HETATM   11  N6  UNL     1      -3.967   0.318  -1.781  1.00  0.00    -0.202 N 
HETATM   12  C21 UNL     1      -3.303   0.871  -0.745  1.00  0.00     0.678 A 
ATOM     13  H6  UNL     1      -4.918   0.619  -1.996  1.00  0.00     0.183 HD
HETATM   14  N9  UNL     1      -2.033   0.504  -0.418  1.00  0.00    -0.190 N 
ATOM     15  H9  UNL     1      -1.557   0.941   0.371  1.00  0.00     0.184 HD
BRANCH  12  16
HETATM   16  N7  UNL     1      -3.821   1.774   0.000  1.00  0.00    -0.221 N 
ATOM     17  H7  UNL     1      -3.245   2.136   0.760  1.00  0.00     0.178 HD
BRANCH  16  18
HETATM   18  C22 UNL     1      -5.149   2.325  -0.141  1.00  0.00     0.099 C 
HETATM   19  C23 UNL     1      -6.119   1.356   0.502  1.00  0.00     0.027 C 
HETATM   20  C24 UNL     1      -7.072   2.072   1.427  1.00  0.00     0.035 C 
HETATM   21  C25 UNL     1      -7.711   3.237   0.738  1.00  0.00     0.183 C 
HETATM   22  C26 UNL     1      -6.636   4.207   0.330  1.00  0.00     0.035 C 
HETATM   23  C27 UNL     1      -5.249   3.666   0.577  1.00  0.00     0.027 C 
BRANCH  21  24
HETATM   24  N8  UNL     1      -8.673   3.828   1.660  1.00  0.00    -0.075 N 
ATOM     25  H83 UNL     1      -9.353   3.153   2.008  1.00  0.00     0.274 HD
ATOM     26  H82 UNL     1      -8.258   4.078   2.558  1.00  0.00     0.274 HD
ATOM     27  H81 UNL     1      -9.108   4.622   1.190  1.00  0.00     0.274 HD
ENDBRANCH  21  24
ENDBRANCH  16  18
ENDBRANCH  12  16
ENDBRANCH   7   8
BRANCH   1  28
HETATM   28  C5  UNL     1      -0.616  -3.277  -0.249  1.00  0.00    -0.006 A 
HETATM   29  C4  UNL     1      -1.613  -3.257   0.701  1.00  0.00     0.014 A 
HETATM   30  C3  UNL     1      -2.459  -4.331   0.863  1.00  0.00     0.007 A 
HETATM   31  C2  UNL     1      -2.308  -5.454   0.059  1.00  0.00    -0.062 A 
HETATM   32  C1  UNL     1      -3.243  -6.603   0.263  1.00  0.00     0.048 C 
HETATM   33  C29 UNL     1      -1.308  -5.478  -0.896  1.00  0.00     0.007 A 
HETATM   34  C28 UNL     1      -0.482  -4.392  -1.034  1.00  0.00     0.014 A 
ENDBRANCH   1  28
BRANCH   4  35
HETATM   35  N2  UNL     1       3.523  -0.590  -0.494  1.00  0.00    -0.218 N 
HETATM   36  C8  UNL     1       4.534  -1.536  -0.102  1.00  0.00     0.141 C 
HETATM   37  C9  UNL     1       5.800  -0.706   0.179  1.00  0.00     0.025 C 
HETATM   38  C10 UNL     1       5.356   0.396   1.099  1.00  0.00    -0.004 C 
HETATM   39  C15 UNL     1       4.514   1.426   0.381  1.00  0.00     0.025 C 
HETATM   40  C16 UNL     1       3.908   0.756  -0.832  1.00  0.00     0.141 C 
BRANCH  38  41
HETATM   41  C11 UNL     1       6.511   0.950   1.849  1.00  0.00     0.080 C 
BRANCH  41  42
HETATM   42  C12 UNL     1       7.591   1.532   1.013  1.00  0.00     0.073 C 
HETATM   43  N3  UNL     1       7.808   2.818   0.996  1.00  0.00    -0.378 N 
HETATM   44  C13 UNL     1       8.898   3.128   0.116  1.00  0.00     0.140 C 
ATOM     45  H3  UNL     1       7.278   3.505   1.532  1.00  0.00     0.160 HD
HETATM   46  C14 UNL     1       9.615   1.809  -0.032  1.00  0.00     0.140 C 
HETATM   47  N4  UNL     1       8.514   0.885   0.154  1.00  0.00    -0.378 N 
ATOM     48  H4  UNL     1       8.422  -0.046  -0.253  1.00  0.00     0.160 HD
ENDBRANCH  41  42
ENDBRANCH  38  41
ENDBRANCH   4  35
TORSDOF 8
