REMARK  7 active torsions:
REMARK  status: ('A' for Active; 'I' for Inactive)
REMARK    1  A    between atoms: C2_2  and  C4_4 
REMARK    2  A    between atoms: C2_2  and  C22_36 
REMARK    3  A    between atoms: C4_4  and  C5_6 
REMARK       I    between atoms: C5_6  and  N1_8 
REMARK    4  A    between atoms: C8_11  and  N2_12 
REMARK    5  A    between atoms: N2_12  and  C9_14 
REMARK    6  A    between atoms: C12_18  and  C13_19 
REMARK    7  A    between atoms: C16_24  and  N4_25 
ROOT
HETATM    1  N2  UNL     1      -2.687  -1.030  -0.036  1.00  0.00    -0.379 N 
ATOM      2  H2  UNL     1      -3.203  -1.909  -0.005  1.00  0.00     0.160 HD
ENDROOT
BRANCH   1   3
HETATM    3  C8  UNL     1      -1.259  -1.036   0.068  1.00  0.00     0.085 C 
HETATM    4  C7  UNL     1      -0.803  -0.295   1.278  1.00  0.00     0.045 C 
HETATM    5  C6  UNL     1       0.555   0.359   1.116  1.00  0.00     0.128 C 
HETATM    6  N1  UNL     1       1.412  -0.404   0.209  1.00  0.00    -0.345 N 
HETATM    7  C5  UNL     1       2.754  -0.629   0.573  1.00  0.00     0.290 C 
HETATM    8  C21 UNL     1       0.890  -0.913  -1.040  1.00  0.00     0.128 C 
HETATM    9  O2  UNL     1       3.127  -0.146   1.675  1.00  0.00    -0.264 OA
HETATM   10  C20 UNL     1      -0.592  -0.486  -1.184  1.00  0.00     0.045 C 
BRANCH   7  11
HETATM   11  C4  UNL     1       3.719  -1.363  -0.214  1.00  0.00     0.224 C 
HETATM   12  O1  UNL     1       3.259  -1.895  -1.279  1.00  0.00    -0.286 OA
BRANCH  11  13
HETATM   13  C2  UNL     1       5.144  -1.557   0.068  1.00  0.00     0.026 C 
HETATM   14  C1  UNL     1       5.595  -2.689  -0.931  1.00  0.00     0.024 C 
HETATM   15  C3  UNL     1       5.378  -2.087   1.448  1.00  0.00     0.024 C 
BRANCH  13  16
HETATM   16  C22 UNL     1       6.043  -0.409  -0.287  1.00  0.00     0.001 C 
HETATM   17  C23 UNL     1       5.846   0.044  -1.723  1.00  0.00     0.006 C 
HETATM   18  C24 UNL     1       6.760   1.246  -1.945  1.00  0.00     0.000 C 
HETATM   19  C25 UNL     1       6.272   2.455  -1.194  1.00  0.00     0.000 C 
HETATM   20  C26 UNL     1       5.499   2.017   0.057  1.00  0.00     0.000 C 
HETATM   21  C27 UNL     1       6.141   0.742   0.615  1.00  0.00     0.006 C 
ENDBRANCH  13  16
ENDBRANCH  11  13
ENDBRANCH   7  11
ENDBRANCH   1   3
BRANCH   1  22
HETATM   22  C9  UNL     1      -3.396   0.215  -0.185  1.00  0.00     0.086 A 
HETATM   23  S1  UNL     1      -2.796   1.803  -0.273  1.00  0.00    -0.046 SA
HETATM   24  C10 UNL     1      -4.264   2.655  -0.443  1.00  0.00     0.118 A 
HETATM   25  C11 UNL     1      -5.194   1.660  -0.426  1.00  0.00    -0.002 A 
HETATM   26  O3  UNL     1      -4.619   4.018  -0.579  1.00  0.00    -0.343 OA
HETATM   27  C12 UNL     1      -4.753   0.385  -0.292  1.00  0.00     0.034 A 
HETATM   28  C17 UNL     1      -6.648   2.113  -0.560  1.00  0.00     0.045 C 
HETATM   29  C18 UNL     1      -6.776   3.431   0.158  1.00  0.00     0.031 C 
HETATM   30  C19 UNL     1      -5.949   4.477  -0.560  1.00  0.00     0.176 C 
BRANCH  27  31
HETATM   31  C13 UNL     1      -5.662  -0.800  -0.257  1.00  0.00     0.064 A 
HETATM   32  C14 UNL     1      -6.007  -1.451  -1.416  1.00  0.00     0.048 A 
HETATM   33  C15 UNL     1      -6.861  -2.564  -1.389  1.00  0.00     0.108 A 
HETATM   34  N3  UNL     1      -7.351  -3.004  -0.213  1.00  0.00    -0.202 N 
HETATM   35  C16 UNL     1      -6.996  -2.347   0.898  1.00  0.00     0.676 A 
ATOM     36  H3  UNL     1      -7.972  -3.812  -0.171  1.00  0.00     0.183 HD
HETATM   37  N5  UNL     1      -6.166  -1.261   0.895  1.00  0.00    -0.191 N 
ATOM     38  H5  UNL     1      -5.930  -0.800   1.774  1.00  0.00     0.184 HD
BRANCH  35  39
HETATM   39  N4  UNL     1      -7.446  -2.742   2.030  1.00  0.00    -0.234 N 
ATOM     40  H42 UNL     1      -8.065  -3.552   2.032  1.00  0.00     0.174 HD
ATOM     41  H41 UNL     1      -7.176  -2.241   2.877  1.00  0.00     0.174 HD
ENDBRANCH  35  39
ENDBRANCH  27  31
ENDBRANCH   1  22
TORSDOF 7
