REMARK  10 active torsions:
REMARK  status: ('A' for Active; 'I' for Inactive)
REMARK    1  A    between atoms: C2_2  and  C3_3 
REMARK    2  A    between atoms: C6_6  and  O1_7 
REMARK    3  A    between atoms: C11_13  and  O2_15 
REMARK    4  A    between atoms: C16_21  and  C17_22 
REMARK    5  A    between atoms: C17_22  and  C18_23 
REMARK    6  A    between atoms: C19_26  and  C20_27 
REMARK    7  A    between atoms: C20_27  and  O5_28 
REMARK    8  A    between atoms: C20_27  and  C21_30 
REMARK    9  A    between atoms: C21_30  and  C22_31 
REMARK   10  A    between atoms: C22_31  and  C23_32 
ROOT
HETATM    1  C3  UNL     1      -1.142   2.253  -1.201  1.00  0.00     0.077 C 
HETATM    2  C4  UNL     1      -2.045   1.662  -2.319  1.00  0.00     0.051 C 
HETATM    3  C5  UNL     1      -1.946   2.657  -0.027  1.00  0.00     0.074 C 
HETATM    4  C6  UNL     1      -3.412   2.348  -0.101  1.00  0.00     0.128 C 
HETATM    5  C7  UNL     1      -3.799   1.151   0.802  1.00  0.00     0.033 C 
HETATM    6  C8  UNL     1      -4.369   1.718   2.109  1.00  0.00     0.017 C 
HETATM    7  C9  UNL     1      -4.887   0.369   0.173  1.00  0.00    -0.021 C 
HETATM    8  C10 UNL     1      -5.080  -0.913   0.116  1.00  0.00     0.014 C 
HETATM    9  C11 UNL     1      -4.284  -2.030   0.658  1.00  0.00     0.132 C 
HETATM   10  C12 UNL     1      -3.872  -1.922   2.078  1.00  0.00     0.059 C 
HETATM   11  C13 UNL     1      -3.162  -2.399  -0.258  1.00  0.00     0.169 C 
HETATM   12  O3  UNL     1      -3.310  -2.140  -1.428  1.00  0.00    -0.294 OA
HETATM   13  C14 UNL     1      -1.918  -3.047   0.192  1.00  0.00     0.069 C 
HETATM   14  C15 UNL     1      -2.041  -4.541   0.240  1.00  0.00     0.019 C 
HETATM   15  C16 UNL     1      -0.652  -2.519  -0.389  1.00  0.00     0.065 C 
HETATM   16  S1  UNL     1      -0.166  -1.108   0.614  1.00  0.00    -0.153 SA
HETATM   17  C19 UNL     1       1.228  -0.150  -0.025  1.00  0.00     0.105 C 
HETATM   18  C27 UNL     1       0.677   1.290  -0.023  1.00  0.00     0.135 C 
HETATM   19  C28 UNL     1       1.762   2.329  -0.105  1.00  0.00     0.041 C 
HETATM   20  O6  UNL     1      -0.166   1.349  -1.060  1.00  0.00    -0.370 OA
ENDROOT
BRANCH  17  21
HETATM   21  C20 UNL     1       2.400  -0.367   0.855  1.00  0.00     0.134 C 
BRANCH  21  22
HETATM   22  O5  UNL     1       2.239   0.044   2.168  1.00  0.00    -0.394 OA
ATOM     23  H5  UNL     1       2.990  -0.095   2.732  1.00  0.00     0.210 HD
ENDBRANCH  21  22
BRANCH  21  24
HETATM   24  C21 UNL     1       3.714  -0.119   0.228  1.00  0.00     0.034 C 
BRANCH  24  25
HETATM   25  C22 UNL     1       4.881  -0.355   1.163  1.00  0.00     0.011 C 
BRANCH  25  26
HETATM   26  C23 UNL     1       6.169  -0.084   0.459  1.00  0.00    -0.051 C 
HETATM   27  C24 UNL     1       6.301   1.319  -0.051  1.00  0.00     0.014 C 
HETATM   28  C25 UNL     1       7.289  -0.290   1.485  1.00  0.00     0.014 C 
HETATM   29  C26 UNL     1       6.448  -1.047  -0.670  1.00  0.00     0.014 C 
ENDBRANCH  25  26
ENDBRANCH  24  25
ENDBRANCH  21  24
ENDBRANCH  17  21
BRANCH  15  30
HETATM   30  C17 UNL     1      -0.585  -2.218  -1.822  1.00  0.00     0.085 C 
BRANCH  30  31
HETATM   31  C18 UNL     1      -0.804  -3.302  -2.791  1.00  0.00     0.232 C 
HETATM   32  O4  UNL     1      -0.990  -4.467  -2.597  1.00  0.00    -0.307 OA
ENDBRANCH  30  31
ENDBRANCH  15  30
BRANCH   1  33
HETATM   33  C2  UNL     1      -0.662   3.505  -1.901  1.00  0.00     0.000 C 
HETATM   34  C1  UNL     1      -1.522   4.484  -2.100  1.00  0.00     0.010 C 
ENDBRANCH   1  33
BRANCH   9  35
HETATM   35  O2  UNL     1      -5.131  -3.181   0.613  1.00  0.00    -0.378 OA
ATOM     36  H2  UNL     1      -4.618  -3.901   0.962  1.00  0.00     0.211 HD
ENDBRANCH   9  35
BRANCH   4  37
HETATM   37  O1  UNL     1      -4.193   3.448   0.330  1.00  0.00    -0.395 OA
ATOM     38  H1  UNL     1      -5.121   3.252   0.283  1.00  0.00     0.210 HD
ENDBRANCH   4  37
TORSDOF 10
