REMARK  4 active torsions:
REMARK  status: ('A' for Active; 'I' for Inactive)
REMARK    1  A    between atoms: C1_2  and  N1_3 
REMARK    2  A    between atoms: N1_3  and  N2_5 
REMARK    3  A    between atoms: N3_7  and  N4_9 
REMARK    4  A    between atoms: C2_11  and  C3_12 
ROOT
HETATM    1  N2  UNL     1       2.857  -0.725   0.326  1.00  0.00    -0.226 N 
ATOM      2  H2  UNL     1       3.358  -0.933  -0.538  1.00  0.00     0.210 HD
HETATM    3  N3  UNL     1       1.635  -1.067   0.426  1.00  0.00    -0.229 N 
ATOM      4  H3  UNL     1       1.119  -0.867   1.283  1.00  0.00     0.210 HD
ENDROOT
BRANCH   3   5
HETATM    5  N4  UNL     1       1.011  -1.703  -0.613  1.00  0.00    -0.295 N 
HETATM    6  C2  UNL     1      -0.126  -1.574  -1.076  1.00  0.00     0.127 C 
ATOM      7  H4  UNL     1       1.583  -2.403  -1.085  1.00  0.00     0.187 HD
BRANCH   6   8
HETATM    8  C3  UNL     1      -1.155  -0.633  -0.579  1.00  0.00     0.021 A 
HETATM    9  C4  UNL     1      -1.151   0.273   0.429  1.00  0.00     0.021 A 
HETATM   10  C5  UNL     1      -2.263   1.001   0.644  1.00  0.00     0.008 A 
HETATM   11  C6  UNL     1      -3.332   0.770  -0.182  1.00  0.00     0.050 A 
HETATM   12  S1  UNL     1      -2.757  -0.443  -1.222  1.00  0.00    -0.101 SA
ENDBRANCH   6   8
ENDBRANCH   3   5
BRANCH   1  13
HETATM   13  N1  UNL     1       3.535  -0.074   1.359  1.00  0.00    -0.262 N 
ATOM     14  H1  UNL     1       3.394  -0.335   2.335  1.00  0.00     0.191 HD
BRANCH  13  15
HETATM   15  C1  UNL     1       4.346   0.869   1.027  1.00  0.00     0.369 C 
HETATM   16  O1  UNL     1       4.689   2.067   1.093  1.00  0.00    -0.282 OA
ENDBRANCH  13  15
ENDBRANCH   1  13
TORSDOF 4
