REMARK  4 active torsions:
REMARK  status: ('A' for Active; 'I' for Inactive)
REMARK    1  A    between atoms: C1_4  and  O1_5 
REMARK    2  A    between atoms: C1_4  and  N3_10 
REMARK    3  A    between atoms: O1_5  and  C2_6 
REMARK    4  A    between atoms: C2_6  and  N2_7 
ROOT
HETATM    1  N1  UNL     1       1.208  -0.334   1.554  1.00  0.00    -0.365 N 
ATOM      2  H11 UNL     1       0.540  -0.141   2.300  1.00  0.00     0.159 HD
ATOM      3  H12 UNL     1       2.204  -0.370   1.770  1.00  0.00     0.159 HD
HETATM    4  C1  UNL     1       0.743  -0.519   0.381  1.00  0.00     0.216 C 
ENDROOT
BRANCH   4   5
HETATM    5  O1  UNL     1       1.652  -0.781  -0.634  1.00  0.00    -0.296 OA
BRANCH   5   6
HETATM    6  C2  UNL     1       3.012  -0.462  -0.588  1.00  0.00     0.379 C 
BRANCH   6   7
HETATM    7  N2  UNL     1       3.264   0.957  -0.428  1.00  0.00    -0.130 N 
HETATM    8  O2  UNL     1       2.310   1.729  -0.350  1.00  0.00    -0.535 OA
HETATM    9  O3  UNL     1       4.565   1.374  -0.370  1.00  0.00    -0.535 OA
ENDBRANCH   6   7
ENDBRANCH   5   6
ENDBRANCH   4   5
BRANCH   4  10
HETATM   10  N3  UNL     1      -0.630  -0.470   0.084  1.00  0.00    -0.348 N 
HETATM   11  C3  UNL     1      -1.775  -0.499   0.995  1.00  0.00     0.126 C 
HETATM   12  C4  UNL     1      -2.663   0.566   0.387  1.00  0.00     0.021 C 
HETATM   13  C5  UNL     1      -2.384   0.573  -1.086  1.00  0.00     0.021 C 
HETATM   14  C6  UNL     1      -1.240  -0.375  -1.237  1.00  0.00     0.126 C 
ENDBRANCH   4  10
TORSDOF 4
