REMARK  2 active torsions:
REMARK  status: ('A' for Active; 'I' for Inactive)
REMARK    1  A    between atoms: N3_6  and  N4_8 
REMARK    2  A    between atoms: N4_8  and  C4_10 
ROOT
HETATM    1  N1  UNL     1       2.874   2.000   0.563  1.00  0.00    -0.189 NA
HETATM    2  C1  UNL     1       2.826   0.916   0.156  1.00  0.00     0.130 C 
HETATM    3  C2  UNL     1       2.759  -0.438  -0.374  1.00  0.00     0.209 C 
HETATM    4  C3  UNL     1       3.841  -1.007  -1.136  1.00  0.00     0.130 C 
HETATM    5  N2  UNL     1       4.733  -1.480  -1.743  1.00  0.00    -0.189 NA
HETATM    6  N3  UNL     1       1.700  -1.131  -0.133  1.00  0.00    -0.281 N 
ATOM      7  H3  UNL     1       1.633  -2.081  -0.498  1.00  0.00     0.188 HD
ENDROOT
BRANCH   6   8
HETATM    8  N4  UNL     1       0.659  -0.622   0.603  1.00  0.00    -0.298 N 
ATOM      9  H4  UNL     1       0.849  -0.452   1.591  1.00  0.00     0.187 HD
BRANCH   8  10
HETATM   10  C4  UNL     1      -0.642  -0.305   0.158  1.00  0.00     0.063 A 
HETATM   11  C5  UNL     1      -1.030   0.977  -0.222  1.00  0.00     0.034 A 
HETATM   12  C6  UNL     1      -2.301   1.282  -0.649  1.00  0.00     0.019 A 
HETATM   13  C7  UNL     1      -3.231   0.273  -0.704  1.00  0.00     0.088 A 
HETATM   14  N5  UNL     1      -2.888  -0.982  -0.343  1.00  0.00    -0.373 N 
HETATM   15  C8  UNL     1      -1.623  -1.276   0.080  1.00  0.00     0.118 A 
ATOM     16  H5  UNL     1      -3.586  -1.724  -0.387  1.00  0.00     0.164 HD
ENDBRANCH   8  10
ENDBRANCH   6   8
TORSDOF 2
