REMARK  4 active torsions:
REMARK  status: ('A' for Active; 'I' for Inactive)
REMARK    1  A    between atoms: N1_2  and  C1_4 
REMARK    2  A    between atoms: C5_8  and  C6_9 
REMARK    3  A    between atoms: C6_9  and  O3_10 
REMARK    4  A    between atoms: N2_12  and  O4_14 
ROOT
HETATM    1  C1  UNL     1      -1.311  -0.270   0.439  1.00  0.00     0.103 A 
HETATM    2  C2  UNL     1      -1.852   0.959   0.185  1.00  0.00     0.036 A 
HETATM    3  C3  UNL     1      -1.042   1.932  -0.381  1.00  0.00     0.003 A 
HETATM    4  C4  UNL     1       0.264   1.652  -0.672  1.00  0.00     0.016 A 
HETATM    5  C5  UNL     1       0.820   0.392  -0.413  1.00  0.00     0.019 A 
HETATM    6  C7  UNL     1       0.023  -0.579   0.149  1.00  0.00     0.052 A 
ENDROOT
BRANCH   5   7
HETATM    7  C6  UNL     1       2.223   0.152  -0.746  1.00  0.00     0.170 C 
HETATM    8  N2  UNL     1       2.792  -0.927  -0.551  1.00  0.00    -0.247 N 
ATOM      9  H2  UNL     1       3.763  -0.869  -0.857  1.00  0.00     0.196 HD
BRANCH   7  10
HETATM   10  O3  UNL     1       2.910   1.258  -1.321  1.00  0.00    -0.344 OA
ATOM     11  H3  UNL     1       3.822   1.102  -1.537  1.00  0.00     0.219 HD
ENDBRANCH   7  10
BRANCH   8  12
HETATM   12  O4  UNL     1       2.543  -2.125  -0.075  1.00  0.00    -0.288 OA
ATOM     13  H4  UNL     1       2.981  -2.955   0.075  1.00  0.00     0.244 HD
ENDBRANCH   8  12
ENDBRANCH   5   7
BRANCH   1  14
HETATM   14  N1  UNL     1      -2.123  -1.295   1.023  1.00  0.00    -0.116 N 
HETATM   15  O1  UNL     1      -1.671  -2.430   1.271  1.00  0.00    -0.532 OA
HETATM   16  O2  UNL     1      -3.438  -1.041   1.325  1.00  0.00    -0.532 OA
ENDBRANCH   1  14
TORSDOF 4
