REMARK  3 active torsions:
REMARK  status: ('A' for Active; 'I' for Inactive)
REMARK    1  A    between atoms: C10_12  and  C12_14 
REMARK    2  A    between atoms: C12_14  and  O3_15 
REMARK    3  A    between atoms: C13_17  and  O4_18 
ROOT
HETATM    1  O4  UNL     1       1.849   1.172  -1.083  1.00  0.00    -0.274 OA
HETATM    2  C14 UNL     1       2.280   1.416  -2.333  1.00  0.00     0.229 C 
HETATM    3  N1  UNL     1       2.659   1.631  -3.388  1.00  0.00    -0.164 NA
ENDROOT
BRANCH   1   4
HETATM    4  C13 UNL     1       1.286  -0.041  -0.639  1.00  0.00     0.193 C 
HETATM    5  C2  UNL     1       2.178  -0.493   0.532  1.00  0.00    -0.010 C 
HETATM    6  C1  UNL     1       1.956  -1.946   0.856  1.00  0.00     0.018 C 
HETATM    7  C3  UNL     1       3.622  -0.164   0.261  1.00  0.00     0.018 C 
HETATM    8  C4  UNL     1       1.738   0.401   1.702  1.00  0.00     0.093 C 
HETATM    9  C5  UNL     1       0.572   1.150   1.171  1.00  0.00     0.165 C 
HETATM   10  O1  UNL     1       0.218   2.232   1.563  1.00  0.00    -0.294 OA
HETATM   11  C6  UNL     1       0.030   0.284   0.137  1.00  0.00     0.162 C 
HETATM   12  O2  UNL     1      -0.522  -0.875   0.739  1.00  0.00    -0.357 OA
HETATM   13  C10 UNL     1      -1.220   0.518  -0.538  1.00  0.00     0.049 C 
HETATM   14  C7  UNL     1      -1.782  -0.304   0.568  1.00  0.00     0.068 C 
HETATM   15  C8  UNL     1      -2.325   0.432   1.766  1.00  0.00     0.047 C 
HETATM   16  C9  UNL     1      -2.752  -1.405   0.149  1.00  0.00     0.047 C 
HETATM   17  C11 UNL     1      -1.758   1.882  -0.749  1.00  0.00     0.024 C 
BRANCH  13  18
HETATM   18  C12 UNL     1      -1.324  -0.266  -1.855  1.00  0.00     0.179 C 
BRANCH  18  19
HETATM   19  O3  UNL     1      -2.585   0.045  -2.413  1.00  0.00    -0.400 OA
ATOM     20  H3  UNL     1      -2.649  -0.440  -3.227  1.00  0.00     0.209 HD
ENDBRANCH  18  19
ENDBRANCH  13  18
ENDBRANCH   1   4
TORSDOF 3
