REMARK  4 active torsions:
REMARK  status: ('A' for Active; 'I' for Inactive)
REMARK       I    between atoms: C2_2  and  N1_4 
REMARK    1  A    between atoms: C4_7  and  C5_8 
REMARK    2  A    between atoms: C10_14  and  C11_15 
REMARK    3  A    between atoms: C11_15  and  O4_16 
REMARK    4  A    between atoms: N2_18  and  O5_20 
ROOT
HETATM    1  C1  UNL     1      -2.994  -2.644  -0.991  1.00  0.00     0.118 C 
HETATM    2  C2  UNL     1      -2.934  -1.203  -0.647  1.00  0.00     0.225 C 
HETATM    3  O1  UNL     1      -3.914  -0.455  -0.876  1.00  0.00    -0.273 OA
HETATM    4  N1  UNL     1      -1.790  -0.612  -0.054  1.00  0.00    -0.251 N 
HETATM    5  C3  UNL     1      -0.558  -1.265   0.300  1.00  0.00     0.258 C 
HETATM    6  O2  UNL     1      -0.254  -2.476   0.180  1.00  0.00    -0.270 OA
HETATM    7  C4  UNL     1       0.284  -0.194   0.841  1.00  0.00     0.221 C 
HETATM    8  O3  UNL     1      -0.184   0.920   0.143  1.00  0.00    -0.343 OA
HETATM    9  C10 UNL     1      -1.577   0.764   0.338  1.00  0.00     0.311 C 
ENDROOT
BRANCH   9  10
HETATM   10  C11 UNL     1      -2.342   1.726  -0.472  1.00  0.00     0.186 C 
HETATM   11  N2  UNL     1      -3.195   2.485   0.148  1.00  0.00    -0.247 N 
ATOM     12  H2  UNL     1      -3.736   3.158  -0.395  1.00  0.00     0.196 HD
BRANCH  10  13
HETATM   13  O4  UNL     1      -2.226   1.883  -1.829  1.00  0.00    -0.345 OA
ATOM     14  H4  UNL     1      -2.720   2.504  -2.352  1.00  0.00     0.219 HD
ENDBRANCH  10  13
BRANCH  11  15
HETATM   15  O5  UNL     1      -3.399   2.418   1.507  1.00  0.00    -0.288 OA
ATOM     16  H5  UNL     1      -4.023   2.973   1.960  1.00  0.00     0.244 HD
ENDBRANCH  11  15
ENDBRANCH   9  10
BRANCH   7  17
HETATM   17  C5  UNL     1       1.750  -0.415   0.684  1.00  0.00     0.024 C 
HETATM   18  C6  UNL     1       2.194  -0.550  -0.746  1.00  0.00     0.007 C 
HETATM   19  C7  UNL     1       3.555   0.106  -0.853  1.00  0.00     0.000 C 
HETATM   20  C8  UNL     1       3.914   0.477   0.585  1.00  0.00     0.000 C 
HETATM   21  C9  UNL     1       2.547   0.787   1.147  1.00  0.00     0.007 C 
ENDBRANCH   7  17
TORSDOF 4
