REMARK  2 active torsions:
REMARK  status: ('A' for Active; 'I' for Inactive)
REMARK    1  A    between atoms: N2_3  and  C2_5 
REMARK    2  A    between atoms: C9_16  and  C10_17 
ROOT
HETATM    1  N1  UNL     1      -1.568  -5.616  -1.397  1.00  0.00    -0.171 NA
HETATM    2  C1  UNL     1      -1.817  -4.829  -0.584  1.00  0.00     0.196 C 
HETATM    3  N2  UNL     1      -2.105  -3.889   0.397  1.00  0.00    -0.126 N 
ATOM      4  H2  UNL     1      -2.622  -4.148   1.237  1.00  0.00     0.197 HD
ENDROOT
BRANCH   3   5
HETATM    5  C2  UNL     1      -1.654  -2.547   0.193  1.00  0.00     0.690 A 
HETATM    6  N3  UNL     1      -2.378  -1.525   0.338  1.00  0.00    -0.199 N 
HETATM    7  C3  UNL     1      -1.975  -0.175   0.147  1.00  0.00     0.121 A 
ATOM      8  H3  UNL     1      -3.346  -1.682   0.619  1.00  0.00     0.180 HD
HETATM    9  C4  UNL     1      -2.065   0.619   1.443  1.00  0.00     0.054 C 
HETATM   10  C8  UNL     1      -2.890   0.403  -0.911  1.00  0.00     0.054 C 
HETATM   11  N4  UNL     1      -0.591  -0.114  -0.247  1.00  0.00    -0.351 N 
HETATM   12  C5  UNL     1      -3.341   1.425   1.500  1.00  0.00     0.004 C 
HETATM   13  C6  UNL     1      -3.235   2.494   0.436  1.00  0.00     0.000 C 
HETATM   14  C7  UNL     1      -2.923   1.902  -0.909  1.00  0.00     0.004 C 
HETATM   15  C9  UNL     1       0.190  -1.111  -0.410  1.00  0.00     0.110 A 
ATOM     16  H4  UNL     1      -0.198   0.813  -0.411  1.00  0.00     0.163 HD
HETATM   17  N5  UNL     1      -0.300  -2.416  -0.196  1.00  0.00    -0.179 N 
ATOM     18  H5  UNL     1       0.298  -3.233  -0.317  1.00  0.00     0.185 HD
BRANCH  15  19
HETATM   19  C10 UNL     1       1.595  -0.883  -0.819  1.00  0.00     0.123 C 
HETATM   20  C11 UNL     1       1.957   0.460  -0.993  1.00  0.00    -0.170 C 
HETATM   21  C12 UNL     1       2.325   1.798  -1.124  1.00  0.00     0.084 C 
HETATM   22  C13 UNL     1       3.440   2.038  -0.044  1.00  0.00     0.038 C 
HETATM   23  C14 UNL     1       4.038   0.716   0.438  1.00  0.00    -0.030 C 
HETATM   24  C15 UNL     1       3.267  -0.329   1.032  1.00  0.00    -0.029 C 
HETATM   25  C16 UNL     1       2.577  -1.444   0.272  1.00  0.00     0.050 C 
ENDBRANCH  15  19
ENDBRANCH   3   5
TORSDOF 2
