REMARK  2 active torsions:
REMARK  status: ('A' for Active; 'I' for Inactive)
REMARK    1  A    between atoms: C2_2  and  C3_3 
REMARK    2  A    between atoms: C13_16  and  O4_17 
ROOT
HETATM    1  C3  UNL     1      -0.402  -0.436   0.700  1.00  0.00     0.050 C 
HETATM    2  C4  UNL     1       0.890   0.377   0.521  1.00  0.00     0.083 C 
HETATM    3  C5  UNL     1       1.595   0.019  -0.748  1.00  0.00     0.198 C 
HETATM    4  C6  UNL     1       2.525   1.178  -1.140  1.00  0.00     0.071 C 
HETATM    5  C7  UNL     1       3.458   1.386   0.009  1.00  0.00     0.007 C 
HETATM    6  C8  UNL     1       4.264   0.117   0.179  1.00  0.00     0.026 C 
HETATM    7  C9  UNL     1       3.401  -1.115   0.190  1.00  0.00     0.171 C 
HETATM    8  O1  UNL     1       2.365  -1.111  -0.688  1.00  0.00    -0.353 OA
HETATM    9  O2  UNL     1       0.726  -0.112  -1.834  1.00  0.00    -0.200 OA
HETATM   10  O3  UNL     1      -0.317  -0.833  -1.598  1.00  0.00    -0.226 OA
HETATM   11  C10 UNL     1      -1.141  -0.339  -0.590  1.00  0.00     0.103 C 
HETATM   12  C11 UNL     1      -1.457   1.118  -0.878  1.00  0.00     0.044 C 
HETATM   13  C12 UNL     1      -2.388   1.706   0.131  1.00  0.00     0.035 C 
HETATM   14  C13 UNL     1      -3.629   0.860   0.342  1.00  0.00     0.118 C 
HETATM   15  C14 UNL     1      -3.646  -0.166  -0.774  1.00  0.00     0.035 C 
HETATM   16  C15 UNL     1      -2.444  -1.075  -0.627  1.00  0.00     0.044 C 
ENDROOT
BRANCH   1  17
HETATM   17  C2  UNL     1       0.033  -1.806   1.041  1.00  0.00    -0.029 C 
HETATM   18  C1  UNL     1      -0.151  -2.900   0.362  1.00  0.00     0.007 C 
ENDBRANCH   1  17
BRANCH  14  19
HETATM   19  O4  UNL     1      -4.796   1.608   0.237  1.00  0.00    -0.396 OA
ATOM     20  H4  UNL     1      -5.573   1.078   0.369  1.00  0.00     0.210 HD
ENDBRANCH  14  19
TORSDOF 2
