REMARK  3 active torsions:
REMARK  status: ('A' for Active; 'I' for Inactive)
REMARK    1  A    between atoms: C2_2  and  N1_4 
REMARK    2  A    between atoms: N1_4  and  N2_6 
REMARK    3  A    between atoms: N2_6  and  C4_8 
ROOT
HETATM    1  C4  UNL     1      -0.819   0.950  -1.850  1.00  0.00     0.140 A 
HETATM    2  N3  UNL     1      -1.936   0.780  -2.611  1.00  0.00    -0.336 N 
ATOM      3  H3  UNL     1      -2.110   1.394  -3.407  1.00  0.00     0.168 HD
HETATM    4  C5  UNL     1      -2.807  -0.197  -2.311  1.00  0.00     0.182 A 
HETATM    5  N4  UNL     1      -2.600  -1.010  -1.274  1.00  0.00    -0.354 N 
ATOM      6  H4  UNL     1      -3.282  -1.741  -1.073  1.00  0.00     0.166 HD
HETATM    7  C6  UNL     1      -1.527  -0.893  -0.495  1.00  0.00     0.039 A 
HETATM    8  C7  UNL     1      -0.616   0.116  -0.795  1.00  0.00     0.070 A 
HETATM    9  S1  UNL     1       0.794   0.228   0.284  1.00  0.00    -0.115 SA
HETATM   10  C8  UNL     1       0.180  -0.136   1.968  1.00  0.00     0.007 C 
HETATM   11  C9  UNL     1       1.256  -0.784   2.811  1.00  0.00     0.027 C 
HETATM   12  C10 UNL     1      -0.178   1.172   2.668  1.00  0.00     0.027 C 
HETATM   13  C11 UNL     1      -1.093  -0.950   1.905  1.00  0.00     0.035 C 
HETATM   14  C12 UNL     1      -1.246  -1.773   0.675  1.00  0.00    -0.002 C 
HETATM   15  C13 UNL     1      -0.155  -2.735   0.388  1.00  0.00     0.021 C 
HETATM   16  C14 UNL     1      -2.529  -2.596   0.876  1.00  0.00     0.021 C 
ENDROOT
BRANCH   1  17
HETATM   17  N2  UNL     1       0.032   1.867  -2.102  1.00  0.00    -0.284 N 
ATOM     18  H2  UNL     1      -0.159   2.471  -2.901  1.00  0.00     0.188 HD
BRANCH  17  19
HETATM   19  N1  UNL     1       1.191   2.115  -1.388  1.00  0.00    -0.308 N 
ATOM     20  H1  UNL     1       1.170   2.035  -0.371  1.00  0.00     0.186 HD
BRANCH  19  21
HETATM   21  C2  UNL     1       2.312   2.448  -1.973  1.00  0.00    -0.004 C 
HETATM   22  C1  UNL     1       2.308   2.555  -3.444  1.00  0.00     0.064 C 
HETATM   23  C3  UNL     1       3.488   2.695  -1.134  1.00  0.00     0.064 C 
ENDBRANCH  19  21
ENDBRANCH  17  19
ENDBRANCH   1  17
TORSDOF 3
