REMARK  3 active torsions:
REMARK  status: ('A' for Active; 'I' for Inactive)
REMARK    1  A    between atoms: C10_10  and  O1_12 
REMARK    2  A    between atoms: C13_15  and  O2_16 
REMARK    3  A    between atoms: O2_16  and  O3_17 
ROOT
HETATM    1  C1  UNL     1       3.851  -0.295   1.404  1.00  0.00     0.076 C 
HETATM    2  C2  UNL     1       2.759  -0.372   0.392  1.00  0.00     0.039 C 
HETATM    3  C3  UNL     1       2.083  -1.530   0.496  1.00  0.00     0.006 C 
HETATM    4  C4  UNL     1       0.939  -2.017  -0.298  1.00  0.00     0.039 C 
HETATM    5  C5  UNL     1      -0.367  -1.351  -0.053  1.00  0.00    -0.032 C 
HETATM    6  C6  UNL     1      -1.397  -2.374  -0.595  1.00  0.00     0.016 C 
HETATM    7  C7  UNL     1      -0.622  -1.326   1.422  1.00  0.00     0.010 C 
HETATM    8  C8  UNL     1      -1.912  -0.689   1.814  1.00  0.00     0.004 C 
HETATM    9  C9  UNL     1      -2.469   0.334   0.926  1.00  0.00     0.038 C 
HETATM   10  C10 UNL     1      -2.045   0.351  -0.497  1.00  0.00     0.061 C 
HETATM   11  C11 UNL     1      -2.320   1.779  -1.002  1.00  0.00     0.046 C 
HETATM   12  C12 UNL     1      -0.630  -0.074  -0.761  1.00  0.00     0.062 C 
HETATM   13  C13 UNL     1       0.290   1.064  -0.488  1.00  0.00     0.197 C 
HETATM   14  C14 UNL     1       1.551   1.039  -1.356  1.00  0.00     0.157 C 
HETATM   15  C15 UNL     1       1.874   2.355  -1.978  1.00  0.00     0.042 C 
HETATM   16  O4  UNL     1       2.639   0.737  -0.455  1.00  0.00    -0.349 OA
ENDROOT
BRANCH  10  17
HETATM   17  O1  UNL     1      -2.973  -0.396  -1.267  1.00  0.00    -0.390 OA
ATOM     18  H1  UNL     1      -2.702  -0.385  -2.177  1.00  0.00     0.210 HD
ENDBRANCH  10  17
BRANCH  13  19
HETATM   19  O2  UNL     1       0.642   1.194   0.852  1.00  0.00    -0.235 OA
BRANCH  19  20
HETATM   20  O3  UNL     1       0.365   2.398   1.277  1.00  0.00    -0.250 OA
ATOM     21  H3  UNL     1       0.605   2.487   2.192  1.00  0.00     0.253 HD
ENDBRANCH  19  20
ENDBRANCH  13  19
TORSDOF 3
