REMARK  4 active torsions:
REMARK  status: ('A' for Active; 'I' for Inactive)
REMARK    1  A    between atoms: N1_1  and  N2_4 
REMARK       I    between atoms: N2_4  and  C1_5 
REMARK       I    between atoms: C1_5  and  N3_6 
REMARK       I    between atoms: C1_5  and  N4_10 
REMARK    2  A    between atoms: N4_10  and  C2_11 
REMARK    3  A    between atoms: N4_10  and  C3_13 
REMARK    4  A    between atoms: C3_13  and  C4_14 
ROOT
HETATM    1  N2  UNL     1      -1.902   0.610  -0.071  1.00  0.00    -0.093 NA
HETATM    2  C1  UNL     1      -1.738  -0.807  -0.291  1.00  0.00     0.400 C 
HETATM    3  N3  UNL     1      -2.533  -1.509   0.678  1.00  0.00    -0.042 N 
ATOM      4  H31 UNL     1      -2.417  -2.510   0.523  1.00  0.00     0.278 HD
ATOM      5  H32 UNL     1      -3.511  -1.220   0.667  1.00  0.00     0.278 HD
ATOM      6  H33 UNL     1      -2.318  -1.233   1.636  1.00  0.00     0.278 HD
HETATM    7  N4  UNL     1      -0.360  -1.249  -0.306  1.00  0.00    -0.313 N 
ENDROOT
BRANCH   7   8
HETATM    8  C2  UNL     1       0.189  -1.786  -1.517  1.00  0.00     0.353 C 
HETATM    9  O1  UNL     1       1.361  -2.200  -1.630  1.00  0.00    -0.283 OA
ENDBRANCH   7   8
BRANCH   7  10
HETATM   10  C3  UNL     1       0.501  -1.201   0.846  1.00  0.00     0.168 C 
BRANCH  10  11
HETATM   11  C4  UNL     1       1.231   0.067   0.987  1.00  0.00    -0.024 A 
HETATM   12  C5  UNL     1       2.257   0.586   0.227  1.00  0.00     0.027 A 
HETATM   13  C6  UNL     1       2.661   1.818   0.734  1.00  0.00     0.088 A 
HETATM   14  N5  UNL     1       1.887   2.058   1.802  1.00  0.00    -0.375 N 
HETATM   15  C7  UNL     1       1.030   1.040   1.978  1.00  0.00     0.096 A 
ATOM     16  H5  UNL     1       1.941   2.889   2.392  1.00  0.00     0.164 HD
ENDBRANCH  10  11
ENDBRANCH   7  10
BRANCH   1  17
HETATM   17  N1  UNL     1      -1.248   1.407  -0.982  1.00  0.00    -0.345 N 
ATOM     18  H12 UNL     1      -0.697   1.013  -1.745  1.00  0.00     0.172 HD
ATOM     19  H11 UNL     1      -1.364   2.408  -0.827  1.00  0.00     0.172 HD
ENDBRANCH   1  17
TORSDOF 4
