REMARK  8 active torsions:
REMARK  status: ('A' for Active; 'I' for Inactive)
REMARK    1  A    between atoms: N1_1  and  C1_5 
REMARK    2  A    between atoms: C1_5  and  C2_6 
REMARK    3  A    between atoms: C2_6  and  C3_7 
REMARK    4  A    between atoms: C3_7  and  N2_8 
REMARK    5  A    between atoms: C6_11  and  N3_12 
REMARK    6  A    between atoms: N3_12  and  C7_14 
REMARK    7  A    between atoms: C7_14  and  C8_15 
REMARK    8  A    between atoms: C8_15  and  N4_16 
ROOT
HETATM    1  N2  UNL     1      -1.355  -0.914   0.542  1.00  0.00    -0.353 N 
HETATM    2  C4  UNL     1      -0.616  -1.823  -0.158  1.00  0.00     0.095 A 
HETATM    3  C5  UNL     1       0.700  -1.541  -0.449  1.00  0.00     0.065 A 
HETATM    4  C6  UNL     1       1.288  -0.360  -0.049  1.00  0.00     0.103 A 
HETATM    5  N5  UNL     1       0.547   0.509   0.632  1.00  0.00    -0.339 N 
ATOM      6  H5  UNL     1       0.953   1.392   0.942  1.00  0.00     0.168 HD
HETATM    7  C9  UNL     1      -0.749   0.223   0.915  1.00  0.00     0.184 A 
ENDROOT
BRANCH   4   8
HETATM    8  N3  UNL     1       2.519  -0.173  -0.360  1.00  0.00    -0.375 N 
ATOM      9  H3  UNL     1       2.982  -0.915  -0.885  1.00  0.00     0.161 HD
BRANCH   8  10
HETATM   10  C7  UNL     1       3.298   0.976  -0.039  1.00  0.00     0.148 C 
BRANCH  10  11
HETATM   11  C8  UNL     1       4.533   0.967  -0.943  1.00  0.00     0.249 C 
BRANCH  11  12
HETATM   12  N4  UNL     1       5.269  -0.249  -0.681  1.00  0.00    -0.078 N 
ATOM     13  H43 UNL     1       5.501  -0.365   0.305  1.00  0.00     0.274 HD
ATOM     14  H42 UNL     1       4.697  -1.087  -0.786  1.00  0.00     0.274 HD
ATOM     15  H41 UNL     1       6.092  -0.255  -1.283  1.00  0.00     0.274 HD
ENDBRANCH  11  12
ENDBRANCH  10  11
ENDBRANCH   8  10
ENDBRANCH   4   8
BRANCH   1  16
HETATM   16  C3  UNL     1      -2.723  -1.259   0.834  1.00  0.00     0.130 C 
BRANCH  16  17
HETATM   17  C2  UNL     1      -3.611  -0.812  -0.299  1.00  0.00     0.047 C 
BRANCH  17  18
HETATM   18  C1  UNL     1      -3.621   0.655  -0.557  1.00  0.00     0.231 C 
BRANCH  18  19
HETATM   19  N1  UNL     1      -4.117   1.347   0.628  1.00  0.00    -0.079 N 
ATOM     20  H13 UNL     1      -5.029   1.000   0.926  1.00  0.00     0.274 HD
ATOM     21  H12 UNL     1      -3.590   1.105   1.467  1.00  0.00     0.274 HD
ATOM     22  H11 UNL     1      -4.124   2.352   0.451  1.00  0.00     0.274 HD
ENDBRANCH  18  19
ENDBRANCH  17  18
ENDBRANCH  16  17
ENDBRANCH   1  16
TORSDOF 8
