REMARK  6 active torsions:
REMARK  status: ('A' for Active; 'I' for Inactive)
REMARK    1  A    between atoms: C2_2  and  N1_3 
REMARK    2  A    between atoms: C2_2  and  N4_17 
REMARK    3  A    between atoms: N1_3  and  C3_5 
REMARK    4  A    between atoms: C5_7  and  N2_8 
REMARK    5  A    between atoms: C6_12  and  N3_13 
REMARK    6  A    between atoms: N4_17  and  N5_19 
ROOT
HETATM    1  C3  UNL     1       1.607  -0.138   0.116  1.00  0.00     0.113 C 
HETATM    2  C4  UNL     1       2.495  -0.827  -0.883  1.00  0.00     0.061 C 
HETATM    3  C5  UNL     1       3.521   0.293  -0.741  1.00  0.00     0.217 C 
HETATM    4  C6  UNL     1       2.392   1.145  -0.191  1.00  0.00     0.236 C 
ENDROOT
BRANCH   1   5
HETATM    5  N1  UNL     1       0.241  -0.017  -0.156  1.00  0.00    -0.394 N 
ATOM      6  H1  UNL     1      -0.148   0.914  -0.304  1.00  0.00     0.155 HD
BRANCH   5   7
HETATM    7  C2  UNL     1      -0.615  -1.122  -0.234  1.00  0.00     0.196 C 
HETATM    8  C1  UNL     1      -0.249  -2.038  -1.374  1.00  0.00     0.056 C 
BRANCH   7   9
HETATM    9  N4  UNL     1      -1.953  -0.695  -0.473  1.00  0.00    -0.232 N 
ATOM     10  H4  UNL     1      -2.441  -1.016  -1.309  1.00  0.00     0.189 HD
BRANCH   9  11
HETATM   11  N5  UNL     1      -2.581   0.122   0.383  1.00  0.00    -0.002 N 
HETATM   12  C7  UNL     1      -3.660  -0.627   1.036  1.00  0.00     0.300 C 
HETATM   13  C8  UNL     1      -3.231   1.193  -0.395  1.00  0.00     0.300 C 
HETATM   14  C9  UNL     1      -1.827   0.764   1.402  1.00  0.00     0.300 C 
ENDBRANCH   9  11
ENDBRANCH   7   9
ENDBRANCH   5   7
ENDBRANCH   1   5
BRANCH   4  15
HETATM   15  N3  UNL     1       2.739   1.922   0.961  1.00  0.00    -0.071 N 
ATOM     16  H33 UNL     1       1.905   2.139   1.507  1.00  0.00     0.274 HD
ATOM     17  H32 UNL     1       3.246   1.349   1.635  1.00  0.00     0.274 HD
ATOM     18  H31 UNL     1       3.261   2.774   0.757  1.00  0.00     0.274 HD
ENDBRANCH   4  15
BRANCH   3  19
HETATM   19  N2  UNL     1       4.570  -0.055   0.160  1.00  0.00    -0.073 N 
ATOM     20  H23 UNL     1       4.200  -0.336   1.068  1.00  0.00     0.274 HD
ATOM     21  H22 UNL     1       5.015  -0.932  -0.111  1.00  0.00     0.274 HD
ATOM     22  H21 UNL     1       5.256   0.694   0.255  1.00  0.00     0.274 HD
ENDBRANCH   3  19
TORSDOF 6
