REMARK  5 active torsions:
REMARK  status: ('A' for Active; 'I' for Inactive)
REMARK    1  A    between atoms: C2_2  and  C4_4 
REMARK    2  A    between atoms: C5_5  and  N1_6 
REMARK    3  A    between atoms: C6_10  and  O1_11 
REMARK       I    between atoms: N2_14  and  C8_15 
REMARK       I    between atoms: C8_15  and  N3_17 
REMARK    4  A    between atoms: C9_19  and  C10_20 
REMARK    5  A    between atoms: C10_20  and  C11_21 
REMARK       I    between atoms: N4_24  and  C14_25 
ROOT
HETATM    1  C4  UNL     1      -3.730   0.073   0.249  1.00  0.00     0.125 C 
HETATM    2  C5  UNL     1      -4.295  -1.172  -0.413  1.00  0.00     0.236 C 
HETATM    3  C6  UNL     1      -4.031  -0.949  -1.881  1.00  0.00     0.168 C 
HETATM    4  C7  UNL     1      -2.932   0.041  -1.937  1.00  0.00     0.162 C 
HETATM    5  N2  UNL     1      -2.616   0.445  -0.588  1.00  0.00    -0.324 N 
HETATM    6  C8  UNL     1      -1.416   1.071  -0.204  1.00  0.00     0.322 C 
HETATM    7  O2  UNL     1      -1.217   1.368   1.007  1.00  0.00    -0.247 OA
HETATM    8  N3  UNL     1      -0.379   1.403  -1.119  1.00  0.00    -0.323 N 
ATOM      9  H3  UNL     1      -0.600   2.005  -1.912  1.00  0.00     0.169 HD
HETATM   10  C9  UNL     1       0.823   0.976  -0.988  1.00  0.00     0.066 C 
ENDROOT
BRANCH   1  11
HETATM   11  C2  UNL     1      -4.773   1.149   0.383  1.00  0.00     0.002 C 
HETATM   12  C1  UNL     1      -5.953   0.678   1.226  1.00  0.00     0.011 C 
HETATM   13  C3  UNL     1      -4.241   2.380   1.077  1.00  0.00     0.011 C 
ENDBRANCH   1  11
BRANCH  10  14
HETATM   14  C10 UNL     1       1.280   0.106   0.100  1.00  0.00     0.049 C 
BRANCH  14  15
HETATM   15  C11 UNL     1       2.719  -0.256  -0.059  1.00  0.00    -0.007 C 
HETATM   16  C12 UNL     1       3.176  -1.160   1.078  1.00  0.00     0.025 C 
HETATM   17  C13 UNL     1       4.569  -1.624   0.796  1.00  0.00     0.126 C 
HETATM   18  N4  UNL     1       5.472  -0.540   0.438  1.00  0.00    -0.356 N 
HETATM   19  C14 UNL     1       6.850  -0.670   0.711  1.00  0.00     0.183 C 
HETATM   20  C15 UNL     1       5.023   0.681  -0.192  1.00  0.00     0.126 C 
HETATM   21  N5  UNL     1       7.263  -0.921   1.894  1.00  0.00    -0.374 N 
HETATM   22  N6  UNL     1       7.789  -0.522  -0.331  1.00  0.00    -0.064 NA
ATOM     23  H52 UNL     1       6.584  -1.028   2.648  1.00  0.00     0.158 HD
ATOM     24  H51 UNL     1       8.259  -1.015   2.091  1.00  0.00     0.158 HD
HETATM   25  C16 UNL     1       3.582   0.992   0.038  1.00  0.00     0.025 C 
ENDBRANCH  14  15
ENDBRANCH  10  14
BRANCH   2  26
HETATM   26  N1  UNL     1      -3.568  -2.332   0.038  1.00  0.00    -0.070 N 
ATOM     27  H13 UNL     1      -2.563  -2.239  -0.112  1.00  0.00     0.274 HD
ATOM     28  H12 UNL     1      -3.558  -2.408   1.055  1.00  0.00     0.274 HD
ATOM     29  H11 UNL     1      -3.947  -3.168  -0.407  1.00  0.00     0.274 HD
ENDBRANCH   2  26
BRANCH   3  30
HETATM   30  O1  UNL     1      -5.152  -0.401  -2.509  1.00  0.00    -0.392 OA
ATOM     31  H1  UNL     1      -4.986  -0.261  -3.434  1.00  0.00     0.210 HD
ENDBRANCH   3  30
TORSDOF 5
