REMARK  4 active torsions:
REMARK  status: ('A' for Active; 'I' for Inactive)
REMARK       I    between atoms: C1_4  and  N3_6 
REMARK       I    between atoms: N4_9  and  C4_10 
REMARK       I    between atoms: C4_10  and  N5_12 
REMARK    1  A    between atoms: N5_12  and  C5_14 
REMARK    2  A    between atoms: C7_16  and  C8_17 
REMARK    3  A    between atoms: C8_17  and  C9_18 
REMARK    4  A    between atoms: C9_18  and  N6_19 
ROOT
HETATM    1  C5  UNL     1      -1.351  -0.694  -0.656  1.00  0.00     0.035 C 
HETATM    2  C6  UNL     1      -1.635   0.428   0.280  1.00  0.00     0.036 C 
HETATM    3  C7  UNL     1      -3.134   0.615   0.374  1.00  0.00    -0.006 C 
HETATM    4  C10 UNL     1      -3.921  -0.345  -0.434  1.00  0.00    -0.002 C 
HETATM    5  C11 UNL     1      -3.466  -0.482  -1.864  1.00  0.00    -0.007 C 
HETATM    6  C12 UNL     1      -3.810  -1.975  -1.738  1.00  0.00     0.010 C 
HETATM    7  C13 UNL     1      -3.511  -1.782  -0.253  1.00  0.00    -0.007 C 
HETATM    8  C14 UNL     1      -2.045  -1.926  -0.059  1.00  0.00     0.036 C 
HETATM    9  C15 UNL     1      -1.969  -0.416  -2.012  1.00  0.00     0.036 C 
ENDROOT
BRANCH   1  10
HETATM   10  N5  UNL     1       0.054  -0.941  -0.740  1.00  0.00    -0.334 N 
HETATM   11  C4  UNL     1       0.965   0.005  -1.222  1.00  0.00     0.319 C 
HETATM   12  N4  UNL     1       2.344  -0.226  -1.304  1.00  0.00    -0.331 N 
HETATM   13  O1  UNL     1       0.558   1.147  -1.616  1.00  0.00    -0.247 OA
HETATM   14  C3  UNL     1       2.951  -1.461  -0.912  1.00  0.00     0.147 C 
HETATM   15  C16 UNL     1       3.234   0.813  -1.791  1.00  0.00     0.147 C 
HETATM   16  C2  UNL     1       3.686  -1.176   0.403  1.00  0.00     0.145 C 
HETATM   17  N3  UNL     1       4.515  -0.002   0.159  1.00  0.00    -0.353 N 
HETATM   18  C1  UNL     1       5.324   0.422   1.241  1.00  0.00     0.184 C 
HETATM   19  C17 UNL     1       4.566   0.730  -1.071  1.00  0.00     0.145 C 
HETATM   20  N1  UNL     1       6.108  -0.425   1.796  1.00  0.00    -0.374 N 
HETATM   21  N2  UNL     1       5.262   1.760   1.695  1.00  0.00    -0.064 NA
ATOM     22  H12 UNL     1       6.691  -0.120   2.575  1.00  0.00     0.158 HD
ATOM     23  H11 UNL     1       6.153  -1.390   1.469  1.00  0.00     0.158 HD
ATOM     24  H5  UNL     1       0.408  -1.847  -0.435  1.00  0.00     0.165 HD
ENDBRANCH   1  10
BRANCH   3  25
HETATM   25  C8  UNL     1      -3.554   0.557   1.804  1.00  0.00     0.032 C 
BRANCH  25  26
HETATM   26  C9  UNL     1      -2.888   1.646   2.648  1.00  0.00     0.230 C 
BRANCH  26  27
HETATM   27  N6  UNL     1      -3.259   2.963   2.112  1.00  0.00    -0.079 N 
ATOM     28  H63 UNL     1      -3.041   3.053   1.120  1.00  0.00     0.274 HD
ATOM     29  H62 UNL     1      -4.270   3.085   2.048  1.00  0.00     0.274 HD
ATOM     30  H61 UNL     1      -2.815   3.689   2.675  1.00  0.00     0.274 HD
ENDBRANCH  26  27
ENDBRANCH  25  26
ENDBRANCH   3  25
TORSDOF 4
