REMARK  3 active torsions:
REMARK  status: ('A' for Active; 'I' for Inactive)
REMARK    1  A    between atoms: C2_2  and  C3_3 
REMARK    2  A    between atoms: C3_3  and  C4_4 
REMARK    3  A    between atoms: C3_3  and  C6_7 
ROOT
HETATM    1  C4  UNL     1      -2.441  -0.538   0.816  1.00  0.00     0.134 C 
HETATM    2  C5  UNL     1      -2.008  -1.807   1.326  1.00  0.00     0.059 C 
HETATM    3  N1  UNL     1      -1.682  -2.837   1.747  1.00  0.00    -0.197 NA
ENDROOT
BRANCH   1   4
HETATM    4  C3  UNL     1      -1.727  -0.099  -0.480  1.00  0.00     0.049 C 
BRANCH   4   5
HETATM    5  C2  UNL     1      -2.340   1.253  -0.861  1.00  0.00     0.007 C 
HETATM    6  C1  UNL     1      -3.828   1.129  -1.138  1.00  0.00     0.006 C 
ENDBRANCH   4   5
BRANCH   4   7
HETATM    7  C6  UNL     1      -0.307   0.123  -0.149  1.00  0.00     0.022 A 
HETATM    8  N2  UNL     1       0.062   1.212   0.522  1.00  0.00    -0.345 N 
HETATM    9  C7  UNL     1       1.324   1.449   0.930  1.00  0.00     0.105 A 
ATOM     10  H2  UNL     1      -0.652   1.907   0.740  1.00  0.00     0.167 HD
HETATM   11  N3  UNL     1       1.635   2.526   1.628  1.00  0.00    -0.385 N 
HETATM   12  C8  UNL     1       2.274   0.513   0.631  1.00  0.00    -0.012 A 
ATOM     13  H32 UNL     1       0.926   3.225   1.851  1.00  0.00     0.157 HD
ATOM     14  H31 UNL     1       2.590   2.705   1.937  1.00  0.00     0.157 HD
HETATM   15  C9  UNL     1       3.692   0.801   1.054  1.00  0.00     0.052 C 
HETATM   16  C10 UNL     1       1.944  -0.626  -0.057  1.00  0.00    -0.045 A 
HETATM   17  C11 UNL     1       3.082  -1.553  -0.338  1.00  0.00     0.049 C 
HETATM   18  C12 UNL     1       0.653  -0.834  -0.454  1.00  0.00    -0.032 A 
HETATM   19  C13 UNL     1       0.378  -2.054  -1.246  1.00  0.00     0.050 C 
ENDBRANCH   4   7
ENDBRANCH   1   4
TORSDOF 3
