REMARK  3 active torsions:
REMARK  status: ('A' for Active; 'I' for Inactive)
REMARK    1  A    between atoms: C2_2  and  C3_3 
REMARK    2  A    between atoms: C3_3  and  C4_4 
REMARK    3  A    between atoms: C4_4  and  N1_5 
ROOT
HETATM    1  N1  UNL     1      -0.500  -0.390   0.662  1.00  0.00    -0.308 N 
HETATM    2  C5  UNL     1      -0.202  -1.489   1.377  1.00  0.00     0.180 A 
HETATM    3  S1  UNL     1      -1.291  -2.462   2.099  1.00  0.00    -0.040 SA
HETATM    4  N2  UNL     1       1.137  -1.662   1.405  1.00  0.00    -0.329 N 
ATOM      5  H2  UNL     1       1.624  -2.422   1.880  1.00  0.00     0.168 HD
HETATM    6  C6  UNL     1       1.727  -0.674   0.707  1.00  0.00     0.087 A 
HETATM    7  C7  UNL     1       2.937  -0.161   0.285  1.00  0.00    -0.009 A 
HETATM    8  C8  UNL     1       4.307  -0.678   0.541  1.00  0.00     0.052 C 
HETATM    9  C9  UNL     1       2.600   0.962  -0.443  1.00  0.00     0.015 A 
HETATM   10  C10 UNL     1       3.554   1.879  -1.118  1.00  0.00     0.069 C 
HETATM   11  N3  UNL     1       1.252   1.104  -0.450  1.00  0.00    -0.344 N 
ATOM     12  H3  UNL     1       0.744   1.855  -0.918  1.00  0.00     0.167 HD
HETATM   13  C11 UNL     1       0.682   0.106   0.254  1.00  0.00     0.138 A 
ENDROOT
BRANCH   1  14
HETATM   14  C4  UNL     1      -1.826   0.150   0.388  1.00  0.00     0.133 C 
BRANCH  14  15
HETATM   15  C3  UNL     1      -2.404  -0.416  -0.870  1.00  0.00     0.020 C 
BRANCH  15  16
HETATM   16  C2  UNL     1      -3.778   0.207  -1.063  1.00  0.00    -0.003 C 
HETATM   17  C1  UNL     1      -4.685  -0.111   0.105  1.00  0.00     0.005 C 
ENDBRANCH  15  16
ENDBRANCH  14  15
ENDBRANCH   1  14
TORSDOF 3
