REMARK  3 active torsions:
REMARK  status: ('A' for Active; 'I' for Inactive)
REMARK    1  A    between atoms: C4_9  and  C5_10 
REMARK    2  A    between atoms: C5_10  and  C9_15 
REMARK    3  A    between atoms: C6_11  and  C7_12 
ROOT
HETATM    1  C7  UNL     1      -2.119   0.675  -1.755  1.00  0.00     0.151 C 
HETATM    2  C8  UNL     1      -2.817   1.946  -1.409  1.00  0.00     0.062 C 
HETATM    3  N3  UNL     1      -3.372   2.921  -1.128  1.00  0.00    -0.197 NA
ENDROOT
BRANCH   1   4
HETATM    4  C6  UNL     1      -0.879   0.680  -0.975  1.00  0.00    -0.003 C 
HETATM    5  C5  UNL     1      -0.394  -0.004  -0.024  1.00  0.00    -0.029 C 
BRANCH   5   6
HETATM    6  C4  UNL     1       0.957   0.318   0.509  1.00  0.00     0.063 A 
HETATM    7  C2  UNL     1       2.000   1.003   0.008  1.00  0.00     0.035 A 
HETATM    8  C1  UNL     1       2.191   1.524  -1.352  1.00  0.00     0.070 C 
HETATM    9  N1  UNL     1       2.984   1.107   0.962  1.00  0.00    -0.335 N 
HETATM   10  C3  UNL     1       2.555   0.484   2.058  1.00  0.00     0.176 A 
ATOM     11  H1  UNL     1       3.882   1.577   0.850  1.00  0.00     0.168 HD
HETATM   12  S1  UNL     1       3.343   0.307   3.499  1.00  0.00    -0.041 SA
HETATM   13  N2  UNL     1       1.335   0.005   1.793  1.00  0.00    -0.331 N 
ATOM     14  H2  UNL     1       0.763  -0.521   2.454  1.00  0.00     0.168 HD
ENDBRANCH   5   6
BRANCH   5  15
HETATM   15  C9  UNL     1      -1.030  -1.138   0.639  1.00  0.00     0.012 C 
HETATM   16  C10 UNL     1      -0.102  -2.380   0.590  1.00  0.00     0.015 C 
HETATM   17  C11 UNL     1      -2.362  -1.603   0.250  1.00  0.00     0.015 C 
ENDBRANCH   5  15
ENDBRANCH   1   4
TORSDOF 3
