REMARK  9 active torsions:
REMARK  status: ('A' for Active; 'I' for Inactive)
REMARK    1  A    between atoms: C4_10  and  N3_11 
REMARK    2  A    between atoms: N3_11  and  O3_13 
REMARK    3  A    between atoms: O3_13  and  C5_14 
REMARK    4  A    between atoms: C5_14  and  C6_15 
REMARK    5  A    between atoms: C6_15  and  O4_16 
REMARK    6  A    between atoms: C6_15  and  C7_18 
REMARK    7  A    between atoms: C6_15  and  C8_21 
REMARK    8  A    between atoms: C7_18  and  O5_19 
REMARK    9  A    between atoms: C8_21  and  O6_22 
ROOT
HETATM    1  O1  UNL     1       6.252  -1.952   0.071  1.00  0.00    -0.262 OA
HETATM    2  C1  UNL     1       5.261  -1.197   0.246  1.00  0.00     0.316 C 
HETATM    3  N1  UNL     1       5.414   0.053  -0.229  1.00  0.00    -0.284 N 
ATOM      4  H1  UNL     1       6.371   0.349  -0.420  1.00  0.00     0.172 HD
HETATM    5  C2  UNL     1       4.459   0.948  -0.479  1.00  0.00     0.279 C 
HETATM    6  O2  UNL     1       4.849   2.020  -0.991  1.00  0.00    -0.265 OA
HETATM    7  C3  UNL     1       3.094   0.847  -0.247  1.00  0.00     0.161 A 
HETATM    8  N2  UNL     1       2.160   1.700  -0.703  1.00  0.00    -0.181 N 
ATOM      9  H2  UNL     1       2.327   2.528  -1.275  1.00  0.00     0.184 HD
HETATM   10  C4  UNL     1       0.967   1.263  -0.268  1.00  0.00     0.704 A 
HETATM   11  N4  UNL     1       1.151   0.150   0.451  1.00  0.00    -0.172 N 
ATOM     12  H4  UNL     1       0.419  -0.397   0.904  1.00  0.00     0.186 HD
HETATM   13  C9  UNL     1       2.456  -0.121   0.474  1.00  0.00     0.157 A 
HETATM   14  N5  UNL     1       2.962  -1.176   1.116  1.00  0.00    -0.302 N 
ATOM     15  H5  UNL     1       2.385  -1.598   1.843  1.00  0.00     0.171 HD
HETATM   16  C10 UNL     1       4.169  -1.733   0.888  1.00  0.00     0.315 C 
HETATM   17  O7  UNL     1       4.349  -2.907   1.311  1.00  0.00    -0.262 OA
ENDROOT
BRANCH  10  18
HETATM   18  N3  UNL     1      -0.137   1.874  -0.542  1.00  0.00    -0.096 N 
ATOM     19  H3  UNL     1      -0.127   2.722  -1.108  1.00  0.00     0.213 HD
BRANCH  18  20
HETATM   20  O3  UNL     1      -1.318   1.379  -0.070  1.00  0.00    -0.263 OA
BRANCH  20  21
HETATM   21  C5  UNL     1      -1.944   0.273  -0.643  1.00  0.00     0.244 C 
BRANCH  21  22
HETATM   22  C6  UNL     1      -3.230   0.019   0.151  1.00  0.00     0.123 C 
BRANCH  22  23
HETATM   23  O4  UNL     1      -2.860  -0.224   1.454  1.00  0.00    -0.383 OA
ATOM     24  H4  UNL     1      -3.657  -0.381   1.946  1.00  0.00     0.210 HD
ENDBRANCH  22  23
BRANCH  22  25
HETATM   25  C7  UNL     1      -4.073   1.265   0.006  1.00  0.00     0.206 C 
BRANCH  25  26
HETATM   26  O5  UNL     1      -5.246   1.222   0.718  1.00  0.00    -0.398 OA
ATOM     27  H5  UNL     1      -5.776   2.005   0.627  1.00  0.00     0.209 HD
ENDBRANCH  25  26
ENDBRANCH  22  25
BRANCH  22  28
HETATM   28  C8  UNL     1      -3.914  -1.210  -0.388  1.00  0.00     0.206 C 
BRANCH  28  29
HETATM   29  O6  UNL     1      -2.993  -2.258  -0.312  1.00  0.00    -0.398 OA
ATOM     30  H6  UNL     1      -3.424  -3.033  -0.652  1.00  0.00     0.209 HD
ENDBRANCH  28  29
ENDBRANCH  22  28
ENDBRANCH  21  22
ENDBRANCH  20  21
ENDBRANCH  18  20
ENDBRANCH  10  18
TORSDOF 9
