REMARK  10 active torsions:
REMARK  status: ('A' for Active; 'I' for Inactive)
REMARK    1  A    between atoms: N1_1  and  C1_4 
REMARK    2  A    between atoms: C2_7  and  N3_8 
REMARK    3  A    between atoms: N3_8  and  C3_10 
REMARK    4  A    between atoms: C3_10  and  C4_11 
REMARK    5  A    between atoms: C4_11  and  O1_12 
REMARK    6  A    between atoms: O1_12  and  C5_13 
REMARK    7  A    between atoms: C5_13  and  C6_14 
REMARK    8  A    between atoms: C9_17  and  O2_18 
REMARK    9  A    between atoms: N6_26  and  N7_27 
REMARK   10  A    between atoms: C11_30  and  N8_31 
ROOT
HETATM    1  C1  UNL     1       5.128  -1.118  -0.514  1.00  0.00     0.705 C 
HETATM    2  N2  UNL     1       3.974  -1.469   0.080  1.00  0.00    -0.021 N 
ATOM      3  H2  UNL     1       3.971  -2.409   0.476  1.00  0.00     0.203 HD
HETATM    4  C2  UNL     1       2.825  -0.793   0.241  1.00  0.00     0.709 C 
HETATM    5  N5  UNL     1       2.675   0.539   0.170  1.00  0.00    -0.096 N 
ATOM      6  H5  UNL     1       1.730   0.882   0.343  1.00  0.00     0.208 HD
HETATM    7  N6  UNL     1       3.584   1.480  -0.094  1.00  0.00    -0.012 N 
HETATM    8  C11 UNL     1       4.728   1.280  -0.774  1.00  0.00     0.727 C 
HETATM    9  N9  UNL     1       5.428   0.121  -0.953  1.00  0.00    -0.019 N 
ATOM     10  H9  UNL     1       6.292   0.204  -1.490  1.00  0.00     0.203 HD
ENDROOT
BRANCH   4  11
HETATM   11  N3  UNL     1       1.810  -1.522   0.482  1.00  0.00    -0.222 N 
ATOM     12  H3  UNL     1       1.905  -2.536   0.539  1.00  0.00     0.177 HD
BRANCH  11  13
HETATM   13  C3  UNL     1       0.498  -0.886   0.677  1.00  0.00     0.164 C 
BRANCH  13  14
HETATM   14  C4  UNL     1      -0.532  -1.940   0.404  1.00  0.00     0.188 C 
BRANCH  14  15
HETATM   15  O1  UNL     1      -1.831  -1.518   0.540  1.00  0.00    -0.384 OA
BRANCH  15  16
HETATM   16  C5  UNL     1      -2.153  -0.481  -0.313  1.00  0.00     0.224 C 
BRANCH  16  17
HETATM   17  C6  UNL     1      -3.568  -0.079  -0.112  1.00  0.00     0.036 A 
HETATM   18  C7  UNL     1      -4.116   0.944  -0.858  1.00  0.00     0.030 A 
HETATM   19  C8  UNL     1      -5.430   1.330  -0.684  1.00  0.00     0.044 A 
HETATM   20  C9  UNL     1      -6.208   0.689   0.245  1.00  0.00     0.134 A 
HETATM   21  C10 UNL     1      -5.653  -0.332   0.987  1.00  0.00     0.279 A 
HETATM   22  O3  UNL     1      -6.382  -0.916   1.842  1.00  0.00    -0.265 OA
HETATM   23  N4  UNL     1      -4.369  -0.679   0.787  1.00  0.00    -0.323 N 
ATOM     24  H4  UNL     1      -3.982  -1.438   1.347  1.00  0.00     0.169 HD
BRANCH  20  25
HETATM   25  O2  UNL     1      -7.551   1.039   0.466  1.00  0.00    -0.356 OA
ATOM     26  H2  UNL     1      -8.090   0.595   1.110  1.00  0.00     0.218 HD
ENDBRANCH  20  25
ENDBRANCH  16  17
ENDBRANCH  15  16
ENDBRANCH  14  15
ENDBRANCH  13  14
ENDBRANCH  11  13
ENDBRANCH   4  11
BRANCH   1  27
HETATM   27  N1  UNL     1       6.013  -2.041  -0.673  1.00  0.00    -0.234 N 
ATOM     28  H12 UNL     1       5.786  -2.978  -0.341  1.00  0.00     0.174 HD
ATOM     29  H11 UNL     1       6.888  -1.775  -1.124  1.00  0.00     0.174 HD
ENDBRANCH   1  27
BRANCH   7  30
HETATM   30  N7  UNL     1       3.338   2.778   0.366  1.00  0.00    -0.309 N 
ATOM     31  H72 UNL     1       2.471   2.930   0.881  1.00  0.00     0.179 HD
ATOM     32  H71 UNL     1       4.033   3.497   0.164  1.00  0.00     0.179 HD
ENDBRANCH   7  30
BRANCH   8  33
HETATM   33  N8  UNL     1       5.211   2.340  -1.323  1.00  0.00    -0.231 N 
ATOM     34  H82 UNL     1       4.688   3.206  -1.189  1.00  0.00     0.174 HD
ATOM     35  H81 UNL     1       6.078   2.188  -1.838  1.00  0.00     0.174 HD
ENDBRANCH   8  33
TORSDOF 10
