REMARK  9 active torsions:
REMARK  status: ('A' for Active; 'I' for Inactive)
REMARK    1  A    between atoms: N1_1  and  C1_4 
REMARK    2  A    between atoms: C2_7  and  C3_8 
REMARK    3  A    between atoms: C3_8  and  O1_9 
REMARK    4  A    between atoms: O1_9  and  N3_10 
REMARK    5  A    between atoms: C5_15  and  N6_16 
REMARK    6  A    between atoms: N6_16  and  N7_18 
REMARK    7  A    between atoms: C6_21  and  N8_22 
REMARK    8  A    between atoms: N8_22  and  S1_24 
REMARK    9  A    between atoms: S1_24  and  C7_27 
ROOT
HETATM    1  C1  UNL     1       0.762  -1.822  -0.828  1.00  0.00     0.677 A 
HETATM    2  N2  UNL     1      -0.349  -1.472  -0.141  1.00  0.00    -0.191 N 
ATOM      3  H2  UNL     1      -1.153  -2.099  -0.153  1.00  0.00     0.184 HD
HETATM    4  C2  UNL     1      -0.431  -0.329   0.556  1.00  0.00     0.084 A 
HETATM    5  C5  UNL     1       0.675   0.534   0.575  1.00  0.00     0.118 A 
HETATM    6  C6  UNL     1       1.803   0.179  -0.122  1.00  0.00     0.161 A 
HETATM    7  N9  UNL     1       1.805  -0.982  -0.795  1.00  0.00    -0.174 N 
ATOM      8  H9  UNL     1       2.647  -1.239  -1.310  1.00  0.00     0.186 HD
ENDROOT
BRANCH   4   9
HETATM    9  C3  UNL     1      -1.594   0.129   1.339  1.00  0.00     0.261 C 
BRANCH   9  10
HETATM   10  O1  UNL     1      -2.676  -0.728   1.288  1.00  0.00    -0.272 OA
BRANCH  10  11
HETATM   11  N3  UNL     1      -3.393  -1.098   0.193  1.00  0.00    -0.240 N 
HETATM   12  C4  UNL     1      -4.262  -0.328  -0.353  1.00  0.00     0.221 C 
HETATM   13  N4  UNL     1      -4.949  -0.833  -1.500  1.00  0.00    -0.065 NA
HETATM   14  N5  UNL     1      -4.560   0.981   0.129  1.00  0.00    -0.065 NA
ATOM     15  H3  UNL     1      -3.234  -2.022  -0.209  1.00  0.00     0.196 HD
ENDBRANCH  10  11
ENDBRANCH   9  10
ENDBRANCH   4   9
BRANCH   5  16
HETATM   16  N6  UNL     1       0.633   1.740   1.298  1.00  0.00    -0.302 N 
ATOM     17  H6  UNL     1      -0.204   1.996   1.822  1.00  0.00     0.186 HD
BRANCH  16  18
HETATM   18  N7  UNL     1       1.743   2.581   1.292  1.00  0.00    -0.345 N 
ATOM     19  H72 UNL     1       2.572   2.310   0.763  1.00  0.00     0.176 HD
ATOM     20  H71 UNL     1       1.713   3.455   1.816  1.00  0.00     0.176 HD
ENDBRANCH  16  18
ENDBRANCH   5  16
BRANCH   1  21
HETATM   21  N1  UNL     1       0.819  -2.937  -1.499  1.00  0.00    -0.234 N 
ATOM     22  H12 UNL     1       0.025  -3.577  -1.524  1.00  0.00     0.174 HD
ATOM     23  H11 UNL     1       1.657  -3.201  -2.017  1.00  0.00     0.174 HD
ENDBRANCH   1  21
BRANCH   6  24
HETATM   24  N8  UNL     1       2.803   0.992  -0.086  1.00  0.00    -0.262 N 
ATOM     25  H8  UNL     1       2.721   1.856   0.451  1.00  0.00     0.180 HD
BRANCH  24  26
HETATM   26  S1  UNL     1       4.276   0.659  -0.921  1.00  0.00     0.289 S 
HETATM   27  O2  UNL     1       5.234   1.824  -0.800  1.00  0.00    -0.198 OA
HETATM   28  O3  UNL     1       4.030   0.477  -2.394  1.00  0.00    -0.198 OA
BRANCH  26  29
HETATM   29  C7  UNL     1       5.040  -0.752  -0.232  1.00  0.00     0.389 C 
HETATM   30  O4  UNL     1       5.608  -0.665   0.830  1.00  0.00    -0.288 OA
ENDBRANCH  26  29
ENDBRANCH  24  26
ENDBRANCH   6  24
TORSDOF 9
