REMARK  10 active torsions:
REMARK  status: ('A' for Active; 'I' for Inactive)
REMARK       I    between atoms: N2_3  and  C2_5 
REMARK    1  A    between atoms: C2_5  and  C3_7 
REMARK    2  A    between atoms: C4_8  and  N3_9 
REMARK    3  A    between atoms: C6_11  and  C7_12 
REMARK    4  A    between atoms: N6_17  and  C8_18 
REMARK    5  A    between atoms: C8_18  and  C9_19 
REMARK    6  A    between atoms: C9_19  and  O2_20 
REMARK    7  A    between atoms: O2_20  and  C10_21 
REMARK    8  A    between atoms: C10_21  and  C11_23 
REMARK    9  A    between atoms: C13_26  and  N9_29 
REMARK   10  A    between atoms: C24_45  and  C25_46 
ROOT
HETATM    1  N1  UNL     1       8.640   4.916   1.045  1.00  0.00    -0.172 NA
HETATM    2  C1  UNL     1       9.047   3.830   1.117  1.00  0.00     0.184 C 
HETATM    3  N2  UNL     1       9.540   2.513   1.223  1.00  0.00    -0.259 N 
ATOM      4  H2  UNL     1      10.359   2.318   1.798  1.00  0.00     0.181 HD
HETATM    5  C2  UNL     1       8.893   1.463   0.528  1.00  0.00     0.274 C 
HETATM    6  O1  UNL     1       7.883   1.765  -0.168  1.00  0.00    -0.266 OA
ENDROOT
BRANCH   5   7
HETATM    7  C3  UNL     1       9.323   0.077   0.574  1.00  0.00     0.149 A 
HETATM    8  C4  UNL     1       8.685  -0.964  -0.113  1.00  0.00     0.164 A 
HETATM    9  N15 UNL     1       9.390  -2.065   0.195  1.00  0.00    -0.280 N 
HETATM   10  N16 UNL     1      10.391  -1.766   1.004  1.00  0.00    -0.264 N 
ATOM     11  H15 UNL     1       9.181  -3.003  -0.148  1.00  0.00     0.188 HD
HETATM   12  C26 UNL     1      10.393  -0.444   1.271  1.00  0.00     0.279 A 
ATOM     13  H16 UNL     1      11.064  -2.437   1.373  1.00  0.00     0.190 HD
HETATM   14  O6  UNL     1      11.232   0.126   2.013  1.00  0.00    -0.266 OA
BRANCH   8  15
HETATM   15  N3  UNL     1       7.542  -0.835  -0.944  1.00  0.00    -0.232 N 
HETATM   16  C5  UNL     1       6.251  -1.127  -0.569  1.00  0.00     0.153 A 
HETATM   17  C6  UNL     1       5.372  -0.905  -1.574  1.00  0.00     0.097 A 
HETATM   18  N13 UNL     1       6.203  -0.456  -2.598  1.00  0.00    -0.282 N 
HETATM   19  N14 UNL     1       7.430  -0.437  -2.179  1.00  0.00    -0.234 N 
ATOM     20  H13 UNL     1       5.894  -0.185  -3.532  1.00  0.00     0.188 HD
ATOM     21  H14 UNL     1       8.220  -0.143  -2.753  1.00  0.00     0.209 HD
BRANCH  17  22
HETATM   22  C7  UNL     1       3.944  -1.015  -1.795  1.00  0.00     0.114 A 
HETATM   23  N4  UNL     1       3.380  -0.676  -3.027  1.00  0.00    -0.281 N 
HETATM   24  N5  UNL     1       2.120  -0.852  -2.985  1.00  0.00    -0.239 N 
ATOM     25  H4  UNL     1       3.899  -0.339  -3.838  1.00  0.00     0.188 HD
HETATM   26  N6  UNL     1       1.711  -1.296  -1.812  1.00  0.00    -0.267 N 
ATOM     27  H5  UNL     1       1.496  -0.670  -3.771  1.00  0.00     0.208 HD
HETATM   28  C24 UNL     1       2.873  -1.401  -1.052  1.00  0.00     0.159 A 
BRANCH  26  29
HETATM   29  C8  UNL     1       0.366  -1.601  -1.415  1.00  0.00     0.178 C 
BRANCH  29  30
HETATM   30  C9  UNL     1      -0.382  -0.443  -0.809  1.00  0.00     0.201 C 
BRANCH  30  31
HETATM   31  O2  UNL     1      -1.680  -0.906  -0.463  1.00  0.00    -0.315 OA
BRANCH  31  32
HETATM   32  C10 UNL     1      -2.634  -0.080   0.125  1.00  0.00     0.307 C 
HETATM   33  O3  UNL     1      -2.307   1.099   0.342  1.00  0.00    -0.258 OA
BRANCH  32  34
HETATM   34  C11 UNL     1      -3.950  -0.557   0.473  1.00  0.00     0.159 C 
HETATM   35  C12 UNL     1      -4.319  -1.955   0.209  1.00  0.00     0.109 C 
HETATM   36  N7  UNL     1      -4.624  -3.045   0.006  1.00  0.00    -0.191 NA
HETATM   37  C13 UNL     1      -4.860   0.199   1.025  1.00  0.00     0.165 C 
HETATM   38  C14 UNL     1      -4.614   1.564   1.325  1.00  0.00     0.121 C 
HETATM   39  N8  UNL     1      -4.436   2.701   1.585  1.00  0.00    -0.190 NA
BRANCH  37  40
HETATM   40  N9  UNL     1      -6.164  -0.337   1.353  1.00  0.00    -0.226 N 
HETATM   41  N10 UNL     1      -6.456  -1.410   2.034  1.00  0.00    -0.300 N 
HETATM   42  C15 UNL     1      -7.773  -1.593   2.137  1.00  0.00     0.141 A 
ATOM     43  H10 UNL     1      -5.760  -2.035   2.440  1.00  0.00     0.186 HD
HETATM   44  C16 UNL     1      -8.368  -0.543   1.462  1.00  0.00     0.096 A 
HETATM   45  N11 UNL     1      -9.621  -0.163   1.207  1.00  0.00    -0.350 N 
HETATM   46  C23 UNL     1      -7.318   0.229   0.981  1.00  0.00     0.157 A 
HETATM   47  C17 UNL     1      -9.879   0.948   0.496  1.00  0.00     0.059 A 
ATOM     48  H11 UNL     1     -10.397  -0.725   1.558  1.00  0.00     0.166 HD
HETATM   49  C18 UNL     1     -11.187   1.324   0.242  1.00  0.00     0.032 A 
HETATM   50  C22 UNL     1      -8.820   1.698   0.028  1.00  0.00     0.060 A 
HETATM   51  C19 UNL     1     -11.459   2.461  -0.485  1.00  0.00     0.002 A 
HETATM   52  C20 UNL     1     -10.382   3.215  -0.954  1.00  0.00     0.002 A 
HETATM   53  C21 UNL     1      -9.083   2.843  -0.704  1.00  0.00     0.032 A 
HETATM   54  N12 UNL     1      -7.546   1.351   0.263  1.00  0.00    -0.337 N 
ATOM     55  H12 UNL     1      -6.773   1.916  -0.089  1.00  0.00     0.167 HD
ENDBRANCH  37  40
ENDBRANCH  32  34
ENDBRANCH  31  32
ENDBRANCH  30  31
ENDBRANCH  29  30
ENDBRANCH  26  29
BRANCH  28  56
HETATM   56  C25 UNL     1       2.865  -1.860   0.318  1.00  0.00     0.231 C 
HETATM   57  O4  UNL     1       1.719  -2.170   0.825  1.00  0.00    -0.643 OA
HETATM   58  O5  UNL     1       3.896  -2.021   1.180  1.00  0.00    -0.643 OA
ENDBRANCH  28  56
ENDBRANCH  17  22
ENDBRANCH   8  15
ENDBRANCH   5   7
TORSDOF 10
