REMARK  17 active torsions:
REMARK  status: ('A' for Active; 'I' for Inactive)
REMARK    1  A    between atoms: O1_2  and  C2_3 
REMARK    2  A    between atoms: C2_3  and  O2_5 
REMARK    3  A    between atoms: C2_3  and  C4_7 
REMARK    4  A    between atoms: C4_7  and  O3_8 
REMARK    5  A    between atoms: C4_7  and  O4_10 
REMARK    6  A    between atoms: C4_7  and  C22_40 
REMARK    7  A    between atoms: O4_10  and  C5_11 
REMARK    8  A    between atoms: C6_12  and  O5_13 
REMARK    9  A    between atoms: O5_13  and  S1_14 
REMARK   10  A    between atoms: C13_25  and  O10_26 
REMARK   11  A    between atoms: O10_26  and  C14_27 
REMARK   12  A    between atoms: C16_30  and  O12_31 
REMARK   13  A    between atoms: O12_31  and  C17_32 
REMARK   14  A    between atoms: C19_35  and  O14_36 
REMARK   15  A    between atoms: O14_36  and  C20_37 
REMARK   16  A    between atoms: C22_40  and  O17_42 
REMARK   17  A    between atoms: O17_42  and  C23_43 
ROOT
HETATM    1  C5  UNL     1       0.518  -1.294  -0.161  1.00  0.00     0.122 A 
HETATM    2  C6  UNL     1       0.380  -2.631  -0.592  1.00  0.00     0.127 A 
HETATM    3  C7  UNL     1      -0.807  -3.312  -0.679  1.00  0.00     0.048 A 
HETATM    4  C8  UNL     1      -1.958  -2.668  -0.323  1.00  0.00    -0.049 A 
HETATM    5  C9  UNL     1      -3.244  -3.390  -0.418  1.00  0.00     0.049 C 
HETATM    6  C10 UNL     1      -1.885  -1.378   0.102  1.00  0.00    -0.003 A 
HETATM    7  C11 UNL     1      -0.688  -0.678   0.192  1.00  0.00     0.058 A 
HETATM    8  C12 UNL     1      -0.780   0.717   0.626  1.00  0.00     0.195 C 
HETATM    9  O9  UNL     1       0.085   1.152   1.375  1.00  0.00    -0.289 OA
HETATM   10  C13 UNL     1      -1.902   1.578   0.163  1.00  0.00     0.238 C 
HETATM   11  C16 UNL     1      -3.143   0.764  -0.120  1.00  0.00     0.203 C 
HETATM   12  C19 UNL     1      -3.092  -0.609   0.512  1.00  0.00     0.199 C 
ENDROOT
BRANCH   1  13
HETATM   13  O4  UNL     1       1.651  -0.658  -0.102  1.00  0.00    -0.297 OA
BRANCH  13  14
HETATM   14  C4  UNL     1       2.779  -0.025  -0.043  1.00  0.00     0.316 C 
BRANCH  14  15
HETATM   15  C2  UNL     1       4.125  -0.787  -0.113  1.00  0.00     0.226 C 
HETATM   16  C3  UNL     1       4.396  -1.399  -1.440  1.00  0.00     0.085 C 
BRANCH  15  17
HETATM   17  O1  UNL     1       5.064   0.307  -0.061  1.00  0.00    -0.356 OA
HETATM   18  C1  UNL     1       6.355  -0.195  -0.069  1.00  0.00     0.205 C 
ENDBRANCH  15  17
BRANCH  15  19
HETATM   19  O2  UNL     1       4.403  -1.510   1.000  1.00  0.00    -0.361 OA
ATOM     20  H2  UNL     1       3.785  -2.230   0.966  1.00  0.00     0.213 HD
ENDBRANCH  15  19
ENDBRANCH  14  15
BRANCH  14  21
HETATM   21  O3  UNL     1       3.013   0.673   1.223  1.00  0.00    -0.353 OA
ATOM     22  H3  UNL     1       2.187   1.141   1.266  1.00  0.00     0.213 HD
ENDBRANCH  14  21
BRANCH  14  23
HETATM   23  C22 UNL     1       2.981   1.063  -1.078  1.00  0.00     0.336 C 
HETATM   24  O16 UNL     1       2.772   0.707  -2.275  1.00  0.00    -0.258 OA
BRANCH  23  25
HETATM   25  O17 UNL     1       3.360   2.330  -0.734  1.00  0.00    -0.241 OA
BRANCH  25  26
HETATM   26  C23 UNL     1       3.532   3.287  -1.720  1.00  0.00     0.262 C 
HETATM   27  C24 UNL     1       3.945   4.686  -1.415  1.00  0.00     0.126 C 
HETATM   28  O18 UNL     1       3.340   2.994  -2.922  1.00  0.00    -0.265 OA
ENDBRANCH  25  26
ENDBRANCH  23  25
ENDBRANCH  14  23
ENDBRANCH  13  14
ENDBRANCH   1  13
BRANCH   2  29
HETATM   29  O5  UNL     1       1.482  -3.382  -0.973  1.00  0.00    -0.211 OA
BRANCH  29  30
HETATM   30  S1  UNL     1       2.170  -4.373   0.249  1.00  0.00     0.257 S 
HETATM   31  O6  UNL     1       3.617  -4.618   0.056  1.00  0.00    -0.572 OA
HETATM   32  O7  UNL     1       1.947  -3.687   1.561  1.00  0.00    -0.572 OA
HETATM   33  O8  UNL     1       1.312  -5.831   0.348  1.00  0.00    -0.572 OA
ENDBRANCH  29  30
ENDBRANCH   2  29
BRANCH  12  34
HETATM   34  O14 UNL     1      -3.199  -0.476   1.909  1.00  0.00    -0.309 OA
BRANCH  34  35
HETATM   35  C20 UNL     1      -4.319  -0.958   2.555  1.00  0.00     0.255 C 
HETATM   36  C21 UNL     1      -4.489  -0.852   4.032  1.00  0.00     0.126 C 
HETATM   37  O15 UNL     1      -5.257  -1.514   1.932  1.00  0.00    -0.266 OA
ENDBRANCH  34  35
ENDBRANCH  12  34
BRANCH  10  38
HETATM   38  O10 UNL     1      -2.175   2.646   1.047  1.00  0.00    -0.305 OA
BRANCH  38  39
HETATM   39  C14 UNL     1      -2.046   3.981   0.651  1.00  0.00     0.255 C 
HETATM   40  C15 UNL     1      -2.306   5.142   1.499  1.00  0.00     0.126 C 
HETATM   41  O11 UNL     1      -1.670   4.174  -0.546  1.00  0.00    -0.266 OA
ENDBRANCH  38  39
ENDBRANCH  10  38
BRANCH  11  42
HETATM   42  O12 UNL     1      -3.348   0.570  -1.505  1.00  0.00    -0.310 OA
BRANCH  42  43
HETATM   43  C17 UNL     1      -4.501   1.008  -2.137  1.00  0.00     0.255 C 
HETATM   44  C18 UNL     1      -4.707   0.802  -3.577  1.00  0.00     0.126 C 
HETATM   45  O13 UNL     1      -5.358   1.589  -1.407  1.00  0.00    -0.266 OA
ENDBRANCH  42  43
ENDBRANCH  11  42
TORSDOF 17
