REMARK  8 active torsions:
REMARK  status: ('A' for Active; 'I' for Inactive)
REMARK    1  A    between atoms: C2_2  and  N1_3 
REMARK    2  A    between atoms: C2_2  and  C6_10 
REMARK    3  A    between atoms: N1_3  and  C3_6 
REMARK    4  A    between atoms: C6_10  and  C7_11 
REMARK    5  A    between atoms: C6_10  and  C16_23 
REMARK       I    between atoms: C7_11  and  N2_13 
REMARK    6  A    between atoms: N2_13  and  C8_15 
REMARK    7  A    between atoms: C16_23  and  S1_25 
REMARK    8  A    between atoms: S1_25  and  C17_26 
ROOT
HETATM    1  C6  UNL     1      -1.207   0.873   0.467  1.00  0.00     0.189 C 
ENDROOT
BRANCH   1   2
HETATM    2  C2  UNL     1      -2.033  -0.077  -0.344  1.00  0.00     0.207 C 
HETATM    3  C1  UNL     1      -2.180   0.253  -1.792  1.00  0.00     0.041 C 
BRANCH   2   4
HETATM    4  N1  UNL     1      -3.361  -0.185   0.241  1.00  0.00    -0.034 N 
ATOM      5  H12 UNL     1      -3.322  -0.243   1.259  1.00  0.00     0.281 HD
ATOM      6  H11 UNL     1      -3.883   0.687   0.157  1.00  0.00     0.281 HD
BRANCH   4   7
HETATM    7  C3  UNL     1      -4.074  -1.287  -0.326  1.00  0.00     0.258 C 
HETATM    8  C4  UNL     1      -4.722  -2.071   0.830  1.00  0.00     0.084 C 
HETATM    9  C5  UNL     1      -5.115  -0.811  -1.295  1.00  0.00     0.084 C 
HETATM   10  F1  UNL     1      -3.179  -2.182  -0.931  1.00  0.00    -0.212 F 
ENDBRANCH   4   7
ENDBRANCH   2   4
ENDBRANCH   1   2
BRANCH   1  11
HETATM   11  C7  UNL     1       0.188   0.994  -0.009  1.00  0.00     0.232 C 
HETATM   12  O1  UNL     1       0.445   1.821  -0.915  1.00  0.00    -0.273 OA
HETATM   13  N2  UNL     1       1.222   0.166   0.564  1.00  0.00    -0.355 N 
ATOM     14  H2  UNL     1       1.006  -0.494   1.311  1.00  0.00     0.162 HD
BRANCH  13  15
HETATM   15  C8  UNL     1       2.568   0.291   0.058  1.00  0.00     0.089 C 
HETATM   16  C9  UNL     1       3.582   0.591   1.140  1.00  0.00     0.031 C 
HETATM   17  C10 UNL     1       4.542  -0.543   0.893  1.00  0.00    -0.004 C 
HETATM   18  C11 UNL     1       3.511  -1.685   0.910  1.00  0.00     0.012 C 
HETATM   19  C13 UNL     1       4.558  -0.755  -0.603  1.00  0.00    -0.038 C 
HETATM   20  C12 UNL     1       3.091  -1.055  -0.403  1.00  0.00     0.017 C 
HETATM   21  C14 UNL     1       4.904   0.429  -1.456  1.00  0.00     0.015 C 
HETATM   22  C15 UNL     1       5.365  -1.947  -1.058  1.00  0.00     0.015 C 
ENDBRANCH  13  15
ENDBRANCH   1  11
BRANCH   1  23
HETATM   23  C16 UNL     1      -1.839   2.175   0.763  1.00  0.00     0.209 C 
HETATM   24  O2  UNL     1      -1.386   3.237   0.331  1.00  0.00    -0.284 OA
BRANCH  23  25
HETATM   25  S1  UNL     1      -3.321   2.149   1.799  1.00  0.00     0.023 SA
BRANCH  25  26
HETATM   26  C17 UNL     1      -3.792   3.881   2.085  1.00  0.00     0.450 C 
HETATM   27  F2  UNL     1      -2.821   4.522   2.849  1.00  0.00    -0.160 F 
HETATM   28  F3  UNL     1      -4.964   3.944   2.828  1.00  0.00    -0.160 F 
HETATM   29  F4  UNL     1      -3.951   4.476   0.852  1.00  0.00    -0.160 F 
ENDBRANCH  25  26
ENDBRANCH  23  25
ENDBRANCH   1  23
TORSDOF 8
