REMARK  5 active torsions:
REMARK  status: ('A' for Active; 'I' for Inactive)
REMARK    1  A    between atoms: C5_8  and  C6_9 
REMARK    2  A    between atoms: C6_9  and  C7_10 
REMARK    3  A    between atoms: C7_10  and  N3_11 
REMARK    4  A    between atoms: N3_11  and  C8_13 
REMARK    5  A    between atoms: C17_26  and  C18_27 
ROOT
HETATM    1  N1  UNL     1      -3.826   0.864  -2.886  1.00  0.00    -0.087 NA
HETATM    2  C1  UNL     1      -3.154   0.359  -1.715  1.00  0.00     0.096 C 
HETATM    3  N2  UNL     1      -1.982   0.652  -1.302  1.00  0.00    -0.350 N 
ATOM      4  H2  UNL     1      -1.359   1.306  -1.776  1.00  0.00     0.163 HD
HETATM    5  C2  UNL     1      -1.637  -0.057  -0.074  1.00  0.00     0.139 C 
HETATM    6  C3  UNL     1      -0.957  -1.376  -0.360  1.00  0.00     0.062 C 
HETATM    7  C4  UNL     1       0.383  -1.142  -0.979  1.00  0.00     0.011 C 
HETATM    8  C5  UNL     1       1.111  -0.006  -0.279  1.00  0.00     0.011 C 
HETATM    9  C14 UNL     1       0.221   1.159   0.042  1.00  0.00     0.175 C 
HETATM   10  O1  UNL     1      -0.886   0.743   0.752  1.00  0.00    -0.360 OA
HETATM   11  C15 UNL     1      -3.011  -0.379   0.493  1.00  0.00     0.053 C 
HETATM   12  C16 UNL     1      -3.704   0.834   1.043  1.00  0.00     0.020 C 
HETATM   13  C17 UNL     1      -5.073   0.898   0.444  1.00  0.00     0.052 C 
HETATM   14  C19 UNL     1      -5.204  -0.301  -0.489  1.00  0.00     0.022 C 
HETATM   15  C20 UNL     1      -3.760  -0.624  -0.795  1.00  0.00     0.059 C 
ENDROOT
BRANCH   8  16
HETATM   16  C6  UNL     1       2.238   0.431  -1.201  1.00  0.00     0.026 C 
BRANCH  16  17
HETATM   17  C7  UNL     1       3.165  -0.720  -1.434  1.00  0.00     0.120 C 
BRANCH  17  18
HETATM   18  N3  UNL     1       3.862  -1.209  -0.282  1.00  0.00    -0.385 N 
ATOM     19  H3  UNL     1       3.512  -2.050   0.177  1.00  0.00     0.159 HD
BRANCH  18  20
HETATM   20  C8  UNL     1       5.011  -0.582   0.248  1.00  0.00     0.106 A 
HETATM   21  C9  UNL     1       6.240  -0.952  -0.321  1.00  0.00     0.148 A 
HETATM   22  F1  UNL     1       6.222  -1.861  -1.326  1.00  0.00    -0.203 F 
HETATM   23  C10 UNL     1       7.430  -0.426   0.109  1.00  0.00     0.087 A 
HETATM   24  C11 UNL     1       7.419   0.492   1.127  1.00  0.00     0.122 A 
HETATM   25  F2  UNL     1       8.562   1.033   1.579  1.00  0.00    -0.206 F 
HETATM   26  C12 UNL     1       6.226   0.865   1.695  1.00  0.00     0.087 A 
HETATM   27  C13 UNL     1       5.010   0.327   1.256  1.00  0.00     0.148 A 
HETATM   28  F3  UNL     1       3.879   0.732   1.868  1.00  0.00    -0.203 F 
ENDBRANCH  18  20
ENDBRANCH  17  18
ENDBRANCH  16  17
ENDBRANCH   8  16
BRANCH  13  29
HETATM   29  C18 UNL     1      -6.165   0.741   1.494  1.00  0.00     0.357 C 
HETATM   30  F4  UNL     1      -7.389   0.809   0.877  1.00  0.00    -0.214 F 
HETATM   31  F5  UNL     1      -6.088   1.680   2.478  1.00  0.00    -0.214 F 
ENDBRANCH  13  29
TORSDOF 5
