REMARK  9 active torsions:
REMARK  status: ('A' for Active; 'I' for Inactive)
REMARK    1  A    between atoms: N1_1  and  C1_4 
REMARK    2  A    between atoms: C3_8  and  C4_9 
REMARK    3  A    between atoms: C6_11  and  C7_12 
REMARK    4  A    between atoms: C8_17  and  N4_18 
REMARK    5  A    between atoms: N4_18  and  C9_19 
REMARK    6  A    between atoms: N4_18  and  C14_26 
REMARK    7  A    between atoms: C9_19  and  C10_20 
REMARK    8  A    between atoms: C14_26  and  C15_27 
REMARK    9  A    between atoms: C15_27  and  C16_30 
ROOT
HETATM    1  C4  UNL     1       2.277  -0.314   0.056  1.00  0.00    -0.003 A 
HETATM    2  C5  UNL     1       2.605  -1.624   0.417  1.00  0.00     0.044 A 
HETATM    3  C6  UNL     1       1.642  -2.587   0.559  1.00  0.00     0.076 A 
HETATM    4  N3  UNL     1       0.374  -2.241   0.343  1.00  0.00    -0.341 N 
ATOM      5  H3  UNL     1      -0.338  -2.963   0.451  1.00  0.00     0.167 HD
HETATM    6  C8  UNL     1      -0.040  -0.995  -0.011  1.00  0.00     0.104 A 
HETATM    7  C17 UNL     1       0.927  -0.035  -0.152  1.00  0.00     0.062 A 
ENDROOT
BRANCH   6   8
HETATM    8  N4  UNL     1      -1.455  -0.748  -0.211  1.00  0.00    -0.358 N 
BRANCH   8   9
HETATM    9  C9  UNL     1      -1.886   0.531  -0.657  1.00  0.00     0.170 C 
BRANCH   9  10
HETATM   10  C10 UNL     1      -2.640   1.345   0.354  1.00  0.00     0.142 C 
HETATM   11  F3  UNL     1      -3.789   0.793   0.820  1.00  0.00    -0.239 F 
HETATM   12  C11 UNL     1      -3.031   2.678  -0.308  1.00  0.00     0.074 C 
HETATM   13  C12 UNL     1      -3.364   3.445   0.975  1.00  0.00     0.171 C 
HETATM   14  O1  UNL     1      -2.439   3.059   1.908  1.00  0.00    -0.388 OA
HETATM   15  C13 UNL     1      -1.789   1.906   1.464  1.00  0.00     0.213 C 
ENDBRANCH   9  10
ENDBRANCH   8   9
BRANCH   8  16
HETATM   16  C14 UNL     1      -2.334  -1.834   0.077  1.00  0.00     0.213 C 
BRANCH  16  17
HETATM   17  C15 UNL     1      -3.048  -2.472  -1.050  1.00  0.00     0.354 C 
HETATM   18  F4  UNL     1      -3.885  -1.691  -1.785  1.00  0.00    -0.194 F 
HETATM   19  F5  UNL     1      -2.208  -3.102  -1.954  1.00  0.00    -0.194 F 
BRANCH  17  20
HETATM   20  C16 UNL     1      -3.936  -3.567  -0.435  1.00  0.00     0.456 C 
HETATM   21  F6  UNL     1      -3.176  -4.500   0.240  1.00  0.00    -0.165 F 
HETATM   22  F7  UNL     1      -4.689  -4.196  -1.376  1.00  0.00    -0.165 F 
HETATM   23  F8  UNL     1      -4.810  -2.922   0.438  1.00  0.00    -0.165 F 
ENDBRANCH  17  20
ENDBRANCH  16  17
ENDBRANCH   8  16
ENDBRANCH   6   8
BRANCH   3  24
HETATM   24  C7  UNL     1       2.051  -3.973   0.946  1.00  0.00     0.403 C 
HETATM   25  F1  UNL     1       2.773  -3.999   2.109  1.00  0.00    -0.208 F 
HETATM   26  F2  UNL     1       2.792  -4.461  -0.137  1.00  0.00    -0.208 F 
ENDBRANCH   3  24
BRANCH   1  27
HETATM   27  C3  UNL     1       3.322   0.694  -0.085  1.00  0.00     0.058 A 
HETATM   28  N2  UNL     1       4.594   0.323   0.144  1.00  0.00    -0.361 N 
HETATM   29  C2  UNL     1       5.630   1.164   0.043  1.00  0.00     0.136 A 
ATOM     30  H2  UNL     1       4.778  -0.645   0.407  1.00  0.00     0.165 HD
HETATM   31  C1  UNL     1       5.373   2.475  -0.314  1.00  0.00     0.114 A 
HETATM   32  N5  UNL     1       4.113   2.859  -0.545  1.00  0.00    -0.349 N 
HETATM   33  C18 UNL     1       3.073   1.994  -0.439  1.00  0.00     0.120 A 
ATOM     34  H5  UNL     1       3.929   3.827  -0.808  1.00  0.00     0.167 HD
BRANCH  31  35
HETATM   35  N1  UNL     1       6.339   3.349  -0.430  1.00  0.00    -0.384 N 
ATOM     36  H12 UNL     1       7.300   3.056  -0.254  1.00  0.00     0.157 HD
ATOM     37  H11 UNL     1       6.149   4.316  -0.693  1.00  0.00     0.157 HD
ENDBRANCH  31  35
ENDBRANCH   1  27
TORSDOF 9
