REMARK  9 active torsions:
REMARK  status: ('A' for Active; 'I' for Inactive)
REMARK    1  A    between atoms: N1_1  and  C1_4 
REMARK    2  A    between atoms: C2_9  and  S1_10 
REMARK    3  A    between atoms: S1_10  and  C3_11 
REMARK    4  A    between atoms: C3_11  and  C4_12 
REMARK    5  A    between atoms: C4_12  and  O1_13 
REMARK    6  A    between atoms: C4_12  and  C5_15 
REMARK    7  A    between atoms: C5_15  and  N4_16 
REMARK    8  A    between atoms: C8_19  and  C9_20 
REMARK    9  A    between atoms: C9_20  and  C10_21 
ROOT
HETATM    1  N4  UNL     1       0.116  -0.745  -0.764  1.00  0.00    -0.410 N 
HETATM    2  C6  UNL     1      -0.641   0.289  -0.141  1.00  0.00     0.117 C 
HETATM    3  C7  UNL     1      -1.875  -0.248   0.540  1.00  0.00     0.024 C 
HETATM    4  C8  UNL     1      -2.747  -1.068  -0.360  1.00  0.00    -0.007 C 
HETATM    5  C16 UNL     1      -1.871  -1.926  -1.263  1.00  0.00     0.024 C 
HETATM    6  C17 UNL     1      -0.456  -2.045  -0.670  1.00  0.00     0.117 C 
ENDROOT
BRANCH   1   7
HETATM    7  C5  UNL     1       1.524  -0.642  -0.609  1.00  0.00     0.149 C 
BRANCH   7   8
HETATM    8  C4  UNL     1       2.053  -0.852   0.772  1.00  0.00     0.145 C 
BRANCH   8   9
HETATM    9  C3  UNL     1       3.551  -0.697   0.750  1.00  0.00     0.114 C 
BRANCH   9  10
HETATM   10  S1  UNL     1       4.021   0.970   0.155  1.00  0.00    -0.101 SA
BRANCH  10  11
HETATM   11  C2  UNL     1       5.824   1.010   0.204  1.00  0.00     0.130 A 
HETATM   12  N3  UNL     1       6.629   1.370   1.186  1.00  0.00    -0.286 N 
HETATM   13  N2  UNL     1       7.887   1.335   1.039  1.00  0.00    -0.279 N 
ATOM     14  H3  UNL     1       6.234   1.680   2.074  1.00  0.00     0.188 HD
HETATM   15  C1  UNL     1       8.386   0.925  -0.133  1.00  0.00     0.159 A 
ATOM     16  H2  UNL     1       8.507   1.614   1.799  1.00  0.00     0.189 HD
HETATM   17  S2  UNL     1       6.962   0.590  -1.020  1.00  0.00    -0.027 SA
BRANCH  15  18
HETATM   18  N1  UNL     1       9.652   0.821  -0.474  1.00  0.00    -0.379 N 
ATOM     19  H12 UNL     1      10.501   1.021   0.055  1.00  0.00     0.158 HD
ATOM     20  H11 UNL     1      10.032   0.508  -1.367  1.00  0.00     0.158 HD
ENDBRANCH  15  18
ENDBRANCH  10  11
ENDBRANCH   9  10
ENDBRANCH   8   9
BRANCH   8  21
HETATM   21  O1  UNL     1       1.741  -2.126   1.227  1.00  0.00    -0.393 OA
ATOM     22  H1  UNL     1       0.796  -2.224   1.241  1.00  0.00     0.210 HD
ENDBRANCH   8  21
ENDBRANCH   7   8
ENDBRANCH   1   7
BRANCH   4  23
HETATM   23  C9  UNL     1      -3.626  -0.213  -1.256  1.00  0.00     0.045 C 
BRANCH  23  24
HETATM   24  C10 UNL     1      -4.533   0.665  -0.480  1.00  0.00    -0.033 A 
HETATM   25  C11 UNL     1      -4.241   2.007  -0.369  1.00  0.00     0.012 A 
HETATM   26  C12 UNL     1      -5.072   2.868   0.355  1.00  0.00     0.046 A 
HETATM   27  C13 UNL     1      -6.203   2.365   0.969  1.00  0.00     0.156 A 
HETATM   28  F1  UNL     1      -7.028   3.170   1.676  1.00  0.00    -0.203 F 
HETATM   29  C14 UNL     1      -6.508   1.025   0.867  1.00  0.00     0.176 A 
HETATM   30  F2  UNL     1      -7.619   0.502   1.463  1.00  0.00    -0.201 F 
HETATM   31  C15 UNL     1      -5.664   0.182   0.139  1.00  0.00     0.082 A 
HETATM   32 CL1  UNL     1      -6.097  -1.508   0.042  1.00  0.00    -0.080 Cl
ENDBRANCH  23  24
ENDBRANCH   4  23
TORSDOF 9
