REMARK  9 active torsions:
REMARK  status: ('A' for Active; 'I' for Inactive)
REMARK    1  A    between atoms: C2_2  and  O1_3 
REMARK    2  A    between atoms: O1_3  and  C3_4 
REMARK    3  A    between atoms: C3_4  and  C4_5 
REMARK    4  A    between atoms: C6_8  and  C7_9 
REMARK    5  A    between atoms: C6_8  and  C8_12 
REMARK    6  A    between atoms: C7_9  and  O2_10 
REMARK    7  A    between atoms: C11_16  and  C12_17 
REMARK    8  A    between atoms: C14_19  and  C15_20 
REMARK    9  A    between atoms: C19_31  and  N5_32 
ROOT
HETATM    1  C8  UNL     1      -1.850  -1.392   0.477  1.00  0.00     0.016 A 
HETATM    2  C9  UNL     1      -0.921  -2.195  -0.211  1.00  0.00     0.126 A 
HETATM    3  F2  UNL     1      -1.317  -3.379  -0.811  1.00  0.00    -0.205 F 
HETATM    4  C10 UNL     1       0.403  -1.921  -0.190  1.00  0.00     0.055 A 
HETATM    5  C11 UNL     1       0.951  -0.862   0.493  1.00  0.00    -0.018 A 
HETATM    6  C20 UNL     1       0.077  -0.075   1.169  1.00  0.00     0.037 A 
HETATM    7  C21 UNL     1      -1.301  -0.327   1.165  1.00  0.00     0.045 A 
HETATM    8 CL1  UNL     1      -2.338   0.783   2.028  1.00  0.00    -0.084 Cl
ENDROOT
BRANCH   5   9
HETATM    9  C12 UNL     1       2.404  -0.603   0.493  1.00  0.00     0.019 A 
HETATM   10  C13 UNL     1       2.856   0.637   0.110  1.00  0.00     0.031 A 
HETATM   11  C14 UNL     1       4.218   0.967   0.052  1.00  0.00     0.010 A 
HETATM   12  C18 UNL     1       5.106  -0.013   0.398  1.00  0.00     0.103 A 
HETATM   13  N4  UNL     1       4.674  -1.226   0.773  1.00  0.00    -0.351 N 
HETATM   14  C19 UNL     1       3.349  -1.535   0.827  1.00  0.00     0.109 A 
ATOM     15  H4  UNL     1       5.359  -1.939   1.025  1.00  0.00     0.166 HD
BRANCH  11  16
HETATM   16  C15 UNL     1       4.592   2.310  -0.386  1.00  0.00     0.080 A 
HETATM   17  C16 UNL     1       3.655   3.245  -0.846  1.00  0.00     0.140 A 
HETATM   18  N1  UNL     1       4.302   4.376  -1.148  1.00  0.00    -0.295 N 
HETATM   19  N2  UNL     1       5.555   4.211  -0.911  1.00  0.00    -0.241 N 
ATOM     20  H1  UNL     1       3.872   5.229  -1.507  1.00  0.00     0.187 HD
HETATM   21  N3  UNL     1       5.744   2.960  -0.447  1.00  0.00    -0.280 N 
ATOM     22  H2  UNL     1       6.284   4.910  -1.051  1.00  0.00     0.208 HD
HETATM   23  C17 UNL     1       7.040   2.455  -0.067  1.00  0.00     0.179 C 
ENDBRANCH  11  16
BRANCH  14  24
HETATM   24  N5  UNL     1       3.007  -2.695   1.217  1.00  0.00    -0.385 N 
ATOM     25  H52 UNL     1       2.014  -2.926   1.257  1.00  0.00     0.157 HD
ATOM     26  H51 UNL     1       3.711  -3.390   1.466  1.00  0.00     0.157 HD
ENDBRANCH  14  24
ENDBRANCH   5   9
BRANCH   1  27
HETATM   27  C6  UNL     1      -3.251  -1.670   0.247  1.00  0.00     0.052 A 
HETATM   28  C4  UNL     1      -4.350  -1.085   1.078  1.00  0.00     0.063 A 
HETATM   29  C5  UNL     1      -4.056  -2.615   1.056  1.00  0.00     0.193 A 
HETATM   30  F1  UNL     1      -4.992  -3.429   0.441  1.00  0.00    -0.248 F 
BRANCH  28  31
HETATM   31  C3  UNL     1      -5.705  -0.790   0.535  1.00  0.00     0.183 C 
BRANCH  31  32
HETATM   32  O1  UNL     1      -6.110   0.537   0.539  1.00  0.00    -0.363 OA
BRANCH  32  33
HETATM   33  C2  UNL     1      -5.501   1.578  -0.097  1.00  0.00     0.124 C 
HETATM   34  C1  UNL     1      -5.381   2.735   0.512  1.00  0.00     0.037 C 
ENDBRANCH  32  33
ENDBRANCH  31  32
ENDBRANCH  28  31
BRANCH  27  35
HETATM   35  C7  UNL     1      -3.620  -1.576  -1.269  1.00  0.00     0.182 C 
BRANCH  35  36
HETATM   36  O2  UNL     1      -2.724  -2.021  -2.165  1.00  0.00    -0.400 OA
ATOM     37  H2  UNL     1      -2.948  -1.964  -3.086  1.00  0.00     0.209 HD
ENDBRANCH  35  36
ENDBRANCH  27  35
ENDBRANCH   1  27
TORSDOF 9
