REMARK  0 active torsions:
REMARK  status: ('A' for Active; 'I' for Inactive)
ROOT
HETATM    1  N1  UNL     1       3.686   0.207  -1.998  1.00  0.00    -0.195 NA
HETATM    2  C1  UNL     1       2.959   0.123  -1.093  1.00  0.00     0.084 C 
HETATM    3  C2  UNL     1       2.055   0.005   0.055  1.00  0.00     0.138 C 
HETATM    4  C3  UNL     1       2.778  -0.061   1.310  1.00  0.00     0.084 C 
HETATM    5  N2  UNL     1       3.346  -0.126   2.330  1.00  0.00    -0.195 NA
HETATM    6  C4  UNL     1       1.063   1.144   0.111  1.00  0.00     0.045 C 
HETATM    7  C5  UNL     1      -0.179   0.673  -0.614  1.00  0.00    -0.005 C 
HETATM    8  C6  UNL     1      -1.357   1.347  -0.017  1.00  0.00     0.032 C 
HETATM    9  C7  UNL     1      -2.602   0.541   0.059  1.00  0.00     0.232 C 
HETATM   10  N3  UNL     1      -2.430  -0.859   0.207  1.00  0.00    -0.075 N 
ATOM     11  H31 UNL     1      -2.716  -1.342  -0.644  1.00  0.00     0.277 HD
ATOM     12  H32 UNL     1      -3.117  -1.232   0.862  1.00  0.00     0.277 HD
HETATM   13  C8  UNL     1      -1.110  -1.265   0.588  1.00  0.00     0.237 C 
HETATM   14  C9  UNL     1      -0.160  -0.807  -0.511  1.00  0.00     0.018 C 
HETATM   15  C10 UNL     1       1.233  -1.237  -0.118  1.00  0.00     0.046 C 
ENDROOT
TORSDOF 0
