REMARK  13 active torsions:
REMARK  status: ('A' for Active; 'I' for Inactive)
REMARK    1  A    between atoms: C2_2  and  N1_5 
REMARK       I    between atoms: N1_5  and  C5_7 
REMARK    2  A    between atoms: C5_7  and  C6_9 
REMARK    3  A    between atoms: N2_15  and  C12_16 
REMARK    4  A    between atoms: C12_16  and  O2_17 
REMARK    5  A    between atoms: C12_16  and  C13_19 
REMARK    6  A    between atoms: C13_19  and  N3_22 
REMARK    7  A    between atoms: N3_22  and  C16_24 
REMARK    8  A    between atoms: C16_24  and  C17_25 
REMARK    9  A    between atoms: C17_25  and  N4_26 
REMARK   10  A    between atoms: C17_25  and  C18_30 
REMARK   11  A    between atoms: C18_30  and  C19_31 
REMARK   12  A    between atoms: C19_31  and  C20_32 
REMARK   13  A    between atoms: C20_32  and  N5_33 
REMARK       I    between atoms: N5_33  and  C21_35 
ROOT
HETATM    1  C13 UNL     1       0.815   0.817   1.245  1.00  0.00     0.084 C 
HETATM    2  C14 UNL     1       1.443   1.930   0.390  1.00  0.00     0.046 C 
HETATM    3  C15 UNL     1       0.634   1.291   2.662  1.00  0.00     0.046 C 
ENDROOT
BRANCH   1   4
HETATM    4  C12 UNL     1      -0.427   0.400   0.594  1.00  0.00     0.142 C 
BRANCH   4   5
HETATM    5  N2  UNL     1      -1.658   1.097   0.472  1.00  0.00    -0.350 N 
HETATM    6  C6  UNL     1      -2.669   0.403  -0.332  1.00  0.00     0.178 C 
HETATM    7  C7  UNL     1      -3.503   1.266  -1.192  1.00  0.00     0.035 C 
HETATM    8  C8  UNL     1      -2.944   2.590  -1.576  1.00  0.00     0.002 C 
HETATM    9  C9  UNL     1      -3.097   3.631  -0.490  1.00  0.00     0.002 C 
HETATM   10  C10 UNL     1      -3.118   3.002   0.883  1.00  0.00     0.020 C 
HETATM   11  C11 UNL     1      -1.768   2.342   1.182  1.00  0.00     0.125 C 
BRANCH   6  12
HETATM   12  C5  UNL     1      -3.508  -0.497   0.491  1.00  0.00     0.241 C 
HETATM   13  N1  UNL     1      -4.588  -1.218  -0.060  1.00  0.00    -0.351 N 
ATOM     14  H1  UNL     1      -4.781  -1.104  -1.055  1.00  0.00     0.163 HD
HETATM   15  O1  UNL     1      -3.247  -0.614   1.705  1.00  0.00    -0.271 OA
BRANCH  13  16
HETATM   16  C2  UNL     1      -5.436  -2.106   0.694  1.00  0.00     0.022 C 
HETATM   17  C1  UNL     1      -6.144  -1.416   1.824  1.00  0.00     0.037 C 
HETATM   18  C3  UNL     1      -6.486  -2.757  -0.194  1.00  0.00     0.037 C 
HETATM   19  C4  UNL     1      -4.570  -3.196   1.289  1.00  0.00     0.037 C 
ENDBRANCH  13  16
ENDBRANCH   6  12
ENDBRANCH   4   5
BRANCH   4  20
HETATM   20  O2  UNL     1      -0.418  -0.784   0.041  1.00  0.00    -0.348 OA
ATOM     21  H2  UNL     1       0.406  -1.250   0.123  1.00  0.00     0.219 HD
ENDBRANCH   4  20
ENDBRANCH   1   4
BRANCH   1  22
HETATM   22  N3  UNL     1       1.799  -0.244   1.224  1.00  0.00    -0.405 N 
ATOM     23  H3  UNL     1       2.079  -0.711   2.087  1.00  0.00     0.154 HD
BRANCH  22  24
HETATM   24  C16 UNL     1       2.361  -0.618  -0.006  1.00  0.00     0.147 C 
BRANCH  24  25
HETATM   25  C17 UNL     1       3.319  -1.816   0.134  1.00  0.00     0.200 C 
BRANCH  25  26
HETATM   26  N4  UNL     1       4.415  -1.566   1.006  1.00  0.00    -0.073 N 
ATOM     27  H43 UNL     1       4.922  -0.729   0.718  1.00  0.00     0.274 HD
ATOM     28  H42 UNL     1       4.086  -1.258   1.921  1.00  0.00     0.274 HD
ATOM     29  H41 UNL     1       5.049  -2.359   1.099  1.00  0.00     0.274 HD
ENDBRANCH  25  26
BRANCH  25  30
HETATM   30  C18 UNL     1       3.791  -2.241  -1.224  1.00  0.00     0.036 C 
BRANCH  30  31
HETATM   31  C19 UNL     1       4.500  -1.214  -2.008  1.00  0.00     0.022 C 
BRANCH  31  32
HETATM   32  C20 UNL     1       5.747  -0.660  -1.417  1.00  0.00     0.122 C 
BRANCH  32  33
HETATM   33  N5  UNL     1       6.320   0.297  -2.388  1.00  0.00    -0.365 N 
HETATM   34  C21 UNL     1       7.531   0.987  -2.096  1.00  0.00     0.181 C 
HETATM   35  N6  UNL     1       7.888   2.036  -2.774  1.00  0.00    -0.374 N 
HETATM   36  N7  UNL     1       8.398   0.562  -1.059  1.00  0.00    -0.064 NA
ATOM     37  H62 UNL     1       7.264   2.342  -3.521  1.00  0.00     0.158 HD
ATOM     38  H61 UNL     1       8.755   2.530  -2.565  1.00  0.00     0.158 HD
ATOM     39  H5  UNL     1       5.844   0.464  -3.274  1.00  0.00     0.162 HD
ENDBRANCH  32  33
ENDBRANCH  31  32
ENDBRANCH  30  31
ENDBRANCH  25  30
ENDBRANCH  24  25
ENDBRANCH  22  24
ENDBRANCH   1  22
TORSDOF 13
