REMARK  12 active torsions:
REMARK  status: ('A' for Active; 'I' for Inactive)
REMARK    1  A    between atoms: C2_2  and  C3_3 
REMARK    2  A    between atoms: C3_3  and  C4_4 
REMARK    3  A    between atoms: C4_4  and  C5_5 
REMARK    4  A    between atoms: C5_5  and  N1_6 
REMARK       I    between atoms: N1_6  and  C6_8 
REMARK       I    between atoms: C6_8  and  N2_10 
REMARK    5  A    between atoms: N2_10  and  C7_12 
REMARK    6  A    between atoms: C7_12  and  C8_13 
REMARK    7  A    between atoms: C8_13  and  O2_14 
REMARK    8  A    between atoms: C8_13  and  N3_16 
REMARK    9  A    between atoms: C11_19  and  C12_20 
REMARK   10  A    between atoms: C12_20  and  C13_21 
REMARK   11  A    between atoms: C13_21  and  N4_22 
REMARK   12  A    between atoms: C13_21  and  C14_26 
ROOT
HETATM    1  C7  UNL     1      -0.514  -1.671   0.128  1.00  0.00     0.102 C 
HETATM    2  C17 UNL     1      -0.500  -2.462   1.458  1.00  0.00     0.059 C 
HETATM    3  C18 UNL     1      -1.422  -3.632   1.268  1.00  0.00     0.117 C 
HETATM    4  N6  UNL     1      -0.908  -4.489   0.254  1.00  0.00    -0.417 N 
ATOM      5  H6  UNL     1      -0.758  -5.483   0.428  1.00  0.00     0.153 HD
HETATM    6  C19 UNL     1      -0.613  -3.911  -1.006  1.00  0.00     0.075 C 
HETATM    7  C20 UNL     1      -1.710  -3.933  -2.025  1.00  0.00     0.032 C 
HETATM    8  C21 UNL     1       0.087  -2.566  -0.890  1.00  0.00     0.064 C 
ENDROOT
BRANCH   1   9
HETATM    9  N2  UNL     1      -1.907  -1.359  -0.132  1.00  0.00    -0.326 N 
HETATM   10  C6  UNL     1      -2.887  -0.829   0.701  1.00  0.00     0.317 C 
HETATM   11  N1  UNL     1      -4.192  -0.565   0.156  1.00  0.00    -0.343 N 
HETATM   12  O1  UNL     1      -2.747  -0.550   1.897  1.00  0.00    -0.247 OA
ATOM     13  H1  UNL     1      -4.350  -0.791  -0.826  1.00  0.00     0.164 HD
ATOM     14  H2  UNL     1      -2.219  -1.562  -1.082  1.00  0.00     0.165 HD
BRANCH  11  15
HETATM   15  C5  UNL     1      -5.285  -0.007   0.896  1.00  0.00     0.124 C 
BRANCH  15  16
HETATM   16  C4  UNL     1      -4.967   1.345   1.428  1.00  0.00     0.020 C 
BRANCH  16  17
HETATM   17  C3  UNL     1      -4.614   2.292   0.305  1.00  0.00     0.001 C 
BRANCH  17  18
HETATM   18  C2  UNL     1      -5.715   2.477  -0.695  1.00  0.00    -0.004 C 
HETATM   19  C1  UNL     1      -6.964   3.041  -0.040  1.00  0.00     0.005 C 
ENDBRANCH  17  18
ENDBRANCH  16  17
ENDBRANCH  15  16
ENDBRANCH  11  15
ENDBRANCH   1   9
BRANCH   1  20
HETATM   20  C8  UNL     1       0.257  -0.450   0.395  1.00  0.00     0.142 C 
BRANCH  20  21
HETATM   21  O2  UNL     1      -0.474   0.477   0.976  1.00  0.00    -0.348 OA
ATOM     22  H2  UNL     1       0.025   1.267   1.149  1.00  0.00     0.219 HD
ENDBRANCH  20  21
BRANCH  20  23
HETATM   23  N3  UNL     1       1.559  -0.045   0.179  1.00  0.00    -0.363 N 
HETATM   24  C9  UNL     1       1.913   1.310   0.665  1.00  0.00     0.129 C 
HETATM   25  C10 UNL     1       3.254   1.366   1.338  1.00  0.00     0.053 C 
HETATM   26  C11 UNL     1       4.265   0.590   0.599  1.00  0.00    -0.078 C 
HETATM   27  C15 UNL     1       3.777   0.190  -0.758  1.00  0.00     0.053 C 
HETATM   28  C16 UNL     1       2.580  -0.790  -0.508  1.00  0.00     0.129 C 
BRANCH  26  29
HETATM   29  C12 UNL     1       5.666   0.989   0.633  1.00  0.00     0.017 C 
BRANCH  29  30
HETATM   30  C13 UNL     1       6.156   2.302   0.216  1.00  0.00     0.295 C 
BRANCH  30  31
HETATM   31  N4  UNL     1       7.647   2.215   0.431  1.00  0.00    -0.064 N 
ATOM     32  H43 UNL     1       7.921   1.945   1.376  1.00  0.00     0.275 HD
ATOM     33  H42 UNL     1       8.095   1.430  -0.041  1.00  0.00     0.275 HD
ATOM     34  H41 UNL     1       7.989   3.131   0.140  1.00  0.00     0.275 HD
ENDBRANCH  30  31
BRANCH  30  35
HETATM   35  C14 UNL     1       6.026   2.633  -1.199  1.00  0.00     0.265 C 
HETATM   36  N5  UNL     1       4.928   3.381  -1.737  1.00  0.00    -0.060 NA
HETATM   37  O3  UNL     1       6.899   2.267  -2.018  1.00  0.00    -0.274 OA
ENDBRANCH  30  35
ENDBRANCH  29  30
ENDBRANCH  26  29
ENDBRANCH  20  23
ENDBRANCH   1  20
TORSDOF 12
