REMARK  9 active torsions:
REMARK  status: ('A' for Active; 'I' for Inactive)
REMARK       I    between atoms: C1_4  and  N3_6 
REMARK    1  A    between atoms: N3_6  and  C2_8 
REMARK    2  A    between atoms: C2_8  and  C3_9 
REMARK    3  A    between atoms: C3_9  and  C4_10 
REMARK    4  A    between atoms: C4_10  and  C5_11 
REMARK    5  A    between atoms: C5_11  and  N4_12 
REMARK    6  A    between atoms: C5_11  and  C10_22 
REMARK       I    between atoms: N4_12  and  C6_14 
REMARK    7  A    between atoms: C6_14  and  C7_16 
REMARK       I    between atoms: C10_22  and  N6_24 
REMARK    8  A    between atoms: C13_27  and  C14_28 
REMARK    9  A    between atoms: C14_28  and  C15_29 
ROOT
HETATM    1  C5  UNL     1      -2.317   0.117  -0.430  1.00  0.00     0.176 C 
ENDROOT
BRANCH   1   2
HETATM    2  C4  UNL     1      -2.563   1.565  -0.361  1.00  0.00     0.036 C 
BRANCH   2   3
HETATM    3  C3  UNL     1      -3.462   2.180  -1.367  1.00  0.00     0.022 C 
BRANCH   3   4
HETATM    4  C2  UNL     1      -4.878   1.745  -1.307  1.00  0.00     0.122 C 
BRANCH   4   5
HETATM    5  N3  UNL     1      -5.427   2.087  -0.001  1.00  0.00    -0.365 N 
HETATM    6  C1  UNL     1      -5.646   3.412   0.415  1.00  0.00     0.181 C 
HETATM    7  N1  UNL     1      -5.691   4.432  -0.358  1.00  0.00    -0.374 N 
HETATM    8  N2  UNL     1      -5.838   3.659   1.816  1.00  0.00    -0.064 NA
ATOM      9  H12 UNL     1      -5.850   5.393  -0.056  1.00  0.00     0.158 HD
ATOM     10  H11 UNL     1      -5.555   4.256  -1.353  1.00  0.00     0.158 HD
ATOM     11  H3  UNL     1      -5.663   1.330   0.641  1.00  0.00     0.162 HD
ENDBRANCH   4   5
ENDBRANCH   3   4
ENDBRANCH   2   3
ENDBRANCH   1   2
BRANCH   1  12
HETATM   12  N4  UNL     1      -3.452  -0.743  -0.268  1.00  0.00    -0.346 N 
HETATM   13  C6  UNL     1      -3.701  -1.875  -1.085  1.00  0.00     0.249 C 
HETATM   14  O1  UNL     1      -2.900  -2.151  -1.998  1.00  0.00    -0.271 OA
ATOM     15  H4  UNL     1      -4.117  -0.529   0.475  1.00  0.00     0.163 HD
BRANCH  13  16
HETATM   16  C7  UNL     1      -4.887  -2.703  -0.851  1.00  0.00     0.278 C 
HETATM   17  C8  UNL     1      -4.758  -3.704   0.279  1.00  0.00     0.070 C 
HETATM   18  C9  UNL     1      -5.211  -4.730  -0.736  1.00  0.00     0.236 C 
HETATM   19  N5  UNL     1      -4.939  -3.807  -1.798  1.00  0.00    -0.062 N 
ATOM     20  H52 UNL     1      -5.570  -3.757  -2.598  1.00  0.00     0.278 HD
ATOM     21  H51 UNL     1      -4.150  -3.974  -2.423  1.00  0.00     0.278 HD
ENDBRANCH  13  16
ENDBRANCH   1  12
BRANCH   1  22
HETATM   22  C10 UNL     1      -1.312  -0.328   0.605  1.00  0.00     0.242 C 
HETATM   23  O2  UNL     1      -1.759  -1.040   1.545  1.00  0.00    -0.271 OA
HETATM   24  N6  UNL     1       0.054   0.002   0.572  1.00  0.00    -0.350 N 
HETATM   25  C11 UNL     1       0.598   0.749  -0.529  1.00  0.00     0.126 C 
HETATM   26  C22 UNL     1       0.880  -0.417   1.673  1.00  0.00     0.126 C 
HETATM   27  C12 UNL     1       1.931   0.128  -0.927  1.00  0.00     0.024 C 
HETATM   28  C13 UNL     1       2.879   0.152   0.253  1.00  0.00    -0.011 C 
HETATM   29  C21 UNL     1       2.305  -0.695   1.339  1.00  0.00     0.024 C 
BRANCH  28  30
HETATM   30  C14 UNL     1       4.177  -0.424  -0.230  1.00  0.00     0.009 C 
BRANCH  30  31
HETATM   31  C15 UNL     1       5.277  -0.508   0.751  1.00  0.00    -0.014 C 
HETATM   32  C16 UNL     1       5.720   0.788   1.341  1.00  0.00     0.005 C 
HETATM   33  C17 UNL     1       7.193   0.657   1.682  1.00  0.00     0.000 C 
HETATM   34  C18 UNL     1       7.948   0.829   0.367  1.00  0.00     0.000 C 
HETATM   35  C19 UNL     1       7.218   0.019  -0.671  1.00  0.00     0.000 C 
HETATM   36  C20 UNL     1       6.488  -1.113   0.027  1.00  0.00     0.005 C 
ENDBRANCH  30  31
ENDBRANCH  28  30
ENDBRANCH   1  22
TORSDOF 9
