REMARK  6 active torsions:
REMARK  status: ('A' for Active; 'I' for Inactive)
REMARK    1  A    between atoms: C1_2  and  C2_3 
REMARK       I    between atoms: C1_2  and  N1_11 
REMARK    2  A    between atoms: C2_3  and  C3_4 
REMARK    3  A    between atoms: N1_11  and  C10_13 
REMARK    4  A    between atoms: C10_13  and  C11_14 
REMARK    5  A    between atoms: C11_14  and  C12_15 
REMARK    6  A    between atoms: C13_18  and  C14_19 
ROOT
HETATM    1  O1  UNL     1      -1.122   2.033   0.968  1.00  0.00    -0.274 OA
HETATM    2  C1  UNL     1      -0.752   1.770  -0.190  1.00  0.00     0.217 C 
HETATM    3  N1  UNL     1       0.466   2.276  -0.684  1.00  0.00    -0.361 N 
ATOM      4  H1  UNL     1       0.752   2.052  -1.637  1.00  0.00     0.162 HD
ENDROOT
BRANCH   3   5
HETATM    5  C10 UNL     1       1.310   3.100   0.130  1.00  0.00     0.130 C 
BRANCH   5   6
HETATM    6  C11 UNL     1       1.780   2.374   1.343  1.00  0.00     0.106 C 
BRANCH   6   7
HETATM    7  C12 UNL     1       2.541   1.169   0.855  1.00  0.00     0.149 A 
HETATM    8  N2  UNL     1       3.847   1.102   0.588  1.00  0.00    -0.326 N 
HETATM    9  C13 UNL     1       4.164  -0.136   0.175  1.00  0.00     0.108 A 
ATOM     10  H2  UNL     1       4.506   1.875   0.683  1.00  0.00     0.169 HD
HETATM   11  N3  UNL     1       2.998  -0.809   0.204  1.00  0.00    -0.247 N 
HETATM   12  O2  UNL     1       2.046  -0.023   0.609  1.00  0.00    -0.223 OA
ATOM     13  H3  UNL     1       2.880  -1.789  -0.053  1.00  0.00     0.196 HD
BRANCH   9  14
HETATM   14  C14 UNL     1       5.501  -0.648  -0.225  1.00  0.00     0.055 A 
HETATM   15  C15 UNL     1       5.616  -1.811  -1.118  1.00  0.00     0.013 A 
HETATM   16  C16 UNL     1       5.830  -1.998   0.339  1.00  0.00     0.013 A 
ENDBRANCH   9  14
ENDBRANCH   6   7
ENDBRANCH   5   6
ENDBRANCH   3   5
BRANCH   2  17
HETATM   17  C2  UNL     1      -1.592   0.919  -1.058  1.00  0.00     0.107 C 
BRANCH  17  18
HETATM   18  C3  UNL     1      -2.860   0.476  -0.338  1.00  0.00    -0.005 C 
HETATM   19  C4  UNL     1      -2.560  -0.312   0.894  1.00  0.00     0.009 C 
HETATM   20  C5  UNL     1      -3.425  -1.520   1.066  1.00  0.00    -0.013 C 
HETATM   21  C6  UNL     1      -3.470  -2.388  -0.167  1.00  0.00     0.009 C 
HETATM   22  C9  UNL     1      -4.858  -1.091   0.719  1.00  0.00     0.009 C 
HETATM   23  C7  UNL     1      -4.469  -1.401  -0.733  1.00  0.00    -0.013 C 
HETATM   24  C8  UNL     1      -3.811  -0.174  -1.283  1.00  0.00     0.009 C 
ENDBRANCH  17  18
ENDBRANCH   2  17
TORSDOF 6
