REMARK  6 active torsions:
REMARK  status: ('A' for Active; 'I' for Inactive)
REMARK    1  A    between atoms: C2_2  and  O1_4 
REMARK    2  A    between atoms: O1_4  and  C4_5 
REMARK    3  A    between atoms: C4_5  and  C5_6 
REMARK    4  A    between atoms: C4_5  and  C7_10 
REMARK    5  A    between atoms: C5_6  and  C6_7 
REMARK       I    between atoms: C7_10  and  N1_12 
REMARK    6  A    between atoms: N1_12  and  C9_14 
ROOT
HETATM    1  C7  UNL     1       0.858  -0.351   0.224  1.00  0.00     0.249 C 
HETATM    2  O4  UNL     1       0.874  -1.638   0.105  1.00  0.00    -0.270 OA
HETATM    3  N1  UNL     1      -0.379   0.242  -0.013  1.00  0.00    -0.350 N 
HETATM    4  C8  UNL     1      -0.537   1.671   0.022  1.00  0.00     0.153 C 
ENDROOT
BRANCH   1   5
HETATM    5  C4  UNL     1       2.129   0.276   0.581  1.00  0.00     0.223 C 
BRANCH   5   6
HETATM    6  O1  UNL     1       3.130  -0.714   0.335  1.00  0.00    -0.371 OA
BRANCH   6   7
HETATM    7  C2  UNL     1       4.048  -0.307  -0.587  1.00  0.00     0.114 C 
HETATM    8  C1  UNL     1       5.454  -0.190  -0.043  1.00  0.00     0.039 C 
HETATM    9  C3  UNL     1       4.066  -1.145  -1.846  1.00  0.00     0.039 C 
ENDBRANCH   6   7
ENDBRANCH   5   6
BRANCH   5  10
HETATM   10  C5  UNL     1       2.332   0.582   2.039  1.00  0.00     0.154 C 
BRANCH  10  11
HETATM   11  C6  UNL     1       1.491   1.549   2.683  1.00  0.00     0.175 C 
HETATM   12  O2  UNL     1       0.492   1.152   3.380  1.00  0.00    -0.648 OA
HETATM   13  O3  UNL     1       1.666   2.928   2.620  1.00  0.00    -0.648 OA
ENDBRANCH  10  11
ENDBRANCH   5  10
ENDBRANCH   1   5
BRANCH   3  14
HETATM   14  C9  UNL     1      -1.542  -0.563  -0.301  1.00  0.00     0.086 C 
HETATM   15  C10 UNL     1      -2.581  -0.459   0.810  1.00  0.00     0.025 C 
HETATM   16  C11 UNL     1      -3.611  -1.511   0.567  1.00  0.00     0.002 C 
HETATM   17  C12 UNL     1      -4.845  -0.868  -0.007  1.00  0.00     0.000 C 
HETATM   18  C13 UNL     1      -4.636  -0.470  -1.449  1.00  0.00     0.000 C 
HETATM   19  C14 UNL     1      -3.434   0.453  -1.612  1.00  0.00     0.002 C 
HETATM   20  C15 UNL     1      -2.141  -0.300  -1.652  1.00  0.00     0.025 C 
ENDBRANCH   3  14
TORSDOF 6
