REMARK  9 active torsions:
REMARK  status: ('A' for Active; 'I' for Inactive)
REMARK    1  A    between atoms: N7_18  and  C7_19 
REMARK    2  A    between atoms: C7_19  and  C8_20 
REMARK    3  A    between atoms: C8_20  and  O1_21 
REMARK    4  A    between atoms: C8_20  and  C9_23 
REMARK    5  A    between atoms: C9_23  and  C10_24 
REMARK    6  A    between atoms: C9_23  and  N8_27 
REMARK    7  A    between atoms: C10_24  and  O2_25 
REMARK    8  A    between atoms: C12_31  and  C13_32 
REMARK       I    between atoms: C13_32  and  N10_34 
REMARK       I    between atoms: N10_34  and  C14_36 
REMARK    9  A    between atoms: C15_43  and  N14_44 
ROOT
HETATM    1  N1  UNL     1      -4.593  -3.379   4.315  1.00  0.00    -0.190 NA
HETATM    2  C1  UNL     1      -4.300  -2.743   3.369  1.00  0.00     0.121 C 
HETATM    3  C2  UNL     1      -3.938  -1.947   2.230  1.00  0.00     0.158 A 
HETATM    4  N2  UNL     1      -4.467  -2.211   1.041  1.00  0.00    -0.339 N 
ATOM      5  H2  UNL     1      -5.130  -2.979   0.938  1.00  0.00     0.167 HD
HETATM    6  C3  UNL     1      -4.130  -1.466  -0.029  1.00  0.00     0.120 A 
HETATM    7  C4  UNL     1      -4.706  -1.780  -1.236  1.00  0.00     0.162 A 
HETATM    8  N3  UNL     1      -5.632  -2.853  -1.377  1.00  0.00    -0.080 NA
HETATM    9  N4  UNL     1      -4.365  -1.026  -2.321  1.00  0.00    -0.177 N 
ATOM     10  H4  UNL     1      -4.775  -1.233  -3.232  1.00  0.00     0.185 HD
HETATM   11  C5  UNL     1      -3.493  -0.013  -2.195  1.00  0.00     0.678 A 
HETATM   12  N5  UNL     1      -3.181   0.689  -3.225  1.00  0.00    -0.234 N 
ATOM     13  H51 UNL     1      -2.518   1.459  -3.129  1.00  0.00     0.174 HD
ATOM     14  H52 UNL     1      -3.601   0.468  -4.128  1.00  0.00     0.174 HD
HETATM   15  N6  UNL     1      -2.932   0.282  -0.988  1.00  0.00    -0.174 N 
ATOM     16  H6  UNL     1      -2.272   1.056  -0.919  1.00  0.00     0.186 HD
HETATM   17  C6  UNL     1      -3.233  -0.429   0.114  1.00  0.00     0.155 A 
HETATM   18  N7  UNL     1      -2.674  -0.137   1.328  1.00  0.00    -0.312 N 
HETATM   19  C15 UNL     1      -3.020  -0.878   2.355  1.00  0.00     0.141 A 
ENDROOT
BRANCH  19  20
HETATM   20  N14 UNL     1      -2.584  -0.686   3.525  1.00  0.00    -0.383 N 
ATOM     21 2H14 UNL     1      -2.853  -1.262   4.323  1.00  0.00     0.157 HD
ATOM     22 1H14 UNL     1      -1.922   0.085   3.615  1.00  0.00     0.157 HD
ENDBRANCH  19  20
BRANCH  18  23
HETATM   23  C7  UNL     1      -1.762   0.950   1.405  1.00  0.00     0.166 C 
BRANCH  23  24
HETATM   24  C8  UNL     1      -0.342   0.614   1.081  1.00  0.00     0.163 C 
BRANCH  24  25
HETATM   25  O1  UNL     1       0.173  -0.360   1.928  1.00  0.00    -0.392 OA
ATOM     26  H1  UNL     1       1.075  -0.574   1.722  1.00  0.00     0.210 HD
ENDBRANCH  24  25
BRANCH  24  27
HETATM   27  C9  UNL     1       0.560   1.822   1.194  1.00  0.00     0.162 C 
BRANCH  27  28
HETATM   28  C10 UNL     1       0.169   2.939   0.265  1.00  0.00     0.194 C 
BRANCH  28  29
HETATM   29  O2  UNL     1       1.073   3.996   0.454  1.00  0.00    -0.399 OA
ATOM     30  H2  UNL     1       0.826   4.701  -0.133  1.00  0.00     0.209 HD
ENDBRANCH  28  29
ENDBRANCH  27  28
BRANCH  27  31
HETATM   31  N8  UNL     1       1.945   1.478   0.938  1.00  0.00    -0.277 N 
HETATM   32  C11 UNL     1       3.030   1.793   1.674  1.00  0.00     0.202 A 
HETATM   33  N9  UNL     1       4.109   1.280   1.081  1.00  0.00    -0.332 N 
HETATM   34  C12 UNL     1       3.718   0.638  -0.031  1.00  0.00     0.190 A 
ATOM     35  H9  UNL     1       5.069   1.362   1.416  1.00  0.00     0.168 HD
HETATM   36  N13 UNL     1       2.396   0.766  -0.107  1.00  0.00    -0.277 N 
ATOM     37  H13 UNL     1       1.812   0.380  -0.849  1.00  0.00     0.189 HD
BRANCH  34  38
HETATM   38  C13 UNL     1       4.618  -0.060  -0.958  1.00  0.00     0.293 C 
HETATM   39  O3  UNL     1       4.135  -0.629  -1.970  1.00  0.00    -0.264 OA
HETATM   40  N10 UNL     1       6.017  -0.109  -0.740  1.00  0.00    -0.295 N 
HETATM   41  C14 UNL     1       6.859  -0.789  -1.652  1.00  0.00     0.188 C 
ATOM     42  H10 UNL     1       6.419   0.348   0.078  1.00  0.00     0.171 HD
HETATM   43  N11 UNL     1       8.136  -0.867  -1.505  1.00  0.00    -0.373 N 
HETATM   44  N12 UNL     1       6.320  -1.445  -2.816  1.00  0.00    -0.064 NA
ATOM     45 2H11 UNL     1       8.518  -0.403  -0.681  1.00  0.00     0.158 HD
ATOM     46 1H11 UNL     1       8.743  -1.357  -2.162  1.00  0.00     0.158 HD
ENDBRANCH  34  38
ENDBRANCH  27  31
ENDBRANCH  24  27
ENDBRANCH  23  24
ENDBRANCH  18  23
TORSDOF 9
