REMARK  12 active torsions:
REMARK  status: ('A' for Active; 'I' for Inactive)
REMARK    1  A    between atoms: N3_7  and  N4_8 
REMARK    2  A    between atoms: C5_16  and  N7_17 
REMARK    3  A    between atoms: N8_19  and  N9_21 
REMARK    4  A    between atoms: C7_26  and  O1_27 
REMARK    5  A    between atoms: C8_29  and  C9_30 
REMARK    6  A    between atoms: C9_30  and  C10_31 
REMARK    7  A    between atoms: C10_31  and  O2_32 
REMARK    8  A    between atoms: N11_34  and  C11_35 
REMARK    9  A    between atoms: C11_35  and  C12_36 
REMARK   10  A    between atoms: C12_36  and  O3_37 
REMARK   11  A    between atoms: C12_36  and  O4_39 
REMARK   12  A    between atoms: O4_39  and  N12_40 
ROOT
HETATM    1  N7  UNL     1       0.453  -0.755   1.556  1.00  0.00    -0.266 N 
ATOM      2  H7  UNL     1      -0.005  -0.858   2.461  1.00  0.00     0.190 HD
HETATM    3  N8  UNL     1      -0.242  -0.728   0.495  1.00  0.00    -0.227 N 
ATOM      4  H8  UNL     1       0.212  -0.625  -0.413  1.00  0.00     0.209 HD
ENDROOT
BRANCH   3   5
HETATM    5  N9  UNL     1      -1.641  -0.841   0.577  1.00  0.00    -0.117 N 
HETATM    6  C6  UNL     1      -2.417   0.079   0.104  1.00  0.00     0.702 A 
HETATM    7  N10 UNL     1      -1.961   1.209  -0.502  1.00  0.00    -0.167 N 
HETATM    8  N11 UNL     1      -3.741   0.153   0.087  1.00  0.00    -0.176 N 
HETATM    9  C7  UNL     1      -2.996   1.974  -0.888  1.00  0.00     0.179 A 
ATOM     10  H10 UNL     1      -0.978   1.441  -0.643  1.00  0.00     0.186 HD
HETATM   11  C8  UNL     1      -4.126   1.296  -0.511  1.00  0.00     0.082 A 
ATOM     12  H9  UNL     1      -2.052  -1.664   1.018  1.00  0.00     0.207 HD
BRANCH   9  13
HETATM   13  O1  UNL     1      -2.859   3.192  -1.535  1.00  0.00    -0.344 OA
ATOM     14  H1  UNL     1      -3.591   3.733  -1.808  1.00  0.00     0.219 HD
ENDBRANCH   9  13
BRANCH  11  15
HETATM   15  C9  UNL     1      -5.505   1.787  -0.748  1.00  0.00     0.088 C 
BRANCH  15  16
HETATM   16  C10 UNL     1      -5.888   2.898   0.219  1.00  0.00     0.170 C 
BRANCH  16  17
HETATM   17  O2  UNL     1      -7.186   3.285  -0.084  1.00  0.00    -0.400 OA
ATOM     18  H2  UNL     1      -7.425   3.979   0.520  1.00  0.00     0.209 HD
ENDBRANCH  16  17
ENDBRANCH  15  16
ENDBRANCH  11  15
BRANCH   8  19
HETATM   19  C11 UNL     1      -4.640  -0.826   0.622  1.00  0.00     0.210 C 
BRANCH  19  20
HETATM   20  C12 UNL     1      -5.018  -1.877  -0.412  1.00  0.00     0.303 C 
BRANCH  20  21
HETATM   21  O3  UNL     1      -5.892  -2.815   0.133  1.00  0.00    -0.367 OA
ATOM     22  H3  UNL     1      -6.128  -3.471  -0.512  1.00  0.00     0.212 HD
ENDBRANCH  20  21
BRANCH  20  23
HETATM   23  O4  UNL     1      -3.901  -2.548  -0.878  1.00  0.00    -0.253 OA
BRANCH  23  24
HETATM   24  N12 UNL     1      -3.790  -2.347  -2.214  1.00  0.00    -0.308 N 
ATOM     25 2H12 UNL     1      -4.435  -1.788  -2.772  1.00  0.00     0.184 HD
ATOM     26 1H12 UNL     1      -2.967  -2.842  -2.557  1.00  0.00     0.184 HD
ENDBRANCH  23  24
ENDBRANCH  20  23
ENDBRANCH  19  20
ENDBRANCH   8  19
ENDBRANCH   3   5
BRANCH   1  27
HETATM   27  C5  UNL     1       1.873  -0.642   1.487  1.00  0.00     0.191 A 
HETATM   28  N6  UNL     1       2.474  -0.682   0.285  1.00  0.00    -0.331 N 
HETATM   29  C4  UNL     1       3.819  -0.570   0.248  1.00  0.00     0.123 A 
ATOM     30  H6  UNL     1       1.931  -0.793  -0.571  1.00  0.00     0.168 HD
HETATM   31  C3  UNL     1       4.452  -0.612  -0.988  1.00  0.00     0.186 A 
HETATM   32  C14 UNL     1       4.607  -0.418   1.362  1.00  0.00     0.156 A 
HETATM   33  N3  UNL     1       5.787  -0.506  -1.078  1.00  0.00    -0.076 N 
HETATM   34  N5  UNL     1       3.691  -0.768  -2.182  1.00  0.00    -0.077 NA
HETATM   35  C2  UNL     1       6.540  -0.356   0.040  1.00  0.00     0.701 A 
HETATM   36  N1  UNL     1       5.943  -0.311   1.271  1.00  0.00    -0.169 N 
HETATM   37  N2  UNL     1       7.812  -0.270  -0.132  1.00  0.00    -0.233 N 
HETATM   38  C1  UNL     1       6.833  -0.143   2.380  1.00  0.00     0.177 C 
ATOM     39  H22 UNL     1       8.378  -0.157   0.709  1.00  0.00     0.174 HD
ATOM     40  H21 UNL     1       8.257  -0.304  -1.049  1.00  0.00     0.174 HD
HETATM   41  N13 UNL     1       4.010  -0.378   2.562  1.00  0.00    -0.304 N 
HETATM   42  C13 UNL     1       2.651  -0.490   2.612  1.00  0.00     0.292 A 
ATOM     43  H13 UNL     1       4.558  -0.267   3.415  1.00  0.00     0.171 HD
HETATM   44  O5  UNL     1       2.051  -0.457   3.720  1.00  0.00    -0.264 OA
BRANCH  33  45
HETATM   45  N4  UNL     1       6.398  -0.551  -2.334  1.00  0.00    -0.323 N 
ATOM     46  H42 UNL     1       7.413  -0.470  -2.402  1.00  0.00     0.178 HD
ATOM     47  H41 UNL     1       5.832  -0.664  -3.175  1.00  0.00     0.178 HD
ENDBRANCH  33  45
ENDBRANCH   1  27
TORSDOF 12
