REMARK  10 active torsions:
REMARK  status: ('A' for Active; 'I' for Inactive)
REMARK    1  A    between atoms: N1_1  and  C1_5 
REMARK    2  A    between atoms: C1_5  and  O1_6 
REMARK    3  A    between atoms: C1_5  and  C2_8 
REMARK    4  A    between atoms: C3_13  and  N5_14 
REMARK    5  A    between atoms: N5_14  and  C4_16 
REMARK    6  A    between atoms: C6_27  and  S1_28 
REMARK    7  A    between atoms: S1_28  and  C7_29 
REMARK    8  A    between atoms: C7_29  and  C8_30 
REMARK       I    between atoms: C8_30  and  N10_32 
REMARK    9  A    between atoms: N10_32  and  C9_34 
REMARK   10  A    between atoms: C10_39  and  O4_40 
ROOT
HETATM    1  C2  UNL     1      -4.342   2.924   0.264  1.00  0.00     0.126 A 
HETATM    2  N2  UNL     1      -5.617   2.486   0.306  1.00  0.00    -0.279 N 
ATOM      3  H2  UNL     1      -6.433   3.086   0.430  1.00  0.00     0.184 HD
HETATM    4  N3  UNL     1      -5.664   1.172   0.165  1.00  0.00     0.002 NA
HETATM    5  N4  UNL     1      -4.415   0.752   0.031  1.00  0.00    -0.051 N 
HETATM    6  C3  UNL     1      -3.959  -0.504  -0.139  1.00  0.00     0.720 A 
HETATM    7  N9  UNL     1      -2.622  -0.646  -0.248  1.00  0.00    -0.168 N 
ATOM      8  H9  UNL     1      -2.239  -1.582  -0.376  1.00  0.00     0.186 HD
HETATM    9  C6  UNL     1      -1.784   0.383  -0.195  1.00  0.00     0.161 A 
HETATM   10  N13 UNL     1      -2.233   1.631  -0.027  1.00  0.00    -0.319 N 
ATOM     11  H13 UNL     1      -1.593   2.424   0.014  1.00  0.00     0.169 HD
HETATM   12  C13 UNL     1      -3.564   1.799   0.086  1.00  0.00     0.174 A 
ENDROOT
BRANCH   9  13
HETATM   13  S1  UNL     1      -0.041   0.102  -0.349  1.00  0.00    -0.084 SA
BRANCH  13  14
HETATM   14  C7  UNL     1       0.701  -0.182   1.272  1.00  0.00     0.185 C 
BRANCH  14  15
HETATM   15  C8  UNL     1       2.179  -0.415   1.086  1.00  0.00     0.232 C 
HETATM   16  O3  UNL     1       2.828  -0.631   2.168  1.00  0.00    -0.272 OA
HETATM   17  N10 UNL     1       2.725  -0.385  -0.180  1.00  0.00    -0.315 N 
ATOM     18  H10 UNL     1       2.082  -0.201  -0.950  1.00  0.00     0.170 HD
BRANCH  17  19
HETATM   19  C9  UNL     1       4.081  -0.582  -0.522  1.00  0.00     0.098 C 
HETATM   20  N11 UNL     1       4.446  -0.518  -1.802  1.00  0.00    -0.291 N 
HETATM   21  N12 UNL     1       5.802  -0.722  -2.072  1.00  0.00    -0.306 N 
ATOM     22  H11 UNL     1       3.772  -0.330  -2.544  1.00  0.00     0.188 HD
HETATM   23  C10 UNL     1       6.734   0.114  -1.310  1.00  0.00     0.233 C 
ATOM     24  H12 UNL     1       6.122  -1.408  -2.755  1.00  0.00     0.183 HD
HETATM   25  C11 UNL     1       6.359   0.109   0.157  1.00  0.00     0.062 C 
HETATM   26  C12 UNL     1       5.190  -0.861   0.390  1.00  0.00     0.082 C 
BRANCH  23  27
HETATM   27  O4  UNL     1       8.046  -0.319  -1.482  1.00  0.00    -0.376 OA
ATOM     28  H4  UNL     1       8.650   0.223  -0.988  1.00  0.00     0.212 HD
ENDBRANCH  23  27
ENDBRANCH  17  19
ENDBRANCH  14  15
ENDBRANCH  13  14
ENDBRANCH   9  13
BRANCH   6  29
HETATM   29  N5  UNL     1      -4.754  -1.514  -0.193  1.00  0.00    -0.019 N 
ATOM     30  H5  UNL     1      -5.762  -1.381  -0.107  1.00  0.00     0.203 HD
BRANCH  29  31
HETATM   31  C4  UNL     1      -4.217  -2.810  -0.373  1.00  0.00     0.715 A 
HETATM   32  N6  UNL     1      -4.168  -3.563  -1.487  1.00  0.00    -0.138 N 
HETATM   33  C5  UNL     1      -3.566  -4.728  -1.197  1.00  0.00     0.353 A 
ATOM     34  H6  UNL     1      -4.529  -3.293  -2.402  1.00  0.00     0.189 HD
HETATM   35  O2  UNL     1      -3.348  -5.676  -1.999  1.00  0.00    -0.245 OA
HETATM   36  N7  UNL     1      -3.242  -4.697   0.096  1.00  0.00    -0.237 N 
HETATM   37  N8  UNL     1      -3.629  -3.548   0.603  1.00  0.00    -0.127 N 
ATOM     38  H7  UNL     1      -2.771  -5.443   0.608  1.00  0.00     0.192 HD
ATOM     39  H8  UNL     1      -3.507  -3.258   1.573  1.00  0.00     0.205 HD
ENDBRANCH  29  31
ENDBRANCH   6  29
BRANCH   1  40
HETATM   40  C1  UNL     1      -3.907   4.348   0.389  1.00  0.00     0.372 C 
BRANCH  40  41
HETATM   41  N1  UNL     1      -4.642   4.940   1.491  1.00  0.00    -0.047 N 
ATOM     42  H13 UNL     1      -4.385   4.505   2.377  1.00  0.00     0.277 HD
ATOM     43  H12 UNL     1      -4.322   5.891   1.675  1.00  0.00     0.277 HD
ATOM     44  H11 UNL     1      -5.652   4.915   1.351  1.00  0.00     0.277 HD
ENDBRANCH  40  41
BRANCH  40  45
HETATM   45  O1  UNL     1      -2.546   4.382   0.578  1.00  0.00    -0.365 OA
ATOM     46  H1  UNL     1      -2.065   3.994  -0.144  1.00  0.00     0.212 HD
ENDBRANCH  40  45
ENDBRANCH   1  40
TORSDOF 10
