REMARK  5 active torsions:
REMARK  status: ('A' for Active; 'I' for Inactive)
REMARK    1  A    between atoms: O1_2  and  C2_3 
REMARK    2  A    between atoms: C7_8  and  O2_9 
REMARK    3  A    between atoms: C8_11  and  O3_12 
REMARK    4  A    between atoms: C10_15  and  O4_16 
REMARK    5  A    between atoms: C11_18  and  O5_19 
ROOT
HETATM    1  C2  UNL     1       2.387  -1.099  -0.460  1.00  0.00     0.105 A 
HETATM    2  C3  UNL     1       1.067  -0.751  -0.243  1.00  0.00     0.053 A 
HETATM    3  C4  UNL     1       0.789   0.560   0.078  1.00  0.00    -0.005 A 
HETATM    4  C5  UNL     1      -0.523   0.932   0.299  1.00  0.00     0.031 A 
HETATM    5  C6  UNL     1      -0.798   2.250   0.634  1.00  0.00     0.122 A 
HETATM    6  C7  UNL     1       0.213   3.189   0.731  1.00  0.00     0.135 A 
HETATM    7  C8  UNL     1       1.520   2.815   0.504  1.00  0.00     0.115 A 
HETATM    8  C9  UNL     1       1.819   1.509   0.181  1.00  0.00     0.047 A 
HETATM    9  C10 UNL     1       3.131   1.149  -0.038  1.00  0.00     0.116 A 
HETATM   10  C11 UNL     1       3.394  -0.164  -0.358  1.00  0.00     0.135 A 
HETATM   11  O6  UNL     1      -2.186   2.397   0.869  1.00  0.00    -0.308 OA
HETATM   12  C13 UNL     1      -2.787   1.148   0.718  1.00  0.00     0.092 C 
HETATM   13  C14 UNL     1      -3.855   0.359   0.925  1.00  0.00     0.046 C 
HETATM   14  C15 UNL     1      -3.533  -0.974   0.369  1.00  0.00     0.076 C 
HETATM   15  C16 UNL     1      -4.181  -1.354  -0.879  1.00  0.00     0.050 C 
HETATM   16  C17 UNL     1      -3.932  -2.001   1.442  1.00  0.00     0.050 C 
HETATM   17  O7  UNL     1      -2.106  -0.953   0.329  1.00  0.00    -0.354 OA
HETATM   18  C18 UNL     1      -1.812   0.309  -0.005  1.00  0.00     0.138 C 
HETATM   19  C19 UNL     1      -2.105   0.550  -1.526  1.00  0.00     0.059 C 
ENDROOT
BRANCH   1  20
HETATM   20  O1  UNL     1       2.706  -2.406  -0.785  1.00  0.00    -0.353 OA
HETATM   21  C1  UNL     1       1.719  -3.409  -0.905  1.00  0.00     0.210 C 
ENDBRANCH   1  20
BRANCH  10  22
HETATM   22  O5  UNL     1       4.738  -0.505  -0.576  1.00  0.00    -0.351 OA
HETATM   23  C12 UNL     1       5.502  -0.937   0.532  1.00  0.00     0.210 C 
ENDBRANCH  10  22
BRANCH   9  24
HETATM   24  O4  UNL     1       4.171   2.090   0.062  1.00  0.00    -0.357 OA
ATOM     25  H4  UNL     1       5.075   1.842  -0.089  1.00  0.00     0.217 HD
ENDBRANCH   9  24
BRANCH   7  26
HETATM   26  O3  UNL     1       2.574   3.731   0.590  1.00  0.00    -0.357 OA
ATOM     27  H3  UNL     1       3.475   3.473   0.434  1.00  0.00     0.217 HD
ENDBRANCH   7  26
BRANCH   6  28
HETATM   28  O2  UNL     1      -0.026   4.516   1.052  1.00  0.00    -0.356 OA
ATOM     29  H2  UNL     1       0.668   5.161   1.119  1.00  0.00     0.218 HD
ENDBRANCH   6  28
TORSDOF 5
