REMARK  7 active torsions:
REMARK  status: ('A' for Active; 'I' for Inactive)
REMARK    1  A    between atoms: O1_2  and  C2_3 
REMARK    2  A    between atoms: C2_3  and  C3_4 
REMARK    3  A    between atoms: C3_4  and  O2_5 
REMARK    4  A    between atoms: O2_5  and  C4_6 
REMARK    5  A    between atoms: C4_6  and  C5_7 
REMARK    6  A    between atoms: N1_8  and  C6_10 
REMARK    7  A    between atoms: C9_15  and  N3_16 
ROOT
HETATM    1  C6  UNL     1       2.376  -0.057   0.071  1.00  0.00     0.121 A 
HETATM    2  C7  UNL     1       2.189  -1.389   0.327  1.00  0.00     0.066 A 
HETATM    3  C8  UNL     1       3.264  -2.178   0.719  1.00  0.00     0.110 A 
HETATM    4  N2  UNL     1       4.475  -1.633   0.843  1.00  0.00    -0.202 N 
ATOM      5  H2  UNL     1       5.255  -2.224   1.131  1.00  0.00     0.183 HD
HETATM    6  C9  UNL     1       4.701  -0.333   0.601  1.00  0.00     0.677 A 
HETATM    7  N4  UNL     1       3.665   0.407   0.229  1.00  0.00    -0.177 N 
ATOM      8  H4  UNL     1       3.835   1.396   0.046  1.00  0.00     0.185 HD
ENDROOT
BRANCH   1   9
HETATM    9  N1  UNL     1       1.518   0.707  -0.271  1.00  0.00    -0.353 N 
HETATM   10  C5  UNL     1       0.227   0.959  -0.587  1.00  0.00     0.088 C 
ATOM     11  H1  UNL     1       1.992   1.604  -0.374  1.00  0.00     0.166 HD
BRANCH  10  12
HETATM   12  C4  UNL     1      -0.698  -0.214  -0.542  1.00  0.00     0.212 C 
BRANCH  12  13
HETATM   13  O2  UNL     1      -1.974   0.150  -0.893  1.00  0.00    -0.384 OA
BRANCH  13  14
HETATM   14  C3  UNL     1      -2.584   1.080  -0.114  1.00  0.00     0.194 C 
BRANCH  14  15
HETATM   15  C2  UNL     1      -4.009   1.276  -0.652  1.00  0.00     0.193 C 
BRANCH  15  16
HETATM   16  O1  UNL     1      -4.724   0.091  -0.608  1.00  0.00    -0.394 OA
HETATM   17  C1  UNL     1      -4.849  -0.423   0.662  1.00  0.00     0.201 C 
ENDBRANCH  15  16
ENDBRANCH  14  15
ENDBRANCH  13  14
ENDBRANCH  12  13
ENDBRANCH  10  12
ENDBRANCH   1   9
BRANCH   6  18
HETATM   18  N3  UNL     1       5.892   0.149   0.735  1.00  0.00    -0.234 N 
ATOM     19  H32 UNL     1       6.689  -0.420   1.021  1.00  0.00     0.174 HD
ATOM     20  H31 UNL     1       6.064   1.137   0.551  1.00  0.00     0.174 HD
ENDBRANCH   6  18
TORSDOF 7
