REMARK  9 active torsions:
REMARK  status: ('A' for Active; 'I' for Inactive)
REMARK    1  A    between atoms: N1_2  and  C2_3 
REMARK    2  A    between atoms: N1_2  and  C4_9 
REMARK    3  A    between atoms: C2_3  and  C3_4 
REMARK    4  A    between atoms: C3_4  and  N2_5 
REMARK    5  A    between atoms: C4_9  and  C5_10 
REMARK    6  A    between atoms: C5_10  and  C6_11 
REMARK    7  A    between atoms: C6_11  and  N3_12 
REMARK    8  A    between atoms: N3_12  and  C7_14 
REMARK    9  A    between atoms: C10_19  and  N5_20 
ROOT
HETATM    1  N3  UNL     1       1.316  -0.263  -0.848  1.00  0.00    -0.376 N 
ATOM      2  H3  UNL     1       0.793   0.559  -1.150  1.00  0.00     0.161 HD
ENDROOT
BRANCH   1   3
HETATM    3  C6  UNL     1       0.718  -1.559  -1.001  1.00  0.00     0.123 C 
BRANCH   3   4
HETATM    4  C5  UNL     1      -0.296  -1.691   0.152  1.00  0.00     0.050 C 
BRANCH   4   5
HETATM    5  C4  UNL     1      -1.264  -0.539  -0.087  1.00  0.00     0.273 C 
BRANCH   5   6
HETATM    6  N1  UNL     1      -2.314  -0.447   0.869  1.00  0.00     0.085 N 
HETATM    7  C1  UNL     1      -3.260  -1.537   0.794  1.00  0.00     0.309 C 
BRANCH   6   8
HETATM    8  C2  UNL     1      -2.959   0.843   0.703  1.00  0.00     0.299 C 
BRANCH   8   9
HETATM    9  C3  UNL     1      -3.484   1.027  -0.705  1.00  0.00     0.259 C 
BRANCH   9  10
HETATM   10  N2  UNL     1      -4.112   2.325  -0.802  1.00  0.00    -0.078 N 
ATOM     11  H23 UNL     1      -4.835   2.462  -0.096  1.00  0.00     0.274 HD
ATOM     12  H22 UNL     1      -3.490   3.081  -0.516  1.00  0.00     0.274 HD
ATOM     13  H21 UNL     1      -4.466   2.449  -1.751  1.00  0.00     0.274 HD
ENDBRANCH   9  10
ENDBRANCH   8   9
ENDBRANCH   6   8
ENDBRANCH   5   6
ENDBRANCH   4   5
ENDBRANCH   3   4
ENDBRANCH   1   3
BRANCH   1  14
HETATM   14  C7  UNL     1       2.475  -0.102  -0.349  1.00  0.00     0.118 A 
HETATM   15  C8  UNL     1       3.298  -1.099   0.101  1.00  0.00     0.066 A 
HETATM   16  C9  UNL     1       4.551  -0.781   0.621  1.00  0.00     0.110 A 
HETATM   17  N4  UNL     1       4.895   0.499   0.655  1.00  0.00    -0.202 N 
HETATM   18  C10 UNL     1       4.113   1.504   0.222  1.00  0.00     0.677 A 
ATOM     19  H4  UNL     1       5.812   0.737   1.034  1.00  0.00     0.183 HD
HETATM   20  N6  UNL     1       2.912   1.178  -0.274  1.00  0.00    -0.177 N 
ATOM     21  H6  UNL     1       2.302   1.924  -0.609  1.00  0.00     0.185 HD
BRANCH  18  22
HETATM   22  N5  UNL     1       4.491   2.743   0.274  1.00  0.00    -0.234 N 
ATOM     23  H52 UNL     1       5.405   2.991   0.652  1.00  0.00     0.174 HD
ATOM     24  H51 UNL     1       3.898   3.505  -0.054  1.00  0.00     0.174 HD
ENDBRANCH  18  22
ENDBRANCH   1  14
TORSDOF 9
