REMARK  10 active torsions:
REMARK  status: ('A' for Active; 'I' for Inactive)
REMARK    1  A    between atoms: S1_2  and  C2_3 
REMARK    2  A    between atoms: C2_3  and  N1_4 
REMARK    3  A    between atoms: N4_8  and  C3_9 
REMARK    4  A    between atoms: C4_12  and  N6_13 
REMARK    5  A    between atoms: N6_13  and  N7_15 
REMARK    6  A    between atoms: C5_20  and  N9_21 
REMARK    7  A    between atoms: N9_21  and  N10_22 
REMARK    8  A    between atoms: C6_24  and  C8_26 
REMARK    9  A    between atoms: C11_29  and  C12_30 
REMARK   10  A    between atoms: C15_39  and  N14_40 
ROOT
HETATM    1  C3  UNL     1       2.743  -1.679  -0.213  1.00  0.00     0.735 A 
HETATM    2  N5  UNL     1       2.573  -2.943   0.213  1.00  0.00    -0.018 N 
ATOM      3  H5  UNL     1       3.375  -3.572   0.244  1.00  0.00     0.203 HD
HETATM    4  C4  UNL     1       1.367  -3.393   0.598  1.00  0.00     0.714 A 
HETATM    5  N8  UNL     1       0.327  -2.572   0.554  1.00  0.00    -0.145 N 
ATOM      6  H8  UNL     1      -0.584  -2.925   0.848  1.00  0.00     0.188 HD
HETATM    7  C5  UNL     1       0.418  -1.271   0.132  1.00  0.00     0.309 A 
HETATM    8  N13 UNL     1       1.672  -0.887  -0.241  1.00  0.00    -0.144 N 
ATOM      9  H13 UNL     1       1.799   0.072  -0.564  1.00  0.00     0.188 HD
ENDROOT
BRANCH   7  10
HETATM   10  N9  UNL     1      -0.509  -0.526   0.084  1.00  0.00    -0.286 NA
BRANCH  10  11
HETATM   11  N10 UNL     1      -1.493   0.275   0.030  1.00  0.00    -0.236 N 
HETATM   12  C6  UNL     1      -2.729  -0.082  -0.248  1.00  0.00     0.045 C 
HETATM   13  C7  UNL     1      -3.031  -1.530  -0.531  1.00  0.00     0.071 C 
ATOM     14  H10 UNL     1      -1.313   1.262   0.215  1.00  0.00     0.201 HD
BRANCH  12  15
HETATM   15  C8  UNL     1      -3.773   0.909  -0.248  1.00  0.00    -0.012 A 
HETATM   16  C9  UNL     1      -3.529   2.256  -0.078  1.00  0.00     0.014 A 
HETATM   17  C10 UNL     1      -4.599   3.169  -0.040  1.00  0.00     0.016 A 
HETATM   18  C11 UNL     1      -5.883   2.699  -0.178  1.00  0.00     0.004 A 
HETATM   19  C13 UNL     1      -6.124   1.345  -0.350  1.00  0.00     0.016 A 
HETATM   20  C14 UNL     1      -5.076   0.477  -0.382  1.00  0.00     0.014 A 
BRANCH  18  21
HETATM   21  C12 UNL     1      -7.015   3.639  -0.151  1.00  0.00     0.120 C 
HETATM   22  N11 UNL     1      -6.771   4.918  -0.086  1.00  0.00    -0.387 N 
ATOM     23 2H11 UNL     1      -5.825   5.300  -0.069  1.00  0.00     0.157 HD
ATOM     24 1H11 UNL     1      -7.556   5.570  -0.067  1.00  0.00     0.157 HD
HETATM   25  N12 UNL     1      -8.322   3.111  -0.174  1.00  0.00    -0.082 NA
ENDBRANCH  18  21
ENDBRANCH  12  15
ENDBRANCH  10  11
ENDBRANCH   7  10
BRANCH   4  26
HETATM   26  N6  UNL     1       1.171  -4.623   1.003  1.00  0.00    -0.138 N 
ATOM     27  H6  UNL     1       0.229  -4.899   1.281  1.00  0.00     0.205 HD
BRANCH  26  28
HETATM   28  N7  UNL     1       2.183  -5.568   1.072  1.00  0.00    -0.331 N 
ATOM     29  H72 UNL     1       3.119  -5.275   0.790  1.00  0.00     0.177 HD
ATOM     30  H71 UNL     1       2.030  -6.526   1.387  1.00  0.00     0.177 HD
ENDBRANCH  26  28
ENDBRANCH   4  26
BRANCH   1  31
HETATM   31  N4  UNL     1       3.999  -1.173  -0.624  1.00  0.00     0.108 N 
HETATM   32  N3  UNL     1       4.323  -0.702  -1.814  1.00  0.00     0.033 NA
HETATM   33  N2  UNL     1       5.598  -0.321  -1.763  1.00  0.00    -0.208 N 
HETATM   34  N1  UNL     1       6.107  -0.529  -0.590  1.00  0.00    -0.100 N 
ATOM     35  H2  UNL     1       6.109   0.083  -2.548  1.00  0.00     0.206 HD
HETATM   36  C15 UNL     1       5.101  -1.070   0.147  1.00  0.00     0.729 A 
BRANCH  34  37
HETATM   37  C2  UNL     1       7.434  -0.286  -0.069  1.00  0.00     0.242 C 
BRANCH  37  38
HETATM   38  S1  UNL     1       7.429   1.390   0.643  1.00  0.00    -0.151 SA
HETATM   39  C1  UNL     1       7.170   2.595  -0.690  1.00  0.00     0.091 C 
ENDBRANCH  37  38
ENDBRANCH  34  37
BRANCH  36  40
HETATM   40  N14 UNL     1       5.199  -1.391   1.390  1.00  0.00    -0.231 N 
ATOM     41 2H14 UNL     1       6.032  -1.313   1.973  1.00  0.00     0.174 HD
ATOM     42 1H14 UNL     1       4.444  -1.797   1.943  1.00  0.00     0.174 HD
ENDBRANCH  36  40
ENDBRANCH   1  31
TORSDOF 10
