REMARK  8 active torsions:
REMARK  status: ('A' for Active; 'I' for Inactive)
REMARK       I    between atoms: C2_2  and  N1_4 
REMARK    1  A    between atoms: N1_4  and  N2_6 
REMARK    2  A    between atoms: C3_7  and  O2_8 
REMARK    3  A    between atoms: C4_10  and  C5_11 
REMARK       I    between atoms: C5_11  and  N3_13 
REMARK    4  A    between atoms: N3_13  and  N4_15 
REMARK    5  A    between atoms: N4_15  and  S1_17 
REMARK    6  A    between atoms: S1_17  and  C6_20 
REMARK    7  A    between atoms: C9_23  and  O6_24 
REMARK    8  A    between atoms: N5_30  and  N6_31 
ROOT
HETATM    1  N2  UNL     1      -3.390  -0.001   0.316  1.00  0.00    -0.202 N 
HETATM    2  C3  UNL     1      -2.240   0.737   0.360  1.00  0.00     0.186 A 
HETATM    3  C4  UNL     1      -1.235   0.687  -0.620  1.00  0.00     0.155 A 
HETATM    4  C12 UNL     1      -1.465  -0.158  -1.653  1.00  0.00     0.288 A 
HETATM    5  O7  UNL     1      -0.637  -0.287  -2.591  1.00  0.00    -0.265 OA
HETATM    6  N5  UNL     1      -2.579  -0.896  -1.732  1.00  0.00    -0.197 N 
HETATM    7  C13 UNL     1      -3.529  -0.804  -0.738  1.00  0.00     0.224 A 
HETATM    8  S2  UNL     1      -4.832  -1.751  -0.957  1.00  0.00    -0.037 SA
ENDROOT
BRANCH   3   9
HETATM    9  C5  UNL     1      -0.068   1.544  -0.459  1.00  0.00     0.280 C 
HETATM   10  O3  UNL     1      -0.070   2.316   0.566  1.00  0.00    -0.266 OA
HETATM   11  N3  UNL     1       1.028   1.608  -1.287  1.00  0.00    -0.256 N 
ATOM     12  H3  UNL     1       1.044   0.999  -2.105  1.00  0.00     0.191 HD
BRANCH  11  13
HETATM   13  N4  UNL     1       2.099   2.436  -1.085  1.00  0.00    -0.220 N 
ATOM     14  H4  UNL     1       2.236   3.254  -1.679  1.00  0.00     0.200 HD
BRANCH  13  15
HETATM   15  S1  UNL     1       3.184   2.096   0.146  1.00  0.00     0.276 S 
HETATM   16  O4  UNL     1       2.506   2.035   1.479  1.00  0.00    -0.199 OA
HETATM   17  O5  UNL     1       4.213   3.226   0.292  1.00  0.00    -0.199 OA
BRANCH  15  18
HETATM   18  C6  UNL     1       4.067   0.583  -0.049  1.00  0.00     0.081 A 
HETATM   19  C7  UNL     1       5.157   0.448  -0.864  1.00  0.00     0.028 A 
HETATM   20  C8  UNL     1       5.854  -0.760  -0.945  1.00  0.00     0.038 A 
HETATM   21  C9  UNL     1       5.474  -1.867  -0.209  1.00  0.00     0.065 A 
HETATM   22  C10 UNL     1       4.375  -1.745   0.615  1.00  0.00     0.038 A 
HETATM   23  C11 UNL     1       3.679  -0.531   0.693  1.00  0.00     0.028 A 
BRANCH  21  24
HETATM   24  O6  UNL     1       6.180  -3.071  -0.295  1.00  0.00    -0.361 OA
ATOM     25  H6  UNL     1       5.919  -3.832   0.211  1.00  0.00     0.217 HD
ENDBRANCH  21  24
ENDBRANCH  15  18
ENDBRANCH  13  15
ENDBRANCH  11  13
ENDBRANCH   3   9
BRANCH   2  26
HETATM   26  O2  UNL     1      -2.046   1.586   1.434  1.00  0.00    -0.344 OA
ATOM     27  H2  UNL     1      -1.247   2.099   1.465  1.00  0.00     0.219 HD
ENDBRANCH   2  26
BRANCH   1  28
HETATM   28  N1  UNL     1      -4.266   0.121   1.350  1.00  0.00    -0.259 N 
HETATM   29  C2  UNL     1      -5.484  -0.367   1.765  1.00  0.00     0.232 C 
HETATM   30  C1  UNL     1      -6.031   0.132   3.103  1.00  0.00     0.119 C 
HETATM   31  O1  UNL     1      -6.232  -1.176   1.209  1.00  0.00    -0.272 OA
ATOM     32  H1  UNL     1      -3.905   0.785   2.035  1.00  0.00     0.190 HD
ENDBRANCH   1  28
BRANCH   6  33
HETATM   33  N6  UNL     1      -2.767  -1.757  -2.826  1.00  0.00    -0.333 N 
ATOM     34  H62 UNL     1      -2.064  -1.825  -3.562  1.00  0.00     0.177 HD
ATOM     35  H61 UNL     1      -3.616  -2.319  -2.886  1.00  0.00     0.177 HD
ENDBRANCH   6  33
TORSDOF 8
