REMARK  7 active torsions:
REMARK  status: ('A' for Active; 'I' for Inactive)
REMARK    1  A    between atoms: N1_1  and  O1_4 
REMARK    2  A    between atoms: O1_4  and  C1_5 
REMARK    3  A    between atoms: C1_5  and  C2_6 
REMARK    4  A    between atoms: S1_8  and  C4_9 
REMARK    5  A    between atoms: C4_9  and  C5_10 
REMARK    6  A    between atoms: C5_10  and  O2_11 
REMARK    7  A    between atoms: C7_14  and  O3_15 
ROOT
HETATM    1  C2  UNL     1      -1.135   0.190   0.221  1.00  0.00     0.050 C 
HETATM    2  C3  UNL     1       0.136  -0.564  -0.059  1.00  0.00     0.072 C 
HETATM    3  S1  UNL     1       1.281   0.694  -0.590  1.00  0.00    -0.215 SA
HETATM    4  C6  UNL     1       0.212   2.111  -0.280  1.00  0.00     0.095 C 
HETATM    5  C7  UNL     1      -1.109   1.434  -0.631  1.00  0.00     0.133 C 
ENDROOT
BRANCH   1   6
HETATM    6  C1  UNL     1      -2.315  -0.661  -0.187  1.00  0.00     0.208 C 
BRANCH   6   7
HETATM    7  O1  UNL     1      -2.327  -1.847   0.522  1.00  0.00    -0.287 OA
BRANCH   7   8
HETATM    8  N1  UNL     1      -3.361  -2.616   0.179  1.00  0.00    -0.311 N 
ATOM      9  H12 UNL     1      -4.050  -2.347  -0.523  1.00  0.00     0.184 HD
ATOM     10  H11 UNL     1      -3.370  -3.491   0.702  1.00  0.00     0.184 HD
ENDBRANCH   7   8
ENDBRANCH   6   7
ENDBRANCH   1   6
BRANCH   5  11
HETATM   11  O3  UNL     1      -2.193   2.215  -0.378  1.00  0.00    -0.394 OA
ATOM     12  H3  UNL     1      -2.177   2.999  -0.915  1.00  0.00     0.210 HD
ENDBRANCH   5  11
BRANCH   3  13
HETATM   13  C4  UNL     1       2.712   0.754   0.451  1.00  0.00     0.089 C 
BRANCH  13  14
HETATM   14  C5  UNL     1       3.374  -0.626   0.364  1.00  0.00     0.173 C 
BRANCH  14  15
HETATM   15  O2  UNL     1       4.517  -0.688   1.151  1.00  0.00    -0.400 OA
ATOM     16  H2  UNL     1       4.927  -1.543   1.097  1.00  0.00     0.209 HD
ENDBRANCH  14  15
ENDBRANCH  13  14
ENDBRANCH   3  13
TORSDOF 7
