REMARK  6 active torsions:
REMARK  status: ('A' for Active; 'I' for Inactive)
REMARK    1  A    between atoms: N1_2  and  C3_4 
REMARK    2  A    between atoms: C3_4  and  C4_5 
REMARK    3  A    between atoms: C4_5  and  N2_6 
REMARK    4  A    between atoms: C6_8  and  O1_9 
REMARK    5  A    between atoms: C7_11  and  O2_12 
REMARK    6  A    between atoms: C8_14  and  O3_15 
ROOT
HETATM    1  N2  UNL     1      -0.808   0.246   0.343  1.00  0.00    -0.361 N 
HETATM    2  C5  UNL     1      -1.765   1.205   0.812  1.00  0.00     0.159 C 
HETATM    3  C6  UNL     1      -3.116   0.679   0.414  1.00  0.00     0.169 C 
HETATM    4  C7  UNL     1      -2.830  -0.638  -0.212  1.00  0.00     0.197 C 
HETATM    5  C8  UNL     1      -1.381  -0.545  -0.647  1.00  0.00     0.251 C 
ENDROOT
BRANCH   1   6
HETATM    6  C4  UNL     1       0.499   0.691   0.296  1.00  0.00     0.090 C 
BRANCH   6   7
HETATM    7  C3  UNL     1       1.548  -0.248  -0.166  1.00  0.00     0.315 C 
BRANCH   7   8
HETATM    8  N1  UNL     1       2.870   0.287  -0.189  1.00  0.00     0.084 N 
HETATM    9  C1  UNL     1       3.452   0.579   1.075  1.00  0.00     0.309 C 
HETATM   10  C2  UNL     1       3.724  -0.569  -1.023  1.00  0.00     0.309 C 
ENDBRANCH   7   8
ENDBRANCH   6   7
ENDBRANCH   1   6
BRANCH   5  11
HETATM   11  O3  UNL     1      -0.945  -1.815  -0.829  1.00  0.00    -0.374 OA
ATOM     12  H3  UNL     1      -1.336  -2.355  -1.505  1.00  0.00     0.212 HD
ENDBRANCH   5  11
BRANCH   3  13
HETATM   13  O1  UNL     1      -3.945   0.492   1.528  1.00  0.00    -0.391 OA
ATOM     14  H1  UNL     1      -4.799   0.160   1.277  1.00  0.00     0.210 HD
ENDBRANCH   3  13
BRANCH   4  15
HETATM   15  O2  UNL     1      -3.658  -0.940  -1.287  1.00  0.00    -0.389 OA
ATOM     16  H2  UNL     1      -3.475  -1.782  -1.687  1.00  0.00     0.210 HD
ENDBRANCH   4  15
TORSDOF 6
