REMARK  4 active torsions:
REMARK  status: ('A' for Active; 'I' for Inactive)
REMARK    1  A    between atoms: N1_1  and  N2_4 
REMARK       I    between atoms: N2_4  and  C1_6 
REMARK    2  A    between atoms: N4_8  and  C2_10 
REMARK    3  A    between atoms: C2_10  and  C3_11 
REMARK    4  A    between atoms: C3_11  and  N5_12 
ROOT
HETATM    1  N2  UNL     1       3.239   1.482  -0.677  1.00  0.00    -0.280 N 
ATOM      2  H2  UNL     1       3.434   1.606  -1.670  1.00  0.00     0.189 HD
HETATM    3  C1  UNL     1       2.745   0.233  -0.242  1.00  0.00     0.202 C 
HETATM    4  N3  UNL     1       3.591  -0.896  -0.289  1.00  0.00    -0.062 NA
HETATM    5  N4  UNL     1       1.550   0.093   0.195  1.00  0.00    -0.362 N 
ATOM      6  H4  UNL     1       0.941   0.910   0.228  1.00  0.00     0.162 HD
ENDROOT
BRANCH   5   7
HETATM    7  C2  UNL     1       1.039  -1.163   0.637  1.00  0.00     0.152 C 
BRANCH   7   8
HETATM    8  C3  UNL     1      -0.309  -1.547   0.106  1.00  0.00     0.292 C 
BRANCH   8   9
HETATM    9  N5  UNL     1      -1.382  -0.675   0.437  1.00  0.00     0.094 N 
HETATM   10  C4  UNL     1      -2.586  -1.221  -0.136  1.00  0.00     0.298 C 
HETATM   11  C5  UNL     1      -3.686  -0.269  -0.402  1.00  0.00     0.198 C 
HETATM   12  O1  UNL     1      -3.240   0.988  -0.835  1.00  0.00    -0.388 OA
HETATM   13  C6  UNL     1      -2.478   1.484   0.220  1.00  0.00     0.198 C 
HETATM   14  C7  UNL     1      -1.172   0.710   0.233  1.00  0.00     0.298 C 
ENDBRANCH   8   9
ENDBRANCH   7   8
ENDBRANCH   5   7
BRANCH   1  15
HETATM   15  N1  UNL     1       3.476   2.567   0.191  1.00  0.00    -0.343 N 
ATOM     16  H12 UNL     1       3.275   2.426   1.181  1.00  0.00     0.176 HD
ATOM     17  H11 UNL     1       3.833   3.469  -0.123  1.00  0.00     0.176 HD
ENDBRANCH   1  15
TORSDOF 4
