REMARK  4 active torsions:
REMARK  status: ('A' for Active; 'I' for Inactive)
REMARK    1  A    between atoms: N1_1  and  C1_5 
REMARK    2  A    between atoms: C3_7  and  N2_8 
REMARK    3  A    between atoms: C4_12  and  N3_13 
REMARK    4  A    between atoms: N3_13  and  S1_15 
ROOT
HETATM    1  C1  UNL     1      -1.382  -1.095  -0.105  1.00  0.00     0.187 C 
HETATM    2  C2  UNL     1      -1.350   0.022  -1.107  1.00  0.00     0.067 C 
HETATM    3  C3  UNL     1      -0.291   0.986  -0.593  1.00  0.00     0.208 C 
HETATM    4  C4  UNL     1       0.720   0.007  -0.011  1.00  0.00     0.128 C 
HETATM    5  C5  UNL     1      -0.155  -0.925   0.781  1.00  0.00     0.060 C 
ENDROOT
BRANCH   4   6
HETATM    6  N3  UNL     1       1.740   0.647   0.758  1.00  0.00    -0.294 N 
ATOM      7  H3  UNL     1       1.595   1.223   1.587  1.00  0.00     0.175 HD
BRANCH   6   8
HETATM    8  S1  UNL     1       3.267   0.271   0.031  1.00  0.00     0.204 S 
HETATM    9  O1  UNL     1       4.190   1.428   0.127  1.00  0.00    -0.578 OA
HETATM   10  O2  UNL     1       3.024  -0.017  -1.444  1.00  0.00    -0.578 OA
HETATM   11  O3  UNL     1       3.895  -1.128   0.693  1.00  0.00    -0.578 OA
ENDBRANCH   6   8
ENDBRANCH   4   6
BRANCH   3  12
HETATM   12  N2  UNL     1      -0.812   1.878   0.417  1.00  0.00    -0.073 N 
ATOM     13  H23 UNL     1      -1.634   2.378   0.080  1.00  0.00     0.274 HD
ATOM     14  H22 UNL     1      -1.242   1.359   1.183  1.00  0.00     0.274 HD
ATOM     15  H21 UNL     1      -0.102   2.524   0.762  1.00  0.00     0.274 HD
ENDBRANCH   3  12
BRANCH   1  16
HETATM   16  N1  UNL     1      -2.570  -0.988   0.702  1.00  0.00    -0.075 N 
ATOM     17  H13 UNL     1      -2.653  -0.073   1.144  1.00  0.00     0.274 HD
ATOM     18  H12 UNL     1      -3.418  -0.955   0.136  1.00  0.00     0.274 HD
ATOM     19  H11 UNL     1      -2.592  -1.747   1.383  1.00  0.00     0.274 HD
ENDBRANCH   1  16
TORSDOF 4
