REMARK  4 active torsions:
REMARK  status: ('A' for Active; 'I' for Inactive)
REMARK    1  A    between atoms: N1_1  and  C1_5 
REMARK    2  A    between atoms: C1_5  and  C2_6 
REMARK    3  A    between atoms: C2_6  and  N2_7 
REMARK       I    between atoms: N3_10  and  C5_11 
REMARK    4  A    between atoms: N5_13  and  N6_15 
ROOT
HETATM    1  N2  UNL     1       1.174  -0.202  -0.250  1.00  0.00     0.093 N 
HETATM    2  C3  UNL     1       0.568  -1.557  -0.227  1.00  0.00     0.292 C 
HETATM    3  C4  UNL     1      -0.901  -1.570  -0.314  1.00  0.00     0.156 C 
HETATM    4  N3  UNL     1      -1.585  -0.347  -0.019  1.00  0.00    -0.351 N 
HETATM    5  C5  UNL     1      -3.007  -0.375   0.167  1.00  0.00     0.204 C 
HETATM    6  N4  UNL     1      -3.630  -1.475   0.835  1.00  0.00    -0.062 NA
HETATM    7  N5  UNL     1      -3.784   0.552  -0.243  1.00  0.00    -0.280 N 
ATOM      8  H5  UNL     1      -4.788   0.473  -0.080  1.00  0.00     0.189 HD
HETATM    9  C6  UNL     1      -0.885   0.903   0.097  1.00  0.00     0.156 C 
HETATM   10  C7  UNL     1       0.482   0.557   0.729  1.00  0.00     0.292 C 
ENDROOT
BRANCH   7  11
HETATM   11  N6  UNL     1      -3.285   1.666  -0.907  1.00  0.00    -0.343 N 
ATOM     12  H62 UNL     1      -2.279   1.729  -1.061  1.00  0.00     0.176 HD
ATOM     13  H61 UNL     1      -3.906   2.406  -1.234  1.00  0.00     0.176 HD
ENDBRANCH   7  11
BRANCH   1  14
HETATM   14  C2  UNL     1       2.555  -0.441   0.023  1.00  0.00     0.299 C 
BRANCH  14  15
HETATM   15  C1  UNL     1       3.499   0.691  -0.036  1.00  0.00     0.259 C 
BRANCH  15  16
HETATM   16  N1  UNL     1       3.315   1.785   0.844  1.00  0.00    -0.078 N 
ATOM     17  H13 UNL     1       2.366   2.142   0.730  1.00  0.00     0.274 HD
ATOM     18  H12 UNL     1       3.282   1.434   1.801  1.00  0.00     0.274 HD
ATOM     19  H11 UNL     1       3.968   2.568   0.803  1.00  0.00     0.274 HD
ENDBRANCH  15  16
ENDBRANCH  14  15
ENDBRANCH   1  14
TORSDOF 4
