REMARK  6 active torsions:
REMARK  status: ('A' for Active; 'I' for Inactive)
REMARK    1  A    between atoms: S1_2  and  C2_3 
REMARK    2  A    between atoms: S1_2  and  C3_8 
REMARK    3  A    between atoms: C2_3  and  N1_4 
REMARK    4  A    between atoms: C3_8  and  C4_9 
REMARK    5  A    between atoms: C6_12  and  O2_13 
REMARK    6  A    between atoms: C7_15  and  O3_16 
ROOT
HETATM    1  C4  UNL     1      -0.888  -0.885   0.109  1.00  0.00     0.161 C 
HETATM    2  O1  UNL     1      -1.789  -1.365   1.078  1.00  0.00    -0.380 OA
HETATM    3  C5  UNL     1      -3.048  -1.039   0.571  1.00  0.00     0.202 C 
HETATM    4  C6  UNL     1      -2.868   0.389   0.133  1.00  0.00     0.173 C 
HETATM    5  C7  UNL     1      -1.472   0.357  -0.445  1.00  0.00     0.178 C 
ENDROOT
BRANCH   1   6
HETATM    6  C3  UNL     1       0.435  -0.785   0.785  1.00  0.00     0.099 C 
BRANCH   6   7
HETATM    7  S1  UNL     1       1.785  -0.244  -0.163  1.00  0.00    -0.196 SA
HETATM    8  C1  UNL     1       1.596   1.372  -0.834  1.00  0.00     0.080 C 
BRANCH   7   9
HETATM    9  C2  UNL     1       3.276  -0.347   0.794  1.00  0.00     0.293 C 
BRANCH   9  10
HETATM   10  N1  UNL     1       4.385  -0.043  -0.100  1.00  0.00    -0.072 N 
ATOM     11  H13 UNL     1       4.402  -0.635  -0.930  1.00  0.00     0.275 HD
ATOM     12  H12 UNL     1       4.279   0.852  -0.578  1.00  0.00     0.275 HD
ATOM     13  H11 UNL     1       5.242  -0.102   0.450  1.00  0.00     0.275 HD
ENDBRANCH   9  10
ENDBRANCH   7   9
ENDBRANCH   6   7
ENDBRANCH   1   6
BRANCH   5  14
HETATM   14  O3  UNL     1      -1.640   0.208  -1.828  1.00  0.00    -0.390 OA
ATOM     15  H3  UNL     1      -2.015   1.005  -2.184  1.00  0.00     0.210 HD
ENDBRANCH   5  14
BRANCH   4  16
HETATM   16  O2  UNL     1      -3.822   0.727  -0.820  1.00  0.00    -0.391 OA
ATOM     17  H2  UNL     1      -3.708   1.629  -1.097  1.00  0.00     0.210 HD
ENDBRANCH   4  16
TORSDOF 6
