REMARK  14 active torsions:
REMARK  status: ('A' for Active; 'I' for Inactive)
REMARK    1  A    between atoms: C2_2  and  N1_3 
REMARK    2  A    between atoms: N1_3  and  C5_6 
REMARK    3  A    between atoms: C5_6  and  C6_7 
REMARK    4  A    between atoms: C6_7  and  C7_8 
REMARK    5  A    between atoms: C7_8  and  C8_9 
REMARK    6  A    between atoms: C8_9  and  C9_10 
REMARK    7  A    between atoms: C9_10  and  S1_11 
REMARK    8  A    between atoms: S1_11  and  N2_14 
REMARK    9  A    between atoms: N2_14  and  C10_16 
REMARK   10  A    between atoms: C10_16  and  C11_17 
REMARK   11  A    between atoms: C11_17  and  C12_18 
REMARK   12  A    between atoms: C12_18  and  C13_19 
REMARK   13  A    between atoms: C14_23  and  C15_24 
REMARK   14  A    between atoms: C15_24  and  N4_25 
ROOT
HETATM    1  C13 UNL     1      -2.372  -0.656   0.455  1.00  0.00     0.245 C 
HETATM    2  N3  UNL     1      -3.144  -1.209  -0.654  1.00  0.00    -0.036 N 
ATOM      3  H31 UNL     1      -3.035  -2.212  -0.804  1.00  0.00     0.280 HD
ATOM      4  H32 UNL     1      -2.823  -0.942  -1.585  1.00  0.00     0.280 HD
HETATM    5  C14 UNL     1      -4.482  -0.777  -0.313  1.00  0.00     0.414 C 
HETATM    6  N5  UNL     1      -4.227   0.612   0.110  1.00  0.00    -0.015 N 
ATOM      7  H51 UNL     1      -5.039   1.159   0.395  1.00  0.00     0.282 HD
ATOM      8  H52 UNL     1      -3.956   1.270  -0.621  1.00  0.00     0.282 HD
HETATM    9  C21 UNL     1      -3.225   0.332   1.148  1.00  0.00     0.252 C 
HETATM   10  S2  UNL     1      -4.183  -0.424   2.517  1.00  0.00    -0.117 SA
HETATM   11  C22 UNL     1      -4.346   0.787   3.839  1.00  0.00     0.078 C 
HETATM   12  C23 UNL     1      -4.682   2.160   3.336  1.00  0.00     0.020 C 
HETATM   13  C24 UNL     1      -3.562   2.852   2.641  1.00  0.00     0.078 C 
HETATM   14  S3  UNL     1      -2.425   1.776   1.798  1.00  0.00    -0.117 SA
ENDROOT
BRANCH   1  15
HETATM   15  C12 UNL     1      -1.009  -0.238   0.058  1.00  0.00     0.039 C 
BRANCH  15  16
HETATM   16  C11 UNL     1      -0.915   0.801  -1.006  1.00  0.00     0.022 C 
BRANCH  16  17
HETATM   17  C10 UNL     1       0.523   1.161  -1.338  1.00  0.00     0.132 C 
BRANCH  17  18
HETATM   18  N2  UNL     1       1.231  -0.016  -1.803  1.00  0.00    -0.320 N 
ATOM     19  H2  UNL     1       0.814  -0.943  -1.889  1.00  0.00     0.172 HD
BRANCH  18  20
HETATM   20  S1  UNL     1       2.858   0.353  -2.188  1.00  0.00     0.226 S 
HETATM   21  O1  UNL     1       3.503  -0.886  -2.738  1.00  0.00    -0.206 OA
HETATM   22  O2  UNL     1       2.930   1.409  -3.278  1.00  0.00    -0.206 OA
BRANCH  20  23
HETATM   23  C9  UNL     1       3.776   0.939  -0.806  1.00  0.00     0.163 C 
BRANCH  23  24
HETATM   24  C8  UNL     1       3.814  -0.083   0.294  1.00  0.00     0.017 C 
BRANCH  24  25
HETATM   25  C7  UNL     1       4.587   0.373   1.497  1.00  0.00     0.003 C 
BRANCH  25  26
HETATM   26  C6  UNL     1       6.010   0.695   1.228  1.00  0.00     0.028 C 
BRANCH  26  27
HETATM   27  C5  UNL     1       6.734  -0.502   0.698  1.00  0.00     0.236 C 
BRANCH  27  28
HETATM   28  N1  UNL     1       8.133  -0.233   0.422  1.00  0.00    -0.075 N 
HETATM   29  C3  UNL     1       8.298   0.510  -0.803  1.00  0.00     0.272 C 
HETATM   30  C4  UNL     1       8.689   0.455   1.564  1.00  0.00     0.272 C 
BRANCH  28  31
HETATM   31  C2  UNL     1       8.796  -1.513   0.262  1.00  0.00     0.232 C 
HETATM   32  C1  UNL     1      10.228  -1.351  -0.205  1.00  0.00     0.034 C 
ENDBRANCH  28  31
ENDBRANCH  27  28
ENDBRANCH  26  27
ENDBRANCH  25  26
ENDBRANCH  24  25
ENDBRANCH  23  24
ENDBRANCH  20  23
ENDBRANCH  18  20
ENDBRANCH  17  18
ENDBRANCH  16  17
ENDBRANCH  15  16
ENDBRANCH   1  15
BRANCH   5  33
HETATM   33  C15 UNL     1      -5.412  -0.812  -1.496  1.00  0.00     0.334 C 
BRANCH  33  34
HETATM   34  N4  UNL     1      -6.755  -0.388  -1.205  1.00  0.00     0.092 N 
HETATM   35  C16 UNL     1      -7.508  -0.467  -2.441  1.00  0.00     0.272 C 
HETATM   36  C17 UNL     1      -8.894  -0.994  -2.274  1.00  0.00     0.030 C 
HETATM   37  C18 UNL     1      -8.813  -2.448  -1.846  1.00  0.00     0.003 C 
HETATM   38  C19 UNL     1      -7.752  -2.539  -0.785  1.00  0.00     0.030 C 
HETATM   39  C20 UNL     1      -7.413  -1.177  -0.210  1.00  0.00     0.272 C 
ENDBRANCH  33  34
ENDBRANCH   5  33
TORSDOF 14
