REMARK  14 active torsions:
REMARK  status: ('A' for Active; 'I' for Inactive)
REMARK    1  A    between atoms: C1_2  and  C2_3 
REMARK       I    between atoms: C1_2  and  N5_31 
REMARK    2  A    between atoms: C2_3  and  C3_4 
REMARK    3  A    between atoms: C3_4  and  C4_5 
REMARK    4  A    between atoms: C3_4  and  N3_18 
REMARK       I    between atoms: C4_5  and  N1_7 
REMARK    5  A    between atoms: N1_7  and  C5_9 
REMARK    6  A    between atoms: C5_9  and  C6_10 
REMARK    7  A    between atoms: C6_10  and  C7_11 
REMARK    8  A    between atoms: C7_11  and  N2_12 
REMARK    9  A    between atoms: C14_21  and  C15_22 
REMARK   10  A    between atoms: C15_22  and  C16_23 
REMARK   11  A    between atoms: C16_23  and  N4_24 
REMARK   12  A    between atoms: N5_31  and  C22_33 
REMARK   13  A    between atoms: C22_33  and  C23_34 
REMARK   14  A    between atoms: C23_34  and  C24_35 
ROOT
HETATM    1  C3  UNL     1      -1.447   0.329  -0.514  1.00  0.00     0.188 C 
ENDROOT
BRANCH   1   2
HETATM    2  C2  UNL     1      -0.015   0.726  -0.626  1.00  0.00     0.138 C 
BRANCH   2   3
HETATM    3  C1  UNL     1       0.784   0.676   0.585  1.00  0.00     0.220 C 
HETATM    4  O1  UNL     1       0.254   0.521   1.702  1.00  0.00    -0.274 OA
HETATM    5  N5  UNL     1       2.191   0.801   0.518  1.00  0.00    -0.361 N 
ATOM      6  H5  UNL     1       2.647   0.927  -0.385  1.00  0.00     0.162 HD
BRANCH   5   7
HETATM    7  C22 UNL     1       2.985   0.751   1.725  1.00  0.00     0.123 C 
BRANCH   7   8
HETATM    8  C23 UNL     1       4.447   0.881   1.453  1.00  0.00     0.024 C 
BRANCH   8   9
HETATM    9  C24 UNL     1       4.920  -0.216   0.561  1.00  0.00    -0.010 C 
HETATM   10  C25 UNL     1       6.419  -0.090   0.284  1.00  0.00     0.032 C 
HETATM   11  C26 UNL     1       6.836  -1.201  -0.640  1.00  0.00     0.232 C 
HETATM   12  N6  UNL     1       6.540  -2.515  -0.161  1.00  0.00    -0.075 N 
HETATM   13  C27 UNL     1       5.142  -2.626   0.114  1.00  0.00     0.232 C 
ATOM     14  H62 UNL     1       6.863  -3.239  -0.802  1.00  0.00     0.277 HD
ATOM     15  H61 UNL     1       7.111  -2.767   0.646  1.00  0.00     0.277 HD
HETATM   16  C28 UNL     1       4.686  -1.571   1.133  1.00  0.00     0.032 C 
ENDBRANCH   8   9
ENDBRANCH   7   8
ENDBRANCH   5   7
ENDBRANCH   2   3
ENDBRANCH   1   2
BRANCH   1  17
HETATM   17  C4  UNL     1      -2.241   1.118   0.452  1.00  0.00     0.241 C 
HETATM   18  O2  UNL     1      -2.940   0.598   1.356  1.00  0.00    -0.271 OA
HETATM   19  N1  UNL     1      -2.205   2.543   0.349  1.00  0.00    -0.359 N 
ATOM     20  H1  UNL     1      -1.648   2.991  -0.379  1.00  0.00     0.162 HD
BRANCH  19  21
HETATM   21  C5  UNL     1      -2.960   3.344   1.279  1.00  0.00     0.124 C 
BRANCH  21  22
HETATM   22  C6  UNL     1      -2.836   4.810   1.028  1.00  0.00     0.039 C 
BRANCH  22  23
HETATM   23  C7  UNL     1      -1.449   5.356   1.092  1.00  0.00     0.118 C 
BRANCH  23  24
HETATM   24  N2  UNL     1      -1.367   6.762   0.853  1.00  0.00    -0.408 N 
HETATM   25  C8  UNL     1      -1.935   7.598   1.861  1.00  0.00     0.143 C 
HETATM   26  C9  UNL     1      -3.188   8.302   1.423  1.00  0.00     0.187 C 
HETATM   27  O3  UNL     1      -2.999   9.035   0.277  1.00  0.00    -0.388 OA
HETATM   28  C10 UNL     1      -1.914   8.675  -0.482  1.00  0.00     0.187 C 
HETATM   29  C11 UNL     1      -1.636   7.184  -0.484  1.00  0.00     0.143 C 
ENDBRANCH  23  24
ENDBRANCH  22  23
ENDBRANCH  21  22
ENDBRANCH  19  21
ENDBRANCH   1  17
BRANCH   1  30
HETATM   30  N3  UNL     1      -1.675  -1.102  -0.370  1.00  0.00    -0.338 N 
HETATM   31  C12 UNL     1      -1.330  -1.953   0.733  1.00  0.00     0.127 C 
HETATM   32  C13 UNL     1      -1.935  -3.334   0.457  1.00  0.00     0.034 C 
HETATM   33  C14 UNL     1      -2.924  -3.075  -0.610  1.00  0.00     0.081 C 
HETATM   34  C21 UNL     1      -2.323  -1.950  -1.337  1.00  0.00     0.224 C 
HETATM   35  O4  UNL     1      -2.350  -1.741  -2.551  1.00  0.00    -0.273 OA
BRANCH  33  36
HETATM   36  C15 UNL     1      -3.458  -4.176  -1.415  1.00  0.00     0.044 C 
BRANCH  36  37
HETATM   37  C16 UNL     1      -2.556  -5.018  -2.212  1.00  0.00     0.273 C 
BRANCH  37  38
HETATM   38  N4  UNL     1      -1.573  -5.795  -1.520  1.00  0.00     0.088 N 
HETATM   39  C17 UNL     1      -0.721  -6.540  -2.437  1.00  0.00     0.272 C 
HETATM   40  C18 UNL     1      -0.532  -7.922  -1.884  1.00  0.00     0.032 C 
HETATM   41  C19 UNL     1      -0.969  -7.715  -0.426  1.00  0.00     0.032 C 
HETATM   42  C20 UNL     1      -2.171  -6.834  -0.692  1.00  0.00     0.272 C 
ENDBRANCH  37  38
ENDBRANCH  36  37
ENDBRANCH  33  36
ENDBRANCH   1  30
TORSDOF 14
