REMARK  14 active torsions:
REMARK  status: ('A' for Active; 'I' for Inactive)
REMARK    1  A    between atoms: C2_2  and  C3_3 
REMARK    2  A    between atoms: C3_3  and  C4_4 
REMARK    3  A    between atoms: C4_4  and  N1_5 
REMARK       I    between atoms: N1_5  and  C5_7 
REMARK    4  A    between atoms: C5_7  and  C6_9 
REMARK       I    between atoms: N2_11  and  C8_12 
REMARK    5  A    between atoms: C8_12  and  C9_14 
REMARK    6  A    between atoms: C9_14  and  N3_15 
REMARK    7  A    between atoms: C9_14  and  C22_34 
REMARK       I    between atoms: N3_15  and  C10_17 
REMARK    8  A    between atoms: C10_17  and  C11_19 
REMARK    9  A    between atoms: C11_19  and  C12_20 
REMARK   10  A    between atoms: C11_19  and  N4_24 
REMARK   11  A    between atoms: C12_20  and  C13_21 
REMARK   12  A    between atoms: C13_21  and  C14_22 
REMARK       I    between atoms: N4_24  and  C16_26 
REMARK   13  A    between atoms: C16_26  and  C17_28 
REMARK   14  A    between atoms: C22_34  and  C24_36 
ROOT
HETATM    1  C9  UNL     1      -0.481  -0.567  -0.419  1.00  0.00     0.180 C 
ENDROOT
BRANCH   1   2
HETATM    2  C8  UNL     1       0.496   0.478  -0.739  1.00  0.00     0.243 C 
HETATM    3  N2  UNL     1       1.756   0.662  -0.128  1.00  0.00    -0.349 N 
HETATM    4  C7  UNL     1       2.426   0.006   0.971  1.00  0.00     0.147 C 
HETATM    5  C26 UNL     1       2.729   1.684  -0.597  1.00  0.00     0.132 C 
HETATM    6  C6  UNL     1       3.878  -0.144   0.494  1.00  0.00     0.088 C 
HETATM    7  C27 UNL     1       4.049   0.938  -0.489  1.00  0.00     0.027 C 
HETATM    8  C33 UNL     1       4.122  -1.538   0.056  1.00  0.00     0.294 C 
HETATM    9  C28 UNL     1       4.408   0.535  -1.896  1.00  0.00     0.043 C 
HETATM   10  C29 UNL     1       5.259  -0.676  -1.847  1.00  0.00     0.223 C 
HETATM   11  C30 UNL     1       5.586  -1.243  -3.214  1.00  0.00     0.037 C 
HETATM   12  N5  UNL     1       4.399  -1.747  -1.325  1.00  0.00     0.094 N 
HETATM   13  C31 UNL     1       5.956  -2.673  -2.851  1.00  0.00     0.032 C 
HETATM   14  C32 UNL     1       5.305  -2.887  -1.494  1.00  0.00     0.273 C 
HETATM   15  O2  UNL     1       0.135   1.284  -1.667  1.00  0.00    -0.271 OA
BRANCH   6  16
HETATM   16  C5  UNL     1       4.794   0.136   1.663  1.00  0.00     0.230 C 
HETATM   17  N1  UNL     1       4.898   1.397   2.279  1.00  0.00    -0.360 N 
ATOM     18  H1  UNL     1       4.332   2.168   1.924  1.00  0.00     0.162 HD
HETATM   19  O1  UNL     1       5.488  -0.806   2.096  1.00  0.00    -0.273 OA
BRANCH  17  20
HETATM   20  C4  UNL     1       5.777   1.635   3.393  1.00  0.00     0.122 C 
BRANCH  20  21
HETATM   21  C3  UNL     1       5.725   3.067   3.870  1.00  0.00     0.019 C 
BRANCH  21  22
HETATM   22  C2  UNL     1       6.141   4.035   2.783  1.00  0.00    -0.003 C 
HETATM   23  C1  UNL     1       6.052   5.432   3.358  1.00  0.00     0.005 C 
ENDBRANCH  21  22
ENDBRANCH  20  21
ENDBRANCH  17  20
ENDBRANCH   6  16
ENDBRANCH   1   2
BRANCH   1  24
HETATM   24  N3  UNL     1      -1.817  -0.310  -0.963  1.00  0.00    -0.342 N 
HETATM   25  C10 UNL     1      -2.968  -0.325  -0.210  1.00  0.00     0.264 C 
HETATM   26  O3  UNL     1      -2.805  -0.574   1.054  1.00  0.00    -0.266 OA
ATOM     27  H3  UNL     1      -1.898  -0.108  -1.959  1.00  0.00     0.163 HD
BRANCH  25  28
HETATM   28  C11 UNL     1      -4.356  -0.109  -0.576  1.00  0.00     0.080 C 
BRANCH  28  29
HETATM   29  C12 UNL     1      -4.728   0.168  -1.972  1.00  0.00     0.063 C 
BRANCH  29  30
HETATM   30  C13 UNL     1      -4.443  -0.915  -2.961  1.00  0.00     0.006 C 
BRANCH  30  31
HETATM   31  C14 UNL     1      -4.861  -0.495  -4.371  1.00  0.00    -0.004 C 
HETATM   32  C15 UNL     1      -4.572  -1.610  -5.331  1.00  0.00     0.005 C 
ENDBRANCH  30  31
ENDBRANCH  29  30
ENDBRANCH  28  29
BRANCH  28  33
HETATM   33  N4  UNL     1      -5.099   0.671   0.403  1.00  0.00    -0.326 N 
HETATM   34  C16 UNL     1      -5.876   0.138   1.444  1.00  0.00     0.226 C 
HETATM   35  O4  UNL     1      -5.949  -1.106   1.578  1.00  0.00    -0.273 OA
ATOM     36  H4  UNL     1      -5.051   1.687   0.327  1.00  0.00     0.168 HD
BRANCH  34  37
HETATM   37  C17 UNL     1      -6.613   1.010   2.382  1.00  0.00     0.082 C 
HETATM   38  C18 UNL     1      -6.747   0.343   3.758  1.00  0.00     0.040 C 
HETATM   39  C19 UNL     1      -7.252   1.383   4.707  1.00  0.00     0.168 C 
HETATM   40  O5  UNL     1      -8.122   2.255   4.074  1.00  0.00    -0.391 OA
HETATM   41  C20 UNL     1      -8.881   1.571   3.120  1.00  0.00     0.168 C 
HETATM   42  C21 UNL     1      -8.060   1.186   1.912  1.00  0.00     0.040 C 
ENDBRANCH  34  37
ENDBRANCH  28  33
ENDBRANCH  25  28
ENDBRANCH   1  24
BRANCH   1  43
HETATM   43  C22 UNL     1       0.034  -1.881  -0.985  1.00  0.00     0.013 C 
HETATM   44  C23 UNL     1       0.200  -1.797  -2.494  1.00  0.00     0.012 C 
BRANCH  43  45
HETATM   45  C24 UNL     1      -0.825  -3.042  -0.573  1.00  0.00     0.002 C 
HETATM   46  C25 UNL     1      -0.311  -4.336  -1.132  1.00  0.00     0.005 C 
ENDBRANCH  43  45
ENDBRANCH   1  43
TORSDOF 14
