REMARK  18 active torsions:
REMARK  status: ('A' for Active; 'I' for Inactive)
REMARK    1  A    between atoms: C2_2  and  C4_4 
REMARK    2  A    between atoms: C4_4  and  C5_5 
REMARK    3  A    between atoms: C5_5  and  N1_6 
REMARK    4  A    between atoms: C5_5  and  C20_28 
REMARK       I    between atoms: N1_6  and  C6_8 
REMARK    5  A    between atoms: C6_8  and  C7_10 
REMARK    6  A    between atoms: C7_10  and  C8_11 
REMARK    7  A    between atoms: C7_10  and  N2_18 
REMARK    8  A    between atoms: C8_11  and  C9_12 
REMARK    9  A    between atoms: N2_18  and  C15_20 
REMARK   10  A    between atoms: C15_20  and  O2_21 
REMARK   11  A    between atoms: C16_23  and  N3_24 
REMARK       I    between atoms: C20_28  and  N4_30 
REMARK   12  A    between atoms: N4_30  and  C21_32 
REMARK   13  A    between atoms: C21_32  and  C22_33 
REMARK   14  A    between atoms: C21_32  and  C27_40 
REMARK   15  A    between atoms: C22_33  and  O5_35 
REMARK   16  A    between atoms: O5_35  and  C23_36 
REMARK   17  A    between atoms: C27_40  and  O7_42 
REMARK   18  A    between atoms: O7_42  and  C28_43 
ROOT
HETATM    1  C5  UNL     1       0.636  -0.308  -0.023  1.00  0.00     0.177 C 
ENDROOT
BRANCH   1   2
HETATM    2  C4  UNL     1       0.985  -0.375   1.437  1.00  0.00     0.038 C 
BRANCH   2   3
HETATM    3  C2  UNL     1       2.227   0.156   1.994  1.00  0.00    -0.020 C 
HETATM    4  C1  UNL     1       2.329   1.669   1.847  1.00  0.00     0.009 C 
HETATM    5  C3  UNL     1       2.294  -0.088   3.523  1.00  0.00     0.009 C 
ENDBRANCH   2   3
ENDBRANCH   1   2
BRANCH   1   6
HETATM    6  N1  UNL     1      -0.732  -0.839  -0.076  1.00  0.00    -0.346 N 
HETATM    7  C6  UNL     1      -1.672  -0.370  -1.014  1.00  0.00     0.244 C 
HETATM    8  O1  UNL     1      -1.282   0.412  -1.891  1.00  0.00    -0.271 OA
ATOM      9  H1  UNL     1      -1.009  -1.566   0.584  1.00  0.00     0.163 HD
BRANCH   7  10
HETATM   10  C7  UNL     1      -3.140  -0.783  -0.940  1.00  0.00     0.199 C 
BRANCH  10  11
HETATM   11  C8  UNL     1      -3.247  -1.632   0.231  1.00  0.00     0.010 C 
BRANCH  11  12
HETATM   12  C9  UNL     1      -4.502  -2.195   0.765  1.00  0.00    -0.081 C 
HETATM   13  C10 UNL     1      -5.501  -1.217   1.256  1.00  0.00     0.034 C 
HETATM   14  C11 UNL     1      -6.910  -1.334   0.897  1.00  0.00     0.004 C 
HETATM   15  C12 UNL     1      -7.333  -2.578   0.147  1.00  0.00     0.001 C 
HETATM   16  C13 UNL     1      -6.400  -3.730   0.532  1.00  0.00     0.004 C 
HETATM   17  C14 UNL     1      -5.057  -3.341  -0.052  1.00  0.00     0.034 C 
ENDBRANCH  11  12
ENDBRANCH  10  11
BRANCH  10  18
HETATM   18  N2  UNL     1      -3.940   0.368  -1.115  1.00  0.00    -0.353 N 
ATOM     19  H2  UNL     1      -4.924   0.136  -1.249  1.00  0.00     0.162 HD
BRANCH  18  20
HETATM   20  C15 UNL     1      -3.716   1.734  -1.149  1.00  0.00     0.160 C 
HETATM   21  C16 UNL     1      -4.554   2.892  -1.366  1.00  0.00     0.256 C 
BRANCH  20  22
HETATM   22  O2  UNL     1      -2.463   2.132  -0.951  1.00  0.00    -0.345 OA
ATOM     23  H2  UNL     1      -2.309   3.069  -0.974  1.00  0.00     0.219 HD
ENDBRANCH  20  22
BRANCH  21  24
HETATM   24  N3  UNL     1      -5.939   2.870  -1.536  1.00  0.00    -0.055 N 
HETATM   25  C17 UNL     1      -6.538   2.958  -0.178  1.00  0.00     0.277 C 
HETATM   26  C18 UNL     1      -6.317   4.186  -2.161  1.00  0.00     0.277 C 
HETATM   27  C19 UNL     1      -6.610   1.887  -2.270  1.00  0.00     0.277 C 
ENDBRANCH  21  24
ENDBRANCH  18  20
ENDBRANCH  10  18
ENDBRANCH   7  10
ENDBRANCH   1   6
BRANCH   1  28
HETATM   28  C20 UNL     1       1.586  -1.090  -0.894  1.00  0.00     0.241 C 
HETATM   29  O3  UNL     1       1.294  -2.164  -1.445  1.00  0.00    -0.271 OA
HETATM   30  N4  UNL     1       2.841  -0.515  -1.046  1.00  0.00    -0.337 N 
ATOM     31  H4  UNL     1       2.908   0.373  -0.549  1.00  0.00     0.163 HD
BRANCH  30  32
HETATM   32  C21 UNL     1       4.057  -0.833  -1.709  1.00  0.00     0.285 C 
BRANCH  32  33
HETATM   33  C22 UNL     1       4.746   0.470  -2.076  1.00  0.00     0.292 C 
HETATM   34  O4  UNL     1       4.807   0.890  -3.241  1.00  0.00    -0.262 OA
BRANCH  33  35
HETATM   35  O5  UNL     1       5.292   1.195  -1.063  1.00  0.00    -0.314 OA
BRANCH  35  36
HETATM   36  C23 UNL     1       5.962   2.416  -1.126  1.00  0.00     0.132 C 
HETATM   37  C24 UNL     1       4.890   3.563  -0.780  1.00  0.00     0.032 C 
HETATM   38  C25 UNL     1       5.916   4.144   0.157  1.00  0.00     0.005 C 
HETATM   39  C26 UNL     1       6.663   2.810   0.150  1.00  0.00     0.032 C 
ENDBRANCH  35  36
ENDBRANCH  33  35
ENDBRANCH  32  33
BRANCH  32  40
HETATM   40  C27 UNL     1       4.899  -1.702  -0.862  1.00  0.00     0.292 C 
HETATM   41  O6  UNL     1       4.310  -2.566  -0.176  1.00  0.00    -0.262 OA
BRANCH  40  42
HETATM   42  O7  UNL     1       6.277  -1.610  -0.792  1.00  0.00    -0.309 OA
BRANCH  42  43
HETATM   43  C28 UNL     1       7.111  -2.452  -0.021  1.00  0.00     0.060 C 
HETATM   44  C29 UNL     1       8.523  -1.940  -0.177  1.00  0.00     0.045 C 
HETATM   45  C30 UNL     1       7.128  -3.862  -0.645  1.00  0.00     0.045 C 
HETATM   46  C31 UNL     1       6.730  -2.542   1.420  1.00  0.00     0.045 C 
ENDBRANCH  42  43
ENDBRANCH  40  42
ENDBRANCH  32  40
ENDBRANCH  30  32
ENDBRANCH   1  28
TORSDOF 18
