REMARK  3 active torsions:
REMARK  status: ('A' for Active; 'I' for Inactive)
REMARK    1  A    between atoms: O1_2  and  C2_3 
REMARK    2  A    between atoms: C3_6  and  S1_7 
REMARK    3  A    between atoms: C7_12  and  C8_13 
ROOT
HETATM    1  C2  UNL     1      -1.808  -1.033  -0.639  1.00  0.00     0.168 A 
HETATM    2  N1  UNL     1      -2.386   0.189  -0.612  1.00  0.00    -0.329 N 
ATOM      3  H1  UNL     1      -3.392   0.263  -0.766  1.00  0.00     0.168 HD
HETATM    4  C3  UNL     1      -1.677   1.312  -0.388  1.00  0.00     0.093 A 
HETATM    5  C5  UNL     1      -0.330   1.196  -0.182  1.00  0.00     0.091 A 
HETATM    6  C6  UNL     1       0.467   2.346   0.051  1.00  0.00     0.103 C 
HETATM    7  N2  UNL     1       1.132   3.277   0.237  1.00  0.00    -0.191 NA
HETATM    8  C7  UNL     1       0.311  -0.051  -0.200  1.00  0.00     0.026 A 
HETATM    9  C14 UNL     1      -0.434  -1.177  -0.430  1.00  0.00     0.110 A 
HETATM   10  N3  UNL     1       0.210  -2.435  -0.451  1.00  0.00    -0.097 NA
ENDROOT
BRANCH   4  11
HETATM   11  S1  UNL     1      -2.497   2.896  -0.361  1.00  0.00    -0.115 SA
HETATM   12  C4  UNL     1      -3.108   3.349   1.270  1.00  0.00     0.097 C 
ENDBRANCH   4  11
BRANCH   8  13
HETATM   13  C8  UNL     1       1.749  -0.133   0.034  1.00  0.00    -0.019 A 
HETATM   14  C9  UNL     1       2.643   0.302  -0.942  1.00  0.00     0.039 A 
HETATM   15  C10 UNL     1       3.997   0.224  -0.731  1.00  0.00     0.075 A 
HETATM   16 CL1  UNL     1       5.120   0.781  -1.979  1.00  0.00    -0.081 Cl
HETATM   17  C11 UNL     1       4.507  -0.287   0.451  1.00  0.00     0.159 A 
HETATM   18  F1  UNL     1       5.861  -0.346   0.619  1.00  0.00    -0.203 F 
HETATM   19  C12 UNL     1       3.632  -0.723   1.431  1.00  0.00     0.075 A 
HETATM   20 CL2  UNL     1       4.338  -1.363   2.895  1.00  0.00    -0.081 Cl
HETATM   21  C13 UNL     1       2.287  -0.638   1.204  1.00  0.00     0.039 A 
ENDBRANCH   8  13
BRANCH   1  22
HETATM   22  O1  UNL     1      -2.482  -2.213  -0.865  1.00  0.00    -0.339 OA
HETATM   23  C1  UNL     1      -3.829  -2.416  -1.105  1.00  0.00     0.211 C 
ENDBRANCH   1  22
TORSDOF 3
