REMARK  3 active torsions:
REMARK  status: ('A' for Active; 'I' for Inactive)
REMARK    1  A    between atoms: N1_2  and  N2_3 
REMARK       I    between atoms: N2_3  and  C2_5 
REMARK       I    between atoms: N4_7  and  C3_9 
REMARK       I    between atoms: C3_9  and  N6_13 
REMARK    2  A    between atoms: N6_13  and  C4_15 
REMARK    3  A    between atoms: C4_15  and  C5_16 
ROOT
HETATM    1  N2  UNL     1       4.383  -0.453  -1.316  1.00  0.00    -0.277 N 
ATOM      2  H2  UNL     1       4.712   0.272  -1.953  1.00  0.00     0.185 HD
HETATM    3  C2  UNL     1       3.398  -1.386  -1.752  1.00  0.00     0.218 C 
HETATM    4  N3  UNL     1       3.777  -2.676  -2.215  1.00  0.00    -0.062 NA
HETATM    5  N4  UNL     1       2.134  -1.086  -1.737  1.00  0.00    -0.163 N 
ATOM      6  H4  UNL     1       1.462  -1.784  -2.057  1.00  0.00     0.187 HD
HETATM    7  C3  UNL     1       1.653   0.164  -1.297  1.00  0.00     0.674 C 
HETATM    8  N5  UNL     1       2.312   1.222  -1.567  1.00  0.00    -0.235 N 
ATOM      9  H51 UNL     1       1.964   2.126  -1.249  1.00  0.00     0.174 HD
ATOM     10  H52 UNL     1       3.179   1.151  -2.099  1.00  0.00     0.174 HD
HETATM   11  N6  UNL     1       0.451   0.262  -0.560  1.00  0.00    -0.224 N 
ATOM     12  H6  UNL     1       0.479   0.326   0.458  1.00  0.00     0.177 HD
ENDROOT
BRANCH  11  13
HETATM   13  C4  UNL     1      -0.799   0.271  -1.241  1.00  0.00     0.173 C 
BRANCH  13  14
HETATM   14  C5  UNL     1      -2.012   0.367  -0.379  1.00  0.00     0.244 C 
HETATM   15  C6  UNL     1      -2.050   1.614   0.466  1.00  0.00     0.068 C 
HETATM   16  C7  UNL     1      -3.381   1.646   1.182  1.00  0.00     0.276 C 
HETATM   17  N7  UNL     1      -3.787   0.377   1.702  1.00  0.00     0.112 N 
HETATM   18  C8  UNL     1      -5.061   0.493   2.338  1.00  0.00     0.312 C 
HETATM   19  C9  UNL     1      -3.731  -0.706   0.742  1.00  0.00     0.542 C 
HETATM   20  N8  UNL     1      -2.316  -0.821   0.356  1.00  0.00     0.118 N 
HETATM   21  C10 UNL     1      -1.517  -1.077   1.504  1.00  0.00     0.312 C 
ENDBRANCH  13  14
ENDBRANCH  11  13
BRANCH   1  22
HETATM   22  N1  UNL     1       4.901  -0.526  -0.020  1.00  0.00    -0.144 NA
HETATM   23  C1  UNL     1       6.241   0.002   0.008  1.00  0.00     0.159 C 
ENDBRANCH   1  22
TORSDOF 3
