REMARK  8 active torsions:
REMARK  status: ('A' for Active; 'I' for Inactive)
REMARK    1  A    between atoms: C2_2  and  C4_4 
REMARK    2  A    between atoms: C4_4  and  O1_5 
REMARK    3  A    between atoms: C4_4  and  N1_7 
REMARK    4  A    between atoms: N1_7  and  C5_9 
REMARK    5  A    between atoms: C5_9  and  C6_10 
REMARK    6  A    between atoms: C5_9  and  C8_15 
REMARK       I    between atoms: C6_10  and  N2_12 
REMARK       I    between atoms: C8_15  and  N3_17 
REMARK    7  A    between atoms: N3_17  and  N4_19 
REMARK    8  A    between atoms: N4_19  and  C9_21 
ROOT
HETATM    1  C5  UNL     1       0.089   0.699   0.253  1.00  0.00     0.270 C 
ENDROOT
BRANCH   1   2
HETATM    2  N1  UNL     1      -0.625  -0.188  -0.698  1.00  0.00    -0.350 N 
ATOM      3  H1  UNL     1      -0.504  -0.153  -1.710  1.00  0.00     0.163 HD
BRANCH   2   4
HETATM    4  C4  UNL     1      -1.513  -1.109  -0.023  1.00  0.00     0.142 C 
BRANCH   4   5
HETATM    5  C2  UNL     1      -2.360  -2.129  -0.466  1.00  0.00    -0.021 C 
HETATM    6  C1  UNL     1      -2.554  -2.489  -1.691  1.00  0.00     0.023 C 
HETATM    7  C3  UNL     1      -3.100  -2.895   0.632  1.00  0.00     0.052 C 
ENDBRANCH   4   5
BRANCH   4   8
HETATM    8  O1  UNL     1      -1.530  -0.956   1.296  1.00  0.00    -0.346 OA
ATOM      9  H1  UNL     1      -0.954  -0.263   1.597  1.00  0.00     0.219 HD
ENDBRANCH   4   8
ENDBRANCH   2   4
ENDBRANCH   1   2
BRANCH   1  10
HETATM   10  C6  UNL     1      -0.345   2.082   0.238  1.00  0.00     0.249 C 
HETATM   11  O2  UNL     1       0.518   3.032   0.147  1.00  0.00    -0.271 OA
HETATM   12  N2  UNL     1      -1.720   2.523   0.311  1.00  0.00    -0.363 N 
HETATM   13  C7  UNL     1      -2.053   3.913   0.358  1.00  0.00     0.149 C 
ATOM     14  H2  UNL     1      -2.467   1.829   0.329  1.00  0.00     0.162 HD
ENDBRANCH   1  10
BRANCH   1  15
HETATM   15  C8  UNL     1       1.513   0.699  -0.217  1.00  0.00     0.268 C 
HETATM   16  O3  UNL     1       1.724   0.814  -1.478  1.00  0.00    -0.269 OA
HETATM   17  N3  UNL     1       2.616   0.570   0.689  1.00  0.00    -0.266 N 
ATOM     18  H3  UNL     1       2.450   0.483   1.692  1.00  0.00     0.190 HD
BRANCH  17  19
HETATM   19  N4  UNL     1       3.910   0.565   0.192  1.00  0.00    -0.276 N 
ATOM     20  H4  UNL     1       4.301   1.449  -0.134  1.00  0.00     0.189 HD
BRANCH  19  21
HETATM   21  C9  UNL     1       4.721  -0.592   0.110  1.00  0.00     0.199 C 
HETATM   22  N5  UNL     1       4.218  -1.839   0.508  1.00  0.00    -0.068 NA
HETATM   23  S1  UNL     1       6.263  -0.506  -0.440  1.00  0.00    -0.043 SA
ENDBRANCH  19  21
ENDBRANCH  17  19
ENDBRANCH   1  15
TORSDOF 8
