REMARK  8 active torsions:
REMARK  status: ('A' for Active; 'I' for Inactive)
REMARK       I    between atoms: C1_2  and  N2_4 
REMARK    1  A    between atoms: N2_4  and  N3_6 
REMARK    2  A    between atoms: N3_6  and  C2_8 
REMARK    3  A    between atoms: C2_8  and  N4_10 
REMARK    4  A    between atoms: N4_10  and  N5_12 
REMARK    5  A    between atoms: N5_12  and  C3_14 
REMARK    6  A    between atoms: C3_14  and  C4_15 
REMARK    7  A    between atoms: C4_15  and  N6_16 
REMARK    8  A    between atoms: N7_21  and  O2_23 
ROOT
HETATM    1  N5  UNL     1       0.707   1.212  -0.354  1.00  0.00    -0.281 N 
ATOM      2  H5  UNL     1       1.269   1.758  -1.007  1.00  0.00     0.188 HD
ENDROOT
BRANCH   1   3
HETATM    3  N4  UNL     1       1.327   0.588   0.707  1.00  0.00    -0.273 N 
ATOM      4  H4  UNL     1       0.843   0.553   1.604  1.00  0.00     0.189 HD
BRANCH   3   5
HETATM    5  C2  UNL     1       2.628  -0.016   0.603  1.00  0.00     0.205 C 
HETATM    6  S1  UNL     1       3.332  -0.752   1.870  1.00  0.00    -0.038 SA
BRANCH   5   7
HETATM    7  N3  UNL     1       3.346   0.009  -0.631  1.00  0.00    -0.271 N 
ATOM      8  H3  UNL     1       2.909   0.466  -1.432  1.00  0.00     0.189 HD
BRANCH   7   9
HETATM    9  N2  UNL     1       4.604  -0.552  -0.804  1.00  0.00    -0.252 N 
HETATM   10  C1  UNL     1       5.775  -0.078  -0.161  1.00  0.00     0.347 C 
HETATM   11  N1  UNL     1       7.046  -0.704  -0.383  1.00  0.00    -0.038 NA
HETATM   12  O1  UNL     1       5.680   0.914   0.615  1.00  0.00    -0.249 OA
ATOM     13  H2  UNL     1       4.691  -1.352  -1.431  1.00  0.00     0.191 HD
ENDBRANCH   7   9
ENDBRANCH   5   7
ENDBRANCH   3   5
ENDBRANCH   1   3
BRANCH   1  14
HETATM   14  C3  UNL     1      -0.695   1.113  -0.560  1.00  0.00     0.155 C 
HETATM   15  N7  UNL     1      -1.258   2.060  -1.206  1.00  0.00    -0.251 N 
ATOM     16  H7  UNL     1      -2.264   2.011  -1.366  1.00  0.00     0.196 HD
BRANCH  14  17
HETATM   17  C4  UNL     1      -1.363  -0.061  -0.018  1.00  0.00     0.141 C 
BRANCH  17  18
HETATM   18  N6  UNL     1      -2.716  -0.271  -0.218  1.00  0.00    -0.366 N 
HETATM   19  C5  UNL     1      -3.275  -1.467   0.303  1.00  0.00     0.128 C 
HETATM   20  C6  UNL     1      -4.727  -1.181   0.613  1.00  0.00     0.025 C 
HETATM   21  C7  UNL     1      -4.808   0.309   0.624  1.00  0.00     0.046 C 
HETATM   22  C8  UNL     1      -3.680   0.692  -0.326  1.00  0.00     0.063 C 
ENDBRANCH  17  18
ENDBRANCH  14  17
BRANCH  15  23
HETATM   23  O2  UNL     1      -0.575   3.127  -1.688  1.00  0.00    -0.288 OA
ATOM     24  H2  UNL     1      -0.994   3.831  -2.169  1.00  0.00     0.244 HD
ENDBRANCH  15  23
ENDBRANCH   1  14
TORSDOF 8
