REMARK  3 active torsions:
REMARK  status: ('A' for Active; 'I' for Inactive)
REMARK       I    between atoms: N1_3  and  C3_5 
REMARK    1  A    between atoms: C3_5  and  C4_7 
REMARK    2  A    between atoms: C4_7  and  N2_9 
REMARK       I    between atoms: N2_9  and  C6_11 
REMARK    3  A    between atoms: C6_11  and  C7_13 
REMARK       I    between atoms: N3_18  and  C11_19 
ROOT
HETATM    1  C1  UNL     1       5.611   2.616  -1.076  1.00  0.00     0.037 C 
HETATM    2  C2  UNL     1       5.001   1.691  -0.603  1.00  0.00     0.002 C 
HETATM    3  N1  UNL     1       4.286   0.622  -0.068  1.00  0.00    -0.285 N 
ATOM      4  H1  UNL     1       4.796  -0.169   0.325  1.00  0.00     0.179 HD
HETATM    5  C3  UNL     1       2.871   0.604  -0.055  1.00  0.00     0.251 C 
HETATM    6  O1  UNL     1       2.267   1.587  -0.544  1.00  0.00    -0.270 OA
ENDROOT
BRANCH   5   7
HETATM    7  C4  UNL     1       2.066  -0.504   0.500  1.00  0.00     0.173 C 
HETATM    8  C5  UNL     1       2.414  -1.832  -0.155  1.00  0.00     0.042 C 
BRANCH   7   9
HETATM    9  N2  UNL     1       0.653  -0.266   0.385  1.00  0.00    -0.346 N 
HETATM   10  C6  UNL     1      -0.183  -0.188   1.522  1.00  0.00     0.243 C 
HETATM   11  O2  UNL     1       0.348  -0.335   2.654  1.00  0.00    -0.271 OA
ATOM     12  H2  UNL     1       0.243  -0.150  -0.542  1.00  0.00     0.163 HD
BRANCH  10  13
HETATM   13  C7  UNL     1      -1.660   0.062   1.385  1.00  0.00     0.202 C 
HETATM   14  C8  UNL     1      -2.458  -0.979   2.121  1.00  0.00     0.202 C 
HETATM   15  O3  UNL     1      -2.897  -2.014   1.317  1.00  0.00    -0.387 OA
HETATM   16  C9  UNL     1      -3.546  -1.597   0.172  1.00  0.00     0.187 C 
HETATM   17  C10 UNL     1      -2.453  -0.977  -0.711  1.00  0.00     0.152 C 
HETATM   18  N3  UNL     1      -2.025   0.194   0.004  1.00  0.00    -0.338 N 
HETATM   19  C11 UNL     1      -1.991   1.420  -0.707  1.00  0.00     0.184 C 
HETATM   20  N4  UNL     1      -2.131   2.553  -0.064  1.00  0.00    -0.374 N 
HETATM   21  N5  UNL     1      -1.810   1.493  -2.105  1.00  0.00    -0.064 NA
ATOM     22  H42 UNL     1      -2.262   2.500   0.946  1.00  0.00     0.158 HD
ATOM     23  H41 UNL     1      -2.107   3.435  -0.576  1.00  0.00     0.158 HD
ENDBRANCH  10  13
ENDBRANCH   7   9
ENDBRANCH   5   7
TORSDOF 3
