REMARK  3 active torsions:
REMARK  status: ('A' for Active; 'I' for Inactive)
REMARK    1  A    between atoms: C2_2  and  C3_3 
REMARK    2  A    between atoms: C3_3  and  C4_4 
REMARK    3  A    between atoms: C13_13  and  N1_14 
ROOT
HETATM    1  C4  UNL     1      -3.060  -0.434   0.806  1.00  0.00    -0.006 C 
HETATM    2  C5  UNL     1      -2.869   0.035   2.266  1.00  0.00     0.006 C 
HETATM    3  C6  UNL     1      -1.399   0.315   2.430  1.00  0.00     0.006 C 
HETATM    4  C7  UNL     1      -0.787  -0.410   1.292  1.00  0.00    -0.002 C 
HETATM    5  C8  UNL     1       0.526   0.127   0.844  1.00  0.00    -0.005 C 
HETATM    6  C9  UNL     1       1.592   0.013   1.943  1.00  0.00     0.006 C 
HETATM    7  C10 UNL     1       2.885   0.612   1.448  1.00  0.00     0.012 C 
HETATM    8  C11 UNL     1       3.339  -0.133   0.244  1.00  0.00    -0.012 C 
HETATM    9  C12 UNL     1       3.684  -1.572   0.545  1.00  0.00     0.018 C 
HETATM   10  C13 UNL     1       4.485   0.478  -0.494  1.00  0.00     0.192 C 
HETATM   11  C14 UNL     1       4.258   0.126  -1.965  1.00  0.00     0.034 C 
HETATM   12  C15 UNL     1       2.888  -0.560  -2.011  1.00  0.00     0.008 C 
HETATM   13  C16 UNL     1       2.239  -0.023  -0.806  1.00  0.00     0.000 C 
HETATM   14  C17 UNL     1       1.042  -0.737  -0.300  1.00  0.00    -0.005 C 
HETATM   15  C18 UNL     1       0.036  -0.951  -1.376  1.00  0.00     0.006 C 
HETATM   16  C19 UNL     1      -1.372  -1.121  -0.909  1.00  0.00     0.010 C 
HETATM   17  C20 UNL     1      -1.779  -0.128   0.133  1.00  0.00    -0.036 C 
HETATM   18  C21 UNL     1      -1.592   1.264  -0.356  1.00  0.00     0.016 C 
ENDROOT
BRANCH  10  19
HETATM   19  N1  UNL     1       4.433   1.921  -0.303  1.00  0.00    -0.074 N 
ATOM     20  H13 UNL     1       3.534   2.321  -0.572  1.00  0.00     0.274 HD
ATOM     21  H12 UNL     1       4.413   2.187   0.682  1.00  0.00     0.274 HD
ATOM     22  H11 UNL     1       5.216   2.338  -0.807  1.00  0.00     0.274 HD
ENDBRANCH  10  19
BRANCH   1  23
HETATM   23  C3  UNL     1      -4.292   0.234   0.329  1.00  0.00     0.005 C 
BRANCH  23  24
HETATM   24  C2  UNL     1      -4.708  -0.081  -1.071  1.00  0.00    -0.004 C 
HETATM   25  C1  UNL     1      -6.008   0.676  -1.394  1.00  0.00     0.005 C 
ENDBRANCH  23  24
ENDBRANCH   1  23
TORSDOF 3
