REMARK  3 active torsions:
REMARK  status: ('A' for Active; 'I' for Inactive)
REMARK    1  A    between atoms: N1_2  and  C2_5 
REMARK    2  A    between atoms: C2_5  and  C3_6 
REMARK    3  A    between atoms: C3_6  and  C4_7 
ROOT
HETATM    1  C4  UNL     1       1.517   0.055   0.015  1.00  0.00     0.038 C 
HETATM    2  C5  UNL     1       2.234  -1.240   0.167  1.00  0.00    -0.007 C 
HETATM    3  N2  UNL     1       3.271  -1.671   0.696  1.00  0.00    -0.405 N 
ATOM      4  H21 UNL     1       3.762  -2.559   0.800  1.00  0.00     0.155 HD
ATOM      5  H22 UNL     1       3.892  -0.993   1.138  1.00  0.00     0.155 HD
HETATM    6  C6  UNL     1       1.285  -2.276  -0.508  1.00  0.00    -0.005 C 
HETATM    7  C7  UNL     1       1.440  -3.615   0.128  1.00  0.00     0.021 C 
HETATM    8  C8  UNL     1       1.733  -2.299  -1.952  1.00  0.00     0.021 C 
HETATM    9  C9  UNL     1      -0.049  -1.660  -0.297  1.00  0.00     0.008 C 
HETATM   10  C10 UNL     1      -1.000  -2.423   0.603  1.00  0.00     0.033 C 
HETATM   11  C11 UNL     1      -2.276  -1.608   0.479  1.00  0.00    -0.022 C 
HETATM   12  C12 UNL     1      -2.248  -0.296   0.323  1.00  0.00    -0.067 C 
HETATM   13  C13 UNL     1      -3.579   0.426   0.205  1.00  0.00    -0.024 C 
HETATM   14  C14 UNL     1      -4.277   0.606   1.495  1.00  0.00     0.019 C 
HETATM   15  C15 UNL     1      -4.512  -0.391  -0.704  1.00  0.00     0.019 C 
HETATM   16  C16 UNL     1      -3.357   1.721  -0.577  1.00  0.00     0.013 C 
HETATM   17  C17 UNL     1      -2.351   1.413  -1.641  1.00  0.00     0.002 C 
HETATM   18  C18 UNL     1      -0.965   1.195  -1.093  1.00  0.00     0.014 C 
HETATM   19  C19 UNL     1      -0.985   0.511   0.259  1.00  0.00    -0.015 C 
HETATM   20  C20 UNL     1      -0.979   1.583   1.333  1.00  0.00     0.020 C 
HETATM   21  C21 UNL     1       0.167  -0.362   0.520  1.00  0.00     0.013 C 
ENDROOT
BRANCH   1  22
HETATM   22  C3  UNL     1       2.192   1.174   0.686  1.00  0.00     0.038 C 
BRANCH  22  23
HETATM   23  C2  UNL     1       3.533   1.456   0.082  1.00  0.00     0.232 C 
BRANCH  23  24
HETATM   24  N1  UNL     1       4.209   2.554   0.765  1.00  0.00    -0.079 N 
HETATM   25  C1  UNL     1       5.497   2.792   0.150  1.00  0.00     0.266 C 
ATOM     26  H12 UNL     1       4.287   2.392   1.769  1.00  0.00     0.276 HD
ATOM     27  H11 UNL     1       3.636   3.398   0.796  1.00  0.00     0.276 HD
ENDBRANCH  23  24
ENDBRANCH  22  23
ENDBRANCH   1  22
TORSDOF 3
