REMARK  5 active torsions:
REMARK  status: ('A' for Active; 'I' for Inactive)
REMARK    1  A    between atoms: C13_13  and  C15_15 
REMARK    2  A    between atoms: C16_16  and  C17_17 
REMARK    3  A    between atoms: C17_17  and  N2_22 
REMARK    4  A    between atoms: N1_18  and  O1_20 
REMARK    5  A    between atoms: N2_22  and  C18_24 
ROOT
HETATM    1  C1  UNL     1      -1.423  -0.778   4.881  1.00  0.00     0.019 C 
HETATM    2  C2  UNL     1      -1.720  -0.160   3.874  1.00  0.00    -0.064 C 
HETATM    3  C3  UNL     1      -2.735   0.937   3.569  1.00  0.00     0.038 C 
HETATM    4  C4  UNL     1      -2.215   1.941   2.626  1.00  0.00     0.006 C 
HETATM    5  C5  UNL     1      -1.037   1.660   1.798  1.00  0.00     0.015 C 
HETATM    6  C6  UNL     1      -0.466   0.307   1.713  1.00  0.00    -0.009 C 
HETATM    7  C7  UNL     1       1.039   0.430   2.074  1.00  0.00     0.021 C 
HETATM    8  C8  UNL     1      -1.153  -0.671   2.533  1.00  0.00    -0.065 C 
HETATM    9  C9  UNL     1      -0.526  -2.003   2.526  1.00  0.00     0.036 C 
HETATM   10  C10 UNL     1      -0.799  -2.524   1.133  1.00  0.00     0.009 C 
HETATM   11  C11 UNL     1      -0.233  -1.567   0.103  1.00  0.00    -0.005 C 
HETATM   12  C12 UNL     1       1.226  -1.982  -0.050  1.00  0.00     0.011 C 
HETATM   13  C13 UNL     1      -0.530  -0.158   0.205  1.00  0.00    -0.012 C 
HETATM   14  C14 UNL     1      -1.953   0.123  -0.261  1.00  0.00     0.021 C 
ENDROOT
BRANCH  13  15
HETATM   15  C15 UNL     1       0.305   0.804  -0.552  1.00  0.00    -0.012 C 
HETATM   16  C16 UNL     1       0.708   1.021  -1.739  1.00  0.00     0.047 C 
BRANCH  16  17
HETATM   17  C17 UNL     1       0.457   0.291  -3.042  1.00  0.00     0.120 C 
HETATM   18  N1  UNL     1      -0.304  -0.646  -3.039  1.00  0.00    -0.253 N 
ATOM     19  H1  UNL     1      -0.739  -0.870  -2.144  1.00  0.00     0.196 HD
BRANCH  18  20
HETATM   20  O1  UNL     1      -0.670  -1.485  -4.151  1.00  0.00    -0.288 OA
ATOM     21  H1  UNL     1      -1.269  -2.222  -4.149  1.00  0.00     0.244 HD
ENDBRANCH  18  20
BRANCH  17  22
HETATM   22  N2  UNL     1       1.197   0.771  -4.144  1.00  0.00    -0.370 N 
ATOM     23  H2  UNL     1       0.813   0.652  -5.081  1.00  0.00     0.161 HD
BRANCH  22  24
HETATM   24  C18 UNL     1       2.496   1.434  -3.994  1.00  0.00     0.083 A 
HETATM   25  C19 UNL     1       3.202   1.973  -5.144  1.00  0.00     0.027 A 
HETATM   26  C20 UNL     1       3.685   0.652  -4.655  1.00  0.00     0.027 A 
ENDBRANCH  22  24
ENDBRANCH  17  22
ENDBRANCH  16  17
ENDBRANCH  13  15
TORSDOF 5
