REMARK  6 active torsions:
REMARK  status: ('A' for Active; 'I' for Inactive)
REMARK    1  A    between atoms: S1_2  and  C2_3 
REMARK    2  A    between atoms: C7_8  and  C8_9 
REMARK       I    between atoms: C8_9  and  N1_11 
REMARK    3  A    between atoms: N1_11  and  C9_13 
REMARK    4  A    between atoms: C9_13  and  C11_16 
REMARK       I    between atoms: C11_16  and  N3_18 
REMARK    5  A    between atoms: N3_18  and  N4_20 
REMARK    6  A    between atoms: C12_22  and  C13_23 
ROOT
HETATM    1  C9  UNL     1      -1.277   1.749  -0.057  1.00  0.00     0.286 C 
HETATM    2  C10 UNL     1      -1.206   2.624   1.125  1.00  0.00     0.094 C 
HETATM    3  N2  UNL     1      -1.173   3.323   2.073  1.00  0.00    -0.195 NA
ENDROOT
BRANCH   1   4
HETATM    4  N1  UNL     1      -2.294   0.720   0.234  1.00  0.00    -0.332 N 
HETATM    5  C8  UNL     1      -3.381   0.597  -0.629  1.00  0.00     0.254 C 
HETATM    6  O1  UNL     1      -3.435   1.365  -1.649  1.00  0.00    -0.268 OA
ATOM      7  H1  UNL     1      -2.203   0.113   1.048  1.00  0.00     0.164 HD
BRANCH   5   8
HETATM    8  C7  UNL     1      -4.497  -0.344  -0.499  1.00  0.00     0.048 A 
HETATM    9  C2  UNL     1      -4.980  -0.810   0.677  1.00  0.00     0.015 A 
HETATM   10  C3  UNL     1      -5.995  -1.764   0.770  1.00  0.00     0.019 A 
HETATM   11  C4  UNL     1      -6.534  -2.255  -0.393  1.00  0.00     0.001 A 
HETATM   12  C5  UNL     1      -6.083  -1.815  -1.623  1.00  0.00     0.001 A 
HETATM   13  C6  UNL     1      -5.075  -0.868  -1.673  1.00  0.00     0.018 A 
BRANCH   9  14
HETATM   14  S1  UNL     1      -4.375  -0.135   2.225  1.00  0.00    -0.133 SA
HETATM   15  C1  UNL     1      -5.308   1.384   2.660  1.00  0.00     0.095 C 
ENDBRANCH   9  14
ENDBRANCH   5   8
ENDBRANCH   1   4
BRANCH   1  16
HETATM   16  C11 UNL     1       0.029   1.117  -0.305  1.00  0.00     0.273 C 
HETATM   17  O2  UNL     1       0.131  -0.132  -0.268  1.00  0.00    -0.268 OA
HETATM   18  N3  UNL     1       1.162   1.887  -0.584  1.00  0.00    -0.268 N 
ATOM     19  H3  UNL     1       1.096   2.904  -0.617  1.00  0.00     0.190 HD
BRANCH  18  20
HETATM   20  N4  UNL     1       2.407   1.243  -0.821  1.00  0.00    -0.308 N 
HETATM   21  C12 UNL     1       3.108   0.895   0.241  1.00  0.00     0.118 C 
ATOM     22  H4  UNL     1       2.742   1.059  -1.767  1.00  0.00     0.186 HD
BRANCH  21  23
HETATM   23  C13 UNL     1       4.377   0.234   0.159  1.00  0.00    -0.017 A 
HETATM   24  C14 UNL     1       5.090  -0.024   1.319  1.00  0.00     0.016 A 
HETATM   25  C15 UNL     1       6.302  -0.672   1.339  1.00  0.00     0.040 A 
HETATM   26  C16 UNL     1       6.843  -1.094   0.135  1.00  0.00     0.105 A 
HETATM   27  C17 UNL     1       6.173  -0.861  -1.029  1.00  0.00     0.105 A 
HETATM   28  O4  UNL     1       8.022  -1.759  -0.147  1.00  0.00    -0.323 OA
HETATM   29  C18 UNL     1       4.936  -0.197  -1.036  1.00  0.00     0.052 A 
HETATM   30  O3  UNL     1       6.931  -1.382  -2.057  1.00  0.00    -0.323 OA
HETATM   31  C19 UNL     1       8.110  -1.918  -1.527  1.00  0.00     0.352 A 
ENDBRANCH  21  23
ENDBRANCH  18  20
ENDBRANCH   1  16
TORSDOF 6
