REMARK  13 active torsions:
REMARK  status: ('A' for Active; 'I' for Inactive)
REMARK    1  A    between atoms: N1_1  and  C1_5 
REMARK    2  A    between atoms: C1_5  and  C2_6 
REMARK    3  A    between atoms: C2_6  and  C3_7 
REMARK    4  A    between atoms: C3_7  and  C4_8 
REMARK    5  A    between atoms: C4_8  and  C5_9 
REMARK    6  A    between atoms: C5_9  and  N2_10 
REMARK       I    between atoms: N2_10  and  C6_12 
REMARK    7  A    between atoms: C6_12  and  C7_14 
REMARK    8  A    between atoms: C7_14  and  C8_15 
REMARK    9  A    between atoms: C11_21  and  C12_22 
REMARK   10  A    between atoms: C12_22  and  C13_23 
REMARK   11  A    between atoms: N5_33  and  C20_34 
REMARK   12  A    between atoms: C20_34  and  C21_35 
REMARK   13  A    between atoms: C21_35  and  C22_36 
ROOT
HETATM    1  C8  UNL     1       0.050  -1.245  -1.362  1.00  0.00     0.288 C 
HETATM    2  N3  UNL     1      -0.412  -1.442   0.010  1.00  0.00    -0.025 N 
ATOM      3  H31 UNL     1       0.182  -1.000   0.711  1.00  0.00     0.281 HD
ATOM      4  H32 UNL     1      -0.302  -2.399   0.347  1.00  0.00     0.281 HD
HETATM    5  C9  UNL     1      -1.783  -0.971   0.026  1.00  0.00     0.305 C 
HETATM    6  C10 UNL     1      -2.631  -1.562   1.151  1.00  0.00     0.104 C 
HETATM    7  C11 UNL     1      -2.854  -2.655   0.166  1.00  0.00     0.193 C 
HETATM    8  N4  UNL     1      -2.575  -1.734  -0.934  1.00  0.00    -0.034 N 
ATOM      9  H41 UNL     1      -2.177  -2.060  -1.815  1.00  0.00     0.280 HD
ATOM     10  H42 UNL     1      -3.326  -1.300  -1.471  1.00  0.00     0.280 HD
HETATM   11  C19 UNL     1      -1.883   0.507  -0.107  1.00  0.00     0.195 C 
HETATM   12  N5  UNL     1      -0.910   1.011  -1.038  1.00  0.00    -0.346 N 
HETATM   13  C27 UNL     1       0.138   0.204  -1.559  1.00  0.00     0.251 C 
HETATM   14  O2  UNL     1       1.099   0.764  -2.169  1.00  0.00    -0.271 OA
ENDROOT
BRANCH   1  15
HETATM   15  C7  UNL     1       1.294  -1.994  -1.676  1.00  0.00     0.145 C 
BRANCH  15  16
HETATM   16  C6  UNL     1       2.444  -1.627  -0.831  1.00  0.00     0.220 C 
HETATM   17  N2  UNL     1       3.728  -2.196  -0.947  1.00  0.00    -0.361 N 
ATOM     18  H2  UNL     1       3.860  -2.907  -1.666  1.00  0.00     0.162 HD
HETATM   19  O1  UNL     1       2.254  -0.748   0.048  1.00  0.00    -0.274 OA
BRANCH  17  20
HETATM   20  C5  UNL     1       4.856  -1.862  -0.145  1.00  0.00     0.122 C 
BRANCH  20  21
HETATM   21  C4  UNL     1       5.264  -0.416  -0.242  1.00  0.00     0.020 C 
BRANCH  21  22
HETATM   22  C3  UNL     1       6.456  -0.104   0.621  1.00  0.00     0.003 C 
BRANCH  22  23
HETATM   23  C2  UNL     1       7.690  -0.892   0.274  1.00  0.00     0.027 C 
BRANCH  23  24
HETATM   24  C1  UNL     1       8.772  -0.429   1.257  1.00  0.00     0.229 C 
BRANCH  24  25
HETATM   25  N1  UNL     1       8.938   0.988   1.043  1.00  0.00    -0.079 N 
ATOM     26  H13 UNL     1       9.143   1.229   0.073  1.00  0.00     0.274 HD
ATOM     27  H12 UNL     1       8.068   1.514   1.123  1.00  0.00     0.274 HD
ATOM     28  H11 UNL     1       9.658   1.296   1.697  1.00  0.00     0.274 HD
ENDBRANCH  24  25
ENDBRANCH  23  24
ENDBRANCH  22  23
ENDBRANCH  21  22
ENDBRANCH  20  21
ENDBRANCH  17  20
ENDBRANCH  15  16
ENDBRANCH   1  15
BRANCH  12  29
HETATM   29  C20 UNL     1      -1.055   2.416  -1.425  1.00  0.00     0.126 C 
BRANCH  29  30
HETATM   30  C21 UNL     1      -0.255   3.210  -0.438  1.00  0.00     0.024 C 
BRANCH  30  31
HETATM   31  C22 UNL     1      -0.303   4.706  -0.706  1.00  0.00    -0.010 C 
HETATM   32  C23 UNL     1       0.243   4.980  -2.055  1.00  0.00     0.032 C 
HETATM   33  C24 UNL     1       0.890   6.310  -2.247  1.00  0.00     0.232 C 
HETATM   34  N6  UNL     1       0.868   7.149  -1.071  1.00  0.00    -0.075 N 
HETATM   35  C25 UNL     1       1.450   6.347   0.011  1.00  0.00     0.232 C 
ATOM     36  H62 UNL     1       1.331   8.048  -1.204  1.00  0.00     0.277 HD
ATOM     37  H61 UNL     1      -0.058   7.517  -0.852  1.00  0.00     0.277 HD
HETATM   38  C26 UNL     1       0.351   5.398   0.429  1.00  0.00     0.032 C 
ENDBRANCH  30  31
ENDBRANCH  29  30
ENDBRANCH  12  29
BRANCH   7  39
HETATM   39  C12 UNL     1      -4.186  -3.289   0.011  1.00  0.00     0.037 C 
BRANCH  39  40
HETATM   40  C13 UNL     1      -4.786  -4.009   1.161  1.00  0.00    -0.013 C 
HETATM   41  C14 UNL     1      -5.054  -3.238   2.392  1.00  0.00     0.005 C 
HETATM   42  C15 UNL     1      -6.220  -2.276   2.236  1.00  0.00     0.000 C 
HETATM   43  C16 UNL     1      -7.430  -3.167   1.956  1.00  0.00     0.000 C 
HETATM   44  C17 UNL     1      -7.213  -3.805   0.604  1.00  0.00     0.000 C 
HETATM   45  C18 UNL     1      -6.053  -4.767   0.716  1.00  0.00     0.005 C 
ENDBRANCH  39  40
ENDBRANCH   7  39
TORSDOF 13
