REMARK  15 active torsions:
REMARK  status: ('A' for Active; 'I' for Inactive)
REMARK    1  A    between atoms: C4_4  and  C5_5 
REMARK    2  A    between atoms: C5_5  and  N1_6 
REMARK    3  A    between atoms: N1_6  and  C6_8 
REMARK    4  A    between atoms: C6_8  and  O1_9 
REMARK    5  A    between atoms: C6_8  and  C7_11 
REMARK    6  A    between atoms: C7_11  and  N2_12 
REMARK    7  A    between atoms: C7_11  and  C18_25 
REMARK       I    between atoms: N2_12  and  C8_14 
REMARK    8  A    between atoms: C8_14  and  C9_16 
REMARK    9  A    between atoms: C9_16  and  C10_17 
REMARK   10  A    between atoms: C10_17  and  C11_18 
REMARK   11  A    between atoms: C11_18  and  C12_19 
REMARK   12  A    between atoms: C18_25  and  C19_26 
REMARK   13  A    between atoms: C19_26  and  C20_27 
REMARK   14  A    between atoms: C20_27  and  C21_28 
REMARK   15  A    between atoms: N4_31  and  N5_33 
REMARK       I    between atoms: N5_33  and  C22_35 
ROOT
HETATM    1  C7  UNL     1      -1.608  -1.532  -0.617  1.00  0.00     0.110 C 
ENDROOT
BRANCH   1   2
HETATM    2  C6  UNL     1      -1.963  -0.344  -1.314  1.00  0.00     0.165 C 
BRANCH   2   3
HETATM    3  N1  UNL     1      -3.106   0.011  -2.057  1.00  0.00    -0.365 N 
ATOM      4  H1  UNL     1      -3.870  -0.653  -2.181  1.00  0.00     0.162 HD
BRANCH   3   5
HETATM    5  C5  UNL     1      -3.181   1.368  -2.658  1.00  0.00     0.162 C 
BRANCH   5   6
HETATM    6  C4  UNL     1      -3.284   2.422  -1.635  1.00  0.00    -0.017 A 
HETATM    7  C3  UNL     1      -3.379   2.267  -0.288  1.00  0.00     0.035 A 
HETATM    8  C2  UNL     1      -3.487   3.501   0.288  1.00  0.00     0.006 A 
HETATM    9  C1  UNL     1      -3.612   3.766   1.765  1.00  0.00     0.068 C 
HETATM   10  N7  UNL     1      -3.457   4.386  -0.711  1.00  0.00    -0.363 N 
HETATM   11  C23 UNL     1      -3.335   3.794  -1.902  1.00  0.00     0.013 A 
ATOM     12  H7  UNL     1      -3.520   5.396  -0.580  1.00  0.00     0.165 HD
HETATM   13  C24 UNL     1      -3.261   4.390  -3.260  1.00  0.00     0.068 C 
ENDBRANCH   5   6
ENDBRANCH   3   5
ENDBRANCH   2   3
BRANCH   2  14
HETATM   14  O1  UNL     1      -1.066   0.612  -1.263  1.00  0.00    -0.345 OA
ATOM     15  H1  UNL     1      -0.295   0.373  -0.762  1.00  0.00     0.219 HD
ENDBRANCH   2  14
ENDBRANCH   1   2
BRANCH   1  16
HETATM   16  N2  UNL     1      -0.463  -1.585  -0.009  1.00  0.00    -0.322 N 
HETATM   17  C8  UNL     1       0.566  -0.666   0.118  1.00  0.00     0.222 C 
HETATM   18  O2  UNL     1       0.443   0.217   1.015  1.00  0.00    -0.273 OA
ATOM     19  H2  UNL     1      -0.287  -2.471   0.465  1.00  0.00     0.169 HD
BRANCH  17  20
HETATM   20  C9  UNL     1       1.726  -0.781  -0.795  1.00  0.00     0.103 C 
BRANCH  20  21
HETATM   21  C10 UNL     1       2.794   0.248  -0.628  1.00  0.00     0.010 C 
BRANCH  21  22
HETATM   22  C11 UNL     1       3.424   0.179   0.716  1.00  0.00     0.005 C 
BRANCH  22  23
HETATM   23  C12 UNL     1       4.517   1.226   0.898  1.00  0.00    -0.014 C 
HETATM   24  C13 UNL     1       5.085   1.083   2.258  1.00  0.00     0.004 C 
HETATM   25  C14 UNL     1       6.367   1.789   2.495  1.00  0.00     0.000 C 
HETATM   26  C15 UNL     1       6.747   2.621   1.309  1.00  0.00     0.000 C 
HETATM   27  C16 UNL     1       6.859   1.665   0.121  1.00  0.00     0.000 C 
HETATM   28  C17 UNL     1       5.514   1.067  -0.215  1.00  0.00     0.004 C 
ENDBRANCH  22  23
ENDBRANCH  21  22
ENDBRANCH  20  21
ENDBRANCH  17  20
ENDBRANCH   1  16
BRANCH   1  29
HETATM   29  C18 UNL     1      -2.414  -2.747  -0.501  1.00  0.00     0.057 C 
HETATM   30  N4  UNL     1      -1.979  -3.779   0.168  1.00  0.00    -0.299 N 
ATOM     31  H4  UNL     1      -2.605  -4.583   0.201  1.00  0.00     0.186 HD
BRANCH  29  32
HETATM   32  C19 UNL     1      -3.733  -2.941  -1.136  1.00  0.00     0.070 C 
BRANCH  32  33
HETATM   33  C20 UNL     1      -4.342  -4.301  -0.798  1.00  0.00     0.105 C 
BRANCH  33  34
HETATM   34  C21 UNL     1      -4.622  -4.455   0.642  1.00  0.00     0.231 C 
HETATM   35  N3  UNL     1      -4.871  -5.732   1.230  1.00  0.00    -0.062 NA
HETATM   36  O3  UNL     1      -4.649  -3.438   1.387  1.00  0.00    -0.277 OA
ENDBRANCH  33  34
ENDBRANCH  32  33
ENDBRANCH  29  32
BRANCH  30  37
HETATM   37  N5  UNL     1      -0.794  -3.921   0.830  1.00  0.00    -0.254 N 
HETATM   38  C22 UNL     1      -0.696  -3.866   2.231  1.00  0.00     0.347 C 
HETATM   39  N6  UNL     1       0.603  -4.028   2.840  1.00  0.00    -0.038 NA
HETATM   40  O4  UNL     1      -1.696  -3.682   2.954  1.00  0.00    -0.249 OA
ATOM     41  H5  UNL     1       0.055  -4.073   0.286  1.00  0.00     0.191 HD
ENDBRANCH  30  37
ENDBRANCH   1  29
TORSDOF 15
