REMARK  17 active torsions:
REMARK  status: ('A' for Active; 'I' for Inactive)
REMARK    1  A    between atoms: O1_2  and  C2_3 
REMARK    2  A    between atoms: C3_4  and  C4_5 
REMARK    3  A    between atoms: C5_6  and  C6_7 
REMARK    4  A    between atoms: C6_7  and  C7_8 
REMARK    5  A    between atoms: C7_8  and  C8_9 
REMARK    6  A    between atoms: C8_9  and  C9_10 
REMARK    7  A    between atoms: C9_10  and  C10_11 
REMARK    8  A    between atoms: C10_11  and  C11_12 
REMARK    9  A    between atoms: C11_12  and  C12_13 
REMARK   10  A    between atoms: C12_13  and  C13_14 
REMARK   11  A    between atoms: C13_14  and  C14_15 
REMARK   12  A    between atoms: C14_15  and  C15_16 
REMARK       I    between atoms: C15_16  and  N1_18 
REMARK   13  A    between atoms: N1_18  and  C16_20 
REMARK   14  A    between atoms: C21_25  and  C22_26 
REMARK   15  A    between atoms: C23_27  and  C24_28 
REMARK   16  A    between atoms: C26_35  and  O4_36 
REMARK   17  A    between atoms: C27_38  and  O5_39 
ROOT
HETATM    1  C16 UNL     1      -2.649  -0.603  -0.225  1.00  0.00     0.116 C 
HETATM    2  C17 UNL     1      -3.645  -1.609   0.253  1.00  0.00     0.034 C 
HETATM    3  C18 UNL     1      -5.065  -1.166   0.210  1.00  0.00     0.021 C 
HETATM    4  C19 UNL     1      -5.472  -0.552   1.538  1.00  0.00     0.009 C 
HETATM    5  C20 UNL     1      -6.985  -0.611   1.595  1.00  0.00     0.037 C 
HETATM    6  C21 UNL     1      -7.541  -0.292   0.240  1.00  0.00     0.209 C 
HETATM    7  N3  UNL     1      -6.608   0.524  -0.513  1.00  0.00    -0.060 N 
ATOM      8  H31 UNL     1      -6.365   1.375  -0.006  1.00  0.00     0.278 HD
ATOM      9  H32 UNL     1      -7.055   0.946  -1.327  1.00  0.00     0.278 HD
HETATM   10  C25 UNL     1      -5.422  -0.225  -0.889  1.00  0.00     0.221 C 
HETATM   11  C26 UNL     1      -4.353   0.777  -1.222  1.00  0.00     0.179 C 
HETATM   12  C27 UNL     1      -3.088  -0.016  -1.536  1.00  0.00     0.171 C 
ENDROOT
BRANCH   1  13
HETATM   13  N1  UNL     1      -1.365  -1.273  -0.335  1.00  0.00    -0.354 N 
HETATM   14  C15 UNL     1      -0.226  -0.875   0.394  1.00  0.00     0.217 C 
HETATM   15  O2  UNL     1      -0.347   0.101   1.163  1.00  0.00    -0.274 OA
ATOM     16  H1  UNL     1      -1.284  -2.068  -0.969  1.00  0.00     0.162 HD
BRANCH  14  17
HETATM   17  C14 UNL     1       1.044  -1.595   0.238  1.00  0.00     0.103 C 
BRANCH  17  18
HETATM   18  C13 UNL     1       2.207  -1.058   0.986  1.00  0.00     0.009 C 
BRANCH  18  19
HETATM   19  C12 UNL     1       2.636   0.326   0.645  1.00  0.00     0.000 C 
BRANCH  19  20
HETATM   20  C11 UNL     1       3.829   0.771   1.459  1.00  0.00     0.000 C 
BRANCH  20  21
HETATM   21  C10 UNL     1       5.016  -0.122   1.246  1.00  0.00     0.000 C 
BRANCH  21  22
HETATM   22  C9  UNL     1       5.408  -0.109  -0.194  1.00  0.00     0.000 C 
BRANCH  22  23
HETATM   23  C8  UNL     1       6.612  -0.989  -0.470  1.00  0.00     0.001 C 
BRANCH  23  24
HETATM   24  C7  UNL     1       6.918  -0.903  -1.942  1.00  0.00     0.012 C 
BRANCH  24  25
HETATM   25  C6  UNL     1       7.235   0.492  -2.406  1.00  0.00     0.095 C 
BRANCH  25  26
HETATM   26  C5  UNL     1       8.407   0.959  -1.664  1.00  0.00    -0.092 C 
HETATM   27  C4  UNL     1       9.369   1.329  -1.038  1.00  0.00    -0.013 C 
BRANCH  27  28
HETATM   28  C3  UNL     1      10.493   1.746  -0.288  1.00  0.00     0.015 C 
HETATM   29  C2  UNL     1      11.446   2.089   0.368  1.00  0.00     0.068 C 
BRANCH  29  30
HETATM   30  O1  UNL     1      12.516   2.480   1.134  1.00  0.00    -0.308 OA
HETATM   31  C1  UNL     1      13.807   1.915   0.956  1.00  0.00     0.223 C 
ENDBRANCH  29  30
ENDBRANCH  27  28
ENDBRANCH  25  26
ENDBRANCH  24  25
ENDBRANCH  23  24
ENDBRANCH  22  23
ENDBRANCH  21  22
ENDBRANCH  20  21
ENDBRANCH  19  20
ENDBRANCH  18  19
ENDBRANCH  17  18
ENDBRANCH  14  17
ENDBRANCH   1  13
BRANCH  12  32
HETATM   32  O5  UNL     1      -3.422  -0.952  -2.486  1.00  0.00    -0.391 OA
ATOM     33  H5  UNL     1      -3.700  -0.581  -3.315  1.00  0.00     0.210 HD
ENDBRANCH  12  32
BRANCH  11  34
HETATM   34  O4  UNL     1      -4.151   1.729  -0.255  1.00  0.00    -0.391 OA
ATOM     35  H4  UNL     1      -3.475   2.363  -0.466  1.00  0.00     0.210 HD
ENDBRANCH  11  34
BRANCH   6  36
HETATM   36  C22 UNL     1      -8.789   0.486   0.395  1.00  0.00     0.011 C 
HETATM   37  C23 UNL     1      -9.960  -0.041   0.092  1.00  0.00     0.069 C 
BRANCH  37  38
HETATM   38  C24 UNL     1     -11.191   0.712   0.240  1.00  0.00     0.254 C 
HETATM   39  N2  UNL     1     -11.124   2.042   0.723  1.00  0.00    -0.058 NA
HETATM   40  O3  UNL     1     -12.321   0.242  -0.038  1.00  0.00    -0.272 OA
ENDBRANCH  37  38
ENDBRANCH   6  36
TORSDOF 17
