REMARK  11 active torsions:
REMARK  status: ('A' for Active; 'I' for Inactive)
REMARK    1  A    between atoms: C2_2  and  C4_4 
REMARK    2  A    between atoms: C4_4  and  N1_5 
REMARK    3  A    between atoms: C4_4  and  C13_18 
REMARK       I    between atoms: N1_5  and  C5_7 
REMARK       I    between atoms: C5_7  and  N2_9 
REMARK    4  A    between atoms: N2_9  and  C6_11 
REMARK       I    between atoms: C13_18  and  N3_20 
REMARK    5  A    between atoms: N3_20  and  C14_22 
REMARK    6  A    between atoms: C14_22  and  C22_30 
REMARK    7  A    between atoms: C15_23  and  C16_24 
REMARK    8  A    between atoms: C22_30  and  C23_31 
REMARK    9  A    between atoms: C22_30  and  N5_36 
REMARK   10  A    between atoms: C24_32  and  C25_33 
REMARK       I    between atoms: N5_36  and  C26_38 
REMARK   11  A    between atoms: C26_38  and  C27_40 
ROOT
HETATM    1  C13 UNL     1      -0.039  -0.352  -0.646  1.00  0.00     0.245 C 
HETATM    2  O2  UNL     1      -0.227   0.692  -1.348  1.00  0.00    -0.271 OA
HETATM    3  N3  UNL     1      -1.107  -0.847   0.106  1.00  0.00    -0.327 N 
ATOM      4  H3  UNL     1      -0.942  -1.696   0.647  1.00  0.00     0.168 HD
ENDROOT
BRANCH   3   5
HETATM    5  C14 UNL     1      -2.441  -0.254   0.185  1.00  0.00     0.035 C 
HETATM    6  C15 UNL     1      -3.379  -0.889  -0.687  1.00  0.00     0.005 C 
BRANCH   6   7
HETATM    7  C16 UNL     1      -3.715  -2.331  -0.699  1.00  0.00     0.010 C 
HETATM    8  C17 UNL     1      -4.737  -2.606  -1.816  1.00  0.00     0.008 C 
HETATM    9  C18 UNL     1      -6.138  -2.724  -1.372  1.00  0.00     0.001 C 
HETATM   10  C19 UNL     1      -6.252  -3.744  -0.233  1.00  0.00     0.000 C 
HETATM   11  C20 UNL     1      -5.513  -3.149   0.916  1.00  0.00     0.001 C 
HETATM   12  C21 UNL     1      -4.078  -2.951   0.571  1.00  0.00     0.008 C 
ENDBRANCH   6   7
BRANCH   5  13
HETATM   13  C22 UNL     1      -2.683   0.208   1.579  1.00  0.00     0.158 C 
BRANCH  13  14
HETATM   14  C23 UNL     1      -1.600   1.218   1.853  1.00  0.00     0.009 C 
HETATM   15  C24 UNL     1      -1.430   1.967   3.065  1.00  0.00     0.069 C 
BRANCH  15  16
HETATM   16  C25 UNL     1      -2.342   3.007   3.520  1.00  0.00     0.254 C 
HETATM   17  N4  UNL     1      -1.874   3.987   4.483  1.00  0.00    -0.058 NA
HETATM   18  O3  UNL     1      -3.514   3.135   3.146  1.00  0.00    -0.272 OA
ENDBRANCH  15  16
ENDBRANCH  13  14
BRANCH  13  19
HETATM   19  N5  UNL     1      -3.996   0.511   1.928  1.00  0.00    -0.339 N 
HETATM   20  C26 UNL     1      -4.811  -0.002   2.974  1.00  0.00     0.319 C 
HETATM   21  O4  UNL     1      -4.310  -0.873   3.729  1.00  0.00    -0.261 OA
ATOM     22  H5  UNL     1      -4.445   1.213   1.340  1.00  0.00     0.164 HD
BRANCH  20  23
HETATM   23  C27 UNL     1      -6.178   0.408   3.241  1.00  0.00     0.270 C 
HETATM   24  O5  UNL     1      -6.677   1.229   2.448  1.00  0.00    -0.640 OA
HETATM   25  O6  UNL     1      -6.865  -0.079   4.297  1.00  0.00    -0.640 OA
ENDBRANCH  20  23
ENDBRANCH  13  19
ENDBRANCH   5  13
ENDBRANCH   3   5
BRANCH   1  26
HETATM   26  C4  UNL     1       1.294  -0.959  -0.671  1.00  0.00     0.182 C 
BRANCH  26  27
HETATM   27  C2  UNL     1       1.382  -2.314  -1.334  1.00  0.00     0.009 C 
HETATM   28  C1  UNL     1       2.822  -2.836  -1.285  1.00  0.00     0.012 C 
HETATM   29  C3  UNL     1       0.545  -3.377  -0.703  1.00  0.00     0.012 C 
ENDBRANCH  26  27
BRANCH  26  30
HETATM   30  N1  UNL     1       2.222  -0.048  -1.400  1.00  0.00    -0.330 N 
HETATM   31  C5  UNL     1       3.333   0.562  -0.716  1.00  0.00     0.317 C 
HETATM   32  O1  UNL     1       3.468   0.268   0.489  1.00  0.00    -0.247 OA
HETATM   33  N2  UNL     1       4.178   1.420  -1.386  1.00  0.00    -0.338 N 
ATOM     34  H2  UNL     1       3.969   1.565  -2.374  1.00  0.00     0.164 HD
ATOM     35  H1  UNL     1       2.069   0.145  -2.390  1.00  0.00     0.165 HD
BRANCH  33  36
HETATM   36  C6  UNL     1       5.340   2.153  -0.866  1.00  0.00     0.087 C 
HETATM   37  C7  UNL     1       6.475   1.297  -1.156  1.00  0.00     0.026 C 
HETATM   38  C8  UNL     1       7.898   1.559  -0.760  1.00  0.00     0.013 C 
HETATM   39  C9  UNL     1       8.531   2.709  -1.632  1.00  0.00     0.080 C 
HETATM   40  C10 UNL     1       7.421   3.540  -1.910  1.00  0.00    -0.183 C 
HETATM   41  C11 UNL     1       6.236   4.234  -2.134  1.00  0.00     0.082 C 
HETATM   42  C12 UNL     1       5.112   3.539  -1.347  1.00  0.00     0.036 C 
ENDBRANCH  33  36
ENDBRANCH  26  30
ENDBRANCH   1  26
TORSDOF 11
