REMARK  16 active torsions:
REMARK  status: ('A' for Active; 'I' for Inactive)
REMARK    1  A    between atoms: C2_2  and  C4_4 
REMARK    2  A    between atoms: C4_4  and  C5_5 
REMARK    3  A    between atoms: C4_4  and  C6_10 
REMARK    4  A    between atoms: C5_5  and  N1_6 
REMARK       I    between atoms: C6_10  and  N2_12 
REMARK    5  A    between atoms: N2_12  and  C7_14 
REMARK    6  A    between atoms: C7_14  and  C8_15 
REMARK    7  A    between atoms: C7_14  and  C15_22 
REMARK    8  A    between atoms: C8_15  and  C9_16 
REMARK    9  A    between atoms: C15_22  and  C16_23 
REMARK   10  A    between atoms: C15_22  and  N5_31 
REMARK   11  A    between atoms: C16_23  and  O2_24 
REMARK   12  A    between atoms: N3_26  and  N4_28 
REMARK   13  A    between atoms: C20_35  and  C21_36 
REMARK       I    between atoms: C21_36  and  N6_38 
REMARK   14  A    between atoms: N6_38  and  C22_40 
REMARK   15  A    between atoms: C22_40  and  C23_41 
REMARK   16  A    between atoms: C23_41  and  C24_42 
ROOT
HETATM    1  C15 UNL     1      -0.329  -1.061   0.093  1.00  0.00     0.179 C 
ENDROOT
BRANCH   1   2
HETATM    2  C7  UNL     1      -1.833  -0.845   0.008  1.00  0.00     0.115 C 
BRANCH   2   3
HETATM    3  N2  UNL     1      -2.087   0.542   0.154  1.00  0.00    -0.354 N 
HETATM    4  C6  UNL     1      -2.961   1.241   0.993  1.00  0.00     0.224 C 
HETATM    5  O1  UNL     1      -3.730   0.667   1.838  1.00  0.00    -0.273 OA
ATOM      6  H2  UNL     1      -1.534   1.136  -0.463  1.00  0.00     0.163 HD
BRANCH   4   7
HETATM    7  C4  UNL     1      -3.085   2.715   0.991  1.00  0.00     0.106 C 
BRANCH   7   8
HETATM    8  C2  UNL     1      -3.708   3.319  -0.210  1.00  0.00    -0.008 C 
HETATM    9  C1  UNL     1      -3.154   2.912  -1.530  1.00  0.00     0.010 C 
HETATM   10  C3  UNL     1      -3.781   4.823  -0.105  1.00  0.00     0.010 C 
ENDBRANCH   7   8
BRANCH   7  11
HETATM   11  C5  UNL     1      -3.752   3.227   2.260  1.00  0.00     0.243 C 
BRANCH  11  12
HETATM   12  N1  UNL     1      -3.129   2.623   3.423  1.00  0.00    -0.079 N 
ATOM     13  H13 UNL     1      -3.132   1.604   3.373  1.00  0.00     0.274 HD
ATOM     14  H12 UNL     1      -2.119   2.768   3.436  1.00  0.00     0.274 HD
ATOM     15  H11 UNL     1      -3.576   2.966   4.273  1.00  0.00     0.274 HD
ENDBRANCH  11  12
ENDBRANCH   7  11
ENDBRANCH   4   7
ENDBRANCH   2   3
BRANCH   2  16
HETATM   16  C8  UNL     1      -2.386  -1.473  -1.238  1.00  0.00     0.032 C 
BRANCH  16  17
HETATM   17  C9  UNL     1      -3.886  -1.382  -1.393  1.00  0.00    -0.013 C 
HETATM   18  C10 UNL     1      -4.673  -2.061  -0.329  1.00  0.00     0.005 C 
HETATM   19  C11 UNL     1      -4.816  -3.553  -0.520  1.00  0.00     0.000 C 
HETATM   20  C12 UNL     1      -5.348  -3.867  -1.913  1.00  0.00     0.000 C 
HETATM   21  C13 UNL     1      -4.239  -3.398  -2.867  1.00  0.00     0.000 C 
HETATM   22  C14 UNL     1      -4.233  -1.900  -2.795  1.00  0.00     0.005 C 
ENDBRANCH  16  17
ENDBRANCH   2  16
ENDBRANCH   1   2
BRANCH   1  23
HETATM   23  C16 UNL     1       0.068  -2.476  -0.107  1.00  0.00     0.155 C 
HETATM   24  N3  UNL     1       0.472  -3.286   0.797  1.00  0.00    -0.288 N 
ATOM     25  H3  UNL     1       0.533  -2.941   1.755  1.00  0.00     0.188 HD
BRANCH  23  26
HETATM   26  O2  UNL     1       0.008  -3.018  -1.404  1.00  0.00    -0.347 OA
ATOM     27  H2  UNL     1       0.262  -3.924  -1.532  1.00  0.00     0.219 HD
ENDBRANCH  23  26
BRANCH  24  28
HETATM   28  N4  UNL     1       0.833  -4.604   0.558  1.00  0.00    -0.343 N 
ATOM     29  H42 UNL     1       0.766  -4.932  -0.405  1.00  0.00     0.176 HD
ATOM     30  H41 UNL     1       1.155  -5.250   1.279  1.00  0.00     0.176 HD
ENDBRANCH  24  28
ENDBRANCH   1  23
BRANCH   1  31
HETATM   31  N5  UNL     1       0.187  -0.465   1.235  1.00  0.00    -0.387 N 
HETATM   32  C17 UNL     1      -0.209  -0.892   2.525  1.00  0.00     0.118 C 
HETATM   33  C18 UNL     1       0.889  -0.317   3.437  1.00  0.00     0.022 C 
HETATM   34  C19 UNL     1       1.400   0.889   2.711  1.00  0.00     0.036 C 
HETATM   35  C20 UNL     1       0.840   0.752   1.281  1.00  0.00     0.172 C 
BRANCH  35  36
HETATM   36  C21 UNL     1       1.858   1.123   0.312  1.00  0.00     0.240 C 
HETATM   37  O3  UNL     1       2.137   2.385   0.265  1.00  0.00    -0.271 OA
HETATM   38  N6  UNL     1       2.580   0.323  -0.572  1.00  0.00    -0.359 N 
ATOM     39  H6  UNL     1       2.401  -0.681  -0.573  1.00  0.00     0.162 HD
BRANCH  38  40
HETATM   40  C22 UNL     1       3.584   0.851  -1.501  1.00  0.00     0.123 C 
BRANCH  40  41
HETATM   41  C23 UNL     1       4.726   1.536  -0.793  1.00  0.00     0.024 C 
BRANCH  41  42
HETATM   42  C24 UNL     1       5.418   0.575   0.157  1.00  0.00    -0.013 C 
HETATM   43  C25 UNL     1       6.559   1.268   0.879  1.00  0.00     0.005 C 
HETATM   44  C26 UNL     1       7.842   1.274   0.112  1.00  0.00     0.000 C 
HETATM   45  C27 UNL     1       8.205  -0.031  -0.520  1.00  0.00     0.000 C 
HETATM   46  C28 UNL     1       7.052  -0.430  -1.447  1.00  0.00     0.000 C 
HETATM   47  C29 UNL     1       5.877  -0.671  -0.531  1.00  0.00     0.005 C 
ENDBRANCH  41  42
ENDBRANCH  40  41
ENDBRANCH  38  40
ENDBRANCH  35  36
ENDBRANCH   1  31
TORSDOF 16
