REMARK  16 active torsions:
REMARK  status: ('A' for Active; 'I' for Inactive)
REMARK    1  A    between atoms: C2_2  and  N1_3 
REMARK    2  A    between atoms: N1_3  and  C3_6 
REMARK    3  A    between atoms: C3_6  and  C4_7 
REMARK    4  A    between atoms: C3_6  and  N4_32 
REMARK    5  A    between atoms: C4_7  and  C5_8 
REMARK    6  A    between atoms: C4_7  and  N2_15 
REMARK    7  A    between atoms: C5_8  and  C6_9 
REMARK       I    between atoms: N2_15  and  C12_17 
REMARK    8  A    between atoms: C12_17  and  C13_19 
REMARK    9  A    between atoms: C13_19  and  N3_20 
REMARK   10  A    between atoms: C13_19  and  C14_24 
REMARK   11  A    between atoms: C14_24  and  O2_25 
REMARK   12  A    between atoms: C22_35  and  C23_36 
REMARK   13  A    between atoms: C23_36  and  C24_37 
REMARK   14  A    between atoms: C24_37  and  C25_38 
REMARK   15  A    between atoms: C25_38  and  N5_39 
REMARK   16  A    between atoms: N5_39  and  C26_41 
ROOT
HETATM    1  C4  UNL     1      -0.919  -1.265  -0.319  1.00  0.00     0.135 C 
ENDROOT
BRANCH   1   2
HETATM    2  C3  UNL     1       0.241  -0.983  -1.268  1.00  0.00     0.308 C 
BRANCH   2   3
HETATM    3  N1  UNL     1      -0.184  -0.219  -2.401  1.00  0.00    -0.052 N 
ATOM      4  H12 UNL     1       0.625   0.124  -2.919  1.00  0.00     0.279 HD
ATOM      5  H11 UNL     1      -0.588   0.667  -2.098  1.00  0.00     0.279 HD
BRANCH   3   6
HETATM    6  C2  UNL     1      -1.088  -0.903  -3.284  1.00  0.00     0.230 C 
HETATM    7  C1  UNL     1      -1.531  -0.025  -4.437  1.00  0.00     0.034 C 
ENDBRANCH   3   6
ENDBRANCH   2   3
BRANCH   2   8
HETATM    8  N4  UNL     1       1.395  -0.431  -0.690  1.00  0.00    -0.364 N 
HETATM    9  C20 UNL     1       1.386   0.820  -0.079  1.00  0.00     0.060 C 
HETATM   10  C21 UNL     1       2.811   1.344  -0.006  1.00  0.00     0.049 C 
HETATM   11  C22 UNL     1       3.591   0.921  -1.232  1.00  0.00    -0.008 C 
HETATM   12  C28 UNL     1       3.652  -0.557  -1.430  1.00  0.00     0.025 C 
HETATM   13  C29 UNL     1       2.563  -1.224  -0.610  1.00  0.00     0.124 C 
BRANCH  11  14
HETATM   14  C23 UNL     1       4.961   1.562  -1.238  1.00  0.00     0.006 C 
BRANCH  14  15
HETATM   15  C24 UNL     1       5.743   1.144   0.005  1.00  0.00     0.020 C 
BRANCH  15  16
HETATM   16  C25 UNL     1       7.109   1.829  -0.069  1.00  0.00     0.121 C 
BRANCH  16  17
HETATM   17  N5  UNL     1       7.900   1.472   1.089  1.00  0.00    -0.380 N 
ATOM     18  H5  UNL     1       8.115   2.190   1.781  1.00  0.00     0.160 HD
BRANCH  17  19
HETATM   19  C26 UNL     1       8.387   0.152   1.293  1.00  0.00     0.066 C 
HETATM   20  C27 UNL     1       9.181  -0.544   0.249  1.00  0.00     0.088 C 
HETATM   21  N6  UNL     1       8.139  -0.463   2.403  1.00  0.00    -0.389 N 
ATOM     22  H62 UNL     1       7.594   0.015   3.120  1.00  0.00     0.157 HD
ATOM     23  H61 UNL     1       8.488  -1.410   2.549  1.00  0.00     0.157 HD
ENDBRANCH  17  19
ENDBRANCH  16  17
ENDBRANCH  15  16
ENDBRANCH  14  15
ENDBRANCH  11  14
ENDBRANCH   2   8
ENDBRANCH   1   2
BRANCH   1  24
HETATM   24  C5  UNL     1      -0.354  -2.083   0.785  1.00  0.00     0.033 C 
BRANCH  24  25
HETATM   25  C6  UNL     1      -1.181  -2.532   1.907  1.00  0.00    -0.013 C 
HETATM   26  C7  UNL     1      -0.329  -3.483   2.823  1.00  0.00     0.005 C 
HETATM   27  C8  UNL     1      -1.109  -3.605   4.109  1.00  0.00     0.000 C 
HETATM   28  C9  UNL     1      -2.577  -3.406   3.901  1.00  0.00     0.000 C 
HETATM   29  C10 UNL     1      -2.915  -1.984   3.495  1.00  0.00     0.000 C 
HETATM   30  C11 UNL     1      -1.648  -1.429   2.814  1.00  0.00     0.005 C 
ENDBRANCH  24  25
ENDBRANCH   1  24
BRANCH   1  31
HETATM   31  N2  UNL     1      -1.719  -0.145  -0.051  1.00  0.00    -0.351 N 
HETATM   32  C12 UNL     1      -3.109  -0.017  -0.282  1.00  0.00     0.251 C 
HETATM   33  O1  UNL     1      -3.727  -0.988  -0.770  1.00  0.00    -0.271 OA
ATOM     34  H2  UNL     1      -1.248   0.664   0.354  1.00  0.00     0.163 HD
BRANCH  32  35
HETATM   35  C13 UNL     1      -3.822   1.233   0.043  1.00  0.00     0.308 C 
BRANCH  35  36
HETATM   36  N3  UNL     1      -2.846   2.158   0.616  1.00  0.00    -0.064 N 
ATOM     37  H33 UNL     1      -2.347   1.766   1.414  1.00  0.00     0.275 HD
ATOM     38  H32 UNL     1      -2.037   2.307   0.013  1.00  0.00     0.275 HD
ATOM     39  H31 UNL     1      -3.339   3.022   0.841  1.00  0.00     0.275 HD
ENDBRANCH  35  36
BRANCH  35  40
HETATM   40  C14 UNL     1      -4.486   1.898  -1.131  1.00  0.00     0.095 C 
HETATM   41  C15 UNL     1      -5.062   3.243  -0.697  1.00  0.00     0.040 C 
HETATM   42  C16 UNL     1      -6.573   3.220  -0.697  1.00  0.00     0.003 C 
HETATM   43  C17 UNL     1      -7.123   1.951  -0.085  1.00  0.00     0.000 C 
HETATM   44  C18 UNL     1      -6.683   0.728  -0.859  1.00  0.00     0.003 C 
HETATM   45  C19 UNL     1      -5.554   1.091  -1.793  1.00  0.00     0.040 C 
BRANCH  40  46
HETATM   46  O2  UNL     1      -3.497   2.186  -2.070  1.00  0.00    -0.387 OA
ATOM     47  H2  UNL     1      -3.916   2.606  -2.812  1.00  0.00     0.210 HD
ENDBRANCH  40  46
ENDBRANCH  35  40
ENDBRANCH  32  35
ENDBRANCH   1  31
TORSDOF 16
