REMARK  3 active torsions:
REMARK  status: ('A' for Active; 'I' for Inactive)
REMARK    1  A    between atoms: N1_3  and  C3_5 
REMARK    2  A    between atoms: C7_10  and  C8_11 
REMARK    3  A    between atoms: C8_11  and  N2_12 
ROOT
HETATM    1  C1  UNL     1       5.278   0.929   0.788  1.00  0.00     0.037 C 
HETATM    2  C2  UNL     1       4.433   0.370   0.154  1.00  0.00    -0.003 C 
HETATM    3  N1  UNL     1       3.455  -0.284  -0.606  1.00  0.00    -0.324 N 
ATOM      4  H1  UNL     1       3.631  -1.244  -0.901  1.00  0.00     0.172 HD
ENDROOT
BRANCH   3   5
HETATM    5  C3  UNL     1       2.229   0.328  -0.985  1.00  0.00     0.232 C 
HETATM    6  C4  UNL     1       1.327   0.803   0.128  1.00  0.00     0.097 C 
HETATM    7  C5  UNL     1       0.615  -0.422  -0.228  1.00  0.00     0.116 C 
HETATM    8  C6  UNL     1       0.469  -1.529   0.723  1.00  0.00     0.209 C 
HETATM    9  C7  UNL     1      -0.836  -0.473  -0.363  1.00  0.00     0.176 C 
HETATM   10  O2  UNL     1       1.304  -0.630  -1.394  1.00  0.00    -0.350 OA
HETATM   11  O1  UNL     1      -0.848  -1.704   0.295  1.00  0.00    -0.378 OA
BRANCH   9  12
HETATM   12  C8  UNL     1      -1.681   0.504   0.393  1.00  0.00     0.165 C 
BRANCH  12  13
HETATM   13  N2  UNL     1      -3.064   0.235   0.082  1.00  0.00    -0.335 N 
HETATM   14  C9  UNL     1      -3.757   0.784  -0.924  1.00  0.00     0.200 A 
HETATM   15  N3  UNL     1      -5.016   0.307  -0.918  1.00  0.00    -0.295 N 
HETATM   16  N4  UNL     1      -5.088  -0.534   0.094  1.00  0.00    -0.295 N 
ATOM     17  H3  UNL     1      -5.765   0.548  -1.567  1.00  0.00     0.187 HD
HETATM   18  C10 UNL     1      -3.905  -0.590   0.716  1.00  0.00     0.200 A 
ATOM     19  H4  UNL     1      -5.919  -1.062   0.362  1.00  0.00     0.187 HD
ENDBRANCH  12  13
ENDBRANCH   9  12
ENDBRANCH   3   5
TORSDOF 3
