REMARK  5 active torsions:
REMARK  status: ('A' for Active; 'I' for Inactive)
REMARK    1  A    between atoms: C1_2  and  O2_3 
REMARK    2  A    between atoms: O2_3  and  C2_4 
REMARK    3  A    between atoms: C2_4  and  C3_6 
REMARK       I    between atoms: N1_10  and  C7_11 
REMARK    4  A    between atoms: C7_11  and  C8_13 
REMARK    5  A    between atoms: N2_14  and  O5_16 
ROOT
HETATM    1  C3  UNL     1      -0.940   0.035  -0.447  1.00  0.00     0.187 C 
HETATM    2  C4  UNL     1      -1.807  -1.159  -0.194  1.00  0.00     0.037 C 
HETATM    3  C5  UNL     1      -0.984  -2.285  -0.767  1.00  0.00     0.022 C 
HETATM    4  C6  UNL     1       0.406  -1.863  -0.271  1.00  0.00     0.127 C 
HETATM    5  N1  UNL     1       0.395  -0.416  -0.409  1.00  0.00    -0.333 N 
HETATM    6  C7  UNL     1       1.620   0.325  -0.503  1.00  0.00     0.261 C 
HETATM    7  O4  UNL     1       1.652   1.575  -0.654  1.00  0.00    -0.267 OA
ENDROOT
BRANCH   1   8
HETATM    8  C2  UNL     1      -1.251   1.106   0.546  1.00  0.00     0.289 C 
HETATM    9  O3  UNL     1      -0.363   1.450   1.346  1.00  0.00    -0.262 OA
BRANCH   8  10
HETATM   10  O2  UNL     1      -2.480   1.726   0.607  1.00  0.00    -0.251 OA
BRANCH  10  11
HETATM   11  C1  UNL     1      -2.797   2.726   1.520  1.00  0.00     0.406 C 
HETATM   12  O1  UNL     1      -1.923   3.102   2.349  1.00  0.00    -0.276 OA
ENDBRANCH  10  11
ENDBRANCH   8  10
ENDBRANCH   1   8
BRANCH   6  13
HETATM   13  C8  UNL     1       2.916  -0.339  -0.427  1.00  0.00     0.188 C 
HETATM   14  N2  UNL     1       4.038   0.285  -0.507  1.00  0.00    -0.275 N 
ATOM     15  H2  UNL     1       4.918  -0.227  -0.449  1.00  0.00     0.193 HD
BRANCH  14  16
HETATM   16  O5  UNL     1       4.037   1.661  -0.673  1.00  0.00    -0.290 OA
ATOM     17  H5  UNL     1       4.866   2.122  -0.732  1.00  0.00     0.244 HD
ENDBRANCH  14  16
ENDBRANCH   6  13
TORSDOF 5
