REMARK  4 active torsions:
REMARK  status: ('A' for Active; 'I' for Inactive)
REMARK    1  A    between atoms: C1_2  and  C2_4 
REMARK    2  A    between atoms: C2_4  and  C3_6 
REMARK    3  A    between atoms: N2_11  and  N3_12 
REMARK    4  A    between atoms: N3_12  and  O3_14 
ROOT
HETATM    1  C3  UNL     1       1.031  -0.230  -0.283  1.00  0.00     0.177 C 
HETATM    2  O2  UNL     1       0.841   1.122  -0.029  1.00  0.00    -0.379 OA
HETATM    3  C4  UNL     1      -0.189   1.216   0.899  1.00  0.00     0.175 C 
HETATM    4  C5  UNL     1      -1.072   0.021   0.725  1.00  0.00     0.037 C 
HETATM    5  C6  UNL     1      -2.396   0.400   0.145  1.00  0.00     0.151 C 
HETATM    6  N2  UNL     1      -2.421  -0.187  -1.195  1.00  0.00    -0.308 N 
HETATM    7  C7  UNL     1      -1.042  -0.367  -1.595  1.00  0.00     0.152 C 
HETATM    8  C8  UNL     1      -0.370  -0.796  -0.332  1.00  0.00     0.047 C 
ENDROOT
BRANCH   1   9
HETATM    9  C2  UNL     1       1.816  -0.800   0.841  1.00  0.00     0.103 C 
HETATM   10  S1  UNL     1       1.190  -1.900   1.866  1.00  0.00    -0.077 SA
BRANCH   9  11
HETATM   11  C1  UNL     1       3.182  -0.351   1.017  1.00  0.00     0.274 C 
HETATM   12  N1  UNL     1       3.777   0.604   0.155  1.00  0.00    -0.057 NA
HETATM   13  O1  UNL     1       3.860  -0.821   1.961  1.00  0.00    -0.270 OA
ENDBRANCH   9  11
ENDBRANCH   1   9
BRANCH   6  14
HETATM   14  N3  UNL     1      -3.588  -0.494  -1.905  1.00  0.00    -0.212 N 
ATOM     15  H3  UNL     1      -3.553  -0.497  -2.924  1.00  0.00     0.215 HD
BRANCH  14  16
HETATM   16  O3  UNL     1      -4.653  -0.760  -1.353  1.00  0.00    -0.275 OA
ATOM     17  H3  UNL     1      -5.445  -0.968  -1.835  1.00  0.00     0.246 HD
ENDBRANCH  14  16
ENDBRANCH   6  14
TORSDOF 4
