REMARK  6 active torsions:
REMARK  status: ('A' for Active; 'I' for Inactive)
REMARK    1  A    between atoms: C2_2  and  O2_4 
REMARK    2  A    between atoms: O2_4  and  C3_5 
REMARK    3  A    between atoms: C3_5  and  C4_6 
REMARK    4  A    between atoms: C7_14  and  N2_15 
REMARK    5  A    between atoms: N2_15  and  N3_17 
REMARK    6  A    between atoms: N3_17  and  N4_18 
ROOT
HETATM    1  C4  UNL     1      -0.001  -0.490  -0.172  1.00  0.00     0.268 C 
HETATM    2  N1  UNL     1       1.089  -1.330  -0.700  1.00  0.00    -0.033 N 
ATOM      3  H11 UNL     1       0.820  -1.990  -1.429  1.00  0.00     0.281 HD
ATOM      4  H12 UNL     1       1.442  -2.042  -0.061  1.00  0.00     0.281 HD
HETATM    5  C5  UNL     1       2.036  -0.332  -1.093  1.00  0.00     0.375 C 
HETATM    6  O3  UNL     1       1.180   0.572  -1.769  1.00  0.00    -0.323 OA
HETATM    7  C6  UNL     1       0.366   0.882  -0.652  1.00  0.00     0.298 C 
HETATM    8  O4  UNL     1       1.312   1.405   0.212  1.00  0.00    -0.328 OA
HETATM    9  C7  UNL     1       2.381   0.491   0.124  1.00  0.00     0.309 C 
ENDROOT
BRANCH   9  10
HETATM   10  N2  UNL     1       3.560   1.275  -0.184  1.00  0.00    -0.218 N 
ATOM     11  H2  UNL     1       3.459   2.245  -0.483  1.00  0.00     0.200 HD
BRANCH  10  12
HETATM   12  N3  UNL     1       4.678   0.781  -0.088  1.00  0.00    -0.246 NA
BRANCH  12  13
HETATM   13  N4  UNL     1       5.812   0.553   0.337  1.00  0.00    -0.261 N 
ATOM     14  H42 UNL     1       5.783   1.215   1.113  1.00  0.00     0.193 HD
ATOM     15  H41 UNL     1       6.742   0.142   0.417  1.00  0.00     0.193 HD
ENDBRANCH  12  13
ENDBRANCH  10  12
ENDBRANCH   9  10
BRANCH   1  16
HETATM   16  C3  UNL     1      -1.266  -1.021  -0.766  1.00  0.00     0.217 C 
BRANCH  16  17
HETATM   17  O2  UNL     1      -2.427  -0.344  -0.380  1.00  0.00    -0.320 OA
BRANCH  17  18
HETATM   18  C2  UNL     1      -2.882  -0.221   0.913  1.00  0.00     0.254 C 
HETATM   19  C1  UNL     1      -4.138   0.520   1.259  1.00  0.00     0.126 C 
HETATM   20  O1  UNL     1      -2.209  -0.756   1.832  1.00  0.00    -0.266 OA
ENDBRANCH  17  18
ENDBRANCH  16  17
ENDBRANCH   1  16
TORSDOF 6
