REMARK  3 active torsions:
REMARK  status: ('A' for Active; 'I' for Inactive)
REMARK       I    between atoms: C1_2  and  N1_3 
REMARK    1  A    between atoms: C1_2  and  C12_15 
REMARK    2  A    between atoms: N1_3  and  C2_5 
REMARK    3  A    between atoms: N2_18  and  C15_19 
ROOT
HETATM    1  C12 UNL     1       1.327  -0.554  -0.191  1.00  0.00     0.081 C 
HETATM    2  C13 UNL     1       2.309  -1.675  -0.181  1.00  0.00     0.034 C 
HETATM    3  C14 UNL     1       3.572  -1.185  -0.864  1.00  0.00     0.125 C 
HETATM    4  N2  UNL     1       4.008   0.010  -0.159  1.00  0.00    -0.363 N 
HETATM    5  C19 UNL     1       3.128   1.005   0.377  1.00  0.00     0.125 C 
HETATM    6  C20 UNL     1       1.781   0.499   0.771  1.00  0.00     0.034 C 
ENDROOT
BRANCH   1   7
HETATM    7  C1  UNL     1      -0.064  -0.990   0.089  1.00  0.00     0.222 C 
HETATM    8  O1  UNL     1      -0.339  -2.197   0.307  1.00  0.00    -0.273 OA
HETATM    9  N1  UNL     1      -1.129  -0.054   0.119  1.00  0.00    -0.356 N 
ATOM     10  H1  UNL     1      -0.930   0.931  -0.055  1.00  0.00     0.162 HD
BRANCH   9  11
HETATM   11  C2  UNL     1      -2.491  -0.461   0.390  1.00  0.00     0.089 C 
HETATM   12  C3  UNL     1      -3.019   0.116   1.673  1.00  0.00     0.030 C 
HETATM   13  C4  UNL     1      -4.383   0.722   1.422  1.00  0.00    -0.012 C 
HETATM   14  C5  UNL     1      -5.425  -0.241   1.029  1.00  0.00     0.009 C 
HETATM   15  C9  UNL     1      -4.132   1.830   0.422  1.00  0.00     0.010 C 
HETATM   16  C6  UNL     1      -5.602  -0.482  -0.427  1.00  0.00    -0.013 C 
HETATM   17  C7  UNL     1      -5.431   0.766  -1.273  1.00  0.00     0.010 C 
HETATM   18  C11 UNL     1      -4.385  -1.279  -0.924  1.00  0.00     0.011 C 
HETATM   19  C8  UNL     1      -3.975   1.113  -0.918  1.00  0.00    -0.008 C 
HETATM   20  C10 UNL     1      -3.323  -0.203  -0.814  1.00  0.00     0.013 C 
ENDBRANCH   9  11
ENDBRANCH   1   7
BRANCH   4  21
HETATM   21  C15 UNL     1       5.414   0.179  -0.005  1.00  0.00     0.175 A 
HETATM   22  N3  UNL     1       6.002   1.266  -0.529  1.00  0.00    -0.313 N 
HETATM   23  C16 UNL     1       7.311   1.510  -0.437  1.00  0.00     0.205 A 
ATOM     24  H3  UNL     1       5.418   1.941  -1.023  1.00  0.00     0.170 HD
HETATM   25  F1  UNL     1       7.889   2.623  -0.977  1.00  0.00    -0.185 F 
HETATM   26  C17 UNL     1       8.096   0.591   0.236  1.00  0.00     0.152 A 
HETATM   27  N4  UNL     1       7.531  -0.504   0.769  1.00  0.00    -0.326 N 
HETATM   28  C18 UNL     1       6.203  -0.733   0.664  1.00  0.00     0.289 A 
ATOM     29  H4  UNL     1       8.116  -1.177   1.264  1.00  0.00     0.168 HD
HETATM   30  O2  UNL     1       5.680  -1.776   1.175  1.00  0.00    -0.264 OA
ENDBRANCH   4  21
TORSDOF 3
