REMARK  6 active torsions:
REMARK  status: ('A' for Active; 'I' for Inactive)
REMARK    1  A    between atoms: C2_2  and  C4_4 
REMARK       I    between atoms: C4_4  and  N1_6 
REMARK    2  A    between atoms: N2_9  and  C7_10 
REMARK    3  A    between atoms: C7_10  and  O2_11 
REMARK    4  A    between atoms: C7_10  and  C8_13 
REMARK    5  A    between atoms: N3_15  and  C10_16 
REMARK    6  A    between atoms: C16_23  and  N4_24 
ROOT
HETATM    1  C8  UNL     1      -1.033   0.504  -0.253  1.00  0.00     0.116 A 
HETATM    2  C9  UNL     1      -2.265  -0.113  -0.471  1.00  0.00     0.144 A 
HETATM    3  N3  UNL     1      -3.166   0.568   0.248  1.00  0.00    -0.184 N 
HETATM    4  C16 UNL     1      -2.551   1.553   0.881  1.00  0.00     0.679 A 
HETATM    5  N5  UNL     1      -1.217   1.536   0.585  1.00  0.00    -0.186 N 
ATOM      6  H5  UNL     1      -0.504   2.178   0.931  1.00  0.00     0.184 HD
ENDROOT
BRANCH   1   7
HETATM    7  C7  UNL     1       0.201   0.043  -0.868  1.00  0.00     0.167 C 
BRANCH   7   8
HETATM    8  N2  UNL     1       1.491   0.564  -0.721  1.00  0.00    -0.357 N 
HETATM    9  C6  UNL     1       2.565  -0.109  -1.481  1.00  0.00     0.145 C 
HETATM   10  C5  UNL     1       3.606  -0.490  -0.417  1.00  0.00     0.145 C 
HETATM   11  N1  UNL     1       4.155   0.771   0.019  1.00  0.00    -0.349 N 
HETATM   12  C4  UNL     1       5.464   0.846   0.520  1.00  0.00     0.223 C 
HETATM   13  C18 UNL     1       3.366   1.985  -0.048  1.00  0.00     0.145 C 
HETATM   14  O1  UNL     1       5.878   2.004   0.890  1.00  0.00    -0.273 OA
HETATM   15  C17 UNL     1       1.872   1.657   0.075  1.00  0.00     0.145 C 
BRANCH  12  16
HETATM   16  C2  UNL     1       6.402  -0.303   0.654  1.00  0.00     0.070 C 
HETATM   17  C1  UNL     1       5.832  -1.407   1.489  1.00  0.00     0.019 C 
HETATM   18  C3  UNL     1       6.914  -0.830  -0.643  1.00  0.00     0.019 C 
ENDBRANCH  12  16
ENDBRANCH   7   8
BRANCH   7  19
HETATM   19  O2  UNL     1       0.055  -0.995  -1.655  1.00  0.00    -0.344 OA
ATOM     20  H2  UNL     1      -0.821  -1.349  -1.755  1.00  0.00     0.219 HD
ENDBRANCH   7  19
ENDBRANCH   1   7
BRANCH   3  21
HETATM   21  C10 UNL     1      -4.596   0.257   0.310  1.00  0.00     0.141 C 
HETATM   22  C11 UNL     1      -5.112  -0.075  -1.051  1.00  0.00     0.029 C 
HETATM   23  C12 UNL     1      -6.165  -1.150  -1.049  1.00  0.00     0.002 C 
HETATM   24  C13 UNL     1      -6.979  -1.005   0.226  1.00  0.00     0.003 C 
HETATM   25  C14 UNL     1      -6.105  -1.452   1.366  1.00  0.00     0.039 C 
HETATM   26  C15 UNL     1      -4.711  -0.920   1.281  1.00  0.00     0.194 C 
HETATM   27  F1  UNL     1      -3.781  -1.879   0.992  1.00  0.00    -0.247 F 
ENDBRANCH   3  21
BRANCH   4  28
HETATM   28  N4  UNL     1      -3.099   2.433   1.680  1.00  0.00    -0.234 N 
ATOM     29  H42 UNL     1      -4.095   2.446   1.901  1.00  0.00     0.174 HD
ATOM     30  H41 UNL     1      -2.625   3.193   2.168  1.00  0.00     0.174 HD
ENDBRANCH   4  28
TORSDOF 6
