REMARK  3 active torsions:
REMARK  status: ('A' for Active; 'I' for Inactive)
REMARK       I    between atoms: C1_2  and  N1_3 
REMARK    1  A    between atoms: C1_2  and  C7_10 
REMARK    2  A    between atoms: N1_3  and  C2_5 
REMARK    3  A    between atoms: N2_13  and  C10_14 
ROOT
HETATM    1  C7  UNL     1       1.452   0.599  -0.205  1.00  0.00     0.115 C 
HETATM    2  C8  UNL     1       0.609   1.590   0.529  1.00  0.00     0.037 C 
HETATM    3  C9  UNL     1      -0.576   0.948   1.231  1.00  0.00     0.142 C 
HETATM    4  N2  UNL     1      -1.133  -0.026   0.343  1.00  0.00    -0.215 N 
HETATM    5  C18 UNL     1      -0.318  -1.099  -0.146  1.00  0.00     0.179 C 
HETATM    6  C19 UNL     1       1.135  -0.835   0.132  1.00  0.00     0.201 C 
HETATM    7  F1  UNL     1       1.406  -1.123   1.440  1.00  0.00    -0.247 F 
ENDROOT
BRANCH   4   8
HETATM    8  C10 UNL     1      -2.488   0.053  -0.068  1.00  0.00     0.683 A 
HETATM    9  N3  UNL     1      -3.469  -0.480   0.651  1.00  0.00    -0.195 N 
HETATM   10  C11 UNL     1      -4.762  -0.407   0.259  1.00  0.00     0.038 A 
ATOM     11  H3  UNL     1      -3.241  -0.958   1.523  1.00  0.00     0.184 HD
HETATM   12  C12 UNL     1      -5.062   0.233  -0.910  1.00  0.00     0.034 A 
HETATM   13  C17 UNL     1      -5.807  -1.023   1.112  1.00  0.00     0.058 C 
HETATM   14  C13 UNL     1      -4.028   0.798  -1.671  1.00  0.00     0.267 A 
HETATM   15  C14 UNL     1      -6.439   0.365  -1.422  1.00  0.00     0.046 C 
HETATM   16  O2  UNL     1      -4.339   1.381  -2.741  1.00  0.00    -0.267 OA
HETATM   17  N4  UNL     1      -2.775   0.693  -1.232  1.00  0.00    -0.156 N 
ATOM     18  H4  UNL     1      -2.017   1.100  -1.779  1.00  0.00     0.187 HD
HETATM   19  C15 UNL     1      -7.462  -0.220  -0.514  1.00  0.00     0.005 C 
HETATM   20  C16 UNL     1      -6.947  -1.444   0.216  1.00  0.00     0.006 C 
ENDBRANCH   4   8
BRANCH   1  21
HETATM   21  C1  UNL     1       2.894   0.830   0.075  1.00  0.00     0.225 C 
HETATM   22  O1  UNL     1       3.222   1.776   0.828  1.00  0.00    -0.273 OA
HETATM   23  N1  UNL     1       3.878  -0.005  -0.497  1.00  0.00    -0.356 N 
ATOM     24  H1  UNL     1       3.600  -0.773  -1.108  1.00  0.00     0.162 HD
BRANCH  23  25
HETATM   25  C2  UNL     1       5.253   0.221  -0.225  1.00  0.00     0.084 C 
HETATM   26  C3  UNL     1       5.981  -0.987   0.357  1.00  0.00     0.025 C 
HETATM   27  C4  UNL     1       7.425  -0.534   0.283  1.00  0.00     0.002 C 
HETATM   28  C5  UNL     1       7.482   0.555  -0.793  1.00  0.00     0.002 C 
HETATM   29  C6  UNL     1       6.109   0.440  -1.475  1.00  0.00     0.025 C 
ENDBRANCH  23  25
ENDBRANCH   1  21
TORSDOF 3
