REMARK  2 active torsions:
REMARK  status: ('A' for Active; 'I' for Inactive)
REMARK    1  A    between atoms: C7_7  and  C8_8 
REMARK       I    between atoms: C8_8  and  N1_10 
REMARK    2  A    between atoms: C12_16  and  N3_17 
ROOT
HETATM    1  C1  UNL     1      -0.138   4.231   1.303  1.00  0.00     0.013 C 
HETATM    2  C2  UNL     1      -0.079   3.126   0.821  1.00  0.00    -0.107 C 
HETATM    3  C3  UNL     1      -0.012   1.782   0.207  1.00  0.00     0.026 C 
HETATM    4  C4  UNL     1      -0.113   1.883  -1.291  1.00  0.00     0.027 C 
HETATM    5  C5  UNL     1      -0.055   0.492  -1.866  1.00  0.00    -0.009 C 
HETATM    6  C6  UNL     1       1.248  -0.127  -1.447  1.00  0.00     0.024 C 
HETATM    7  C7  UNL     1       1.311  -0.267   0.058  1.00  0.00     0.046 C 
HETATM    8  C10 UNL     1       1.267   1.115   0.663  1.00  0.00     0.042 C 
HETATM    9  C11 UNL     1       0.107  -1.018   0.573  1.00  0.00     0.052 C 
HETATM   10  C12 UNL     1      -1.188  -0.376   0.129  1.00  0.00     0.054 C 
HETATM   11  C15 UNL     1      -1.221  -0.322  -1.365  1.00  0.00     0.037 C 
HETATM   12  C16 UNL     1      -1.231   1.011   0.697  1.00  0.00     0.055 C 
ENDROOT
BRANCH   7  13
HETATM   13  C8  UNL     1       2.522  -1.011   0.394  1.00  0.00     0.239 C 
HETATM   14  O1  UNL     1       2.397  -2.108   1.017  1.00  0.00    -0.272 OA
HETATM   15  N1  UNL     1       3.835  -0.604   0.078  1.00  0.00    -0.263 N 
HETATM   16  C9  UNL     1       4.943  -1.369   0.432  1.00  0.00     0.184 C 
ATOM     17  H1  UNL     1       3.976   0.273  -0.423  1.00  0.00     0.181 HD
HETATM   18  N2  UNL     1       5.876  -2.001   0.747  1.00  0.00    -0.172 NA
ENDBRANCH   7  13
BRANCH  10  19
HETATM   19  N3  UNL     1      -2.269  -1.177   0.661  1.00  0.00    -0.274 N 
HETATM   20  C13 UNL     1      -2.880  -2.198   0.015  1.00  0.00     0.147 A 
HETATM   21  C14 UNL     1      -3.871  -2.734   0.833  1.00  0.00     0.109 A 
HETATM   22 BR1  UNL     1      -5.049  -4.178   0.463  1.00  0.00    -0.029 Br
HETATM   23  N4  UNL     1      -3.815  -2.001   1.958  1.00  0.00    -0.276 N 
HETATM   24  N5  UNL     1      -2.866  -1.089   1.837  1.00  0.00    -0.019 NA
ATOM     25  H4  UNL     1      -4.411  -2.128   2.776  1.00  0.00     0.185 HD
ENDBRANCH  10  19
TORSDOF 2
