REMARK  4 active torsions:
REMARK  status: ('A' for Active; 'I' for Inactive)
REMARK    1  A    between atoms: C7_9  and  C8_10 
REMARK       I    between atoms: C8_10  and  N1_12 
REMARK    2  A    between atoms: N1_12  and  C9_14 
REMARK    3  A    between atoms: C15_21  and  C16_22 
REMARK    4  A    between atoms: C16_22  and  O4_23 
ROOT
HETATM    1  O1  UNL     1      -3.514   1.613  -1.243  1.00  0.00    -0.295 OA
HETATM    2  C1  UNL     1      -3.570   1.148  -0.094  1.00  0.00     0.159 C 
HETATM    3  C2  UNL     1      -4.806   0.447   0.319  1.00  0.00     0.101 C 
HETATM    4  C3  UNL     1      -4.752  -0.999  -0.101  1.00  0.00     0.087 C 
HETATM    5 BR1  UNL     1      -6.430  -1.518  -0.910  1.00  0.00    -0.086 Br
HETATM    6  C4  UNL     1      -3.596  -1.302  -0.985  1.00  0.00    -0.015 C 
HETATM    7  C5  UNL     1      -2.356  -1.516  -0.582  1.00  0.00    -0.026 C 
HETATM    8  C6  UNL     1      -1.923  -1.487   0.846  1.00  0.00     0.068 C 
HETATM    9  C7  UNL     1      -0.931  -0.352   1.094  1.00  0.00     0.217 C 
HETATM   10  O3  UNL     1      -1.258   0.721   0.293  1.00  0.00    -0.361 OA
HETATM   11  C15 UNL     1      -2.420   1.303   0.820  1.00  0.00     0.215 C 
ENDROOT
BRANCH   9  12
HETATM   12  C8  UNL     1       0.461  -0.804   0.930  1.00  0.00     0.247 C 
HETATM   13  O2  UNL     1       0.871  -1.771   1.606  1.00  0.00    -0.271 OA
HETATM   14  N1  UNL     1       1.343  -0.176   0.033  1.00  0.00    -0.354 N 
ATOM     15  H1  UNL     1       0.982   0.611  -0.506  1.00  0.00     0.162 HD
BRANCH  14  16
HETATM   16  C9  UNL     1       2.709  -0.552  -0.186  1.00  0.00     0.084 C 
HETATM   17  C10 UNL     1       3.593   0.576   0.338  1.00  0.00     0.025 C 
HETATM   18  C11 UNL     1       5.024   0.113   0.517  1.00  0.00     0.002 C 
HETATM   19  C12 UNL     1       5.338  -0.837  -0.617  1.00  0.00     0.000 C 
HETATM   20  C13 UNL     1       4.497  -0.543  -1.834  1.00  0.00     0.002 C 
HETATM   21  C14 UNL     1       3.036  -0.932  -1.585  1.00  0.00     0.025 C 
ENDBRANCH  14  16
ENDBRANCH   9  12
BRANCH  11  22
HETATM   22  C16 UNL     1      -2.143   2.778   1.118  1.00  0.00     0.203 C 
BRANCH  22  23
HETATM   23  O4  UNL     1      -1.780   3.482  -0.004  1.00  0.00    -0.398 OA
ATOM     24  H4  UNL     1      -1.608   4.398   0.181  1.00  0.00     0.209 HD
ENDBRANCH  22  23
ENDBRANCH  11  22
TORSDOF 4
