REMARK  6 active torsions:
REMARK  status: ('A' for Active; 'I' for Inactive)
REMARK    1  A    between atoms: C2_2  and  C3_4 
REMARK    2  A    between atoms: C9_12  and  N3_13 
REMARK    3  A    between atoms: N3_13  and  C10_14 
REMARK    4  A    between atoms: C11_17  and  C12_18 
REMARK    5  A    between atoms: C15_21  and  C16_22 
REMARK    6  A    between atoms: C16_22  and  C17_23 
ROOT
HETATM    1  C3  UNL     1       4.516   0.359   0.166  1.00  0.00     0.101 A 
HETATM    2  C4  UNL     1       5.108  -0.779  -0.309  1.00  0.00     0.063 A 
HETATM    3  C5  UNL     1       4.248  -1.806  -0.718  1.00  0.00     0.073 A 
HETATM    4  C6  UNL     1       4.826  -2.994  -1.243  1.00  0.00     0.101 C 
HETATM    5  N1  UNL     1       5.282  -3.994  -1.644  1.00  0.00    -0.191 NA
HETATM    6  C7  UNL     1       2.907  -1.630  -0.624  1.00  0.00     0.131 A 
HETATM    7  C8  UNL     1       2.026  -2.705  -1.046  1.00  0.00     0.106 C 
HETATM    8  N2  UNL     1       1.341  -3.547  -1.408  1.00  0.00    -0.191 NA
HETATM    9  C9  UNL     1       2.331  -0.441  -0.119  1.00  0.00     0.247 A 
HETATM   10  O3  UNL     1       3.243   0.494   0.248  1.00  0.00    -0.280 OA
ENDROOT
BRANCH   1  11
HETATM   11  C2  UNL     1       5.415   1.439   0.596  1.00  0.00     0.058 C 
HETATM   12  C1  UNL     1       5.071   2.706   0.341  1.00  0.00     0.039 C 
HETATM   13 CL1  UNL     1       6.862   1.054   1.534  1.00  0.00    -0.082 Cl
ENDBRANCH   1  11
BRANCH   9  14
HETATM   14  N3  UNL     1       1.170  -0.312  -0.031  1.00  0.00    -0.354 NA
BRANCH  14  15
HETATM   15  C10 UNL     1      -0.132  -0.040   0.119  1.00  0.00     0.226 A 
HETATM   16  N4  UNL     1      -1.260  -0.551  -0.370  1.00  0.00    -0.327 N 
HETATM   17  C11 UNL     1      -2.414  -0.150   0.027  1.00  0.00     0.029 A 
ATOM     18  H4  UNL     1      -1.206  -1.281  -1.080  1.00  0.00     0.169 HD
HETATM   19  C15 UNL     1      -2.455   0.853   0.977  1.00  0.00     0.020 A 
HETATM   20  S1  UNL     1      -0.798   1.137   1.246  1.00  0.00    -0.041 SA
BRANCH  17  21
HETATM   21  C12 UNL     1      -3.675  -0.958  -0.312  1.00  0.00     0.028 C 
HETATM   22  C13 UNL     1      -4.638  -0.328  -1.227  1.00  0.00     0.016 C 
HETATM   23  C14 UNL     1      -3.172  -2.210  -1.154  1.00  0.00     0.016 C 
ENDBRANCH  17  21
BRANCH  19  24
HETATM   24  C16 UNL     1      -3.598   1.649   1.524  1.00  0.00     0.161 C 
BRANCH  24  25
HETATM   25  C17 UNL     1      -3.180   3.063   1.465  1.00  0.00     0.177 C 
HETATM   26  O1  UNL     1      -2.921   3.748   0.489  1.00  0.00    -0.648 OA
HETATM   27  O2  UNL     1      -3.062   3.675   2.759  1.00  0.00    -0.648 OA
ENDBRANCH  24  25
ENDBRANCH  19  24
ENDBRANCH  14  15
ENDBRANCH   9  14
TORSDOF 6
