REMARK  7 active torsions:
REMARK  status: ('A' for Active; 'I' for Inactive)
REMARK    1  A    between atoms: C2_2  and  C4_4 
REMARK    2  A    between atoms: C4_4  and  C5_6 
REMARK    3  A    between atoms: C8_10  and  N1_11 
REMARK    4  A    between atoms: C12_15  and  S1_16 
REMARK    5  A    between atoms: S1_16  and  C13_17 
REMARK    6  A    between atoms: C15_20  and  O2_21 
REMARK    7  A    between atoms: C17_24  and  O3_25 
ROOT
HETATM    1  C5  UNL     1      -1.411  -0.813  -0.281  1.00  0.00     0.029 A 
HETATM    2  C6  UNL     1      -2.481  -0.480   0.550  1.00  0.00     0.042 A 
HETATM    3  C7  UNL     1      -2.828   0.854   0.715  1.00  0.00     0.061 A 
HETATM    4 CL1  UNL     1      -4.186   1.243   1.773  1.00  0.00    -0.082 Cl
HETATM    5  C8  UNL     1      -2.122   1.833   0.064  1.00  0.00     0.052 A 
HETATM    6  C11 UNL     1      -1.073   1.475  -0.747  1.00  0.00     0.050 A 
HETATM    7  C12 UNL     1      -0.695   0.161  -0.938  1.00  0.00     0.018 A 
ENDROOT
BRANCH   7   8
HETATM    8  S1  UNL     1       0.676  -0.142  -2.014  1.00  0.00    -0.111 SA
BRANCH   8   9
HETATM    9  C13 UNL     1       2.280   0.095  -1.295  1.00  0.00     0.142 C 
HETATM   10  S2  UNL     1       2.596   1.867  -0.902  1.00  0.00    -0.148 SA
HETATM   11  C14 UNL     1       4.363   1.947  -0.487  1.00  0.00     0.107 C 
HETATM   12  C15 UNL     1       4.726   0.580   0.082  1.00  0.00     0.130 C 
HETATM   13  C16 UNL     1       3.546   0.030   0.852  1.00  0.00     0.066 C 
HETATM   14  C17 UNL     1       2.542  -0.651  -0.037  1.00  0.00     0.144 C 
BRANCH  12  15
HETATM   15  O2  UNL     1       5.762   0.754   0.999  1.00  0.00    -0.395 OA
ATOM     16  H2  UNL     1       5.988  -0.098   1.354  1.00  0.00     0.210 HD
ENDBRANCH  12  15
BRANCH  14  17
HETATM   17  O3  UNL     1       3.009  -1.939  -0.283  1.00  0.00    -0.394 OA
ATOM     18  H3  UNL     1       3.177  -2.416   0.521  1.00  0.00     0.210 HD
ENDBRANCH  14  17
ENDBRANCH   8   9
ENDBRANCH   7   8
BRANCH   1  19
HETATM   19  C4  UNL     1      -1.100  -2.199  -0.479  1.00  0.00     0.164 C 
HETATM   20  O1  UNL     1      -0.180  -2.508  -1.315  1.00  0.00    -0.292 OA
BRANCH  19  21
HETATM   21  C2  UNL     1      -1.741  -3.352   0.191  1.00  0.00     0.052 C 
HETATM   22  C1  UNL     1      -3.194  -3.520  -0.096  1.00  0.00     0.018 C 
HETATM   23  C3  UNL     1      -1.015  -4.630  -0.151  1.00  0.00     0.018 C 
ENDBRANCH  19  21
ENDBRANCH   1  19
BRANCH   5  24
HETATM   24  N1  UNL     1      -2.493   3.191   0.244  1.00  0.00    -0.388 N 
HETATM   25  C9  UNL     1      -3.819   3.607  -0.131  1.00  0.00     0.149 C 
HETATM   26  C10 UNL     1      -1.579   4.159   0.791  1.00  0.00     0.149 C 
ENDBRANCH   5  24
TORSDOF 7
