REMARK  6 active torsions:
REMARK  status: ('A' for Active; 'I' for Inactive)
REMARK    1  A    between atoms: O1_2  and  C2_3 
REMARK    2  A    between atoms: C2_3  and  C3_5 
REMARK    3  A    between atoms: C5_7  and  N1_8 
REMARK       I    between atoms: N1_8  and  C6_10 
REMARK    4  A    between atoms: C6_10  and  C7_12 
REMARK    5  A    between atoms: C8_14  and  C9_15 
REMARK    6  A    between atoms: C9_15  and  C10_16 
ROOT
HETATM    1  N1  UNL     1       0.655  -0.840  -0.845  1.00  0.00    -0.317 N 
ATOM      2  H1  UNL     1       0.261  -1.270  -1.682  1.00  0.00     0.169 HD
HETATM    3  C6  UNL     1      -0.228  -0.383   0.107  1.00  0.00     0.264 C 
HETATM    4  O3  UNL     1       0.266   0.152   1.176  1.00  0.00    -0.267 OA
ENDROOT
BRANCH   1   5
HETATM    5  C5  UNL     1       2.105  -0.759  -0.753  1.00  0.00     0.079 A 
HETATM    6  C4  UNL     1       2.919  -0.143   0.143  1.00  0.00     0.057 A 
HETATM    7  C3  UNL     1       4.251  -0.280  -0.013  1.00  0.00     0.070 A 
HETATM    8  C14 UNL     1       4.689  -1.037  -1.064  1.00  0.00     0.092 A 
HETATM    9  S2  UNL     1       3.241  -1.517  -1.796  1.00  0.00    -0.059 SA
HETATM   10 CL1  UNL     1       6.379  -1.380  -1.500  1.00  0.00    -0.075 Cl
BRANCH   7  11
HETATM   11  C2  UNL     1       5.217   0.369   0.937  1.00  0.00     0.295 C 
HETATM   12  O2  UNL     1       5.245   0.259   2.116  1.00  0.00    -0.259 OA
BRANCH  11  13
HETATM   13  O1  UNL     1       6.212   1.212   0.304  1.00  0.00    -0.322 OA
HETATM   14  C1  UNL     1       7.145   1.842   1.173  1.00  0.00     0.213 C 
ENDBRANCH  11  13
ENDBRANCH   7  11
ENDBRANCH   1   5
BRANCH   3  15
HETATM   15  C7  UNL     1      -1.699  -0.428   0.068  1.00  0.00     0.079 A 
HETATM   16  S1  UNL     1      -2.750   0.095   1.339  1.00  0.00    -0.088 SA
HETATM   17  C8  UNL     1      -4.247  -0.203   0.657  1.00  0.00    -0.006 A 
HETATM   18  C11 UNL     1      -3.911  -0.710  -0.572  1.00  0.00     0.023 A 
HETATM   19  C12 UNL     1      -2.603  -0.833  -0.893  1.00  0.00    -0.038 A 
HETATM   20  C13 UNL     1      -2.167  -1.410  -2.233  1.00  0.00     0.050 C 
BRANCH  17  21
HETATM   21  C9  UNL     1      -5.655  -0.027   1.172  1.00  0.00     0.159 C 
BRANCH  21  22
HETATM   22  C10 UNL     1      -6.185   1.296   0.839  1.00  0.00     0.177 C 
HETATM   23  O4  UNL     1      -5.513   2.194   0.306  1.00  0.00    -0.648 OA
HETATM   24  O5  UNL     1      -7.529   1.560   1.141  1.00  0.00    -0.648 OA
ENDBRANCH  21  22
ENDBRANCH  17  21
ENDBRANCH   3  15
TORSDOF 6
