REMARK  16 active torsions:
REMARK  status: ('A' for Active; 'I' for Inactive)
REMARK    1  A    between atoms: N1_2  and  C2_3 
REMARK    2  A    between atoms: N1_2  and  C6_12 
REMARK    3  A    between atoms: C2_3  and  C3_4 
REMARK    4  A    between atoms: C6_12  and  O1_13 
REMARK    5  A    between atoms: C6_12  and  C7_15 
REMARK    6  A    between atoms: C7_15  and  N5_16 
REMARK    7  A    between atoms: N5_16  and  C8_17 
REMARK    8  A    between atoms: N5_16  and  C10_23 
REMARK    9  A    between atoms: C8_17  and  C9_18 
REMARK   10  A    between atoms: C9_18  and  N6_19 
REMARK   11  A    between atoms: C10_23  and  C11_24 
REMARK   12  A    between atoms: C11_24  and  C12_25 
REMARK   13  A    between atoms: C12_25  and  N7_26 
REMARK   14  A    between atoms: N7_26  and  C13_28 
REMARK   15  A    between atoms: C14_31  and  N9_32 
REMARK   16  A    between atoms: C17_42  and  N12_43 
ROOT
HETATM    1  C11 UNL     1      -1.397  -2.875   0.003  1.00  0.00     0.040 C 
ENDROOT
BRANCH   1   2
HETATM    2  C10 UNL     1      -0.236  -1.967   0.280  1.00  0.00     0.129 C 
BRANCH   2   3
HETATM    3  N5  UNL     1       0.937  -2.324  -0.431  1.00  0.00    -0.368 N 
BRANCH   3   4
HETATM    4  C7  UNL     1       2.090  -1.567  -0.251  1.00  0.00     0.126 C 
BRANCH   4   5
HETATM    5  C6  UNL     1       1.829  -0.068  -0.115  1.00  0.00     0.396 C 
BRANCH   5   6
HETATM    6  N1  UNL     1       3.073   0.655   0.051  1.00  0.00     0.123 N 
HETATM    7  C1  UNL     1       3.781   0.289   1.243  1.00  0.00     0.314 C 
BRANCH   6   8
HETATM    8  C2  UNL     1       3.852   0.727  -1.132  1.00  0.00     0.335 C 
BRANCH   8   9
HETATM    9  C3  UNL     1       4.907   1.761  -0.980  1.00  0.00     0.072 A 
HETATM   10  C4  UNL     1       4.954   2.895  -0.198  1.00  0.00     0.139 A 
HETATM   11  N2  UNL     1       6.142   3.543  -0.386  1.00  0.00    -0.292 N 
HETATM   12  C5  UNL     1       6.516   4.761   0.279  1.00  0.00     0.178 C 
HETATM   13  N3  UNL     1       6.807   2.825  -1.259  1.00  0.00    -0.241 N 
HETATM   14  N4  UNL     1       6.110   1.769  -1.630  1.00  0.00    -0.287 N 
ATOM     15  H3  UNL     1       7.739   3.053  -1.605  1.00  0.00     0.208 HD
ATOM     16  H4  UNL     1       6.421   1.065  -2.300  1.00  0.00     0.188 HD
ENDBRANCH   8   9
ENDBRANCH   6   8
ENDBRANCH   5   6
BRANCH   5  17
HETATM   17  O1  UNL     1       1.202   0.467  -1.234  1.00  0.00    -0.364 OA
ATOM     18  H1  UNL     1       0.386  -0.007  -1.343  1.00  0.00     0.212 HD
ENDBRANCH   5  17
ENDBRANCH   4   5
ENDBRANCH   3   4
BRANCH   3  19
HETATM   19  C8  UNL     1       1.109  -3.700  -0.639  1.00  0.00     0.090 C 
BRANCH  19  20
HETATM   20  C9  UNL     1       1.607  -4.549   0.484  1.00  0.00     0.274 C 
BRANCH  20  21
HETATM   21  N6  UNL     1       2.918  -4.234   0.977  1.00  0.00    -0.075 N 
ATOM     22  H63 UNL     1       3.589  -4.247   0.209  1.00  0.00     0.274 HD
ATOM     23  H62 UNL     1       2.961  -3.250   1.241  1.00  0.00     0.274 HD
ATOM     24  H61 UNL     1       3.258  -4.814   1.744  1.00  0.00     0.274 HD
ENDBRANCH  20  21
ENDBRANCH  19  20
ENDBRANCH   3  19
ENDBRANCH   2   3
ENDBRANCH   1   2
BRANCH   1  25
HETATM   25  C12 UNL     1      -2.641  -2.417   0.787  1.00  0.00     0.123 C 
BRANCH  25  26
HETATM   26  N7  UNL     1      -2.983  -1.077   0.363  1.00  0.00    -0.375 N 
ATOM     27  H7  UNL     1      -2.277  -0.554  -0.155  1.00  0.00     0.161 HD
BRANCH  26  28
HETATM   28  C13 UNL     1      -4.090  -0.502   0.584  1.00  0.00     0.129 A 
HETATM   29  N8  UNL     1      -5.118  -1.057   1.250  1.00  0.00    -0.176 N 
HETATM   30  C14 UNL     1      -6.295  -0.397   1.459  1.00  0.00     0.678 A 
ATOM     31  H8  UNL     1      -5.015  -2.005   1.612  1.00  0.00     0.186 HD
HETATM   32  N10 UNL     1      -6.443   0.864   0.980  1.00  0.00    -0.186 N 
HETATM   33  C15 UNL     1      -5.460   1.472   0.310  1.00  0.00     0.131 A 
ATOM     34  H10 UNL     1      -7.322   1.357   1.135  1.00  0.00     0.184 HD
HETATM   35  C16 UNL     1      -5.774   2.758  -0.116  1.00  0.00     0.275 C 
HETATM   36  C20 UNL     1      -4.280   0.780   0.115  1.00  0.00     0.041 A 
HETATM   37  O2  UNL     1      -6.713   3.291   0.523  1.00  0.00    -0.266 OA
HETATM   38  N11 UNL     1      -5.189   3.454  -1.106  1.00  0.00    -0.308 N 
HETATM   39  C17 UNL     1      -3.984   3.300  -1.700  1.00  0.00     0.101 C 
ATOM     40  H11 UNL     1      -5.747   4.227  -1.470  1.00  0.00     0.170 HD
HETATM   41  C18 UNL     1      -3.065   2.313  -1.423  1.00  0.00     0.049 C 
HETATM   42  C19 UNL     1      -3.155   1.239  -0.550  1.00  0.00     0.021 C 
BRANCH  30  43
HETATM   43  N9  UNL     1      -7.263  -0.954   2.101  1.00  0.00    -0.234 N 
ATOM     44  H92 UNL     1      -7.152  -1.902   2.461  1.00  0.00     0.174 HD
ATOM     45  H91 UNL     1      -8.142  -0.461   2.257  1.00  0.00     0.174 HD
ENDBRANCH  30  43
BRANCH  39  46
HETATM   46  N12 UNL     1      -3.685   4.181  -2.619  1.00  0.00    -0.385 N 
ATOM     47 2H12 UNL     1      -4.366   4.912  -2.824  1.00  0.00     0.157 HD
ATOM     48 1H12 UNL     1      -2.776   4.065  -3.067  1.00  0.00     0.157 HD
ENDBRANCH  39  46
ENDBRANCH  26  28
ENDBRANCH  25  26
ENDBRANCH   1  25
TORSDOF 16
