REMARK  17 active torsions:
REMARK  status: ('A' for Active; 'I' for Inactive)
REMARK    1  A    between atoms: N1_2  and  C2_4 
REMARK    2  A    between atoms: C3_7  and  S1_8 
REMARK    3  A    between atoms: S1_8  and  C4_9 
REMARK    4  A    between atoms: C4_9  and  C5_10 
REMARK    5  A    between atoms: C5_10  and  C6_11 
REMARK    6  A    between atoms: C5_10  and  C18_38 
REMARK    7  A    between atoms: C6_11  and  C7_12 
REMARK    8  A    between atoms: C7_12  and  C8_13 
REMARK    9  A    between atoms: C10_15  and  C11_16 
REMARK   10  A    between atoms: C11_16  and  O1_17 
REMARK   11  A    between atoms: O1_17  and  C12_18 
REMARK       I    between atoms: C12_18  and  N3_20 
REMARK   12  A    between atoms: N3_20  and  C13_22 
REMARK   13  A    between atoms: C13_22  and  C14_23 
REMARK   14  A    between atoms: C14_23  and  N4_24 
REMARK   15  A    between atoms: C15_28  and  C16_29 
REMARK   16  A    between atoms: C16_29  and  N5_30 
REMARK   17  A    between atoms: C18_38  and  N7_39 
ROOT
HETATM    1  C8  UNL     1       1.118  -1.764   0.098  1.00  0.00     0.086 A 
HETATM    2  C9  UNL     1       1.943  -0.682   0.078  1.00  0.00     0.037 A 
HETATM    3  C10 UNL     1       3.285  -0.742  -0.194  1.00  0.00    -0.008 A 
HETATM    4  C15 UNL     1       3.800  -2.055  -0.462  1.00  0.00     0.046 A 
HETATM    5  N6  UNL     1       3.037  -3.140  -0.447  1.00  0.00    -0.324 N 
ATOM      6  H6  UNL     1       3.444  -4.056  -0.637  1.00  0.00     0.169 HD
HETATM    7  C17 UNL     1       1.714  -3.024  -0.177  1.00  0.00     0.264 A 
HETATM    8  O3  UNL     1       0.982  -3.995  -0.164  1.00  0.00    -0.267 OA
ENDROOT
BRANCH   1   9
HETATM    9  C7  UNL     1      -0.295  -1.705   0.306  1.00  0.00    -0.061 C 
BRANCH   9  10
HETATM   10  C6  UNL     1      -1.513  -1.727   0.469  1.00  0.00    -0.094 C 
BRANCH  10  11
HETATM   11  C5  UNL     1      -2.932  -1.855   0.678  1.00  0.00     0.100 C 
BRANCH  11  12
HETATM   12  C4  UNL     1      -3.655  -0.534   0.486  1.00  0.00     0.101 C 
BRANCH  12  13
HETATM   13  S1  UNL     1      -5.430  -0.902   0.842  1.00  0.00    -0.091 SA
BRANCH  13  14
HETATM   14  C3  UNL     1      -6.507   0.478   0.737  1.00  0.00     0.160 A 
HETATM   15  N2  UNL     1      -7.500   0.573  -0.195  1.00  0.00    -0.319 N 
HETATM   16  C2  UNL     1      -8.374   1.581  -0.199  1.00  0.00     0.146 A 
ATOM     17  H2  UNL     1      -7.576  -0.150  -0.911  1.00  0.00     0.169 HD
HETATM   18  C19 UNL     1      -8.270   2.589   0.794  1.00  0.00     0.175 A 
HETATM   19  N9  UNL     1      -7.293   2.447   1.669  1.00  0.00    -0.283 N 
HETATM   20  N10 UNL     1      -9.215   3.619   0.831  1.00  0.00    -0.077 NA
HETATM   21  N8  UNL     1      -6.448   1.460   1.664  1.00  0.00    -0.278 N 
ATOM     22  H9  UNL     1      -7.195   3.157   2.395  1.00  0.00     0.188 HD
ATOM     23  H8  UNL     1      -5.721   1.425   2.378  1.00  0.00     0.189 HD
BRANCH  16  24
HETATM   24  N1  UNL     1      -9.331   1.679  -0.996  1.00  0.00    -0.378 N 
HETATM   25  C1  UNL     1      -9.819   0.914  -2.058  1.00  0.00     0.147 C 
ATOM     26  H1  UNL     1      -9.889   2.517  -0.832  1.00  0.00     0.160 HD
ENDBRANCH  16  24
ENDBRANCH  13  14
ENDBRANCH  12  13
ENDBRANCH  11  12
BRANCH  11  27
HETATM   27  C18 UNL     1      -3.541  -2.886  -0.298  1.00  0.00     0.247 C 
BRANCH  27  28
HETATM   28  N7  UNL     1      -2.919  -4.169  -0.162  1.00  0.00    -0.078 N 
ATOM     29  H73 UNL     1      -1.907  -4.106  -0.270  1.00  0.00     0.274 HD
ATOM     30  H72 UNL     1      -2.955  -4.501   0.802  1.00  0.00     0.274 HD
ATOM     31  H71 UNL     1      -3.321  -4.850  -0.806  1.00  0.00     0.274 HD
ENDBRANCH  27  28
ENDBRANCH  11  27
ENDBRANCH  10  11
ENDBRANCH   9  10
ENDBRANCH   1   9
BRANCH   3  32
HETATM   32  C11 UNL     1       4.209   0.360  -0.467  1.00  0.00     0.221 C 
BRANCH  32  33
HETATM   33  O1  UNL     1       4.748   0.966   0.704  1.00  0.00    -0.299 OA
BRANCH  33  34
HETATM   34  C12 UNL     1       5.664   2.020   0.505  1.00  0.00     0.364 C 
HETATM   35  O2  UNL     1       5.768   2.403  -0.694  1.00  0.00    -0.238 OA
HETATM   36  N3  UNL     1       6.375   2.513   1.590  1.00  0.00    -0.315 N 
ATOM     37  H3  UNL     1       6.114   2.108   2.489  1.00  0.00     0.170 HD
BRANCH  36  38
HETATM   38  C13 UNL     1       7.397   3.480   1.655  1.00  0.00     0.093 C 
BRANCH  38  39
HETATM   39  C14 UNL     1       8.613   3.005   0.875  1.00  0.00     0.274 C 
BRANCH  39  40
HETATM   40  N4  UNL     1       8.426   2.981  -0.543  1.00  0.00    -0.075 N 
ATOM     41  H43 UNL     1       7.606   2.425  -0.786  1.00  0.00     0.274 HD
ATOM     42  H42 UNL     1       8.121   3.895  -0.879  1.00  0.00     0.274 HD
ATOM     43  H41 UNL     1       9.242   2.662  -1.066  1.00  0.00     0.274 HD
ENDBRANCH  39  40
ENDBRANCH  38  39
ENDBRANCH  36  38
ENDBRANCH  33  34
ENDBRANCH  32  33
ENDBRANCH   3  32
BRANCH   4  44
HETATM   44  C16 UNL     1       5.268  -2.216  -0.724  1.00  0.00     0.287 C 
BRANCH  44  45
HETATM   45  N5  UNL     1       5.582  -3.647  -0.886  1.00  0.00    -0.074 N 
ATOM     46  H53 UNL     1       5.268  -4.203  -0.091  1.00  0.00     0.274 HD
ATOM     47  H52 UNL     1       5.011  -4.088  -1.606  1.00  0.00     0.274 HD
ATOM     48  H51 UNL     1       6.580  -3.756  -1.064  1.00  0.00     0.274 HD
ENDBRANCH  44  45
ENDBRANCH   4  44
TORSDOF 17
