REMARK  14 active torsions:
REMARK  status: ('A' for Active; 'I' for Inactive)
REMARK    1  A    between atoms: N1_1  and  C1_4 
REMARK    2  A    between atoms: C2_7  and  N3_8 
REMARK    3  A    between atoms: N3_8  and  C3_10 
REMARK    4  A    between atoms: C3_10  and  C4_11 
REMARK    5  A    between atoms: C4_11  and  C5_12 
REMARK    6  A    between atoms: C5_12  and  N4_13 
REMARK    7  A    between atoms: N4_13  and  C6_16 
REMARK    8  A    between atoms: C6_16  and  C7_17 
REMARK    9  A    between atoms: C7_17  and  C8_18 
REMARK   10  A    between atoms: C8_18  and  C9_19 
REMARK   11  A    between atoms: C9_19  and  C10_20 
REMARK   12  A    between atoms: C10_20  and  C11_21 
REMARK       I    between atoms: C11_21  and  N5_23 
REMARK   13  A    between atoms: C14_27  and  N6_28 
REMARK   14  A    between atoms: N9_43  and  O5_44 
ROOT
HETATM    1  N3  UNL     1      -3.400  -1.644  -0.596  1.00  0.00    -0.375 N 
ATOM      2  H3  UNL     1      -3.008  -1.565  -1.534  1.00  0.00     0.161 HD
ENDROOT
BRANCH   1   3
HETATM    3  C2  UNL     1      -4.514  -1.050  -0.455  1.00  0.00     0.118 C 
HETATM    4  N2  UNL     1      -4.983  -0.415  -1.580  1.00  0.00    -0.326 N 
HETATM    5  C1  UNL     1      -5.905   0.581  -1.676  1.00  0.00     0.131 C 
ATOM      6  H2  UNL     1      -4.586  -0.734  -2.464  1.00  0.00     0.169 HD
HETATM    7  C17 UNL     1      -6.998   0.750  -0.845  1.00  0.00     0.126 A 
HETATM    8  C16 UNL     1      -7.141   0.350   0.464  1.00  0.00     0.167 A 
HETATM    9  N8  UNL     1      -7.995   1.409  -1.483  1.00  0.00    -0.312 N 
HETATM   10  N7  UNL     1      -6.217  -0.329   1.206  1.00  0.00    -0.345 N 
HETATM   11  N9  UNL     1      -8.269   0.599   1.152  1.00  0.00    -0.164 N 
HETATM   12  C15 UNL     1      -5.172  -1.066   0.753  1.00  0.00     0.138 C 
ATOM     13  H7  UNL     1      -6.325  -0.276   2.219  1.00  0.00     0.167 HD
HETATM   14  C19 UNL     1      -9.269   1.256   0.525  1.00  0.00     0.341 A 
HETATM   15  C18 UNL     1      -9.124   1.648  -0.765  1.00  0.00     0.316 A 
HETATM   16  O4  UNL     1     -10.328   1.490   1.170  1.00  0.00    -0.259 OA
HETATM   17  O3  UNL     1     -10.086   2.264  -1.323  1.00  0.00    -0.262 OA
ATOM     18  H8  UNL     1      -7.903   1.711  -2.453  1.00  0.00     0.169 HD
BRANCH   5  19
HETATM   19  N1  UNL     1      -5.712   1.405  -2.602  1.00  0.00    -0.383 N 
ATOM     20  H12 UNL     1      -4.906   1.280  -3.215  1.00  0.00     0.157 HD
ATOM     21  H11 UNL     1      -6.403   2.152  -2.674  1.00  0.00     0.157 HD
ENDBRANCH   5  19
BRANCH  11  22
HETATM   22  O5  UNL     1      -8.445   0.227   2.441  1.00  0.00    -0.278 OA
ATOM     23  H5  UNL     1      -9.242   0.403   2.927  1.00  0.00     0.245 HD
ENDBRANCH  11  22
ENDBRANCH   1   3
BRANCH   1  24
HETATM   24  C3  UNL     1      -2.599  -2.392   0.294  1.00  0.00     0.123 C 
BRANCH  24  25
HETATM   25  C4  UNL     1      -1.762  -1.477   1.200  1.00  0.00     0.047 C 
BRANCH  25  26
HETATM   26  C5  UNL     1      -0.915  -0.561   0.347  1.00  0.00     0.234 C 
BRANCH  26  27
HETATM   27  N4  UNL     1      -0.087   0.324   1.145  1.00  0.00    -0.075 N 
ATOM     28  H42 UNL     1      -0.613   0.746   1.911  1.00  0.00     0.277 HD
ATOM     29  H41 UNL     1       0.598  -0.193   1.696  1.00  0.00     0.277 HD
BRANCH  27  30
HETATM   30  C6  UNL     1       0.542   1.325   0.310  1.00  0.00     0.232 C 
BRANCH  30  31
HETATM   31  C7  UNL     1       1.561   0.847  -0.639  1.00  0.00     0.027 C 
BRANCH  31  32
HETATM   32  C8  UNL     1       2.792   0.204   0.016  1.00  0.00     0.002 C 
BRANCH  32  33
HETATM   33  C9  UNL     1       3.682  -0.196  -1.103  1.00  0.00     0.009 C 
BRANCH  33  34
HETATM   34  C10 UNL     1       4.997  -0.789  -0.776  1.00  0.00     0.103 C 
BRANCH  34  35
HETATM   35  C11 UNL     1       5.921   0.086  -0.053  1.00  0.00     0.223 C 
HETATM   36  O1  UNL     1       5.538   1.216   0.318  1.00  0.00    -0.273 OA
HETATM   37  N5  UNL     1       7.238  -0.313   0.234  1.00  0.00    -0.300 N 
HETATM   38  C12 UNL     1       7.944  -1.547  -0.034  1.00  0.00     0.298 C 
HETATM   39  C14 UNL     1       8.258   0.515   0.893  1.00  0.00     0.312 C 
HETATM   40  O2  UNL     1       9.161  -1.113  -0.510  1.00  0.00    -0.368 OA
HETATM   41  C13 UNL     1       9.472   0.090   0.055  1.00  0.00     0.224 C 
BRANCH  39  42
HETATM   42  N6  UNL     1       8.010   1.927   0.745  1.00  0.00    -0.056 N 
ATOM     43  H63 UNL     1       7.913   2.180  -0.238  1.00  0.00     0.276 HD
ATOM     44  H62 UNL     1       7.075   2.170   1.071  1.00  0.00     0.276 HD
ATOM     45  H61 UNL     1       8.718   2.502   1.202  1.00  0.00     0.276 HD
ENDBRANCH  39  42
ENDBRANCH  34  35
ENDBRANCH  33  34
ENDBRANCH  32  33
ENDBRANCH  31  32
ENDBRANCH  30  31
ENDBRANCH  27  30
ENDBRANCH  26  27
ENDBRANCH  25  26
ENDBRANCH  24  25
ENDBRANCH   1  24
TORSDOF 14
