REMARK  14 active torsions:
REMARK  status: ('A' for Active; 'I' for Inactive)
REMARK    1  A    between atoms: C2_3  and  C3_4 
REMARK    2  A    between atoms: C2_3  and  C6_11 
REMARK    3  A    between atoms: C3_4  and  C4_5 
REMARK    4  A    between atoms: C4_5  and  C5_6 
REMARK    5  A    between atoms: C5_6  and  N2_7 
REMARK    6  A    between atoms: C6_11  and  O1_12 
REMARK    7  A    between atoms: N3_14  and  C7_16 
REMARK    8  A    between atoms: C10_20  and  C11_21 
REMARK    9  A    between atoms: C11_21  and  N5_22 
REMARK   10  A    between atoms: C13_24  and  N6_25 
REMARK   11  A    between atoms: C14_30  and  N8_31 
REMARK   12  A    between atoms: N10_39  and  C17_40 
REMARK   13  A    between atoms: C17_40  and  C18_41 
REMARK   14  A    between atoms: C18_41  and  C19_42 
ROOT
HETATM    1  C1  UNL     1       4.721   0.722  -1.604  1.00  0.00     0.229 C 
HETATM    2  N1  UNL     1       4.667  -0.278  -0.704  1.00  0.00    -0.429 NA
HETATM    3  C2  UNL     1       4.619  -1.161   0.091  1.00  0.00     0.133 C 
ENDROOT
BRANCH   3   4
HETATM    4  C3  UNL     1       5.965  -1.955   0.228  1.00  0.00     0.079 C 
BRANCH   4   5
HETATM    5  C4  UNL     1       7.112  -1.191  -0.293  1.00  0.00     0.034 C 
BRANCH   5   6
HETATM    6  C5  UNL     1       7.454   0.034   0.493  1.00  0.00     0.230 C 
BRANCH   6   7
HETATM    7  N2  UNL     1       8.564   0.765  -0.102  1.00  0.00    -0.079 N 
ATOM      8  H23 UNL     1       9.379   0.165  -0.228  1.00  0.00     0.274 HD
ATOM      9  H22 UNL     1       8.379   0.990  -1.079  1.00  0.00     0.274 HD
ATOM     10  H21 UNL     1       8.797   1.601   0.434  1.00  0.00     0.274 HD
ENDBRANCH   6   7
ENDBRANCH   5   6
ENDBRANCH   4   5
ENDBRANCH   3   4
BRANCH   3  11
HETATM   11  C6  UNL     1       3.594  -1.739   0.939  1.00  0.00     0.179 C 
HETATM   12  N3  UNL     1       2.290  -1.560   1.215  1.00  0.00    -0.320 N 
ATOM     13  H3  UNL     1       1.974  -2.221   1.925  1.00  0.00     0.169 HD
BRANCH  11  14
HETATM   14  O1  UNL     1       4.097  -2.776   1.686  1.00  0.00    -0.344 OA
ATOM     15  H1  UNL     1       3.426  -3.155   2.241  1.00  0.00     0.219 HD
ENDBRANCH  11  14
BRANCH  12  16
HETATM   16  C7  UNL     1       1.241  -0.726   0.807  1.00  0.00     0.124 A 
HETATM   17  C8  UNL     1       1.194   0.246  -0.117  1.00  0.00     0.140 A 
HETATM   18  N4  UNL     1      -0.081   0.764  -0.109  1.00  0.00    -0.346 N 
HETATM   19  C9  UNL     1      -0.518   1.838  -1.014  1.00  0.00     0.157 C 
HETATM   20  C10 UNL     1      -0.825   0.161   0.776  1.00  0.00     0.104 A 
HETATM   21  N12 UNL     1      -0.019  -0.765   1.350  1.00  0.00    -0.329 N 
ATOM     22  H12 UNL     1      -0.310  -1.406   2.088  1.00  0.00     0.168 HD
BRANCH  20  23
HETATM   23  C11 UNL     1      -2.207   0.298   1.251  1.00  0.00     0.226 C 
BRANCH  23  24
HETATM   24  N5  UNL     1      -3.256   0.424   0.309  1.00  0.00    -0.274 N 
HETATM   25  C12 UNL     1      -3.879   1.589  -0.041  1.00  0.00     0.128 A 
HETATM   26  C13 UNL     1      -3.823   2.885   0.451  1.00  0.00     0.145 A 
HETATM   27  C15 UNL     1      -4.738   1.295  -1.098  1.00  0.00     0.150 A 
HETATM   28  N7  UNL     1      -4.615   3.801  -0.133  1.00  0.00    -0.175 N 
HETATM   29  C14 UNL     1      -5.445   3.511  -1.157  1.00  0.00     0.678 A 
ATOM     30  H7  UNL     1      -4.587   4.760   0.214  1.00  0.00     0.186 HD
HETATM   31  N9  UNL     1      -5.520   2.266  -1.652  1.00  0.00    -0.184 N 
ATOM     32  H9  UNL     1      -6.148   2.050  -2.426  1.00  0.00     0.184 HD
HETATM   33  C16 UNL     1      -4.629  -0.043  -1.370  1.00  0.00     0.292 A 
HETATM   34  O2  UNL     1      -5.259  -0.675  -2.268  1.00  0.00    -0.264 OA
HETATM   35  N10 UNL     1      -3.725  -0.532  -0.496  1.00  0.00    -0.252 N 
BRANCH  26  36
HETATM   36  N6  UNL     1      -3.071   3.218   1.431  1.00  0.00    -0.383 N 
ATOM     37  H62 UNL     1      -2.470   2.523   1.874  1.00  0.00     0.157 HD
ATOM     38  H61 UNL     1      -3.030   4.171   1.793  1.00  0.00     0.157 HD
ENDBRANCH  26  36
BRANCH  29  39
HETATM   39  N8  UNL     1      -6.178   4.425  -1.677  1.00  0.00    -0.234 N 
ATOM     40  H82 UNL     1      -6.121   5.371  -1.301  1.00  0.00     0.174 HD
ATOM     41  H81 UNL     1      -6.805   4.206  -2.451  1.00  0.00     0.174 HD
ENDBRANCH  29  39
BRANCH  35  42
HETATM   42  C17 UNL     1      -3.326  -1.896  -0.534  1.00  0.00     0.161 C 
BRANCH  42  43
HETATM   43  C18 UNL     1      -4.275  -2.927  -0.029  1.00  0.00     0.121 C 
BRANCH  43  44
HETATM   44  C19 UNL     1      -4.807  -2.866   1.309  1.00  0.00     0.232 C 
HETATM   45  N11 UNL     1      -5.230  -4.072   1.950  1.00  0.00    -0.062 NA
HETATM   46  O3  UNL     1      -4.938  -1.836   1.971  1.00  0.00    -0.277 OA
ENDBRANCH  43  44
ENDBRANCH  42  43
ENDBRANCH  35  42
ENDBRANCH  23  24
ENDBRANCH  20  23
ENDBRANCH  12  16
ENDBRANCH   3  11
TORSDOF 14
