REMARK  13 active torsions:
REMARK  status: ('A' for Active; 'I' for Inactive)
REMARK       I    between atoms: C1_4  and  N3_6 
REMARK    1  A    between atoms: N3_6  and  O1_8 
REMARK    2  A    between atoms: O1_8  and  C2_9 
REMARK    3  A    between atoms: C2_9  and  C3_10 
REMARK    4  A    between atoms: C3_10  and  N4_11 
REMARK    5  A    between atoms: N4_11  and  N5_12 
REMARK    6  A    between atoms: N4_11  and  C4_15 
REMARK    7  A    between atoms: N6_17  and  C6_18 
REMARK    8  A    between atoms: C7_21  and  N8_22 
REMARK    9  A    between atoms: C9_28  and  C10_29 
REMARK   10  A    between atoms: N10_35  and  C15_36 
REMARK   11  A    between atoms: C15_36  and  C16_37 
REMARK   12  A    between atoms: C16_37  and  C17_38 
REMARK   13  A    between atoms: C17_38  and  N11_39 
ROOT
HETATM    1  C6  UNL     1      -0.369  -1.795  -0.401  1.00  0.00     0.137 A 
HETATM    2  N7  UNL     1      -0.177  -3.101  -0.764  1.00  0.00    -0.176 N 
ATOM      3  H7  UNL     1       0.774  -3.470  -0.764  1.00  0.00     0.186 HD
HETATM    4  C7  UNL     1      -1.169  -3.912  -1.116  1.00  0.00     0.677 A 
HETATM    5  N9  UNL     1      -2.413  -3.438  -1.119  1.00  0.00    -0.190 N 
ATOM      6  H9  UNL     1      -3.171  -4.065  -1.390  1.00  0.00     0.184 HD
HETATM    7  C8  UNL     1      -2.718  -2.174  -0.782  1.00  0.00     0.081 A 
HETATM    8  C9  UNL     1      -4.002  -1.695  -0.788  1.00  0.00     0.020 A 
HETATM    9  C14 UNL     1      -4.252  -0.376  -0.428  1.00  0.00     0.108 A 
HETATM   10  N10 UNL     1      -3.262   0.445  -0.073  1.00  0.00    -0.323 N 
HETATM   11  C18 UNL     1      -1.998  -0.060  -0.077  1.00  0.00     0.263 A 
HETATM   12  O3  UNL     1      -1.109   0.748   0.262  1.00  0.00    -0.267 OA
HETATM   13  C19 UNL     1      -1.661  -1.336  -0.414  1.00  0.00     0.105 A 
ENDROOT
BRANCH   1  14
HETATM   14  N6  UNL     1       0.730  -0.993  -0.038  1.00  0.00    -0.363 N 
HETATM   15  C5  UNL     1       1.665  -0.124  -0.686  1.00  0.00     0.147 C 
HETATM   16  C4  UNL     1       2.581  -0.112   0.508  1.00  0.00     0.115 C 
HETATM   17  C20 UNL     1       1.415  -0.779   1.207  1.00  0.00     0.147 C 
BRANCH  16  18
HETATM   18  N4  UNL     1       2.891   1.179   1.049  1.00  0.00    -0.228 NA
BRANCH  18  19
HETATM   19  C3  UNL     1       3.578   2.077   0.187  1.00  0.00     0.142 C 
BRANCH  19  20
HETATM   20  C2  UNL     1       4.981   1.732  -0.165  1.00  0.00     0.217 C 
BRANCH  20  21
HETATM   21  O1  UNL     1       5.170   0.542  -0.811  1.00  0.00    -0.277 OA
BRANCH  21  22
HETATM   22  N3  UNL     1       6.445   0.289  -1.099  1.00  0.00    -0.239 N 
HETATM   23  C1  UNL     1       7.477   1.271  -1.113  1.00  0.00     0.205 C 
HETATM   24  N1  UNL     1       7.647   1.958  -2.197  1.00  0.00    -0.372 N 
HETATM   25  N2  UNL     1       8.307   1.508   0.010  1.00  0.00    -0.062 NA
ATOM     26  H12 UNL     1       8.386   2.661  -2.207  1.00  0.00     0.158 HD
ATOM     27  H11 UNL     1       7.049   1.787  -3.006  1.00  0.00     0.158 HD
ATOM     28  H3  UNL     1       6.700  -0.672  -1.325  1.00  0.00     0.197 HD
ENDBRANCH  21  22
ENDBRANCH  20  21
ENDBRANCH  19  20
ENDBRANCH  18  19
BRANCH  18  29
HETATM   29  N5  UNL     1       3.633   1.033   2.222  1.00  0.00    -0.363 NA
ATOM     30  H52 UNL     1       3.854   1.951   2.607  1.00  0.00     0.171 HD
ATOM     31  H51 UNL     1       3.140   0.389   2.840  1.00  0.00     0.171 HD
ENDBRANCH  18  29
ENDBRANCH  16  18
ENDBRANCH   1  14
BRANCH   4  32
HETATM   32  N8  UNL     1      -0.933  -5.118  -1.444  1.00  0.00    -0.234 N 
ATOM     33  H82 UNL     1       0.020  -5.481  -1.442  1.00  0.00     0.174 HD
ATOM     34  H81 UNL     1      -1.694  -5.741  -1.714  1.00  0.00     0.174 HD
ENDBRANCH   4  32
BRANCH   8  35
HETATM   35  C10 UNL     1      -5.055  -2.604  -1.176  1.00  0.00     0.002 A 
HETATM   36  C11 UNL     1      -5.028  -3.454  -2.255  1.00  0.00     0.039 A 
HETATM   37  C12 UNL     1      -6.233  -4.149  -2.269  1.00  0.00     0.142 A 
HETATM   38  O2  UNL     1      -6.946  -3.734  -1.247  1.00  0.00    -0.334 OA
HETATM   39  C13 UNL     1      -6.274  -2.806  -0.567  1.00  0.00     0.153 A 
ENDBRANCH   8  35
BRANCH  10  40
HETATM   40  C15 UNL     1      -3.528   1.820   0.300  1.00  0.00     0.133 C 
BRANCH  40  41
HETATM   41  C16 UNL     1      -3.788   2.010   1.756  1.00  0.00     0.047 C 
BRANCH  41  42
HETATM   42  C17 UNL     1      -4.047   3.492   1.978  1.00  0.00     0.231 C 
BRANCH  42  43
HETATM   43  N11 UNL     1      -4.313   3.798   3.357  1.00  0.00    -0.079 N 
ATOM     44 3H11 UNL     1      -5.080   3.232   3.719  1.00  0.00     0.274 HD
ATOM     45 2H11 UNL     1      -3.563   3.460   3.961  1.00  0.00     0.274 HD
ATOM     46 1H11 UNL     1      -4.487   4.792   3.506  1.00  0.00     0.274 HD
ENDBRANCH  42  43
ENDBRANCH  41  42
ENDBRANCH  40  41
ENDBRANCH  10  40
TORSDOF 13
