REMARK  1 active torsions:
REMARK  status: ('A' for Active; 'I' for Inactive)
REMARK    1  A    between atoms: C5_6  and  O2_7 
ROOT
HETATM    1  C1  UNL     1       3.192   0.038  -1.400  1.00  0.00     0.029 C 
HETATM    2  C2  UNL     1       2.194  -0.646  -0.476  1.00  0.00     0.025 C 
HETATM    3  C3  UNL     1       2.561  -2.135  -0.485  1.00  0.00     0.029 C 
HETATM    4  C4  UNL     1       2.326  -0.185   0.942  1.00  0.00     0.191 C 
HETATM    5  O1  UNL     1       1.074  -0.360   1.553  1.00  0.00    -0.356 OA
HETATM    6  C5  UNL     1       0.241   0.713   1.231  1.00  0.00     0.296 C 
HETATM    7  C6  UNL     1      -0.541   0.510  -0.021  1.00  0.00     0.139 C 
HETATM    8  N1  UNL     1      -0.733   1.805  -0.639  1.00  0.00    -0.348 N 
ATOM      9  H1  UNL     1       0.093   2.390  -0.764  1.00  0.00     0.163 HD
HETATM   10  C7  UNL     1      -1.959   2.324  -1.080  1.00  0.00     0.135 C 
HETATM   11  N2  UNL     1      -2.192   3.576  -1.099  1.00  0.00    -0.380 N 
ATOM     12  H21 UNL     1      -3.084   3.953  -1.420  1.00  0.00     0.158 HD
ATOM     13  H22 UNL     1      -1.485   4.244  -0.790  1.00  0.00     0.158 HD
HETATM   14  S1  UNL     1      -3.188   1.163  -1.617  1.00  0.00    -0.094 SA
HETATM   15  C8  UNL     1      -2.479  -0.462  -1.212  1.00  0.00     0.094 C 
HETATM   16  C9  UNL     1      -1.768  -0.305   0.116  1.00  0.00     0.001 C 
HETATM   17  C10 UNL     1      -1.333  -1.720   0.520  1.00  0.00     0.019 C 
HETATM   18  C11 UNL     1      -2.761   0.148   1.116  1.00  0.00     0.019 C 
HETATM   19  S2  UNL     1       0.558  -0.419  -1.169  1.00  0.00    -0.120 SA
ENDROOT
BRANCH   6  20
HETATM   20  O2  UNL     1      -0.516   1.075   2.328  1.00  0.00    -0.368 OA
ATOM     21  H2  UNL     1      -1.083   1.805   2.109  1.00  0.00     0.212 HD
ENDBRANCH   6  20
TORSDOF 1
