REMARK  2 active torsions:
REMARK  status: ('A' for Active; 'I' for Inactive)
REMARK    1  A    between atoms: C4_6  and  O1_7 
REMARK    2  A    between atoms: C14_18  and  O2_20 
ROOT
HETATM    1  C1  UNL     1      -2.909   0.086   1.431  1.00  0.00     0.050 C 
HETATM    2  C2  UNL     1      -2.288   0.540   0.115  1.00  0.00     0.194 C 
HETATM    3  N1  UNL     1      -1.224   1.357   0.156  1.00  0.00    -0.426 NA
HETATM    4  C3  UNL     1      -0.347   2.157   0.251  1.00  0.00     0.193 C 
HETATM    5  N2  UNL     1      -0.366   3.462   0.900  1.00  0.00    -0.069 NA
HETATM    6  C4  UNL     1       1.023   1.873  -0.344  1.00  0.00     0.126 C 
HETATM    7  C5  UNL     1       1.910   1.564   0.793  1.00  0.00     0.047 C 
HETATM    8  C6  UNL     1       2.944   0.523   0.608  1.00  0.00     0.004 C 
HETATM    9  C7  UNL     1       2.656  -0.789   1.320  1.00  0.00     0.000 C 
HETATM   10  C8  UNL     1       2.550  -1.946   0.378  1.00  0.00     0.000 C 
HETATM   11  C9  UNL     1       1.146  -2.343   0.063  1.00  0.00     0.005 C 
HETATM   12  C10 UNL     1       0.272  -1.108  -0.254  1.00  0.00    -0.012 C 
HETATM   13  C11 UNL     1       0.746  -0.432  -1.473  1.00  0.00     0.008 C 
HETATM   14  C12 UNL     1       0.989   0.996  -1.513  1.00  0.00     0.047 C 
HETATM   15  C13 UNL     1      -1.117  -1.654  -0.404  1.00  0.00     0.045 C 
HETATM   16  C14 UNL     1      -2.200  -0.725  -0.729  1.00  0.00     0.086 C 
HETATM   17  C15 UNL     1      -3.522  -1.463  -0.424  1.00  0.00     0.049 C 
ENDROOT
BRANCH  16  18
HETATM   18  O2  UNL     1      -2.338  -0.412  -2.096  1.00  0.00    -0.387 OA
ATOM     19  H2  UNL     1      -2.283  -1.201  -2.622  1.00  0.00     0.210 HD
ENDBRANCH  16  18
BRANCH   6  20
HETATM   20  O1  UNL     1       1.514   3.108  -0.881  1.00  0.00    -0.381 OA
ATOM     21  H1  UNL     1       2.370   2.931  -1.253  1.00  0.00     0.211 HD
ENDBRANCH   6  20
TORSDOF 2
