REMARK  0 active torsions:
REMARK  status: ('A' for Active; 'I' for Inactive)
ROOT
HETATM    1  C1  UNL     1      -0.782  -2.117   0.486  1.00  0.00     0.012 C 
HETATM    2  C2  UNL     1      -1.251  -0.745   0.148  1.00  0.00     0.012 C 
HETATM    3  C3  UNL     1      -2.088  -0.293   1.352  1.00  0.00     0.007 C 
HETATM    4  C4  UNL     1      -3.243   0.566   0.961  1.00  0.00     0.000 C 
HETATM    5  C5  UNL     1      -2.800   1.849   0.277  1.00  0.00     0.000 C 
HETATM    6  C6  UNL     1      -2.324   1.494  -1.077  1.00  0.00     0.002 C 
HETATM    7  C7  UNL     1      -0.895   1.225  -1.266  1.00  0.00     0.034 C 
HETATM    8  C8  UNL     1      -0.252   0.263  -0.247  1.00  0.00     0.060 C 
HETATM    9  N1  UNL     1       0.053   1.110   0.876  1.00  0.00    -0.352 N 
ATOM     10  H1  UNL     1      -0.624   1.866   0.977  1.00  0.00     0.163 HD
HETATM   11  C9  UNL     1       0.946   1.156   1.769  1.00  0.00     0.191 C 
HETATM   12  N2  UNL     1       0.795   2.236   2.688  1.00  0.00    -0.063 NA
HETATM   13  N3  UNL     1       2.019   0.277   1.929  1.00  0.00    -0.305 N 
ATOM     14  H3  UNL     1       2.508   0.328   2.823  1.00  0.00     0.171 HD
HETATM   15  C10 UNL     1       2.473  -0.599   1.081  1.00  0.00     0.193 C 
HETATM   16  N4  UNL     1       3.597  -1.370   1.521  1.00  0.00    -0.063 NA
HETATM   17  N5  UNL     1       1.974  -0.860  -0.216  1.00  0.00    -0.349 N 
HETATM   18  C11 UNL     1       2.640  -1.973  -0.862  1.00  0.00     0.153 C 
HETATM   19  C12 UNL     1       0.966  -0.229  -0.971  1.00  0.00     0.053 C 
HETATM   20  C13 UNL     1       1.623   1.056  -1.530  1.00  0.00     0.041 C 
HETATM   21  C14 UNL     1       0.522  -0.996  -2.193  1.00  0.00     0.041 C 
ENDROOT
TORSDOF 0
