REMARK  3 active torsions:
REMARK  status: ('A' for Active; 'I' for Inactive)
REMARK    1  A    between atoms: C7_12  and  C8_13 
REMARK    2  A    between atoms: C8_13  and  O1_14 
REMARK    3  A    between atoms: C11_18  and  O2_19 
ROOT
HETATM    1  N1  UNL     1      -2.068   3.249   0.298  1.00  0.00    -0.196 NA
HETATM    2  C1  UNL     1      -1.953   2.116   0.552  1.00  0.00     0.071 C 
HETATM    3  C2  UNL     1      -1.779   0.669   0.874  1.00  0.00     0.160 C 
HETATM    4  C3  UNL     1      -3.149   0.198   1.113  1.00  0.00     0.059 C 
HETATM    5  N2  UNL     1      -3.682   0.350   2.251  1.00  0.00    -0.396 N 
ATOM      6  H21 UNL     1      -4.634   0.023   2.417  1.00  0.00     0.156 HD
ATOM      7  H22 UNL     1      -3.144   0.802   2.990  1.00  0.00     0.156 HD
HETATM    8  S1  UNL     1      -4.091  -0.594  -0.182  1.00  0.00    -0.115 SA
HETATM    9  C4  UNL     1      -2.855  -1.575  -1.020  1.00  0.00     0.086 C 
HETATM   10  C5  UNL     1      -1.605  -0.810  -1.219  1.00  0.00     0.009 A 
HETATM   11  C6  UNL     1      -1.519   0.621  -1.584  1.00  0.00     0.021 A 
HETATM   12  C7  UNL     1      -1.041   0.048  -0.240  1.00  0.00     0.018 A 
ENDROOT
BRANCH  12  13
HETATM   13  C8  UNL     1       0.457  -0.041  -0.018  1.00  0.00     0.068 C 
HETATM   14  C9  UNL     1       1.195  -0.845  -1.042  1.00  0.00     0.041 C 
HETATM   15  C10 UNL     1       2.555  -1.177  -0.403  1.00  0.00     0.034 C 
HETATM   16  C11 UNL     1       3.312  -0.002   0.065  1.00  0.00     0.118 C 
HETATM   17  C12 UNL     1       2.509   1.051   0.745  1.00  0.00     0.034 C 
HETATM   18  C13 UNL     1       1.131   1.253   0.172  1.00  0.00     0.041 C 
BRANCH  13  19
HETATM   19  O1  UNL     1       0.587  -0.776   1.190  1.00  0.00    -0.389 OA
ATOM     20  H1  UNL     1       1.525  -0.832   1.329  1.00  0.00     0.210 HD
ENDBRANCH  13  19
BRANCH  16  21
HETATM   21  O2  UNL     1       4.250  -0.461   1.024  1.00  0.00    -0.396 OA
ATOM     22  H2  UNL     1       4.738   0.296   1.326  1.00  0.00     0.210 HD
ENDBRANCH  16  21
ENDBRANCH  12  13
TORSDOF 3
