REMARK  1 active torsions:
REMARK  status: ('A' for Active; 'I' for Inactive)
REMARK       I    between atoms: C1_2  and  N2_4 
REMARK    1  A    between atoms: C2_6  and  C3_8 
ROOT
HETATM    1  N1  UNL     1      -3.526   0.068   1.352  1.00  0.00    -0.040 NA
HETATM    2  C1  UNL     1      -2.859   0.210   0.097  1.00  0.00     0.333 C 
HETATM    3  O1  UNL     1      -3.456  -0.165  -0.950  1.00  0.00    -0.251 OA
HETATM    4  N2  UNL     1      -1.570   0.761   0.090  1.00  0.00    -0.302 N 
ATOM      5  H2  UNL     1      -1.468   1.765   0.239  1.00  0.00     0.171 HD
HETATM    6  C2  UNL     1      -0.511   0.057  -0.096  1.00  0.00     0.100 C 
HETATM    7  N3  UNL     1      -0.673  -1.323  -0.299  1.00  0.00    -0.087 NA
ENDROOT
BRANCH   6   8
HETATM    8  C3  UNL     1       0.783   0.739  -0.083  1.00  0.00     0.051 C 
HETATM    9  C4  UNL     1       1.658   0.159   1.034  1.00  0.00     0.012 C 
HETATM   10  C5  UNL     1       2.826   0.287   0.091  1.00  0.00     0.002 C 
HETATM   11  C6  UNL     1       1.813   0.232  -1.059  1.00  0.00     0.012 C 
ENDBRANCH   6   8
TORSDOF 1
