REMARK  1 active torsions:
REMARK  status: ('A' for Active; 'I' for Inactive)
REMARK       I    between atoms: C2_2  and  N1_4 
REMARK       I    between atoms: N1_4  and  C3_6 
REMARK       I    between atoms: C3_6  and  N2_8 
REMARK    1  A    between atoms: N2_8  and  C4_10 
ROOT
HETATM    1  C1  UNL     1      -3.839  -0.058   0.642  1.00  0.00     0.117 C 
HETATM    2  C2  UNL     1      -2.322  -0.013   0.614  1.00  0.00     0.221 C 
HETATM    3  O1  UNL     1      -1.781  -0.119   1.721  1.00  0.00    -0.274 OA
HETATM    4  N1  UNL     1      -1.692   0.140  -0.618  1.00  0.00    -0.280 N 
ATOM      5  H1  UNL     1      -2.299   0.213  -1.434  1.00  0.00     0.173 HD
HETATM    6  C3  UNL     1      -0.303   0.205  -0.857  1.00  0.00     0.323 C 
HETATM    7  O2  UNL     1       0.033   0.351  -2.102  1.00  0.00    -0.247 OA
HETATM    8  N2  UNL     1       0.707   0.126   0.121  1.00  0.00    -0.338 N 
ATOM      9  H2  UNL     1       0.458   0.012   1.103  1.00  0.00     0.164 HD
ENDROOT
BRANCH   8  10
HETATM   10  C4  UNL     1       2.098   0.207  -0.267  1.00  0.00     0.086 A 
HETATM   11  C5  UNL     1       3.136   0.583   0.721  1.00  0.00     0.027 A 
HETATM   12  C6  UNL     1       2.955  -0.889   0.400  1.00  0.00     0.027 A 
ENDBRANCH   8  10
TORSDOF 1
