REMARK  1 active torsions:
REMARK  status: ('A' for Active; 'I' for Inactive)
REMARK    1  A    between atoms: C6_6  and  N1_7 
ROOT
HETATM    1  C1  UNL     1      -3.004   0.263  -0.002  1.00  0.00     0.011 C 
HETATM    2  C2  UNL     1      -1.499   0.298  -0.017  1.00  0.00    -0.006 C 
HETATM    3  C3  UNL     1      -0.820  -0.676  -0.928  1.00  0.00     0.013 C 
HETATM    4  C4  UNL     1      -1.304  -1.748   0.001  1.00  0.00     0.014 C 
HETATM    5  C5  UNL     1      -0.814  -0.654   0.924  1.00  0.00     0.013 C 
HETATM    6  C6  UNL     1       0.361  -0.561   0.005  1.00  0.00     0.092 C 
ENDROOT
BRANCH   6   7
HETATM    7  N1  UNL     1       0.996   0.715  -0.099  1.00  0.00    -0.361 N 
HETATM    8  C7  UNL     1       2.249   0.934  -0.166  1.00  0.00     0.197 C 
HETATM    9  N2  UNL     1       3.224  -0.125  -0.145  1.00  0.00    -0.067 NA
HETATM   10  N3  UNL     1       2.707   2.263  -0.264  1.00  0.00    -0.067 NA
ATOM     11  H1  UNL     1       0.385   1.532  -0.122  1.00  0.00     0.162 HD
ENDBRANCH   6   7
TORSDOF 1
