REMARK  3 active torsions:
REMARK  status: ('A' for Active; 'I' for Inactive)
REMARK    1  A    between atoms: C2_2  and  C3_4 
REMARK    2  A    between atoms: C6_7  and  N2_8 
REMARK       I    between atoms: N2_8  and  C7_10 
REMARK    3  A    between atoms: C7_10  and  C8_12 
ROOT
HETATM    1  C3  UNL     1      -1.515   0.097   0.395  1.00  0.00     0.018 A 
HETATM    2  C4  UNL     1      -1.181  -0.657   1.663  1.00  0.00     0.023 C 
HETATM    3  C5  UNL     1      -1.073   1.510   0.210  1.00  0.00     0.043 A 
HETATM    4  C6  UNL     1      -0.501   0.353  -0.637  1.00  0.00     0.099 A 
ENDROOT
BRANCH   4   5
HETATM    5  N2  UNL     1       0.898   0.160  -0.441  1.00  0.00    -0.355 N 
HETATM    6  C7  UNL     1       1.836  -0.046  -1.473  1.00  0.00     0.222 C 
HETATM    7  O1  UNL     1       1.455  -0.069  -2.670  1.00  0.00    -0.273 OA
ATOM      8  H2  UNL     1       1.246   0.172   0.518  1.00  0.00     0.162 HD
BRANCH   6   9
HETATM    9  C8  UNL     1       3.272  -0.238  -1.188  1.00  0.00     0.078 A 
HETATM   10  C9  UNL     1       3.686  -0.759   0.150  1.00  0.00     0.015 A 
HETATM   11  C10 UNL     1       3.841   0.695  -0.123  1.00  0.00     0.015 A 
ENDBRANCH   6   9
ENDBRANCH   4   5
BRANCH   1  12
HETATM   12  C2  UNL     1      -2.880  -0.201  -0.110  1.00  0.00     0.025 C 
HETATM   13  C1  UNL     1      -3.817   0.724  -0.231  1.00  0.00     0.035 C 
HETATM   14  N1  UNL     1      -3.252  -1.536  -0.498  1.00  0.00    -0.107 NA
ENDBRANCH   1  12
TORSDOF 3
