REMARK  2 active torsions:
REMARK  status: ('A' for Active; 'I' for Inactive)
REMARK    1  A    between atoms: C2_2  and  N1_3 
REMARK    2  A    between atoms: C2_2  and  C4_10 
REMARK       I    between atoms: N1_3  and  C3_5 
ROOT
HETATM    1  C1  UNL     1       1.310  -1.772  -0.494  1.00  0.00     0.032 C 
HETATM    2  C2  UNL     1       0.664  -0.431  -0.838  1.00  0.00     0.084 C 
ENDROOT
BRANCH   2   3
HETATM    3  N1  UNL     1       1.631   0.623  -0.833  1.00  0.00    -0.360 N 
HETATM    4  C3  UNL     1       2.407   0.999   0.279  1.00  0.00     0.182 C 
HETATM    5  N2  UNL     1       2.113   2.093   0.895  1.00  0.00    -0.374 N 
HETATM    6  N3  UNL     1       3.507   0.252   0.781  1.00  0.00    -0.064 NA
ATOM      7  H22 UNL     1       1.324   2.629   0.535  1.00  0.00     0.158 HD
ATOM      8  H21 UNL     1       2.675   2.366   1.701  1.00  0.00     0.158 HD
ATOM      9  H1  UNL     1       1.768   1.141  -1.701  1.00  0.00     0.162 HD
ENDBRANCH   2   3
BRANCH   2  10
HETATM   10  C4  UNL     1      -0.346  -0.141   0.247  1.00  0.00     0.012 C 
HETATM   11  C5  UNL     1      -1.417  -1.251   0.303  1.00  0.00     0.011 C 
HETATM   12  C6  UNL     1      -2.638  -0.395   0.168  1.00  0.00    -0.013 C 
HETATM   13  C7  UNL     1      -2.327   0.854   0.997  1.00  0.00     0.010 C 
HETATM   14  C9  UNL     1      -2.263   0.479  -1.027  1.00  0.00     0.010 C 
HETATM   15  C8  UNL     1      -1.218   1.027  -0.051  1.00  0.00    -0.008 C 
ENDBRANCH   2  10
TORSDOF 2
