REMARK  5 active torsions:
REMARK  status: ('A' for Active; 'I' for Inactive)
REMARK    1  A    between atoms: N1_2  and  C2_4 
REMARK    2  A    between atoms: C2_4  and  N2_6 
REMARK    3  A    between atoms: N2_6  and  C4_8 
REMARK    4  A    between atoms: C4_8  and  N3_10 
REMARK    5  A    between atoms: N3_10  and  C5_12 
ROOT
HETATM    1  N2  UNL     1      -0.189   0.423   0.344  1.00  0.00    -0.347 N 
ATOM      2  H2  UNL     1       0.345   0.726  -0.470  1.00  0.00     0.164 HD
ENDROOT
BRANCH   1   3
HETATM    3  C2  UNL     1      -1.639   0.475   0.337  1.00  0.00     0.174 C 
HETATM    4  C3  UNL     1      -2.130   1.268  -0.891  1.00  0.00     0.055 C 
BRANCH   3   5
HETATM    5  N1  UNL     1      -2.183  -0.842   0.238  1.00  0.00    -0.406 N 
HETATM    6  C1  UNL     1      -3.620  -0.918   0.289  1.00  0.00     0.141 C 
ATOM      7  H1  UNL     1      -1.595  -1.670   0.138  1.00  0.00     0.154 HD
ENDBRANCH   3   5
ENDBRANCH   1   3
BRANCH   1   8
HETATM    8  C4  UNL     1       0.469  -0.055   1.499  1.00  0.00     0.169 C 
HETATM    9  S1  UNL     1      -0.400  -0.503   2.821  1.00  0.00    -0.041 SA
BRANCH   8  10
HETATM   10  N3  UNL     1       1.883  -0.118   1.504  1.00  0.00    -0.363 N 
ATOM     11  H3  UNL     1       2.383  -0.465   2.322  1.00  0.00     0.162 HD
BRANCH  10  12
HETATM   12  C5  UNL     1       2.605   0.317   0.333  1.00  0.00     0.084 A 
HETATM   13  C6  UNL     1       4.085   0.163   0.282  1.00  0.00     0.027 A 
HETATM   14  C7  UNL     1       3.172  -0.801  -0.522  1.00  0.00     0.027 A 
ENDBRANCH  10  12
ENDBRANCH   8  10
ENDBRANCH   1   8
TORSDOF 5
