REMARK  1 active torsions:
REMARK  status: ('A' for Active; 'I' for Inactive)
REMARK       I    between atoms: C1_2  and  N2_4 
REMARK       I    between atoms: C2_6  and  N4_8 
REMARK    1  A    between atoms: N4_8  and  C3_10 
ROOT
HETATM    1  N1  UNL     1       5.045   0.229   0.453  1.00  0.00    -0.040 NA
HETATM    2  C1  UNL     1       3.794   0.588   1.013  1.00  0.00     0.335 C 
HETATM    3  O1  UNL     1       3.672   0.616   2.275  1.00  0.00    -0.251 OA
HETATM    4  N2  UNL     1       2.649   0.923   0.252  1.00  0.00    -0.285 N 
ATOM      5  H2  UNL     1       2.442   1.901   0.051  1.00  0.00     0.172 HD
HETATM    6  C2  UNL     1       1.876   0.010  -0.183  1.00  0.00     0.192 C 
HETATM    7  N3  UNL     1       2.182  -1.357   0.107  1.00  0.00    -0.063 NA
HETATM    8  N4  UNL     1       0.717   0.316  -0.950  1.00  0.00    -0.360 N 
ATOM      9  H4  UNL     1       0.823   0.407  -1.960  1.00  0.00     0.162 HD
ENDROOT
BRANCH   8  10
HETATM   10  C3  UNL     1      -0.599   0.506  -0.387  1.00  0.00     0.084 C 
HETATM   11  C4  UNL     1      -1.591   0.814  -1.467  1.00  0.00     0.025 C 
HETATM   12  C5  UNL     1      -2.909   1.091  -0.788  1.00  0.00     0.002 C 
HETATM   13  C6  UNL     1      -3.408  -0.074  -0.015  1.00  0.00     0.000 C 
HETATM   14  C7  UNL     1      -2.400  -0.818   0.769  1.00  0.00     0.002 C 
HETATM   15  C8  UNL     1      -1.004  -0.763   0.292  1.00  0.00     0.025 C 
ENDBRANCH   8  10
TORSDOF 1
