REMARK  2 active torsions:
REMARK  status: ('A' for Active; 'I' for Inactive)
REMARK    1  A    between atoms: N1_2  and  C2_4 
REMARK       I    between atoms: N2_5  and  C3_7 
REMARK    2  A    between atoms: N4_9  and  C4_11 
ROOT
HETATM    1  C2  UNL     1      -0.996  -0.191  -0.137  1.00  0.00     0.178 C 
HETATM    2  N2  UNL     1       0.025   0.051   0.592  1.00  0.00    -0.327 N 
ATOM      3  H2  UNL     1      -0.130   0.452   1.517  1.00  0.00     0.169 HD
HETATM    4  C3  UNL     1       1.366  -0.205   0.190  1.00  0.00     0.195 C 
HETATM    5  N3  UNL     1       1.652  -1.460  -0.378  1.00  0.00    -0.063 NA
HETATM    6  N4  UNL     1       2.225   0.730   0.374  1.00  0.00    -0.308 N 
ATOM      7  H4  UNL     1       1.889   1.595   0.797  1.00  0.00     0.170 HD
ENDROOT
BRANCH   1   8
HETATM    8  N1  UNL     1      -2.279   0.113   0.390  1.00  0.00    -0.390 N 
HETATM    9  C1  UNL     1      -3.294   0.786  -0.387  1.00  0.00     0.147 C 
ATOM     10  H1  UNL     1      -2.492  -0.153   1.351  1.00  0.00     0.159 HD
ENDBRANCH   1   8
BRANCH   6  11
HETATM   11  C4  UNL     1       3.585   0.664   0.044  1.00  0.00     0.355 C 
HETATM   12  O1  UNL     1       4.037   0.486  -1.122  1.00  0.00    -0.283 OA
ENDBRANCH   6  11
TORSDOF 2
