REMARK  6 active torsions:
REMARK  status: ('A' for Active; 'I' for Inactive)
REMARK    1  A    between atoms: N1_1  and  C1_4 
REMARK    2  A    between atoms: C1_4  and  C2_5 
REMARK    3  A    between atoms: C2_5  and  C3_6 
REMARK    4  A    between atoms: C3_6  and  C4_7 
REMARK    5  A    between atoms: C4_7  and  C5_8 
REMARK    6  A    between atoms: C5_8  and  C6_9 
ROOT
HETATM    1  C3  UNL     1       1.314  -1.164   0.630  1.00  0.00     0.066 C 
ENDROOT
BRANCH   1   2
HETATM    2  C2  UNL     1       2.429  -0.680   0.190  1.00  0.00    -0.056 C 
BRANCH   2   3
HETATM    3  C1  UNL     1       3.505  -0.130  -0.296  1.00  0.00     0.008 C 
BRANCH   3   4
HETATM    4  N1  UNL     1       4.491   0.559  -0.707  1.00  0.00    -0.359 N 
ATOM      5  H12 UNL     1       4.010   1.359  -0.296  1.00  0.00     0.166 HD
ATOM      6  H11 UNL     1       5.334   0.990  -1.088  1.00  0.00     0.166 HD
ENDBRANCH   3   4
ENDBRANCH   2   3
ENDBRANCH   1   2
BRANCH   1   7
HETATM    7  C4  UNL     1       0.036  -0.614   0.232  1.00  0.00     0.014 C 
BRANCH   7   8
HETATM    8  C5  UNL     1      -0.497   0.380   0.893  1.00  0.00     0.071 C 
BRANCH   8   9
HETATM    9  C6  UNL     1      -1.787   0.945   0.500  1.00  0.00     0.254 C 
HETATM   10  N2  UNL     1      -2.520   0.447  -0.611  1.00  0.00    -0.058 NA
HETATM   11  O1  UNL     1      -2.302   1.902   1.136  1.00  0.00    -0.272 OA
ENDBRANCH   8   9
ENDBRANCH   7   8
ENDBRANCH   1   7
TORSDOF 6
