REMARK  2 active torsions:
REMARK  status: ('A' for Active; 'I' for Inactive)
REMARK    1  A    between atoms: C1_2  and  N1_3 
REMARK    2  A    between atoms: C3_5  and  C4_6 
ROOT
HETATM    1  N1  UNL     1       0.874  -0.238  -0.187  1.00  0.00    -0.340 N 
HETATM    2  C2  UNL     1      -0.032  -1.411  -0.107  1.00  0.00     0.162 A 
HETATM    3  C3  UNL     1      -0.550  -0.004  -0.323  1.00  0.00     0.205 A 
ENDROOT
BRANCH   3   4
HETATM    4  C4  UNL     1      -1.298   0.532   0.834  1.00  0.00     0.198 C 
HETATM    5  O2  UNL     1      -1.011   0.284   2.023  1.00  0.00    -0.646 OA
HETATM    6  O3  UNL     1      -2.388   1.359   0.605  1.00  0.00    -0.646 OA
ENDBRANCH   3   4
BRANCH   1   7
HETATM    7  C1  UNL     1       2.220   0.219  -0.144  1.00  0.00     0.351 C 
HETATM    8  O1  UNL     1       2.509   1.428  -0.275  1.00  0.00    -0.284 OA
ENDBRANCH   1   7
TORSDOF 2
