REMARK  1 active torsions:
REMARK  status: ('A' for Active; 'I' for Inactive)
REMARK    1  A    between atoms: S1_2  and  N1_4 
REMARK       I    between atoms: N1_4  and  C3_6 
ROOT
HETATM    1  N1  UNL     1       0.809  -0.005   0.539  1.00  0.00    -0.295 N 
ATOM      2  H1  UNL     1       1.218   0.293   1.425  1.00  0.00     0.177 HD
HETATM    3  C3  UNL     1       1.686  -0.551  -0.461  1.00  0.00     0.338 C 
HETATM    4  N2  UNL     1       3.097  -0.661  -0.212  1.00  0.00    -0.039 NA
HETATM    5  O1  UNL     1       1.215  -0.929  -1.555  1.00  0.00    -0.250 OA
ENDROOT
BRANCH   1   6
HETATM    6  S1  UNL     1      -0.830   0.170   0.338  1.00  0.00    -0.132 SA
HETATM    7  C1  UNL     1      -1.788  -1.061  -0.336  1.00  0.00     0.101 C 
HETATM    8  C2  UNL     1      -1.502   1.759   0.471  1.00  0.00     0.101 C 
ENDBRANCH   1   6
TORSDOF 1
