REMARK  2 active torsions:
REMARK  status: ('A' for Active; 'I' for Inactive)
REMARK    1  A    between atoms: C1_2  and  N1_3 
REMARK    2  A    between atoms: N1_3  and  C2_5 
ROOT
HETATM    1  C2  UNL     1      -0.761  -0.019  -0.350  1.00  0.00     0.088 C 
HETATM    2  C3  UNL     1       0.233  -1.069  -0.794  1.00  0.00     0.030 C 
HETATM    3  C4  UNL     1       1.460  -0.819   0.053  1.00  0.00    -0.012 C 
HETATM    4  C5  UNL     1       2.091   0.516  -0.252  1.00  0.00     0.005 C 
HETATM    5  C6  UNL     1       1.013   1.524   0.171  1.00  0.00     0.007 C 
HETATM    6  C7  UNL     1      -0.056   0.699   0.796  1.00  0.00     0.009 C 
HETATM    7  C8  UNL     1       0.754  -0.466   1.377  1.00  0.00     0.011 C 
ENDROOT
BRANCH   1   8
HETATM    8  N1  UNL     1      -2.028  -0.530   0.009  1.00  0.00    -0.363 N 
ATOM      9  H1  UNL     1      -2.107  -1.208   0.767  1.00  0.00     0.162 HD
BRANCH   8  10
HETATM   10  C1  UNL     1      -3.192  -0.101  -0.683  1.00  0.00     0.348 C 
HETATM   11  O1  UNL     1      -3.141   0.737  -1.628  1.00  0.00    -0.284 OA
ENDBRANCH   8  10
ENDBRANCH   1   8
TORSDOF 2
