REMARK  1 active torsions:
REMARK  status: ('A' for Active; 'I' for Inactive)
REMARK       I    between atoms: C1_2  and  N2_4 
REMARK    1  A    between atoms: N2_4  and  C2_6 
ROOT
HETATM    1  C2  UNL     1       0.232  -0.142   0.431  1.00  0.00     0.085 C 
HETATM    2  C3  UNL     1      -0.405   1.207   0.253  1.00  0.00     0.025 C 
HETATM    3  C4  UNL     1      -1.883   1.143   0.500  1.00  0.00     0.002 C 
HETATM    4  C5  UNL     1      -2.414   0.270  -0.638  1.00  0.00     0.000 C 
HETATM    5  C6  UNL     1      -1.890  -1.135  -0.532  1.00  0.00     0.002 C 
HETATM    6  C7  UNL     1      -0.467  -1.271  -0.205  1.00  0.00     0.025 C 
ENDROOT
BRANCH   1   7
HETATM    7  N2  UNL     1       1.589  -0.018  -0.114  1.00  0.00    -0.341 N 
HETATM    8  C1  UNL     1       2.738  -0.094   0.702  1.00  0.00     0.329 C 
HETATM    9  N1  UNL     1       4.007   0.037   0.081  1.00  0.00    -0.040 NA
HETATM   10  O1  UNL     1       2.654  -0.271   1.921  1.00  0.00    -0.251 OA
ATOM     11  H2  UNL     1       1.706   0.128  -1.117  1.00  0.00     0.164 HD
ENDBRANCH   1   7
TORSDOF 1
