REMARK  3 active torsions:
REMARK  status: ('A' for Active; 'I' for Inactive)
REMARK    1  A    between atoms: C1_2  and  C2_3 
REMARK       I    between atoms: C1_2  and  N2_11 
REMARK    2  A    between atoms: C2_3  and  C3_4 
REMARK    3  A    between atoms: N2_11  and  C7_13 
ROOT
HETATM    1  C2  UNL     1      -0.401  -0.031   0.805  1.00  0.00     0.135 C 
ENDROOT
BRANCH   1   2
HETATM    2  C1  UNL     1       0.723  -0.356  -0.101  1.00  0.00     0.219 C 
HETATM    3  O1  UNL     1       0.486  -1.051  -1.117  1.00  0.00    -0.274 OA
HETATM    4  N2  UNL     1       2.021   0.106   0.178  1.00  0.00    -0.356 N 
ATOM      5  H2  UNL     1       2.199   0.670   1.009  1.00  0.00     0.162 HD
BRANCH   4   6
HETATM    6  C7  UNL     1       3.102  -0.227  -0.725  1.00  0.00     0.084 A 
HETATM    7  C8  UNL     1       4.280   0.673  -0.819  1.00  0.00     0.027 A 
HETATM    8  C9  UNL     1       4.369  -0.613  -0.033  1.00  0.00     0.027 A 
ENDBRANCH   4   6
ENDBRANCH   1   2
BRANCH   1   9
HETATM    9  C3  UNL     1      -1.670  -0.647   0.272  1.00  0.00     0.194 C 
HETATM   10  C4  UNL     1      -2.781  -0.280   1.240  1.00  0.00     0.035 C 
HETATM   11  C5  UNL     1      -3.400   0.914   0.542  1.00  0.00     0.029 C 
HETATM   12  C6  UNL     1      -3.356   0.436  -0.915  1.00  0.00     0.233 C 
HETATM   13  N1  UNL     1      -2.005  -0.061  -0.998  1.00  0.00    -0.070 N 
ATOM     14  H12 UNL     1      -1.339   0.653  -1.291  1.00  0.00     0.277 HD
ATOM     15  H11 UNL     1      -1.868  -0.704  -1.778  1.00  0.00     0.277 HD
ENDBRANCH   1   9
TORSDOF 3
