REMARK  3 active torsions:
REMARK  status: ('A' for Active; 'I' for Inactive)
REMARK    1  A    between atoms: N2_4  and  N3_6 
REMARK    2  A    between atoms: C1_8  and  N4_9 
REMARK    3  A    between atoms: N4_9  and  C2_11 
ROOT
HETATM    1  N4  UNL     1       0.961  -0.863  -1.382  1.00  0.00    -0.380 N 
ATOM      2  H4  UNL     1       0.929  -1.306  -2.300  1.00  0.00     0.160 HD
ENDROOT
BRANCH   1   3
HETATM    3  C1  UNL     1       2.098  -1.048  -0.573  1.00  0.00     0.194 C 
HETATM    4  N3  UNL     1       2.939  -0.096  -0.451  1.00  0.00    -0.283 N 
ATOM      5  H3  UNL     1       2.772   0.782  -0.943  1.00  0.00     0.189 HD
BRANCH   4   6
HETATM    6  N2  UNL     1       4.072  -0.227   0.333  1.00  0.00    -0.248 N 
HETATM    7  N1  UNL     1       5.088  -0.908   0.001  1.00  0.00    -0.331 N 
ATOM      8  H12 UNL     1       5.052  -1.382  -0.902  1.00  0.00     0.178 HD
ATOM      9  H11 UNL     1       5.923  -1.005   0.579  1.00  0.00     0.178 HD
ATOM     10  H2  UNL     1       4.090   0.254   1.232  1.00  0.00     0.207 HD
ENDBRANCH   4   6
ENDBRANCH   1   3
BRANCH   1  11
HETATM   11  C2  UNL     1      -0.141  -0.079  -0.958  1.00  0.00     0.090 C 
HETATM   12  C3  UNL     1       0.225   1.372  -0.615  1.00  0.00     0.026 C 
HETATM   13  C4  UNL     1      -1.070   2.139  -0.666  1.00  0.00     0.002 C 
HETATM   14  C5  UNL     1      -2.153   1.599   0.181  1.00  0.00     0.001 C 
HETATM   15  C6  UNL     1      -2.257   0.109   0.248  1.00  0.00     0.011 C 
HETATM   16  C7  UNL     1      -0.921  -0.592   0.208  1.00  0.00    -0.020 A 
HETATM   17  C8  UNL     1      -0.331  -1.065   1.465  1.00  0.00     0.012 A 
HETATM   18  C9  UNL     1      -0.935  -2.038   0.500  1.00  0.00     0.012 A 
ENDBRANCH   1  11
TORSDOF 3
