REMARK  3 active torsions:
REMARK  status: ('A' for Active; 'I' for Inactive)
REMARK       I    between atoms: C1_2  and  N1_3 
REMARK       I    between atoms: C1_2  and  N2_9 
REMARK    1  A    between atoms: N1_3  and  C2_5 
REMARK    2  A    between atoms: C2_5  and  C3_6 
REMARK    3  A    between atoms: N2_9  and  C6_11 
ROOT
HETATM    1  O1  UNL     1      -0.740  -1.139   1.397  1.00  0.00    -0.247 OA
HETATM    2  C1  UNL     1      -0.642  -0.314   0.465  1.00  0.00     0.316 C 
HETATM    3  N1  UNL     1       0.630   0.236   0.172  1.00  0.00    -0.343 N 
ATOM      4  H1  UNL     1       0.721   0.911  -0.587  1.00  0.00     0.164 HD
HETATM    5  N2  UNL     1      -1.767   0.070  -0.287  1.00  0.00    -0.339 N 
ATOM      6  H2  UNL     1      -1.669   0.745  -1.045  1.00  0.00     0.164 HD
ENDROOT
BRANCH   3   7
HETATM    7  C2  UNL     1       1.797  -0.142   0.928  1.00  0.00     0.129 C 
BRANCH   7   8
HETATM    8  C3  UNL     1       3.021   0.570   0.434  1.00  0.00     0.003 A 
HETATM    9  C4  UNL     1       3.449   0.382  -0.961  1.00  0.00     0.007 A 
HETATM   10  C5  UNL     1       4.243  -0.231   0.131  1.00  0.00     0.007 A 
ENDBRANCH   7   8
ENDBRANCH   3   7
BRANCH   5  11
HETATM   11  C6  UNL     1      -3.049  -0.490   0.015  1.00  0.00     0.086 A 
HETATM   12  C7  UNL     1      -4.123  -0.585  -0.996  1.00  0.00     0.027 A 
HETATM   13  C8  UNL     1      -4.184   0.546  -0.063  1.00  0.00     0.027 A 
ENDBRANCH   5  11
TORSDOF 3
