REMARK  4 active torsions:
REMARK  status: ('A' for Active; 'I' for Inactive)
REMARK    1  A    between atoms: C5_7  and  C6_8 
REMARK    2  A    between atoms: C6_8  and  C8_10 
REMARK    3  A    between atoms: C8_10  and  N2_11 
REMARK    4  A    between atoms: C8_10  and  N3_15 
ROOT
HETATM    1  C6  UNL     1      -0.071   1.274   0.225  1.00  0.00    -0.014 C 
HETATM    2  C7  UNL     1       0.146   2.162  -0.981  1.00  0.00     0.048 C 
ENDROOT
BRANCH   1   3
HETATM    3  C5  UNL     1      -1.162   0.314   0.097  1.00  0.00    -0.000 A 
HETATM    4  C3  UNL     1      -1.658  -0.363   1.222  1.00  0.00     0.016 A 
HETATM    5  N1  UNL     1      -2.636  -1.151   0.761  1.00  0.00    -0.362 N 
HETATM    6  C4  UNL     1      -1.281  -0.293   2.640  1.00  0.00     0.069 C 
HETATM    7  C2  UNL     1      -2.777  -1.007  -0.562  1.00  0.00     0.012 A 
ATOM      8  H1  UNL     1      -3.198  -1.776   1.339  1.00  0.00     0.165 HD
HETATM    9  C1  UNL     1      -3.765  -1.715  -1.452  1.00  0.00     0.068 C 
HETATM   10  C12 UNL     1      -1.865  -0.087  -1.040  1.00  0.00    -0.027 A 
HETATM   11  C13 UNL     1      -1.685   0.359  -2.437  1.00  0.00     0.051 C 
ENDBRANCH   1   3
BRANCH   1  12
HETATM   12  C8  UNL     1       1.212   0.789   0.810  1.00  0.00     0.413 C 
BRANCH  12  13
HETATM   13  N2  UNL     1       2.156   1.967   0.862  1.00  0.00    -0.046 N 
ATOM     14  H23 UNL     1       2.277   2.421  -0.043  1.00  0.00     0.277 HD
ATOM     15  H22 UNL     1       1.768   2.768   1.361  1.00  0.00     0.277 HD
ATOM     16  H21 UNL     1       3.034   1.635   1.262  1.00  0.00     0.277 HD
ENDBRANCH  12  13
BRANCH  12  17
HETATM   17  N3  UNL     1       1.977  -0.230   0.257  1.00  0.00    -0.046 N 
HETATM   18  C9  UNL     1       2.483  -1.083   1.366  1.00  0.00     0.274 C 
HETATM   19  C10 UNL     1       3.254   0.247  -0.335  1.00  0.00     0.274 C 
HETATM   20  C11 UNL     1       1.387  -1.183  -0.638  1.00  0.00     0.274 C 
ENDBRANCH  12  17
ENDBRANCH   1  12
TORSDOF 4
