REMARK  4 active torsions:
REMARK  status: ('A' for Active; 'I' for Inactive)
REMARK    1  A    between atoms: C2_2  and  C4_4 
REMARK    2  A    between atoms: C4_4  and  N1_5 
REMARK    3  A    between atoms: C4_4  and  C6_10 
REMARK       I    between atoms: N1_5  and  C5_7 
REMARK    4  A    between atoms: C6_10  and  N3_12 
ROOT
HETATM    1  C4  UNL     1      -0.947   0.187   0.510  1.00  0.00     0.017 C 
ENDROOT
BRANCH   1   2
HETATM    2  C2  UNL     1      -1.590  -0.755  -0.412  1.00  0.00     0.025 C 
HETATM    3  C1  UNL     1      -3.074  -0.356  -0.587  1.00  0.00     0.016 C 
HETATM    4  C3  UNL     1      -1.648  -2.178   0.093  1.00  0.00     0.016 C 
ENDBRANCH   1   2
BRANCH   1   5
HETATM    5  N1  UNL     1      -0.879   1.584   0.090  1.00  0.00    -0.316 N 
HETATM    6  C5  UNL     1      -1.248   2.210  -1.085  1.00  0.00     0.332 C 
HETATM    7  N2  UNL     1      -1.049   3.663  -1.144  1.00  0.00    -0.040 NA
HETATM    8  O1  UNL     1      -1.732   1.769  -2.137  1.00  0.00    -0.251 OA
ATOM      9  H1  UNL     1      -0.488   2.212   0.792  1.00  0.00     0.169 HD
ENDBRANCH   1   5
BRANCH   1  10
HETATM   10  C6  UNL     1       0.270  -0.142   1.268  1.00  0.00     0.130 C 
HETATM   11  C7  UNL     1       0.224  -1.281   2.231  1.00  0.00     0.039 C 
BRANCH  10  12
HETATM   12  N3  UNL     1       1.491  -0.193   0.488  1.00  0.00    -0.357 N 
HETATM   13  C8  UNL     1       1.999  -1.338   0.010  1.00  0.00     0.091 A 
HETATM   14  C9  UNL     1       3.169  -1.375  -0.732  1.00  0.00     0.017 A 
HETATM   15  C10 UNL     1       3.856  -0.213  -1.002  1.00  0.00     0.003 A 
HETATM   16  C11 UNL     1       3.342   0.955  -0.516  1.00  0.00     0.017 A 
HETATM   17  C12 UNL     1       2.177   0.921   0.213  1.00  0.00     0.091 A 
ENDBRANCH  10  12
ENDBRANCH   1  10
TORSDOF 4
