REMARK  11 active torsions:
REMARK  status: ('A' for Active; 'I' for Inactive)
REMARK    1  A    between atoms: C2_2  and  N1_3 
REMARK    2  A    between atoms: N2_6  and  C5_7 
REMARK    3  A    between atoms: C6_8  and  C7_9 
REMARK       I    between atoms: C7_9  and  N3_11 
REMARK    4  A    between atoms: N3_11  and  C8_13 
REMARK    5  A    between atoms: C8_13  and  C9_14 
REMARK    6  A    between atoms: C9_14  and  O2_15 
REMARK    7  A    between atoms: C16_24  and  N5_25 
REMARK       I    between atoms: N5_25  and  C17_27 
REMARK    8  A    between atoms: C17_27  and  C18_29 
REMARK    9  A    between atoms: C18_29  and  C19_30 
REMARK   10  A    between atoms: C19_30  and  N6_31 
REMARK   11  A    between atoms: C22_34  and  O4_35 
ROOT
HETATM    1  C5  UNL     1      -1.647   1.071   0.177  1.00  0.00     0.074 A 
HETATM    2  C6  UNL     1      -2.794   1.699   0.564  1.00  0.00     0.060 A 
HETATM    3  C11 UNL     1      -2.711   2.847   1.383  1.00  0.00     0.020 A 
HETATM    4  C12 UNL     1      -1.491   3.314   1.775  1.00  0.00     0.016 A 
HETATM    5  C13 UNL     1      -0.322   2.690   1.389  1.00  0.00     0.005 A 
HETATM    6  C14 UNL     1      -0.394   1.580   0.598  1.00  0.00     0.072 A 
HETATM    7  N4  UNL     1       0.873   1.180   0.371  1.00  0.00    -0.351 N 
ATOM      8  H4  UNL     1       1.139   0.372  -0.192  1.00  0.00     0.166 HD
HETATM    9  C15 UNL     1       1.737   2.004   0.998  1.00  0.00     0.074 A 
HETATM   10  C16 UNL     1       3.133   2.040   1.097  1.00  0.00     0.098 A 
HETATM   11  C22 UNL     1       3.730   3.037   1.846  1.00  0.00     0.118 A 
HETATM   12  C24 UNL     1       2.958   3.995   2.494  1.00  0.00     0.081 A 
HETATM   13  C25 UNL     1       3.573   5.031   3.276  1.00  0.00     0.102 C 
HETATM   14  N7  UNL     1       4.076   5.890   3.901  1.00  0.00    -0.191 NA
HETATM   15  C26 UNL     1       1.601   3.979   2.410  1.00  0.00     0.040 A 
HETATM   16  C27 UNL     1       1.009   2.970   1.652  1.00  0.00     0.007 A 
ENDROOT
BRANCH  11  17
HETATM   17  O4  UNL     1       5.101   3.086   1.955  1.00  0.00    -0.352 OA
HETATM   18  C23 UNL     1       5.862   2.456   2.957  1.00  0.00     0.210 C 
ENDBRANCH  11  17
BRANCH  10  19
HETATM   19  N5  UNL     1       3.842   1.072   0.377  1.00  0.00    -0.323 N 
HETATM   20  C17 UNL     1       4.188  -0.226   0.760  1.00  0.00     0.224 C 
HETATM   21  O3  UNL     1       3.853  -0.695   1.906  1.00  0.00    -0.273 OA
ATOM     22  H5  UNL     1       4.148   1.353  -0.555  1.00  0.00     0.169 HD
BRANCH  20  23
HETATM   23  C18 UNL     1       4.969  -1.144  -0.141  1.00  0.00     0.133 C 
BRANCH  23  24
HETATM   24  C19 UNL     1       5.076  -2.511   0.456  1.00  0.00     0.280 C 
BRANCH  24  25
HETATM   25  N6  UNL     1       5.844  -3.416  -0.375  1.00  0.00     0.080 N 
HETATM   26  C20 UNL     1       7.246  -3.048  -0.413  1.00  0.00     0.309 C 
HETATM   27  C21 UNL     1       5.753  -4.777   0.103  1.00  0.00     0.309 C 
ENDBRANCH  24  25
ENDBRANCH  23  24
ENDBRANCH  20  23
ENDBRANCH  10  19
BRANCH   1  28
HETATM   28  N2  UNL     1      -1.569  -0.127  -0.595  1.00  0.00    -0.369 N 
HETATM   29  C4  UNL     1      -1.663  -1.434   0.091  1.00  0.00     0.168 C 
HETATM   30  C3  UNL     1      -2.708  -2.233  -0.634  1.00  0.00     0.083 C 
HETATM   31  N1  UNL     1      -2.328  -2.433  -1.977  1.00  0.00    -0.371 N 
HETATM   32  C29 UNL     1      -1.410  -1.552  -2.576  1.00  0.00     0.083 C 
HETATM   33  C28 UNL     1      -1.304  -0.177  -1.990  1.00  0.00     0.168 C 
BRANCH  31  34
HETATM   34  C2  UNL     1      -2.280  -3.791  -2.408  1.00  0.00     0.122 C 
HETATM   35  C1  UNL     1      -3.639  -4.445  -2.480  1.00  0.00     0.027 C 
ENDBRANCH  31  34
ENDBRANCH   1  28
BRANCH   2  36
HETATM   36  C7  UNL     1      -4.143   1.331   0.188  1.00  0.00     0.254 C 
HETATM   37  O1  UNL     1      -4.945   1.214   1.177  1.00  0.00    -0.268 OA
HETATM   38  N3  UNL     1      -4.616   1.113  -1.093  1.00  0.00    -0.355 N 
ATOM     39  H3  UNL     1      -3.934   1.234  -1.841  1.00  0.00     0.162 HD
BRANCH  38  40
HETATM   40  C8  UNL     1      -5.942   0.738  -1.514  1.00  0.00     0.149 C 
BRANCH  40  41
HETATM   41  C9  UNL     1      -7.042   1.693  -1.244  1.00  0.00     0.186 C 
BRANCH  41  42
HETATM   42  O2  UNL     1      -7.291   2.021   0.054  1.00  0.00    -0.394 OA
HETATM   43  C10 UNL     1      -8.361   2.920   0.113  1.00  0.00     0.201 C 
ENDBRANCH  41  42
ENDBRANCH  40  41
ENDBRANCH  38  40
ENDBRANCH   2  36
TORSDOF 11
