REMARK  3 active torsions:
REMARK  status: ('A' for Active; 'I' for Inactive)
REMARK    1  A    between atoms: N4_12  and  N5_14 
REMARK    2  A    between atoms: C4_17  and  N6_18 
REMARK    3  A    between atoms: N6_18  and  N7_20 
ROOT
HETATM    1  N1  UNL     1       3.495  -0.616  -0.695  1.00  0.00    -0.234 N 
ATOM      2  H11 UNL     1       3.914   0.239  -1.060  1.00  0.00     0.174 HD
ATOM      3  H12 UNL     1       3.954  -1.518  -0.572  1.00  0.00     0.174 HD
HETATM    4  C1  UNL     1       2.257  -0.537  -0.358  1.00  0.00     0.681 C 
HETATM    5  N2  UNL     1       1.695  -1.683   0.131  1.00  0.00    -0.141 N 
ATOM      6  H2  UNL     1       2.329  -2.482   0.149  1.00  0.00     0.189 HD
HETATM    7  C2  UNL     1       0.466  -1.951   0.591  1.00  0.00     0.340 C 
HETATM    8  O1  UNL     1       0.294  -3.060   1.108  1.00  0.00    -0.246 OA
HETATM    9  N3  UNL     1      -0.620  -1.126   0.548  1.00  0.00    -0.290 N 
ATOM     10  H3  UNL     1      -1.477  -1.492   0.963  1.00  0.00     0.172 HD
HETATM   11  C3  UNL     1      -0.698   0.108   0.026  1.00  0.00     0.170 C 
HETATM   12  N4  UNL     1      -1.854   0.531  -0.269  1.00  0.00    -0.289 N 
ATOM     13  H4  UNL     1      -1.977   1.461  -0.669  1.00  0.00     0.188 HD
HETATM   14  C4  UNL     1       0.354   0.940  -0.221  1.00  0.00     0.181 C 
HETATM   15  N8  UNL     1       1.654   0.648  -0.519  1.00  0.00    -0.172 N 
ATOM     16  H8  UNL     1       2.221   1.405  -0.901  1.00  0.00     0.186 HD
ENDROOT
BRANCH  12  17
HETATM   17  N5  UNL     1      -2.959  -0.291  -0.040  1.00  0.00    -0.344 N 
ATOM     18  H52 UNL     1      -2.819  -1.218   0.361  1.00  0.00     0.176 HD
ATOM     19  H51 UNL     1      -3.891   0.050  -0.278  1.00  0.00     0.176 HD
ENDBRANCH  12  17
BRANCH  14  20
HETATM   20  N6  UNL     1       0.115   2.183  -0.166  1.00  0.00    -0.288 N 
ATOM     21  H6  UNL     1       0.872   2.843  -0.345  1.00  0.00     0.188 HD
BRANCH  20  22
HETATM   22  N7  UNL     1      -1.142   2.668   0.129  1.00  0.00    -0.344 N 
ATOM     23  H72 UNL     1      -1.888   1.995   0.305  1.00  0.00     0.176 HD
ATOM     24  H71 UNL     1      -1.334   3.669   0.173  1.00  0.00     0.176 HD
ENDBRANCH  20  22
ENDBRANCH  14  20
TORSDOF 3
