REMARK  3 active torsions:
REMARK  status: ('A' for Active; 'I' for Inactive)
REMARK       I    between atoms: C1_4  and  N3_6 
REMARK    1  A    between atoms: N3_6  and  C2_8 
REMARK    2  A    between atoms: C4_15  and  N6_16 
REMARK    3  A    between atoms: N7_19  and  N8_20 
ROOT
HETATM    1  C2  UNL     1      -0.117   0.112   0.185  1.00  0.00     0.724 A 
HETATM    2  N4  UNL     1      -0.133  -1.190   0.510  1.00  0.00    -0.138 N 
ATOM      3  H4  UNL     1      -1.021  -1.675   0.636  1.00  0.00     0.189 HD
HETATM    4  C3  UNL     1       1.025  -1.853   0.669  1.00  0.00     0.352 A 
HETATM    5  O1  UNL     1       1.070  -3.075   0.973  1.00  0.00    -0.246 OA
HETATM    6  N5  UNL     1       2.198  -1.218   0.504  1.00  0.00    -0.139 N 
ATOM      7  H5  UNL     1       3.077  -1.722   0.625  1.00  0.00     0.189 HD
HETATM    8  C4  UNL     1       2.205   0.101   0.174  1.00  0.00     0.715 A 
HETATM    9  N7  UNL     1       1.051   0.753   0.019  1.00  0.00     0.083 N 
ENDROOT
BRANCH   1  10
HETATM   10  N3  UNL     1      -1.201   0.794   0.021  1.00  0.00    -0.161 N 
HETATM   11  C1  UNL     1      -2.496   0.259   0.162  1.00  0.00     0.200 C 
HETATM   12  N1  UNL     1      -3.273   0.618   1.122  1.00  0.00    -0.373 N 
HETATM   13  N2  UNL     1      -2.975  -0.702  -0.765  1.00  0.00    -0.063 NA
ATOM     14  H12 UNL     1      -4.211   0.230   1.224  1.00  0.00     0.158 HD
ATOM     15  H11 UNL     1      -2.929   1.309   1.789  1.00  0.00     0.158 HD
ATOM     16  H3  UNL     1      -1.114   1.780  -0.226  1.00  0.00     0.187 HD
ENDBRANCH   1  10
BRANCH   9  17
HETATM   17  N8  UNL     1       1.058   2.105  -0.319  1.00  0.00    -0.309 N 
ATOM     18  H82 UNL     1       0.176   2.603  -0.437  1.00  0.00     0.178 HD
ATOM     19  H81 UNL     1       1.945   2.592  -0.445  1.00  0.00     0.178 HD
ENDBRANCH   9  17
BRANCH   8  20
HETATM   20  N6  UNL     1       3.336   0.686   0.022  1.00  0.00    -0.232 N 
ATOM     21  H62 UNL     1       4.218   0.188   0.140  1.00  0.00     0.174 HD
ATOM     22  H61 UNL     1       3.341   1.675  -0.226  1.00  0.00     0.174 HD
ENDBRANCH   8  20
TORSDOF 3
