REMARK  4 active torsions:
REMARK  status: ('A' for Active; 'I' for Inactive)
REMARK    1  A    between atoms: N1_2  and  C2_5 
REMARK    2  A    between atoms: C2_5  and  C3_6 
REMARK    3  A    between atoms: C3_6  and  N2_7 
REMARK    4  A    between atoms: C3_6  and  C5_11 
ROOT
HETATM    1  N2  UNL     1       0.136   1.998  -0.629  1.00  0.00    -0.315 N 
ATOM      2  H2  UNL     1       0.863   2.532  -0.152  1.00  0.00     0.172 HD
HETATM    3  C4  UNL     1      -0.956   2.645  -1.190  1.00  0.00     0.178 C 
HETATM    4  N3  UNL     1      -1.865   3.185  -1.667  1.00  0.00    -0.172 NA
ENDROOT
BRANCH   1   5
HETATM    5  C3  UNL     1       0.231   0.560  -0.728  1.00  0.00     0.188 C 
BRANCH   5   6
HETATM    6  C2  UNL     1      -0.962  -0.011  -0.053  1.00  0.00     0.265 C 
BRANCH   6   7
HETATM    7  N1  UNL     1      -1.081  -1.433  -0.043  1.00  0.00    -0.077 N 
HETATM    8  C1  UNL     1      -2.329  -1.771   0.655  1.00  0.00     0.267 C 
ATOM      9  H12 UNL     1      -0.265  -1.897   0.357  1.00  0.00     0.276 HD
ATOM     10  H11 UNL     1      -1.025  -1.842  -0.976  1.00  0.00     0.276 HD
ENDBRANCH   6   7
ENDBRANCH   5   6
BRANCH   5  11
HETATM   11  C5  UNL     1       1.530   0.173  -0.165  1.00  0.00     0.138 A 
HETATM   12  N4  UNL     1       2.668   0.851  -0.503  1.00  0.00    -0.270 N 
HETATM   13  N5  UNL     1       3.700   0.327   0.128  1.00  0.00    -0.227 N 
ATOM     14  H4  UNL     1       2.712   1.642  -1.146  1.00  0.00     0.190 HD
HETATM   15  N6  UNL     1       3.261  -0.673   0.866  1.00  0.00    -0.227 N 
ATOM     16  H5  UNL     1       4.668   0.640   0.058  1.00  0.00     0.210 HD
HETATM   17  N7  UNL     1       1.956  -0.750   0.678  1.00  0.00    -0.270 N 
ATOM     18  H6  UNL     1       3.823  -1.274   1.469  1.00  0.00     0.210 HD
ATOM     19  H7  UNL     1       1.352  -1.437   1.128  1.00  0.00     0.190 HD
ENDBRANCH   5  11
ENDBRANCH   1   5
TORSDOF 4
