REMARK  5 active torsions:
REMARK  status: ('A' for Active; 'I' for Inactive)
REMARK    1  A    between atoms: O1_2  and  N1_3 
REMARK    2  A    between atoms: N1_3  and  C2_5 
REMARK    3  A    between atoms: N2_6  and  O2_8 
REMARK    4  A    between atoms: O2_8  and  C3_9 
REMARK    5  A    between atoms: C4_14  and  N5_15 
ROOT
HETATM    1  C3  UNL     1      -1.542  -1.181  -0.114  1.00  0.00     0.276 A 
HETATM    2  N3  UNL     1      -1.840  -1.531  -1.376  1.00  0.00    -0.249 N 
ATOM      3  H3  UNL     1      -1.541  -2.396  -1.826  1.00  0.00     0.191 HD
HETATM    4  N4  UNL     1      -2.569  -0.604  -1.949  1.00  0.00    -0.129 N 
ATOM      5  H4  UNL     1      -2.928  -0.624  -2.903  1.00  0.00     0.205 HD
HETATM    6  C4  UNL     1      -2.755   0.370  -1.056  1.00  0.00     0.693 A 
HETATM    7  N6  UNL     1      -2.125   0.015   0.070  1.00  0.00    -0.151 N 
ATOM      8  H6  UNL     1      -2.093   0.564   0.929  1.00  0.00     0.188 HD
ENDROOT
BRANCH   1   9
HETATM    9  O2  UNL     1      -0.798  -1.873   0.831  1.00  0.00    -0.198 OA
BRANCH   9  10
HETATM   10  N2  UNL     1       0.531  -1.577   0.959  1.00  0.00    -0.251 N 
HETATM   11  C2  UNL     1       0.864  -0.452   1.480  1.00  0.00     0.228 C 
ATOM     12  H2  UNL     1       1.243  -2.237   0.647  1.00  0.00     0.195 HD
BRANCH  11  13
HETATM   13  N1  UNL     1       2.257  -0.186   1.593  1.00  0.00    -0.261 N 
ATOM     14  H1  UNL     1       2.588   0.198   2.478  1.00  0.00     0.195 HD
BRANCH  13  15
HETATM   15  O1  UNL     1       3.164  -0.395   0.643  1.00  0.00    -0.284 OA
HETATM   16  C1  UNL     1       3.532   0.803   0.081  1.00  0.00     0.237 C 
ENDBRANCH  13  15
ENDBRANCH  11  13
ENDBRANCH   9  10
ENDBRANCH   1   9
BRANCH   6  17
HETATM   17  N5  UNL     1      -3.417   1.482  -1.193  1.00  0.00    -0.233 N 
ATOM     18  H52 UNL     1      -3.897   1.753  -2.051  1.00  0.00     0.174 HD
ATOM     19  H51 UNL     1      -3.559   2.226  -0.510  1.00  0.00     0.174 HD
ENDBRANCH   6  17
TORSDOF 5
