REMARK  12 active torsions:
REMARK  status: ('A' for Active; 'I' for Inactive)
REMARK    1  A    between atoms: N2_5  and  C3_6 
REMARK    2  A    between atoms: C3_6  and  C4_7 
REMARK    3  A    between atoms: C4_7  and  C5_8 
REMARK    4  A    between atoms: C5_8  and  N3_9 
REMARK    5  A    between atoms: C5_8  and  C6_13 
REMARK       I    between atoms: C6_13  and  N4_15 
REMARK    6  A    between atoms: N4_15  and  N5_17 
REMARK    7  A    between atoms: N5_17  and  O2_19 
REMARK    8  A    between atoms: C8_21  and  N6_22 
REMARK       I    between atoms: N6_22  and  C9_24 
REMARK       I    between atoms: C9_24  and  N8_28 
REMARK    9  A    between atoms: N8_28  and  N9_30 
REMARK   10  A    between atoms: N9_30  and  N10_31 
REMARK   11  A    between atoms: N10_31  and  N11_32 
REMARK   12  A    between atoms: C10_37  and  N13_38 
ROOT
HETATM    1  C1  UNL     1      -0.198   2.969   2.876  1.00  0.00     0.074 C 
HETATM    2  C2  UNL     1       0.292   2.138   1.743  1.00  0.00     0.066 A 
HETATM    3  N1  UNL     1      -0.335   1.002   1.404  1.00  0.00    -0.285 N 
ATOM      4  H1  UNL     1      -1.155   0.720   1.941  1.00  0.00     0.187 HD
HETATM    5  N2  UNL     1       0.065   0.223   0.397  1.00  0.00    -0.123 N 
HETATM    6  C8  UNL     1       1.156   0.561  -0.344  1.00  0.00     0.715 A 
HETATM    7  N12 UNL     1       1.784   1.695  -0.006  1.00  0.00    -0.173 N 
ATOM      8  H12 UNL     1       2.605   1.970  -0.546  1.00  0.00     0.186 HD
HETATM    9  C10 UNL     1       1.396   2.487   0.999  1.00  0.00     0.138 A 
ENDROOT
BRANCH   5  10
HETATM   10  C3  UNL     1      -0.625  -1.002   0.120  1.00  0.00     0.170 C 
BRANCH  10  11
HETATM   11  C4  UNL     1      -1.660  -0.956  -0.929  1.00  0.00     0.065 C 
BRANCH  11  12
HETATM   12  C5  UNL     1      -2.826  -0.067  -0.775  1.00  0.00     0.278 C 
BRANCH  12  13
HETATM   13  N3  UNL     1      -2.490   1.340  -0.689  1.00  0.00    -0.066 N 
ATOM     14  H33 UNL     1      -1.816   1.502   0.059  1.00  0.00     0.275 HD
ATOM     15  H32 UNL     1      -1.928   1.623  -1.492  1.00  0.00     0.275 HD
ATOM     16  H31 UNL     1      -3.297   1.955  -0.582  1.00  0.00     0.275 HD
ENDBRANCH  12  13
BRANCH  12  17
HETATM   17  C6  UNL     1      -3.689  -0.420   0.350  1.00  0.00     0.270 C 
HETATM   18  O1  UNL     1      -3.818   0.438   1.293  1.00  0.00    -0.269 OA
HETATM   19  N4  UNL     1      -4.391  -1.636   0.471  1.00  0.00    -0.244 N 
HETATM   20  C7  UNL     1      -5.199  -1.847   1.672  1.00  0.00     0.183 C 
BRANCH  19  21
HETATM   21  N5  UNL     1      -4.348  -2.630  -0.525  1.00  0.00    -0.206 N 
ATOM     22  H5  UNL     1      -3.588  -3.310  -0.524  1.00  0.00     0.216 HD
BRANCH  21  23
HETATM   23  O2  UNL     1      -5.225  -2.691  -1.407  1.00  0.00    -0.274 OA
ATOM     24  H2  UNL     1      -5.196  -3.362  -2.079  1.00  0.00     0.246 HD
ENDBRANCH  21  23
ENDBRANCH  19  21
ENDBRANCH  12  17
ENDBRANCH  11  12
ENDBRANCH  10  11
ENDBRANCH   5  10
BRANCH   6  25
HETATM   25  N6  UNL     1       1.498  -0.223  -1.300  1.00  0.00    -0.020 N 
HETATM   26  C9  UNL     1       2.585  -0.033  -2.158  1.00  0.00     0.703 C 
HETATM   27  N7  UNL     1       2.493   0.839  -3.097  1.00  0.00    -0.233 N 
HETATM   28  N8  UNL     1       3.810  -0.736  -2.079  1.00  0.00    -0.118 N 
ATOM     29  H72 UNL     1       1.610   1.346  -3.154  1.00  0.00     0.174 HD
ATOM     30  H71 UNL     1       3.286   0.978  -3.723  1.00  0.00     0.174 HD
ATOM     31  H8  UNL     1       4.056  -1.358  -2.849  1.00  0.00     0.202 HD
ATOM     32  H6  UNL     1       0.928  -1.056  -1.447  1.00  0.00     0.203 HD
BRANCH  28  33
HETATM   33  N9  UNL     1       4.702  -0.631  -1.013  1.00  0.00     0.005 NA
BRANCH  33  34
HETATM   34  N10 UNL     1       5.536  -1.764  -0.966  1.00  0.00    -0.015 NA
BRANCH  34  35
HETATM   35  N11 UNL     1       5.477  -2.372   0.293  1.00  0.00    -0.330 N 
ATOM     36 2H11 UNL     1       4.902  -2.028   1.062  1.00  0.00     0.173 HD
ATOM     37 1H11 UNL     1       6.081  -3.193   0.327  1.00  0.00     0.173 HD
ENDBRANCH  34  35
ENDBRANCH  33  34
ENDBRANCH  28  33
ENDBRANCH   6  25
BRANCH   9  38
HETATM   38  N13 UNL     1       2.011   3.576   1.312  1.00  0.00    -0.383 N 
ATOM     39 2H13 UNL     1       1.715   4.180   2.079  1.00  0.00     0.157 HD
ATOM     40 1H13 UNL     1       2.829   3.835   0.761  1.00  0.00     0.157 HD
ENDBRANCH   9  38
TORSDOF 12
