REMARK  12 active torsions:
REMARK  status: ('A' for Active; 'I' for Inactive)
REMARK    1  A    between atoms: N1_1  and  N2_4 
REMARK    2  A    between atoms: N2_4  and  C1_6 
REMARK    3  A    between atoms: N3_7  and  N4_8 
REMARK    4  A    between atoms: C3_13  and  C4_14 
REMARK    5  A    between atoms: N7_17  and  C5_18 
REMARK    6  A    between atoms: C5_18  and  O2_19 
REMARK    7  A    between atoms: C5_18  and  C6_21 
REMARK    8  A    between atoms: C6_21  and  N8_22 
REMARK    9  A    between atoms: C6_21  and  C7_26 
REMARK   10  A    between atoms: C7_26  and  C8_27 
REMARK   11  A    between atoms: C8_27  and  N9_28 
REMARK   12  A    between atoms: N9_28  and  C9_30 
ROOT
HETATM    1  C5  UNL     1      -0.696  -1.057   0.201  1.00  0.00     0.171 C 
ENDROOT
BRANCH   1   2
HETATM    2  N7  UNL     1      -1.812  -0.144   0.170  1.00  0.00    -0.117 N 
HETATM    3  C1  UNL     1      -1.924   0.941   0.970  1.00  0.00     0.727 A 
HETATM    4  N3  UNL     1      -3.075   1.550   0.655  1.00  0.00    -0.074 N 
HETATM    5  C2  UNL     1      -3.678   0.867  -0.319  1.00  0.00     0.188 A 
HETATM    6  N5  UNL     1      -4.931   1.210  -0.920  1.00  0.00    -0.077 NA
HETATM    7  C3  UNL     1      -2.876  -0.244  -0.655  1.00  0.00     0.167 A 
BRANCH   3   8
HETATM    8  N2  UNL     1      -1.095   1.353   1.906  1.00  0.00    -0.136 N 
ATOM      9  H2  UNL     1      -0.235   0.835   2.088  1.00  0.00     0.205 HD
BRANCH   8  10
HETATM   10  N1  UNL     1      -1.390   2.497   2.650  1.00  0.00    -0.331 N 
ATOM     11  H12 UNL     1      -2.254   3.003   2.455  1.00  0.00     0.177 HD
ATOM     12  H11 UNL     1      -0.748   2.816   3.375  1.00  0.00     0.177 HD
ENDBRANCH   8  10
ENDBRANCH   3   8
BRANCH   4  13
HETATM   13  N4  UNL     1      -3.539   2.726   1.281  1.00  0.00    -0.323 N 
ATOM     14  H42 UNL     1      -3.078   3.248   2.026  1.00  0.00     0.178 HD
ATOM     15  H41 UNL     1      -4.415   3.190   1.041  1.00  0.00     0.178 HD
ENDBRANCH   4  13
BRANCH   7  16
HETATM   16  C4  UNL     1      -3.250  -1.205  -1.670  1.00  0.00     0.286 C 
HETATM   17  N6  UNL     1      -2.548  -2.347  -2.068  1.00  0.00    -0.056 NA
HETATM   18  O1  UNL     1      -4.356  -1.018  -2.302  1.00  0.00    -0.269 OA
ENDBRANCH   7  16
ENDBRANCH   1   2
BRANCH   1  19
HETATM   19  O2  UNL     1      -0.186  -1.328   1.462  1.00  0.00    -0.347 OA
ATOM     20  H2  UNL     1       0.549  -1.929   1.482  1.00  0.00     0.219 HD
ENDBRANCH   1  19
BRANCH   1  21
HETATM   21  C6  UNL     1       0.323  -0.870  -0.874  1.00  0.00     0.263 C 
BRANCH  21  22
HETATM   22  N8  UNL     1       1.076  -2.123  -1.084  1.00  0.00    -0.067 N 
ATOM     23  H83 UNL     1       1.493  -2.467  -0.219  1.00  0.00     0.275 HD
ATOM     24  H82 UNL     1       0.458  -2.912  -1.277  1.00  0.00     0.275 HD
ATOM     25  H81 UNL     1       1.772  -1.995  -1.818  1.00  0.00     0.275 HD
ENDBRANCH  21  22
BRANCH  21  26
HETATM   26  C7  UNL     1       1.299   0.257  -0.675  1.00  0.00     0.086 C 
BRANCH  26  27
HETATM   27  C8  UNL     1       2.186   0.187   0.508  1.00  0.00     0.065 C 
BRANCH  27  28
HETATM   28  N9  UNL     1       3.051  -0.911   0.607  1.00  0.00    -0.352 N 
ATOM     29  H9  UNL     1       2.695  -1.735   1.091  1.00  0.00     0.166 HD
BRANCH  28  30
HETATM   30  C9  UNL     1       4.242  -0.981   0.150  1.00  0.00     0.170 A 
HETATM   31  N10 UNL     1       5.013  -2.108   0.299  1.00  0.00    -0.222 N 
HETATM   32  O3  UNL     1       6.135  -1.879  -0.255  1.00  0.00    -0.154 OA
ATOM     33  H10 UNL     1       4.737  -2.971   0.768  1.00  0.00     0.198 HD
HETATM   34  N11 UNL     1       6.211  -0.718  -0.766  1.00  0.00    -0.224 N 
HETATM   35  C10 UNL     1       5.032  -0.096  -0.539  1.00  0.00     0.184 A 
ATOM     36  H11 UNL     1       7.015  -0.327  -1.258  1.00  0.00     0.198 HD
HETATM   37  N12 UNL     1       4.714   1.221  -0.955  1.00  0.00    -0.077 NA
ENDBRANCH  28  30
ENDBRANCH  27  28
ENDBRANCH  26  27
ENDBRANCH  21  26
ENDBRANCH   1  21
TORSDOF 12
