REMARK  8 active torsions:
REMARK  status: ('A' for Active; 'I' for Inactive)
REMARK    1  A    between atoms: O1_2  and  C2_3 
REMARK    2  A    between atoms: C4_12  and  N4_13 
REMARK    3  A    between atoms: C5_16  and  C6_17 
REMARK    4  A    between atoms: C6_17  and  N5_18 
REMARK    5  A    between atoms: C6_17  and  C7_22 
REMARK    6  A    between atoms: C7_22  and  O3_24 
REMARK    7  A    between atoms: O3_24  and  C8_25 
REMARK       I    between atoms: C8_25  and  N6_27 
REMARK    8  A    between atoms: N6_27  and  N7_28 
ROOT
HETATM    1  C2  UNL     1      -2.231  -0.460   0.357  1.00  0.00     0.169 A 
HETATM    2  N1  UNL     1      -3.511  -0.028   0.203  1.00  0.00    -0.170 N 
ATOM      3  H1  UNL     1      -4.270  -0.592   0.585  1.00  0.00     0.186 HD
HETATM    4  C3  UNL     1      -3.804   1.091  -0.421  1.00  0.00     0.679 A 
HETATM    5  N2  UNL     1      -5.047   1.533  -0.602  1.00  0.00    -0.234 N 
ATOM      6  H21 UNL     1      -5.274   2.401  -1.086  1.00  0.00     0.174 HD
ATOM      7  H22 UNL     1      -5.828   0.992  -0.231  1.00  0.00     0.174 HD
HETATM    8  N3  UNL     1      -2.746   1.824  -0.924  1.00  0.00    -0.177 N 
ATOM      9  H3  UNL     1      -2.939   2.698  -1.413  1.00  0.00     0.186 HD
HETATM   10  C4  UNL     1      -1.459   1.418  -0.788  1.00  0.00     0.128 A 
HETATM   11  C5  UNL     1      -1.138   0.274  -0.150  1.00  0.00     0.077 A 
ENDROOT
BRANCH  11  12
HETATM   12  C6  UNL     1       0.179  -0.291   0.004  1.00  0.00     0.323 C 
BRANCH  12  13
HETATM   13  N5  UNL     1       0.695  -0.954  -1.216  1.00  0.00    -0.061 N 
ATOM     14  H53 UNL     1       0.038  -1.661  -1.545  1.00  0.00     0.275 HD
ATOM     15  H52 UNL     1       0.670  -0.314  -2.010  1.00  0.00     0.275 HD
ATOM     16  H51 UNL     1       1.627  -1.354  -1.107  1.00  0.00     0.275 HD
ENDBRANCH  12  13
BRANCH  12  17
HETATM   17  C7  UNL     1       1.270   0.537   0.527  1.00  0.00     0.304 C 
HETATM   18  O2  UNL     1       1.123   1.690   1.069  1.00  0.00    -0.262 OA
BRANCH  17  19
HETATM   19  O3  UNL     1       2.521   0.022   0.444  1.00  0.00    -0.212 OA
BRANCH  19  20
HETATM   20  C8  UNL     1       3.709   0.684   0.878  1.00  0.00     0.465 C 
HETATM   21  O4  UNL     1       3.483   1.833   1.307  1.00  0.00    -0.219 OA
HETATM   22  N6  UNL     1       4.854  -0.019   0.780  1.00  0.00    -0.266 NA
BRANCH  22  23
HETATM   23  N7  UNL     1       5.982  -0.707   0.686  1.00  0.00    -0.275 N 
ATOM     24  H72 UNL     1       5.210  -0.060   0.849  1.00  0.00     0.191 HD
ATOM     25  H71 UNL     1       6.849  -1.239   0.612  1.00  0.00     0.191 HD
ENDBRANCH  22  23
ENDBRANCH  19  20
ENDBRANCH  17  19
ENDBRANCH  12  17
ENDBRANCH  11  12
BRANCH   1  26
HETATM   26  O1  UNL     1      -2.010  -1.654   1.014  1.00  0.00    -0.340 OA
HETATM   27  C1  UNL     1      -2.069  -2.869   0.348  1.00  0.00     0.211 C 
ENDBRANCH   1  26
BRANCH  10  28
HETATM   28  N4  UNL     1      -0.511   2.146  -1.275  1.00  0.00    -0.384 N 
ATOM     29  H42 UNL     1      -0.754   3.011  -1.758  1.00  0.00     0.157 HD
ATOM     30  H41 UNL     1       0.457   1.841  -1.173  1.00  0.00     0.157 HD
ENDBRANCH  10  28
TORSDOF 8
