REMARK  9 active torsions:
REMARK  status: ('A' for Active; 'I' for Inactive)
REMARK    1  A    between atoms: N1_1  and  C1_4 
REMARK    2  A    between atoms: C3_8  and  N3_9 
REMARK    3  A    between atoms: N3_9  and  N4_11 
REMARK    4  A    between atoms: N4_11  and  O1_12 
REMARK    5  A    between atoms: N5_14  and  O2_16 
REMARK    6  A    between atoms: O2_16  and  C4_17 
REMARK    7  A    between atoms: C4_17  and  C5_19 
REMARK       I    between atoms: C5_19  and  N6_21 
REMARK    8  A    between atoms: N6_21  and  N7_23 
REMARK    9  A    between atoms: N7_23  and  N8_24 
ROOT
HETATM    1  N4  UNL     1       0.575  -1.665  -1.224  1.00  0.00    -0.074 N 
HETATM    2  N5  UNL     1      -0.539  -1.949  -0.683  1.00  0.00    -0.156 N 
ATOM      3  H5  UNL     1      -0.967  -2.844  -0.921  1.00  0.00     0.221 HD
ENDROOT
BRANCH   1   4
HETATM    4  N3  UNL     1       1.259  -0.489  -0.989  1.00  0.00    -0.255 N 
ATOM      5  H3  UNL     1       0.748   0.382  -1.130  1.00  0.00     0.191 HD
BRANCH   4   6
HETATM    6  C3  UNL     1       2.591  -0.387  -0.575  1.00  0.00     0.084 A 
HETATM    7  C2  UNL     1       3.345  -1.522  -0.368  1.00  0.00     0.138 A 
HETATM    8  N2  UNL     1       4.644  -1.447   0.035  1.00  0.00    -0.200 N 
HETATM    9  C1  UNL     1       5.218  -0.236   0.241  1.00  0.00     0.675 A 
ATOM     10  H2  UNL     1       5.184  -2.300   0.181  1.00  0.00     0.183 HD
HETATM   11  N9  UNL     1       4.514   0.876   0.049  1.00  0.00    -0.200 N 
HETATM   12  C6  UNL     1       3.222   0.820  -0.352  1.00  0.00     0.138 A 
ATOM     13  H9  UNL     1       4.953   1.783   0.206  1.00  0.00     0.183 HD
BRANCH   9  14
HETATM   14  N1  UNL     1       6.449  -0.257   0.621  1.00  0.00    -0.234 N 
ATOM     15  H12 UNL     1       6.989  -1.110   0.768  1.00  0.00     0.174 HD
ATOM     16  H11 UNL     1       6.881   0.654   0.776  1.00  0.00     0.174 HD
ENDBRANCH   9  14
ENDBRANCH   4   6
ENDBRANCH   1   4
BRANCH   1  17
HETATM   17  O1  UNL     1       1.062  -2.647  -2.089  1.00  0.00    -0.252 OA
ATOM     18  H1  UNL     1       0.591  -3.456  -2.251  1.00  0.00     0.248 HD
ENDBRANCH   1  17
BRANCH   2  19
HETATM   19  O2  UNL     1      -1.206  -1.138   0.197  1.00  0.00    -0.172 OA
BRANCH  19  20
HETATM   20  C4  UNL     1      -2.393  -0.517  -0.229  1.00  0.00     0.375 C 
HETATM   21  O3  UNL     1      -2.798  -0.730  -1.402  1.00  0.00    -0.252 OA
BRANCH  20  22
HETATM   22  C5  UNL     1      -3.153   0.352   0.641  1.00  0.00     0.335 C 
HETATM   23  O4  UNL     1      -2.747   0.561   1.805  1.00  0.00    -0.260 OA
HETATM   24  N6  UNL     1      -4.336   0.953   0.179  1.00  0.00    -0.245 N 
ATOM     25  H6  UNL     1      -4.637   0.760  -0.776  1.00  0.00     0.187 HD
BRANCH  24  26
HETATM   26  N7  UNL     1      -5.123   1.806   0.968  1.00  0.00    -0.027 NA
BRANCH  26  27
HETATM   27  N8  UNL     1      -6.371   1.237   1.249  1.00  0.00    -0.329 N 
ATOM     28  H82 UNL     1      -6.657   0.317   0.915  1.00  0.00     0.174 HD
ATOM     29  H81 UNL     1      -6.943   1.857   1.822  1.00  0.00     0.174 HD
ENDBRANCH  26  27
ENDBRANCH  24  26
ENDBRANCH  20  22
ENDBRANCH  19  20
ENDBRANCH   2  19
TORSDOF 9
