REMARK  5 active torsions:
REMARK  status: ('A' for Active; 'I' for Inactive)
REMARK    1  A    between atoms: C3_6  and  N3_7 
REMARK    2  A    between atoms: C4_10  and  N4_11 
REMARK    3  A    between atoms: N4_11  and  C5_13 
REMARK    4  A    between atoms: C5_13  and  O1_14 
REMARK    5  A    between atoms: C7_19  and  C8_20 
ROOT
HETATM    1  N1  UNL     1      -5.217   1.397  -3.271  1.00  0.00    -0.188 NA
HETATM    2  C1  UNL     1      -4.507   1.094  -2.404  1.00  0.00     0.138 C 
HETATM    3  C2  UNL     1      -3.629   0.697  -1.321  1.00  0.00     0.204 A 
HETATM    4  N2  UNL     1      -3.802   1.134  -0.070  1.00  0.00    -0.316 N 
ATOM      5  H2  UNL     1      -4.576   1.767   0.129  1.00  0.00     0.170 HD
HETATM    6  C3  UNL     1      -2.969   0.757   0.959  1.00  0.00     0.147 A 
HETATM    7  C4  UNL     1      -1.923  -0.093   0.711  1.00  0.00     0.166 A 
HETATM    8  N9  UNL     1      -1.774  -0.521  -0.581  1.00  0.00    -0.280 N 
ATOM      9  H9  UNL     1      -1.008  -1.154  -0.810  1.00  0.00     0.188 HD
HETATM   10  N10 UNL     1      -2.595  -0.135  -1.534  1.00  0.00    -0.275 N 
ATOM     11  H10 UNL     1      -2.439  -0.484  -2.480  1.00  0.00     0.189 HD
ENDROOT
BRANCH   6  12
HETATM   12  N3  UNL     1      -3.177   1.202   2.137  1.00  0.00    -0.382 N 
ATOM     13  H32 UNL     1      -3.956   1.835   2.322  1.00  0.00     0.157 HD
ATOM     14  H31 UNL     1      -2.560   0.923   2.899  1.00  0.00     0.157 HD
ENDBRANCH   6  12
BRANCH   7  15
HETATM   15  N4  UNL     1      -1.011  -0.537   1.710  1.00  0.00    -0.316 N 
ATOM     16  H4  UNL     1      -1.132  -0.211   2.669  1.00  0.00     0.169 HD
BRANCH  15  17
HETATM   17  C5  UNL     1       0.062  -1.419   1.414  1.00  0.00     0.188 C 
HETATM   18  C6  UNL     1       1.161  -1.002   0.814  1.00  0.00     0.173 A 
HETATM   19  N5  UNL     1       1.436   0.337   0.385  1.00  0.00    -0.319 N 
HETATM   20  N8  UNL     1       2.320  -1.738   0.447  1.00  0.00    -0.280 N 
HETATM   21  C7  UNL     1       2.601   0.409  -0.167  1.00  0.00     0.188 A 
ATOM     22  H5  UNL     1       0.799   1.125   0.500  1.00  0.00     0.169 HD
HETATM   23  N7  UNL     1       3.225  -0.867  -0.167  1.00  0.00    -0.280 N 
ATOM     24  H7  UNL     1       4.146  -1.100  -0.539  1.00  0.00     0.189 HD
ATOM     25  H8  UNL     1       2.467  -2.735   0.605  1.00  0.00     0.188 HD
BRANCH  17  26
HETATM   26  O1  UNL     1      -0.071  -2.747   1.775  1.00  0.00    -0.343 OA
ATOM     27  H1  UNL     1       0.647  -3.337   1.577  1.00  0.00     0.219 HD
ENDBRANCH  17  26
BRANCH  21  28
HETATM   28  C8  UNL     1       3.228   1.609  -0.727  1.00  0.00     0.300 C 
HETATM   29  N6  UNL     1       4.516   1.562  -1.310  1.00  0.00    -0.054 NA
HETATM   30  O2  UNL     1       2.575   2.701  -0.673  1.00  0.00    -0.268 OA
ENDBRANCH  21  28
ENDBRANCH  15  17
ENDBRANCH   7  15
TORSDOF 5
