REMARK  6 active torsions:
REMARK  status: ('A' for Active; 'I' for Inactive)
REMARK    1  A    between atoms: N1_1  and  C1_4 
REMARK    2  A    between atoms: C2_7  and  C3_8 
REMARK    3  A    between atoms: N3_9  and  N4_11 
REMARK       I    between atoms: N4_11  and  C4_13 
REMARK       I    between atoms: C4_13  and  N7_19 
REMARK    4  A    between atoms: N5_14  and  N6_16 
REMARK    5  A    between atoms: N7_19  and  N8_21 
REMARK    6  A    between atoms: C5_26  and  N10_27 
ROOT
HETATM    1  C3  UNL     1      -0.347   0.768   0.315  1.00  0.00     0.157 C 
HETATM    2  N3  UNL     1       0.576   0.174   0.989  1.00  0.00    -0.294 N 
ATOM      3  H3  UNL     1       0.346  -0.670   1.513  1.00  0.00     0.186 HD
ENDROOT
BRANCH   1   4
HETATM    4  C2  UNL     1      -1.716   0.231   0.304  1.00  0.00     0.153 A 
HETATM    5  N2  UNL     1      -2.686   0.853  -0.402  1.00  0.00    -0.174 N 
HETATM    6  C1  UNL     1      -3.942   0.376  -0.424  1.00  0.00     0.692 A 
ATOM      7  H2  UNL     1      -2.461   1.698  -0.927  1.00  0.00     0.186 HD
HETATM    8  N11 UNL     1      -4.191  -0.740   0.284  1.00  0.00    -0.023 N 
HETATM    9  C5  UNL     1      -3.236  -1.372   0.994  1.00  0.00     0.692 A 
ATOM     10  H11 UNL     1      -5.137  -1.122   0.283  1.00  0.00     0.203 HD
HETATM   11  N9  UNL     1      -1.986  -0.876   1.000  1.00  0.00    -0.174 N 
ATOM     12  H9  UNL     1      -1.250  -1.341   1.532  1.00  0.00     0.186 HD
BRANCH   6  13
HETATM   13  N1  UNL     1      -4.897   0.924  -1.074  1.00  0.00    -0.234 N 
ATOM     14  H12 UNL     1      -4.708   1.770  -1.611  1.00  0.00     0.174 HD
ATOM     15  H11 UNL     1      -5.850   0.562  -1.091  1.00  0.00     0.174 HD
ENDBRANCH   6  13
BRANCH   9  16
HETATM   16  N10 UNL     1      -3.485  -2.458   1.681  1.00  0.00    -0.234 N 
ATOM     17 2H10 UNL     1      -2.762  -2.936   2.218  1.00  0.00     0.174 HD
ATOM     18 1H10 UNL     1      -4.433  -2.834   1.676  1.00  0.00     0.174 HD
ENDBRANCH   9  16
ENDBRANCH   1   4
BRANCH   2  19
HETATM   19  N4  UNL     1       1.877   0.658   1.018  1.00  0.00    -0.130 N 
HETATM   20  C4  UNL     1       2.881   0.057   0.210  1.00  0.00     0.730 C 
HETATM   21  N5  UNL     1       2.870  -1.233   0.127  1.00  0.00    -0.136 N 
HETATM   22  N7  UNL     1       3.864   0.844  -0.485  1.00  0.00    -0.069 N 
ATOM     23  H5  UNL     1       2.167  -1.780   0.624  1.00  0.00     0.205 HD
ATOM     24  H7  UNL     1       4.619   0.402  -1.009  1.00  0.00     0.212 HD
ATOM     25  H4  UNL     1       2.113   1.447   1.620  1.00  0.00     0.205 HD
BRANCH  21  26
HETATM   26  N6  UNL     1       3.841  -1.864  -0.657  1.00  0.00    -0.331 N 
ATOM     27  H62 UNL     1       4.537  -1.303  -1.147  1.00  0.00     0.177 HD
ATOM     28  H61 UNL     1       3.832  -2.882  -0.722  1.00  0.00     0.177 HD
ENDBRANCH  21  26
BRANCH  22  29
HETATM   29  N8  UNL     1       3.749   2.232  -0.417  1.00  0.00    -0.024 N 
HETATM   30  O1  UNL     1       3.236   2.900  -1.341  1.00  0.00    -0.516 OA
HETATM   31  O2  UNL     1       4.232   2.852   0.730  1.00  0.00    -0.516 OA
ENDBRANCH  22  29
ENDBRANCH   2  19
TORSDOF 6
