REMARK  8 active torsions:
REMARK  status: ('A' for Active; 'I' for Inactive)
REMARK    1  A    between atoms: N1_1  and  C1_4 
REMARK    2  A    between atoms: C2_7  and  C3_8 
REMARK    3  A    between atoms: C3_8  and  N3_9 
REMARK    4  A    between atoms: C4_13  and  C5_14 
REMARK       I    between atoms: C5_14  and  N4_16 
REMARK    5  A    between atoms: N4_16  and  C6_18 
REMARK    6  A    between atoms: C6_18  and  N5_19 
REMARK    7  A    between atoms: C6_18  and  C7_23 
REMARK    8  A    between atoms: N10_32  and  N11_33 
ROOT
HETATM    1  C5  UNL     1       0.147   0.480   0.740  1.00  0.00     0.274 C 
HETATM    2  O1  UNL     1       0.658   1.436   1.444  1.00  0.00    -0.266 OA
HETATM    3  N4  UNL     1       1.016  -0.550   0.357  1.00  0.00    -0.322 N 
ATOM      4  H4  UNL     1       0.686  -1.339  -0.198  1.00  0.00     0.165 HD
ENDROOT
BRANCH   1   5
HETATM    5  C4  UNL     1      -1.252   0.598   0.442  1.00  0.00     0.166 A 
HETATM    6  C2  UNL     1      -2.038  -0.257  -0.288  1.00  0.00     0.086 A 
HETATM    7  N2  UNL     1      -3.289   0.301  -0.277  1.00  0.00    -0.190 N 
HETATM    8  C1  UNL     1      -3.255   1.441   0.428  1.00  0.00     0.697 A 
ATOM      9  H2  UNL     1      -4.114  -0.088  -0.732  1.00  0.00     0.184 HD
HETATM   10  N10 UNL     1      -2.017   1.650   0.882  1.00  0.00    -0.086 N 
BRANCH   6  11
HETATM   11  C3  UNL     1      -1.707  -1.530  -0.995  1.00  0.00     0.289 C 
BRANCH  11  12
HETATM   12  N3  UNL     1      -2.921  -2.074  -1.624  1.00  0.00    -0.074 N 
ATOM     13  H33 UNL     1      -3.682  -2.192  -0.955  1.00  0.00     0.274 HD
ATOM     14  H32 UNL     1      -3.372  -1.397  -2.240  1.00  0.00     0.274 HD
ATOM     15  H31 UNL     1      -2.695  -2.944  -2.107  1.00  0.00     0.274 HD
ENDBRANCH  11  12
ENDBRANCH   6  11
BRANCH   8  16
HETATM   16  N1  UNL     1      -4.279   2.230   0.640  1.00  0.00    -0.233 N 
ATOM     17  H12 UNL     1      -5.225   2.070   0.293  1.00  0.00     0.174 HD
ATOM     18  H11 UNL     1      -4.253   3.097   1.176  1.00  0.00     0.174 HD
ENDBRANCH   8  16
BRANCH  10  19
HETATM   19  N11 UNL     1      -1.650   2.752   1.651  1.00  0.00    -0.324 N 
ATOM     20 2H11 UNL     1      -2.218   3.533   1.978  1.00  0.00     0.178 HD
ATOM     21 1H11 UNL     1      -0.704   2.912   1.998  1.00  0.00     0.178 HD
ENDBRANCH  10  19
ENDBRANCH   1   5
BRANCH   3  22
HETATM   22  C6  UNL     1       2.422  -0.455   0.783  1.00  0.00     0.355 C 
BRANCH  22  23
HETATM   23  N5  UNL     1       2.695  -1.578   1.690  1.00  0.00    -0.051 N 
ATOM     24  H53 UNL     1       2.046  -1.619   2.476  1.00  0.00     0.277 HD
ATOM     25  H52 UNL     1       2.467  -2.483   1.279  1.00  0.00     0.277 HD
ATOM     26  H51 UNL     1       3.669  -1.512   1.985  1.00  0.00     0.277 HD
ENDBRANCH  22  23
BRANCH  22  27
HETATM   27  C7  UNL     1       3.334  -0.489  -0.366  1.00  0.00     0.164 A 
HETATM   28  N6  UNL     1       3.313  -1.309  -1.440  1.00  0.00    -0.269 N 
HETATM   29  N7  UNL     1       4.327  -0.980  -2.222  1.00  0.00    -0.227 N 
ATOM     30  H6  UNL     1       2.635  -2.050  -1.616  1.00  0.00     0.190 HD
HETATM   31  N8  UNL     1       4.984   0.023  -1.670  1.00  0.00    -0.227 N 
ATOM     32  H7  UNL     1       4.563  -1.428  -3.107  1.00  0.00     0.210 HD
HETATM   33  N9  UNL     1       4.386   0.327  -0.541  1.00  0.00    -0.269 N 
ATOM     34  H8  UNL     1       5.811   0.481  -2.053  1.00  0.00     0.210 HD
ATOM     35  H9  UNL     1       4.675   1.065   0.101  1.00  0.00     0.190 HD
ENDBRANCH  22  27
ENDBRANCH   3  22
TORSDOF 8
