REMARK  10 active torsions:
REMARK  status: ('A' for Active; 'I' for Inactive)
REMARK    1  A    between atoms: C3_6  and  C4_7 
REMARK    2  A    between atoms: C5_8  and  S1_9 
REMARK    3  A    between atoms: S1_9  and  C6_10 
REMARK    4  A    between atoms: C6_10  and  O2_12 
REMARK    5  A    between atoms: C11_19  and  C12_20 
REMARK    6  A    between atoms: C14_22  and  C15_23 
REMARK    7  A    between atoms: C15_23  and  O3_24 
REMARK    8  A    between atoms: O3_24  and  S2_25 
REMARK    9  A    between atoms: S2_25  and  N2_26 
REMARK   10  A    between atoms: C16_31  and  O6_32 
ROOT
HETATM    1  C4  UNL     1       1.582   0.505  -0.742  1.00  0.00     0.044 A 
HETATM    2  C5  UNL     1       2.737   1.205  -1.065  1.00  0.00     0.040 A 
HETATM    3  C8  UNL     1       2.661   2.248  -1.959  1.00  0.00     0.053 A 
HETATM    4 CL1  UNL     1       4.116   3.138  -2.377  1.00  0.00    -0.083 Cl
HETATM    5  C9  UNL     1       1.459   2.593  -2.523  1.00  0.00     0.049 A 
HETATM    6  C10 UNL     1       0.308   1.869  -2.178  1.00  0.00     0.043 A 
HETATM    7 CL2  UNL     1      -1.167   2.330  -2.962  1.00  0.00    -0.084 Cl
HETATM    8  C11 UNL     1       0.333   0.827  -1.297  1.00  0.00    -0.016 A 
ENDROOT
BRANCH   8   9
HETATM    9  C12 UNL     1      -0.840   0.046  -0.963  1.00  0.00     0.022 C 
HETATM   10  C13 UNL     1      -2.195   0.629  -1.169  1.00  0.00     0.018 C 
HETATM   11  C14 UNL     1      -3.155  -0.151  -0.216  1.00  0.00     0.041 C 
HETATM   12  C16 UNL     1      -2.862  -1.595  -0.190  1.00  0.00     0.132 C 
HETATM   13  C17 UNL     1      -2.026  -2.101  -1.333  1.00  0.00    -0.021 C 
HETATM   14  C18 UNL     1      -2.956  -2.422  -2.514  1.00  0.00     0.017 C 
HETATM   15  C19 UNL     1      -1.477  -3.472  -0.909  1.00  0.00     0.017 C 
HETATM   16  C20 UNL     1      -0.892  -1.265  -1.752  1.00  0.00     0.020 C 
BRANCH  11  17
HETATM   17  C15 UNL     1      -3.088   0.537   1.131  1.00  0.00     0.199 C 
BRANCH  17  18
HETATM   18  O3  UNL     1      -3.500   1.861   0.978  1.00  0.00    -0.259 OA
BRANCH  18  19
HETATM   19  S2  UNL     1      -3.423   2.628   2.482  1.00  0.00     0.355 S 
HETATM   20  O4  UNL     1      -2.055   3.186   2.715  1.00  0.00    -0.176 OA
HETATM   21  O5  UNL     1      -3.732   1.678   3.608  1.00  0.00    -0.176 OA
BRANCH  19  22
HETATM   22  N2  UNL     1      -4.549   3.916   2.566  1.00  0.00    -0.306 N 
ATOM     23  H22 UNL     1      -5.175   4.173   1.803  1.00  0.00     0.171 HD
ATOM     24  H21 UNL     1      -4.503   4.379   3.474  1.00  0.00     0.171 HD
ENDBRANCH  19  22
ENDBRANCH  18  19
ENDBRANCH  17  18
ENDBRANCH  11  17
BRANCH  12  25
HETATM   25  O6  UNL     1      -2.368  -2.075   1.018  1.00  0.00    -0.394 OA
ATOM     26  H6  UNL     1      -2.179  -3.006   1.035  1.00  0.00     0.210 HD
ENDBRANCH  12  25
ENDBRANCH   8   9
BRANCH   1  27
HETATM   27  C3  UNL     1       1.786  -0.648   0.166  1.00  0.00     0.184 A 
HETATM   28  O1  UNL     1       0.939  -1.400   0.780  1.00  0.00    -0.217 OA
HETATM   29  N1  UNL     1       1.529  -2.295   1.468  1.00  0.00    -0.247 N 
HETATM   30  C2  UNL     1       2.848  -2.150   1.317  1.00  0.00     0.100 A 
ATOM     31  H1  UNL     1       1.070  -3.005   2.039  1.00  0.00     0.196 HD
HETATM   32  C1  UNL     1       3.859  -3.039   1.987  1.00  0.00     0.091 C 
HETATM   33  N3  UNL     1       3.022  -1.124   0.506  1.00  0.00    -0.323 N 
ATOM     34  H3  UNL     1       3.918  -0.753   0.189  1.00  0.00     0.169 HD
ENDBRANCH   1  27
BRANCH   2  35
HETATM   35  S1  UNL     1       4.324   0.876  -0.290  1.00  0.00    -0.096 SA
BRANCH  35  36
HETATM   36  C6  UNL     1       4.624   1.951   1.119  1.00  0.00     0.180 C 
HETATM   37  C7  UNL     1       5.934   1.606   1.795  1.00  0.00     0.051 C 
BRANCH  36  38
HETATM   38  O2  UNL     1       3.613   1.875   2.042  1.00  0.00    -0.385 OA
ATOM     39  H2  UNL     1       3.772   2.443   2.787  1.00  0.00     0.211 HD
ENDBRANCH  36  38
ENDBRANCH  35  36
ENDBRANCH   2  35
TORSDOF 10
