REMARK  8 active torsions:
REMARK  status: ('A' for Active; 'I' for Inactive)
REMARK    1  A    between atoms: O1_2  and  C2_3 
REMARK    2  A    between atoms: C4_6  and  C5_7 
REMARK    3  A    between atoms: C5_7  and  N1_8 
REMARK    4  A    between atoms: N1_8  and  C6_10 
REMARK    5  A    between atoms: C7_13  and  O2_14 
REMARK    6  A    between atoms: C13_23  and  N5_24 
REMARK    7  A    between atoms: C15_29  and  O3_30 
REMARK    8  A    between atoms: C17_32  and  O4_33 
ROOT
HETATM    1  C6  UNL     1       2.130   0.053   0.223  1.00  0.00     0.148 A 
HETATM    2  N2  UNL     1       2.657  -0.075   1.437  1.00  0.00    -0.317 N 
ATOM      3  H2  UNL     1       2.035  -0.010   2.243  1.00  0.00     0.169 HD
HETATM    4  C7  UNL     1       3.972  -0.287   1.660  1.00  0.00     0.189 A 
HETATM    5  C9  UNL     1       4.791  -0.373   0.543  1.00  0.00     0.166 A 
HETATM    6  N3  UNL     1       6.122  -0.621   0.445  1.00  0.00    -0.346 N 
ATOM      7  H3  UNL     1       6.773  -0.761   1.217  1.00  0.00     0.167 HD
HETATM    8  C10 UNL     1       6.417  -0.647  -0.870  1.00  0.00     0.115 A 
HETATM    9  C11 UNL     1       5.269  -0.410  -1.613  1.00  0.00     0.032 A 
HETATM   10  C12 UNL     1       5.198  -0.378  -3.101  1.00  0.00     0.070 C 
HETATM   11  N4  UNL     1       4.311  -0.248  -0.699  1.00  0.00    -0.280 N 
HETATM   12  C13 UNL     1       2.962  -0.030  -0.872  1.00  0.00     0.152 A 
ENDROOT
BRANCH   1  13
HETATM   13  N1  UNL     1       0.724   0.315   0.041  1.00  0.00    -0.369 N 
ATOM     14  H1  UNL     1       0.369   0.686  -0.840  1.00  0.00     0.161 HD
BRANCH  13  15
HETATM   15  C5  UNL     1      -0.172   0.034   1.151  1.00  0.00     0.162 C 
BRANCH  15  16
HETATM   16  C4  UNL     1      -1.581   0.245   0.667  1.00  0.00    -0.000 A 
HETATM   17  C3  UNL     1      -2.315  -0.936   0.452  1.00  0.00     0.056 A 
HETATM   18  C2  UNL     1      -3.628  -0.964   0.114  1.00  0.00     0.122 A 
HETATM   19 BR1  UNL     1      -1.401  -2.633   0.626  1.00  0.00    -0.047 Br
HETATM   20  C17 UNL     1      -4.244   0.289  -0.006  1.00  0.00     0.138 A 
HETATM   21  C15 UNL     1      -3.583   1.476   0.195  1.00  0.00     0.122 A 
HETATM   22  C14 UNL     1      -2.214   1.432   0.537  1.00  0.00     0.056 A 
HETATM   23 BR2  UNL     1      -1.271   3.035   0.833  1.00  0.00    -0.047 Br
BRANCH  18  24
HETATM   24  O1  UNL     1      -4.257  -2.147  -0.096  1.00  0.00    -0.352 OA
HETATM   25  C1  UNL     1      -4.945  -3.040   0.668  1.00  0.00     0.210 C 
ENDBRANCH  18  24
BRANCH  20  26
HETATM   26  O4  UNL     1      -5.613   0.263  -0.358  1.00  0.00    -0.351 OA
HETATM   27  C18 UNL     1      -5.937   0.210  -1.737  1.00  0.00     0.210 C 
ENDBRANCH  20  26
BRANCH  21  28
HETATM   28  O3  UNL     1      -4.178   2.665   0.093  1.00  0.00    -0.352 OA
HETATM   29  C16 UNL     1      -4.418   3.607  -0.853  1.00  0.00     0.210 C 
ENDBRANCH  21  28
ENDBRANCH  15  16
ENDBRANCH  13  15
ENDBRANCH   1  13
BRANCH  12  30
HETATM   30  N5  UNL     1       2.498   0.064  -2.065  1.00  0.00    -0.382 N 
ATOM     31  H52 UNL     1       1.499   0.225  -2.193  1.00  0.00     0.157 HD
ATOM     32  H51 UNL     1       3.114   0.003  -2.876  1.00  0.00     0.157 HD
ENDBRANCH  12  30
BRANCH   4  33
HETATM   33  O2  UNL     1       4.508  -0.416   2.927  1.00  0.00    -0.338 OA
HETATM   34  C8  UNL     1       3.572  -0.278   4.014  1.00  0.00     0.211 C 
ENDBRANCH   4  33
TORSDOF 8
