REMARK  8 active torsions:
REMARK  status: ('A' for Active; 'I' for Inactive)
REMARK    1  A    between atoms: C4_6  and  S1_7 
REMARK    2  A    between atoms: S1_7  and  C5_8 
REMARK    3  A    between atoms: C5_8  and  C6_9 
REMARK    4  A    between atoms: C6_9  and  O1_10 
REMARK    5  A    between atoms: O1_10  and  C7_11 
REMARK    6  A    between atoms: N4_19  and  N5_21 
REMARK    7  A    between atoms: C11_23  and  C12_24 
REMARK    8  A    between atoms: C17_31  and  O2_32 
ROOT
HETATM    1  C7  UNL     1      -0.780  -0.178  -0.316  1.00  0.00     0.239 A 
HETATM    2  N2  UNL     1      -0.388   1.103  -0.308  1.00  0.00    -0.311 N 
ATOM      3  H2  UNL     1      -1.113   1.816  -0.388  1.00  0.00     0.170 HD
HETATM    4  C8  UNL     1       0.879   1.522  -0.204  1.00  0.00     0.096 A 
HETATM    5  C9  UNL     1       1.306   2.941  -0.197  1.00  0.00     0.089 C 
HETATM    6  N3  UNL     1       1.818   0.573  -0.100  1.00  0.00    -0.179 N 
ATOM      7  H3  UNL     1       2.795   0.856  -0.018  1.00  0.00     0.185 HD
HETATM    8  C10 UNL     1       1.522  -0.736  -0.099  1.00  0.00     0.701 A 
HETATM    9  N4  UNL     1       2.365  -1.674   0.000  1.00  0.00    -0.132 N 
ATOM     10  H4  UNL     1       1.946  -2.604  -0.019  1.00  0.00     0.205 HD
HETATM   11  N6  UNL     1       0.230  -1.087  -0.207  1.00  0.00    -0.153 N 
ATOM     12  H6  UNL     1      -0.006  -2.079  -0.207  1.00  0.00     0.188 HD
ENDROOT
BRANCH   9  13
HETATM   13  N5  UNL     1       3.707  -1.689   0.126  1.00  0.00    -0.297 N 
HETATM   14  C11 UNL     1       4.587  -0.788   0.008  1.00  0.00     0.122 C 
ATOM     15  H5  UNL     1       4.087  -2.606   0.363  1.00  0.00     0.186 HD
BRANCH  14  16
HETATM   16  C12 UNL     1       5.986  -1.143   0.213  1.00  0.00     0.017 A 
HETATM   17  C13 UNL     1       6.381  -2.426   0.527  1.00  0.00     0.034 A 
HETATM   18  C14 UNL     1       7.698  -2.785   0.724  1.00  0.00     0.013 A 
HETATM   19 BR1  UNL     1       8.169  -4.596   1.158  1.00  0.00    -0.051 Br
HETATM   20  C15 UNL     1       8.695  -1.834   0.610  1.00  0.00     0.041 A 
HETATM   21  C16 UNL     1       8.315  -0.550   0.298  1.00  0.00     0.046 A 
HETATM   22 BR2  UNL     1       9.661   0.785   0.133  1.00  0.00    -0.048 Br
HETATM   23  C17 UNL     1       7.000  -0.187   0.099  1.00  0.00     0.094 A 
BRANCH  23  24
HETATM   24  O2  UNL     1       6.618   1.111  -0.215  1.00  0.00    -0.358 OA
ATOM     25  H2  UNL     1       7.307   1.761  -0.292  1.00  0.00     0.217 HD
ENDBRANCH  23  24
ENDBRANCH  14  16
ENDBRANCH   9  13
BRANCH   1  26
HETATM   26  O1  UNL     1      -2.092  -0.597  -0.423  1.00  0.00    -0.321 OA
BRANCH  26  27
HETATM   27  C6  UNL     1      -3.163   0.275  -0.529  1.00  0.00     0.189 C 
BRANCH  27  28
HETATM   28  C5  UNL     1      -3.351   1.202   0.645  1.00  0.00     0.109 C 
BRANCH  28  29
HETATM   29  S1  UNL     1      -4.813   2.278   0.356  1.00  0.00    -0.092 SA
BRANCH  29  30
HETATM   30  C4  UNL     1      -6.296   1.286   0.344  1.00  0.00     0.144 A 
HETATM   31  N1  UNL     1      -7.070   0.979   1.398  1.00  0.00    -0.345 N 
HETATM   32  C3  UNL     1      -8.111   0.203   0.985  1.00  0.00     0.114 A 
ATOM     33  H1  UNL     1      -6.904   1.280   2.358  1.00  0.00     0.167 HD
HETATM   34  C2  UNL     1      -7.958   0.035  -0.381  1.00  0.00     0.022 A 
HETATM   35  C1  UNL     1      -8.875  -0.755  -1.275  1.00  0.00     0.069 C 
HETATM   36  N7  UNL     1      -6.850   0.703  -0.734  1.00  0.00    -0.339 N 
ATOM     37  H7  UNL     1      -6.481   0.761  -1.683  1.00  0.00     0.168 HD
ENDBRANCH  29  30
ENDBRANCH  28  29
ENDBRANCH  27  28
ENDBRANCH  26  27
ENDBRANCH   1  26
TORSDOF 8
