REMARK  8 active torsions:
REMARK  status: ('A' for Active; 'I' for Inactive)
REMARK    1  A    between atoms: C6_6  and  O1_7 
REMARK    2  A    between atoms: O1_7  and  N1_8 
REMARK    3  A    between atoms: N1_8  and  C7_9 
REMARK    4  A    between atoms: C7_9  and  C8_10 
REMARK    5  A    between atoms: C12_16  and  N2_17 
REMARK       I    between atoms: N2_17  and  C13_19 
REMARK    6  A    between atoms: C13_19  and  C14_21 
REMARK    7  A    between atoms: C14_21  and  C15_22 
REMARK    8  A    between atoms: C21_30  and  O3_31 
ROOT
HETATM    1  C7  UNL     1       0.596  -1.221   0.257  1.00  0.00     0.149 C 
ENDROOT
BRANCH   1   2
HETATM    2  N1  UNL     1       0.412   0.209   0.279  1.00  0.00    -0.100 NA
BRANCH   2   3
HETATM    3  O1  UNL     1      -0.747   0.592   0.651  1.00  0.00    -0.275 OA
BRANCH   3   4
HETATM    4  C6  UNL     1      -1.748  -0.192   1.076  1.00  0.00     0.213 C 
HETATM    5  C4  UNL     1      -2.159   0.086   2.524  1.00  0.00     0.020 C 
HETATM    6  C3  UNL     1      -3.343   0.959   2.669  1.00  0.00     0.038 C 
HETATM    7  C5  UNL     1      -2.434  -1.253   3.168  1.00  0.00     0.013 C 
HETATM    8  C2  UNL     1      -3.799   1.722   1.483  1.00  0.00     0.121 C 
HETATM    9  C1  UNL     1      -3.716   3.242   1.689  1.00  0.00     0.040 C 
HETATM   10  O5  UNL     1      -3.164   1.467   0.293  1.00  0.00    -0.347 OA
HETATM   11  C19 UNL     1      -2.977   0.084   0.199  1.00  0.00     0.195 C 
HETATM   12  C20 UNL     1      -2.749  -0.267  -1.229  1.00  0.00     0.103 C 
HETATM   13  O4  UNL     1      -4.110  -0.519   0.738  1.00  0.00    -0.352 OA
HETATM   14  C21 UNL     1      -4.063  -0.288  -1.974  1.00  0.00     0.129 C 
HETATM   15  C22 UNL     1      -4.934  -1.344  -1.370  1.00  0.00     0.034 C 
HETATM   16  C23 UNL     1      -6.397  -0.961  -1.455  1.00  0.00     0.015 C 
HETATM   17  C24 UNL     1      -4.488  -1.648   0.018  1.00  0.00     0.178 C 
BRANCH  14  18
HETATM   18  O3  UNL     1      -3.844  -0.555  -3.345  1.00  0.00    -0.395 OA
ATOM     19  H3  UNL     1      -4.670  -0.568  -3.814  1.00  0.00     0.210 HD
ENDBRANCH  14  18
ENDBRANCH   3   4
ENDBRANCH   2   3
ENDBRANCH   1   2
BRANCH   1  20
HETATM   20  C8  UNL     1       2.034  -1.551  -0.212  1.00  0.00     0.027 C 
HETATM   21  C9  UNL     1       2.216  -2.998  -0.235  1.00  0.00     0.019 C 
HETATM   22  C10 UNL     1       1.015  -3.862  -0.453  1.00  0.00     0.086 C 
HETATM   23  S1  UNL     1       0.771  -4.017  -2.268  1.00  0.00    -0.098 SA
HETATM   24  S2  UNL     1       0.526  -2.004  -2.965  1.00  0.00    -0.096 SA
HETATM   25  C11 UNL     1       2.124  -1.190  -2.739  1.00  0.00     0.111 C 
HETATM   26  C12 UNL     1       2.431  -0.725  -1.376  1.00  0.00     0.099 C 
BRANCH  26  27
HETATM   27  N2  UNL     1       3.862  -0.417  -1.366  1.00  0.00    -0.355 N 
HETATM   28  C13 UNL     1       4.354   0.862  -1.016  1.00  0.00     0.218 C 
HETATM   29  O2  UNL     1       3.508   1.748  -0.691  1.00  0.00    -0.274 OA
ATOM     30  H2  UNL     1       4.526  -1.149  -1.620  1.00  0.00     0.162 HD
BRANCH  28  31
HETATM   31  C14 UNL     1       5.775   1.228  -1.008  1.00  0.00     0.108 C 
BRANCH  31  32
HETATM   32  C15 UNL     1       5.952   2.634  -0.486  1.00  0.00     0.005 A 
HETATM   33  C16 UNL     1       5.478   2.853   0.924  1.00  0.00     0.084 A 
HETATM   34  C17 UNL     1       6.893   3.150   1.340  1.00  0.00     0.244 A 
HETATM   35  F1  UNL     1       7.011   4.417   1.903  1.00  0.00    -0.206 F 
HETATM   36  F2  UNL     1       7.448   2.201   2.182  1.00  0.00    -0.206 F 
HETATM   37  C18 UNL     1       7.329   3.052  -0.095  1.00  0.00     0.084 A 
ENDBRANCH  31  32
ENDBRANCH  28  31
ENDBRANCH  26  27
ENDBRANCH   1  20
TORSDOF 8
