REMARK  10 active torsions:
REMARK  status: ('A' for Active; 'I' for Inactive)
REMARK    1  A    between atoms: N1_1  and  C1_4 
REMARK    2  A    between atoms: N3_8  and  O1_9 
REMARK    3  A    between atoms: C5_15  and  N6_16 
REMARK    4  A    between atoms: N6_16  and  N7_18 
REMARK    5  A    between atoms: C6_22  and  C7_23 
REMARK    6  A    between atoms: N9_24  and  C8_26 
REMARK    7  A    between atoms: C8_26  and  C9_27 
REMARK    8  A    between atoms: C9_27  and  C10_28 
REMARK    9  A    between atoms: C10_28  and  N10_29 
REMARK   10  A    between atoms: N10_29  and  S1_31 
ROOT
HETATM    1  C1  UNL     1      -2.027  -2.395   1.923  1.00  0.00     0.141 A 
HETATM    2  N2  UNL     1      -3.193  -1.785   1.770  1.00  0.00    -0.172 N 
ATOM      3  H2  UNL     1      -4.037  -2.180   2.185  1.00  0.00     0.186 HD
HETATM    4  C2  UNL     1      -3.256  -0.667   1.079  1.00  0.00     0.720 A 
HETATM    5  N3  UNL     1      -4.496  -0.114   0.990  1.00  0.00    -0.035 N 
HETATM    6  C3  UNL     1      -4.734   1.021   0.339  1.00  0.00     0.190 A 
HETATM    7  N4  UNL     1      -6.010   1.627   0.222  1.00  0.00    -0.077 NA
HETATM    8  C4  UNL     1      -3.612   1.604  -0.248  1.00  0.00     0.136 A 
HETATM    9  N5  UNL     1      -3.804   2.801  -0.947  1.00  0.00    -0.095 NA
HETATM   10  C5  UNL     1      -2.349   1.043  -0.158  1.00  0.00     0.171 A 
HETATM   11  N8  UNL     1      -2.145  -0.105   0.506  1.00  0.00    -0.123 N 
HETATM   12  C6  UNL     1      -0.927  -0.631   0.593  1.00  0.00     0.102 A 
HETATM   13  C11 UNL     1      -0.929  -1.868   1.373  1.00  0.00     0.119 A 
HETATM   14  N11 UNL     1       0.319  -2.515   1.538  1.00  0.00    -0.096 NA
ENDROOT
BRANCH  12  15
HETATM   15  C7  UNL     1       0.347  -0.264   0.099  1.00  0.00     0.116 C 
HETATM   16  N9  UNL     1       0.943   0.689  -0.659  1.00  0.00    -0.397 N 
ATOM     17  H9  UNL     1       0.402   1.362  -1.201  1.00  0.00     0.158 HD
BRANCH  16  18
HETATM   18  C8  UNL     1       2.411   0.697  -0.655  1.00  0.00     0.120 C 
BRANCH  18  19
HETATM   19  C9  UNL     1       2.925  -0.504  -1.388  1.00  0.00     0.040 C 
BRANCH  19  20
HETATM   20  C10 UNL     1       4.453  -0.511  -1.430  1.00  0.00     0.136 C 
BRANCH  20  21
HETATM   21  N10 UNL     1       4.997  -0.536  -0.079  1.00  0.00    -0.301 N 
ATOM     22  H10 UNL     1       4.439  -0.547   0.775  1.00  0.00     0.174 HD
BRANCH  21  23
HETATM   23  S1  UNL     1       6.705  -0.545  -0.130  1.00  0.00     0.204 S 
HETATM   24  O2  UNL     1       7.231  -1.302   1.081  1.00  0.00    -0.578 OA
HETATM   25  O3  UNL     1       7.213  -1.190  -1.389  1.00  0.00    -0.578 OA
HETATM   26  O4  UNL     1       7.308   1.039  -0.123  1.00  0.00    -0.578 OA
ENDBRANCH  21  23
ENDBRANCH  20  21
ENDBRANCH  19  20
ENDBRANCH  18  19
ENDBRANCH  16  18
ENDBRANCH  12  15
BRANCH  10  27
HETATM   27  N6  UNL     1      -1.405   1.662  -0.689  1.00  0.00    -0.289 N 
ATOM     28  H6  UNL     1      -0.476   1.246  -0.620  1.00  0.00     0.188 HD
BRANCH  27  29
HETATM   29  N7  UNL     1      -1.513   2.885  -1.374  1.00  0.00    -0.344 N 
ATOM     30  H72 UNL     1      -2.449   3.286  -1.433  1.00  0.00     0.176 HD
ATOM     31  H71 UNL     1      -0.741   3.391  -1.808  1.00  0.00     0.176 HD
ENDBRANCH  27  29
ENDBRANCH  10  27
BRANCH   1  32
HETATM   32  N1  UNL     1      -1.999  -3.501   2.614  1.00  0.00    -0.383 N 
ATOM     33  H12 UNL     1      -2.837  -3.903   3.034  1.00  0.00     0.157 HD
ATOM     34  H11 UNL     1      -1.101  -3.971   2.732  1.00  0.00     0.157 HD
ENDBRANCH   1  32
BRANCH   5  35
HETATM   35  O1  UNL     1      -5.595  -0.719   1.586  1.00  0.00    -0.268 OA
ATOM     36  H1  UNL     1      -6.461  -0.333   1.524  1.00  0.00     0.246 HD
ENDBRANCH   5  35
TORSDOF 10
