REMARK  2 active torsions:
REMARK  status: ('A' for Active; 'I' for Inactive)
REMARK    1  A    between atoms: N1_2  and  N2_4 
REMARK    2  A    between atoms: C2_6  and  C3_7 
ROOT
HETATM    1  C3  UNL     1      -0.702  -0.970   0.140  1.00  0.00     0.247 C 
HETATM    2  N3  UNL     1      -1.091  -0.949  -1.248  1.00  0.00    -0.065 N 
ATOM      3  H31 UNL     1      -1.342  -1.872  -1.604  1.00  0.00     0.278 HD
ATOM      4  H32 UNL     1      -0.308  -0.771  -1.877  1.00  0.00     0.278 HD
HETATM    5  C4  UNL     1      -2.153   0.014  -1.390  1.00  0.00     0.235 C 
HETATM    6  C5  UNL     1      -2.592   0.375   0.015  1.00  0.00     0.054 C 
HETATM    7  C6  UNL     1      -1.227   0.349   0.721  1.00  0.00     0.080 C 
HETATM    8  C7  UNL     1      -1.359   0.303   2.204  1.00  0.00     0.034 C 
HETATM    9  C8  UNL     1      -0.454   1.464   0.220  1.00  0.00     0.071 C 
HETATM   10  N4  UNL     1       0.146   2.365  -0.184  1.00  0.00    -0.196 NA
ENDROOT
BRANCH   1  11
HETATM   11  C2  UNL     1       0.725  -1.153   0.355  1.00  0.00     0.114 C 
HETATM   12  N2  UNL     1       1.610  -0.419  -0.185  1.00  0.00    -0.318 N 
ATOM     13  H2  UNL     1       1.307   0.336  -0.800  1.00  0.00     0.185 HD
BRANCH  12  14
HETATM   14  N1  UNL     1       2.980  -0.600   0.026  1.00  0.00    -0.341 N 
HETATM   15  C1  UNL     1       3.888   0.493   0.322  1.00  0.00     0.167 C 
ATOM     16  H1  UNL     1       3.360  -1.545  -0.031  1.00  0.00     0.179 HD
ENDBRANCH  12  14
ENDBRANCH   1  11
TORSDOF 2
