REMARK  2 active torsions:
REMARK  status: ('A' for Active; 'I' for Inactive)
REMARK    1  A    between atoms: N1_2  and  C2_5 
REMARK    2  A    between atoms: C2_5  and  C3_6 
ROOT
HETATM    1  C3  UNL     1       0.724  -0.680  -0.095  1.00  0.00     0.012 C 
HETATM    2  C4  UNL     1       0.390  -1.811  -1.011  1.00  0.00     0.006 C 
HETATM    3  C5  UNL     1      -1.137  -1.815  -1.187  1.00  0.00     0.001 C 
HETATM    4  C6  UNL     1      -1.836  -1.162  -0.013  1.00  0.00     0.013 C 
HETATM    5  C7  UNL     1      -1.487   0.293   0.064  1.00  0.00     0.008 C 
HETATM    6  C8  UNL     1      -1.626   0.928   1.424  1.00  0.00     0.243 C 
HETATM    7  N2  UNL     1      -3.035   1.171   1.081  1.00  0.00    -0.074 N 
ATOM      8  H21 UNL     1      -3.573   1.918   1.521  1.00  0.00     0.277 HD
ATOM      9  H22 UNL     1      -3.773   0.524   1.358  1.00  0.00     0.277 HD
HETATM   10  C9  UNL     1      -2.576   1.268  -0.312  1.00  0.00     0.243 C 
HETATM   11  C10 UNL     1      -0.140   0.523  -0.513  1.00  0.00     0.019 C 
ENDROOT
BRANCH   1  12
HETATM   12  C2  UNL     1       2.177  -0.272  -0.137  1.00  0.00     0.236 C 
BRANCH  12  13
HETATM   13  N1  UNL     1       2.293   0.854   0.780  1.00  0.00    -0.079 N 
HETATM   14  C1  UNL     1       3.580   1.487   0.530  1.00  0.00     0.267 C 
ATOM     15  H12 UNL     1       2.163   0.588   1.756  1.00  0.00     0.276 HD
ATOM     16  H11 UNL     1       1.510   1.504   0.714  1.00  0.00     0.276 HD
ENDBRANCH  12  13
ENDBRANCH   1  12
TORSDOF 2
