REMARK  2 active torsions:
REMARK  status: ('A' for Active; 'I' for Inactive)
REMARK    1  A    between atoms: N1_1  and  C1_5 
REMARK    2  A    between atoms: C1_5  and  C2_6 
ROOT
HETATM    1  C2  UNL     1      -0.913   0.070   0.080  1.00  0.00     0.150 C 
HETATM    2  C3  UNL     1      -0.526   0.868  -1.147  1.00  0.00     0.045 C 
HETATM    3  C4  UNL     1       0.965   0.748  -1.385  1.00  0.00    -0.010 C 
HETATM    4  C5  UNL     1       1.654   1.371  -0.179  1.00  0.00     0.009 C 
HETATM    5  C6  UNL     1       1.226   0.665   1.073  1.00  0.00    -0.010 C 
HETATM    6  C7  UNL     1       1.689  -0.780   0.953  1.00  0.00     0.037 C 
HETATM    7  C8  UNL     1       0.959  -1.395  -0.198  1.00  0.00     0.187 C 
HETATM    8  C9  UNL     1       1.359  -0.690  -1.485  1.00  0.00     0.037 C 
HETATM    9  N2  UNL     1      -0.462  -1.316  -0.032  1.00  0.00    -0.060 N 
ATOM     10  H21 UNL     1      -0.953  -1.809  -0.778  1.00  0.00     0.278 HD
ATOM     11  H22 UNL     1      -0.777  -1.876   0.761  1.00  0.00     0.278 HD
HETATM   12  C10 UNL     1      -0.265   0.666   1.274  1.00  0.00     0.045 C 
ENDROOT
BRANCH   1  13
HETATM   13  C1  UNL     1      -2.419   0.043   0.147  1.00  0.00     0.268 C 
BRANCH  13  14
HETATM   14  N1  UNL     1      -2.842  -0.722   1.324  1.00  0.00    -0.077 N 
ATOM     15  H13 UNL     1      -2.438  -1.659   1.341  1.00  0.00     0.274 HD
ATOM     16  H12 UNL     1      -2.424  -0.368   2.185  1.00  0.00     0.274 HD
ATOM     17  H11 UNL     1      -3.861  -0.740   1.369  1.00  0.00     0.274 HD
ENDBRANCH  13  14
ENDBRANCH   1  13
TORSDOF 2
