REMARK  2 active torsions:
REMARK  status: ('A' for Active; 'I' for Inactive)
REMARK    1  A    between atoms: C2_2  and  C3_3 
REMARK    2  A    between atoms: C2_2  and  C4_5 
ROOT
HETATM    1  C4  UNL     1       0.320  -0.160  -0.675  1.00  0.00     0.021 C 
HETATM    2  C5  UNL     1      -0.728  -1.233  -0.562  1.00  0.00     0.013 C 
HETATM    3  C6  UNL     1      -1.724  -0.175  -1.058  1.00  0.00     0.018 C 
HETATM    4  C7  UNL     1      -2.993  -0.090  -0.299  1.00  0.00     0.034 C 
HETATM    5  C8  UNL     1      -2.723   0.937   0.775  1.00  0.00     0.233 C 
HETATM    6  N1  UNL     1      -1.257   1.001   0.876  1.00  0.00    -0.070 N 
ATOM      7  H11 UNL     1      -0.864   0.325   1.531  1.00  0.00     0.277 HD
ATOM      8  H12 UNL     1      -0.917   1.840   1.346  1.00  0.00     0.277 HD
HETATM    9  C9  UNL     1      -0.765   0.856  -0.458  1.00  0.00     0.194 C 
ENDROOT
BRANCH   1  10
HETATM   10  C2  UNL     1       1.429  -0.195   0.311  1.00  0.00    -0.002 C 
HETATM   11  C1  UNL     1       2.158  -1.517   0.165  1.00  0.00     0.011 C 
BRANCH  10  12
HETATM   12  C3  UNL     1       2.421   0.897  -0.059  1.00  0.00     0.090 C 
HETATM   13  S1  UNL     1       3.867   0.877   1.018  1.00  0.00    -0.097 SA
ENDBRANCH  10  12
ENDBRANCH   1  10
TORSDOF 2
