REMARK  3 active torsions:
REMARK  status: ('A' for Active; 'I' for Inactive)
REMARK    1  A    between atoms: C2_2  and  C4_4 
REMARK    2  A    between atoms: C6_6  and  C7_7 
REMARK    3  A    between atoms: C7_7  and  N1_8 
ROOT
HETATM    1  C4  UNL     1      -0.699  -0.010   0.375  1.00  0.00     0.129 C 
HETATM    2  C5  UNL     1       0.494   0.898   0.588  1.00  0.00     0.046 C 
HETATM    3  C6  UNL     1       1.632  -0.134   0.529  1.00  0.00     0.019 C 
HETATM    4  C8  UNL     1       1.038  -1.389  -0.001  1.00  0.00     0.019 C 
HETATM    5  C9  UNL     1       0.236  -2.025   1.126  1.00  0.00     0.238 C 
HETATM    6  N2  UNL     1      -0.705  -0.966   1.442  1.00  0.00    -0.066 N 
ATOM      7  H21 UNL     1      -1.640  -1.322   1.641  1.00  0.00     0.278 HD
ATOM      8  H22 UNL     1      -0.520  -0.538   2.349  1.00  0.00     0.278 HD
HETATM    9  C10 UNL     1      -0.150  -0.830  -0.807  1.00  0.00     0.046 C 
ENDROOT
BRANCH   3  10
HETATM   10  C7  UNL     1       2.793   0.378  -0.272  1.00  0.00     0.234 C 
BRANCH  10  11
HETATM   11  N1  UNL     1       3.366   1.578   0.252  1.00  0.00    -0.079 N 
ATOM     12  H13 UNL     1       2.654   2.301   0.357  1.00  0.00     0.274 HD
ATOM     13  H12 UNL     1       3.629   1.454   1.230  1.00  0.00     0.274 HD
ATOM     14  H11 UNL     1       4.155   1.926  -0.292  1.00  0.00     0.274 HD
ENDBRANCH  10  11
ENDBRANCH   3  10
BRANCH   1  15
HETATM   15  C2  UNL     1      -1.962   0.661   0.084  1.00  0.00     0.013 C 
HETATM   16  C1  UNL     1      -3.063  -0.351  -0.104  1.00  0.00     0.012 C 
HETATM   17  C3  UNL     1      -1.842   1.413  -1.233  1.00  0.00     0.012 C 
ENDBRANCH   1  15
TORSDOF 3
