REMARK  12 active torsions:
REMARK  status: ('A' for Active; 'I' for Inactive)
REMARK    1  A    between atoms: N1_1  and  N2_4 
REMARK    2  A    between atoms: N2_4  and  C1_5 
REMARK    3  A    between atoms: C1_5  and  C2_6 
REMARK    4  A    between atoms: C2_6  and  N3_7 
REMARK    5  A    between atoms: C2_6  and  C7_17 
REMARK    6  A    between atoms: N3_7  and  C3_9 
REMARK    7  A    between atoms: C3_9  and  C4_10 
REMARK    8  A    between atoms: C3_9  and  C6_14 
REMARK    9  A    between atoms: C4_10  and  C5_11 
REMARK   10  A    between atoms: C7_17  and  N6_18 
REMARK   11  A    between atoms: C7_17  and  C9_22 
REMARK   12  A    between atoms: N6_18  and  C8_20 
ROOT
HETATM    1  C2  UNL     1      -1.057   0.358  -0.742  1.00  0.00     0.125 C 
ENDROOT
BRANCH   1   2
HETATM    2  C1  UNL     1      -1.600   1.223   0.362  1.00  0.00     0.161 C 
BRANCH   2   3
HETATM    3  N2  UNL     1      -1.258   2.632  -0.054  1.00  0.00    -0.146 NA
BRANCH   3   4
HETATM    4  N1  UNL     1      -1.727   3.527   0.902  1.00  0.00    -0.348 N 
ATOM      5  H12 UNL     1      -2.225   3.256   1.750  1.00  0.00     0.172 HD
ATOM      6  H11 UNL     1      -1.496   4.480   0.621  1.00  0.00     0.172 HD
ENDBRANCH   3   4
ENDBRANCH   2   3
ENDBRANCH   1   2
BRANCH   1   7
HETATM    7  N3  UNL     1       0.293   0.458  -0.970  1.00  0.00    -0.401 N 
ATOM      8  H3  UNL     1       0.503   1.029  -1.789  1.00  0.00     0.154 HD
BRANCH   7   9
HETATM    9  C3  UNL     1       1.431  -0.021  -0.368  1.00  0.00     0.175 C 
BRANCH   9  10
HETATM   10  C4  UNL     1       2.530  -0.230  -1.362  1.00  0.00     0.133 C 
BRANCH  10  11
HETATM   11  C5  UNL     1       3.738  -0.874  -0.825  1.00  0.00     0.233 C 
HETATM   12  N4  UNL     1       3.867  -1.650   0.323  1.00  0.00    -0.062 NA
HETATM   13  O1  UNL     1       4.793  -0.686  -1.523  1.00  0.00    -0.277 OA
ENDBRANCH  10  11
ENDBRANCH   9  10
BRANCH   9  14
HETATM   14  C6  UNL     1       1.885   0.687   0.845  1.00  0.00     0.254 C 
HETATM   15  N5  UNL     1       3.182   1.319   0.885  1.00  0.00    -0.060 NA
HETATM   16  O2  UNL     1       1.207   0.817   1.929  1.00  0.00    -0.275 OA
ENDBRANCH   9  14
ENDBRANCH   7   9
ENDBRANCH   1   7
BRANCH   1  17
HETATM   17  C7  UNL     1      -1.596  -1.065  -0.655  1.00  0.00     0.196 C 
BRANCH  17  18
HETATM   18  N6  UNL     1      -1.294  -1.630   0.634  1.00  0.00    -0.353 N 
ATOM     19  H6  UNL     1      -0.486  -2.253   0.626  1.00  0.00     0.162 HD
BRANCH  18  20
HETATM   20  C8  UNL     1      -1.865  -1.502   1.854  1.00  0.00     0.349 C 
HETATM   21  O3  UNL     1      -2.839  -0.872   2.290  1.00  0.00    -0.284 OA
ENDBRANCH  18  20
ENDBRANCH  17  18
BRANCH  17  22
HETATM   22  C9  UNL     1      -3.035  -1.049  -0.867  1.00  0.00     0.256 C 
HETATM   23  N7  UNL     1      -3.604  -2.319  -1.272  1.00  0.00    -0.060 NA
HETATM   24  O4  UNL     1      -3.870  -0.117  -0.751  1.00  0.00    -0.274 OA
ENDBRANCH  17  22
ENDBRANCH   1  17
TORSDOF 12
