REMARK  14 active torsions:
REMARK  status: ('A' for Active; 'I' for Inactive)
REMARK    1  A    between atoms: N1_1  and  C1_5 
REMARK    2  A    between atoms: C1_5  and  C2_6 
REMARK    3  A    between atoms: C2_6  and  N5_21 
REMARK    4  A    between atoms: C3_7  and  C4_8 
REMARK    5  A    between atoms: C4_8  and  N2_9 
REMARK    6  A    between atoms: C4_8  and  C5_13 
REMARK    7  A    between atoms: C5_13  and  N3_14 
REMARK    8  A    between atoms: C5_13  and  C7_18 
REMARK    9  A    between atoms: N3_14  and  C6_15 
REMARK   10  A    between atoms: C6_15  and  O1_16 
REMARK   11  A    between atoms: N5_21  and  C8_23 
REMARK   12  A    between atoms: C8_23  and  C9_24 
REMARK   13  A    between atoms: C8_23  and  C10_29 
REMARK   14  A    between atoms: C9_24  and  N6_25 
ROOT
HETATM    1  C2  UNL     1      -0.843   0.303  -0.938  1.00  0.00     0.033 C 
HETATM    2  C3  UNL     1       0.120  -0.172  -0.036  1.00  0.00     0.036 C 
ENDROOT
BRANCH   1   3
HETATM    3  C1  UNL     1      -1.066   1.742  -1.038  1.00  0.00     0.286 C 
BRANCH   3   4
HETATM    4  N1  UNL     1       0.168   2.380  -1.633  1.00  0.00    -0.074 N 
ATOM      5  H13 UNL     1       1.016   2.151  -1.114  1.00  0.00     0.274 HD
ATOM      6  H12 UNL     1       0.433   1.962  -2.525  1.00  0.00     0.274 HD
ATOM      7  H11 UNL     1       0.012   3.386  -1.703  1.00  0.00     0.274 HD
ENDBRANCH   3   4
ENDBRANCH   1   3
BRANCH   1   8
HETATM    8  N5  UNL     1      -2.103  -0.421  -0.964  1.00  0.00    -0.356 N 
ATOM      9  H5  UNL     1      -2.362  -0.972  -1.782  1.00  0.00     0.166 HD
BRANCH   8  10
HETATM   10  C8  UNL     1      -2.941  -0.358   0.121  1.00  0.00     0.100 C 
BRANCH  10  11
HETATM   11  C9  UNL     1      -2.576  -1.011   1.390  1.00  0.00     0.291 C 
BRANCH  11  12
HETATM   12  N6  UNL     1      -2.402  -2.501   1.069  1.00  0.00    -0.074 N 
ATOM     13  H63 UNL     1      -3.217  -2.917   0.618  1.00  0.00     0.274 HD
ATOM     14  H62 UNL     1      -1.738  -2.679   0.315  1.00  0.00     0.274 HD
ATOM     15  H61 UNL     1      -2.149  -2.953   1.948  1.00  0.00     0.274 HD
ENDBRANCH  11  12
ENDBRANCH  10  11
BRANCH  10  16
HETATM   16  C10 UNL     1      -4.211   0.335   0.099  1.00  0.00     0.279 C 
HETATM   17  N7  UNL     1      -4.214   1.732   0.666  1.00  0.00    -0.056 NA
HETATM   18  O3  UNL     1      -5.292  -0.044  -0.345  1.00  0.00    -0.270 OA
ENDBRANCH  10  16
ENDBRANCH   8  10
ENDBRANCH   1   8
BRANCH   2  19
HETATM   19  C4  UNL     1       1.596   0.245  -0.189  1.00  0.00     0.252 C 
BRANCH  19  20
HETATM   20  N2  UNL     1       1.787   1.665   0.314  1.00  0.00    -0.068 N 
ATOM     21  H23 UNL     1       1.154   2.321  -0.143  1.00  0.00     0.275 HD
ATOM     22  H22 UNL     1       1.454   1.780   1.271  1.00  0.00     0.275 HD
ATOM     23  H21 UNL     1       2.764   1.941   0.213  1.00  0.00     0.275 HD
ENDBRANCH  19  20
BRANCH  19  24
HETATM   24  C5  UNL     1       2.422  -0.607   0.624  1.00  0.00     0.287 C 
BRANCH  24  25
HETATM   25  N3  UNL     1       3.938  -0.609   0.758  1.00  0.00    -0.420 NA
BRANCH  25  26
HETATM   26  C6  UNL     1       5.150  -0.570   0.917  1.00  0.00     0.310 C 
BRANCH  26  27
HETATM   27  O1  UNL     1       5.990   0.094   1.683  1.00  0.00    -0.346 OA
ATOM     28  H1  UNL     1       6.931   0.124   1.807  1.00  0.00     0.219 HD
ENDBRANCH  26  27
ENDBRANCH  25  26
ENDBRANCH  24  25
BRANCH  24  29
HETATM   29  C7  UNL     1       2.838  -1.761  -0.642  1.00  0.00     0.269 C 
HETATM   30  N4  UNL     1       2.897  -1.251  -1.942  1.00  0.00    -0.059 NA
HETATM   31  O2  UNL     1       3.079  -2.810  -0.261  1.00  0.00    -0.273 OA
ENDBRANCH  24  29
ENDBRANCH  19  24
ENDBRANCH   2  19
TORSDOF 14
