REMARK  15 active torsions:
REMARK  status: ('A' for Active; 'I' for Inactive)
REMARK    1  A    between atoms: N1_1  and  C1_5 
REMARK    2  A    between atoms: C1_5  and  C2_6 
REMARK    3  A    between atoms: C2_6  and  N2_7 
REMARK    4  A    between atoms: N2_7  and  C3_9 
REMARK    5  A    between atoms: C3_9  and  C4_10 
REMARK    6  A    between atoms: C4_10  and  N3_11 
REMARK    7  A    between atoms: C4_10  and  C9_23 
REMARK    8  A    between atoms: N3_11  and  C5_13 
REMARK    9  A    between atoms: C5_13  and  C6_14 
REMARK   10  A    between atoms: C5_13  and  C8_20 
REMARK   11  A    between atoms: C6_14  and  N4_15 
REMARK   12  A    between atoms: N4_15  and  C7_17 
REMARK   13  A    between atoms: C7_17  and  O1_18 
REMARK   14  A    between atoms: C9_23  and  N6_24 
REMARK   15  A    between atoms: C9_23  and  C10_28 
ROOT
HETATM    1  C4  UNL     1       0.060  -0.881  -0.080  1.00  0.00     0.134 C 
ENDROOT
BRANCH   1   2
HETATM    2  C3  UNL     1       1.385  -0.199  -0.014  1.00  0.00     0.141 C 
BRANCH   2   3
HETATM    3  N2  UNL     1       1.471   1.156  -0.419  1.00  0.00    -0.418 N 
ATOM      4  H2  UNL     1       0.654   1.766  -0.422  1.00  0.00     0.153 HD
BRANCH   3   5
HETATM    5  C2  UNL     1       2.763   1.627  -0.824  1.00  0.00     0.141 C 
BRANCH   5   6
HETATM    6  C1  UNL     1       3.813   1.696   0.216  1.00  0.00     0.248 C 
BRANCH   6   7
HETATM    7  N1  UNL     1       5.029   2.222  -0.418  1.00  0.00    -0.078 N 
ATOM      8  H13 UNL     1       5.315   1.685  -1.237  1.00  0.00     0.274 HD
ATOM      9  H12 UNL     1       4.878   3.114  -0.890  1.00  0.00     0.274 HD
ATOM     10  H11 UNL     1       5.753   2.270   0.299  1.00  0.00     0.274 HD
ENDBRANCH   6   7
ENDBRANCH   5   6
ENDBRANCH   3   5
ENDBRANCH   2   3
ENDBRANCH   1   2
BRANCH   1  11
HETATM   11  N3  UNL     1      -1.063  -0.325   0.576  1.00  0.00    -0.397 N 
ATOM     12  H3  UNL     1      -1.469  -0.764   1.403  1.00  0.00     0.154 HD
BRANCH  11  13
HETATM   13  C5  UNL     1      -1.614   0.905   0.016  1.00  0.00     0.206 C 
BRANCH  13  14
HETATM   14  C6  UNL     1      -2.730   1.443   0.787  1.00  0.00     0.091 C 
BRANCH  14  15
HETATM   15  N4  UNL     1      -4.062   0.988   0.739  1.00  0.00    -0.379 N 
ATOM     16  H4  UNL     1      -4.421   0.308   1.409  1.00  0.00     0.160 HD
BRANCH  15  17
HETATM   17  C7  UNL     1      -4.904   1.540  -0.321  1.00  0.00     0.286 C 
BRANCH  17  18
HETATM   18  O1  UNL     1      -4.325   2.454  -1.069  1.00  0.00    -0.382 OA
ATOM     19  H1  UNL     1      -4.872   2.813  -1.758  1.00  0.00     0.211 HD
ENDBRANCH  17  18
ENDBRANCH  15  17
ENDBRANCH  14  15
ENDBRANCH  13  14
BRANCH  13  20
HETATM   20  C8  UNL     1      -1.992   0.422  -1.389  1.00  0.00     0.258 C 
HETATM   21  N5  UNL     1      -3.105  -0.369  -1.707  1.00  0.00    -0.060 NA
HETATM   22  O2  UNL     1      -1.234   0.733  -2.332  1.00  0.00    -0.274 OA
ENDBRANCH  13  20
ENDBRANCH  11  13
ENDBRANCH   1  11
BRANCH   1  23
HETATM   23  C9  UNL     1       0.217  -2.306   0.568  1.00  0.00     0.295 C 
BRANCH  23  24
HETATM   24  N6  UNL     1       0.670  -2.129   1.926  1.00  0.00    -0.065 N 
ATOM     25  H63 UNL     1       1.521  -1.571   1.989  1.00  0.00     0.275 HD
ATOM     26  H62 UNL     1       0.063  -1.513   2.468  1.00  0.00     0.275 HD
ATOM     27  H61 UNL     1       0.772  -3.053   2.346  1.00  0.00     0.275 HD
ENDBRANCH  23  24
BRANCH  23  28
HETATM   28  C10 UNL     1       1.048  -3.210  -0.191  1.00  0.00     0.263 C 
HETATM   29  N7  UNL     1       0.533  -4.397  -0.787  1.00  0.00    -0.060 NA
HETATM   30  O3  UNL     1       2.284  -3.024  -0.381  1.00  0.00    -0.274 OA
ENDBRANCH  23  28
ENDBRANCH   1  23
TORSDOF 15
