REMARK  12 active torsions:
REMARK  status: ('A' for Active; 'I' for Inactive)
REMARK       I    between atoms: C1_4  and  N3_6 
REMARK    1  A    between atoms: N3_6  and  C2_8 
REMARK    2  A    between atoms: C2_8  and  C3_9 
REMARK    3  A    between atoms: C3_9  and  N4_10 
REMARK    4  A    between atoms: C3_9  and  C10_26 
REMARK    5  A    between atoms: N4_10  and  C4_12 
REMARK    6  A    between atoms: C4_12  and  C5_13 
REMARK    7  A    between atoms: C4_12  and  C9_23 
REMARK    8  A    between atoms: C5_13  and  N5_14 
REMARK    9  A    between atoms: N5_14  and  C6_15 
REMARK   10  A    between atoms: N5_14  and  C7_17 
REMARK   11  A    between atoms: C7_17  and  C8_18 
REMARK   12  A    between atoms: C8_18  and  N6_19 
ROOT
HETATM    1  N4  UNL     1       0.733  -0.126   1.042  1.00  0.00    -0.392 N 
ATOM      2  H4  UNL     1       0.884   0.746   1.549  1.00  0.00     0.155 HD
ENDROOT
BRANCH   1   3
HETATM    3  C3  UNL     1       1.805  -0.956   0.790  1.00  0.00     0.185 C 
BRANCH   3   4
HETATM    4  C2  UNL     1       3.090  -0.077   0.892  1.00  0.00     0.156 C 
BRANCH   4   5
HETATM    5  N3  UNL     1       3.030   0.978  -0.075  1.00  0.00    -0.362 N 
HETATM    6  C1  UNL     1       4.057   1.945  -0.224  1.00  0.00     0.181 C 
HETATM    7  N1  UNL     1       3.771   3.195  -0.474  1.00  0.00    -0.374 N 
HETATM    8  N2  UNL     1       5.389   1.507  -0.093  1.00  0.00    -0.064 NA
ATOM      9  H12 UNL     1       4.510   3.890  -0.581  1.00  0.00     0.158 HD
ATOM     10  H11 UNL     1       2.806   3.512  -0.569  1.00  0.00     0.158 HD
ATOM     11  H3  UNL     1       2.213   1.036  -0.683  1.00  0.00     0.162 HD
ENDBRANCH   4   5
ENDBRANCH   3   4
BRANCH   3  12
HETATM   12  C10 UNL     1       1.922  -1.595  -0.533  1.00  0.00     0.255 C 
HETATM   13  N8  UNL     1       3.031  -2.480  -0.810  1.00  0.00    -0.060 NA
HETATM   14  O3  UNL     1       1.129  -1.447  -1.489  1.00  0.00    -0.275 OA
ENDBRANCH   3  12
ENDBRANCH   1   3
BRANCH   1  15
HETATM   15  C4  UNL     1      -0.604  -0.470   0.600  1.00  0.00     0.206 C 
BRANCH  15  16
HETATM   16  C5  UNL     1      -1.499   0.542   1.265  1.00  0.00     0.100 C 
BRANCH  16  17
HETATM   17  N5  UNL     1      -2.884   0.510   1.055  1.00  0.00    -0.335 N 
BRANCH  17  18
HETATM   18  C6  UNL     1      -3.827  -0.198   1.878  1.00  0.00     0.355 C 
HETATM   19  O1  UNL     1      -3.381  -0.790   2.890  1.00  0.00    -0.283 OA
ENDBRANCH  17  18
BRANCH  17  20
HETATM   20  C7  UNL     1      -3.504   1.285  -0.011  1.00  0.00     0.157 C 
BRANCH  20  21
HETATM   21  C8  UNL     1      -3.663   0.441  -1.223  1.00  0.00     0.249 C 
BRANCH  21  22
HETATM   22  N6  UNL     1      -4.290   1.202  -2.316  1.00  0.00    -0.078 N 
ATOM     23  H63 UNL     1      -5.176   1.616  -2.027  1.00  0.00     0.274 HD
ATOM     24  H62 UNL     1      -3.778   2.060  -2.519  1.00  0.00     0.274 HD
ATOM     25  H61 UNL     1      -4.399   0.622  -3.148  1.00  0.00     0.274 HD
ENDBRANCH  21  22
ENDBRANCH  20  21
ENDBRANCH  17  20
ENDBRANCH  16  17
ENDBRANCH  15  16
BRANCH  15  26
HETATM   26  C9  UNL     1      -0.929  -1.873   0.789  1.00  0.00     0.258 C 
HETATM   27  N7  UNL     1      -2.078  -2.533   0.279  1.00  0.00    -0.060 NA
HETATM   28  O2  UNL     1      -0.170  -2.676   1.459  1.00  0.00    -0.274 OA
ENDBRANCH  15  26
ENDBRANCH   1  15
TORSDOF 12
