REMARK  6 active torsions:
REMARK  status: ('A' for Active; 'I' for Inactive)
REMARK    1  A    between atoms: C2_2  and  N1_3 
REMARK    2  A    between atoms: N1_3  and  C3_6 
REMARK    3  A    between atoms: C3_6  and  C4_7 
REMARK    4  A    between atoms: C4_7  and  N2_8 
REMARK    5  A    between atoms: C6_12  and  N4_13 
REMARK    6  A    between atoms: C7_18  and  N6_19 
ROOT
HETATM    1  N2  UNL     1       1.205  -0.866  -0.356  1.00  0.00    -0.177 N 
HETATM    2  C5  UNL     1       1.990  -1.512   0.560  1.00  0.00     0.218 A 
HETATM    3  N3  UNL     1       3.121  -1.000   1.059  1.00  0.00    -0.187 N 
ATOM      4  H3  UNL     1       3.663  -1.531   1.740  1.00  0.00     0.185 HD
HETATM    5  C6  UNL     1       3.544   0.215   0.664  1.00  0.00     0.691 A 
HETATM    6  N5  UNL     1       2.803   0.873  -0.228  1.00  0.00    -0.023 N 
ATOM      7  H5  UNL     1       3.103   1.796  -0.543  1.00  0.00     0.203 HD
HETATM    8  C7  UNL     1       1.654   0.339  -0.728  1.00  0.00     0.693 A 
ENDROOT
BRANCH   1   9
HETATM    9  C4  UNL     1      -0.001  -1.483  -0.832  1.00  0.00     0.175 C 
BRANCH   9  10
HETATM   10  C3  UNL     1      -1.232  -1.270  -0.067  1.00  0.00     0.253 C 
BRANCH  10  11
HETATM   11  N1  UNL     1      -1.702   0.074   0.066  1.00  0.00    -0.074 N 
ATOM     12  H12 UNL     1      -1.863   0.502  -0.846  1.00  0.00     0.277 HD
ATOM     13  H11 UNL     1      -0.965   0.692   0.405  1.00  0.00     0.277 HD
BRANCH  11  14
HETATM   14  C2  UNL     1      -2.882   0.155   0.901  1.00  0.00     0.228 C 
HETATM   15  C1  UNL     1      -3.368   1.566   0.970  1.00  0.00     0.034 C 
ENDBRANCH  11  14
ENDBRANCH  10  11
ENDBRANCH   9  10
ENDBRANCH   1   9
BRANCH   8  16
HETATM   16  N6  UNL     1       1.008   1.009  -1.578  1.00  0.00    -0.234 N 
ATOM     17  H62 UNL     1       0.148   0.609  -1.952  1.00  0.00     0.174 HD
ATOM     18  H61 UNL     1       1.350   1.927  -1.861  1.00  0.00     0.174 HD
ENDBRANCH   8  16
BRANCH   5  19
HETATM   19  N4  UNL     1       4.638   0.732   1.133  1.00  0.00    -0.234 N 
ATOM     20  H42 UNL     1       5.205   0.229   1.815  1.00  0.00     0.174 HD
ATOM     21  H41 UNL     1       4.959   1.653   0.834  1.00  0.00     0.174 HD
ENDBRANCH   5  19
TORSDOF 6
