REMARK  6 active torsions:
REMARK  status: ('A' for Active; 'I' for Inactive)
REMARK    1  A    between atoms: N1_2  and  C2_4 
REMARK    2  A    between atoms: C2_4  and  C3_5 
REMARK    3  A    between atoms: C4_9  and  N3_10 
REMARK    4  A    between atoms: C5_14  and  C6_15 
REMARK    5  A    between atoms: C6_15  and  N4_16 
REMARK    6  A    between atoms: C7_20  and  N5_21 
ROOT
HETATM    1  C3  UNL     1       0.753   0.141  -0.754  1.00  0.00     0.236 C 
HETATM    2  N2  UNL     1      -0.094  -0.435  -1.768  1.00  0.00    -0.038 N 
ATOM      3  H21 UNL     1       0.228  -1.352  -2.079  1.00  0.00     0.280 HD
ATOM      4  H22 UNL     1      -0.021   0.045  -2.665  1.00  0.00     0.280 HD
HETATM    5  C4  UNL     1      -1.447  -0.459  -1.251  1.00  0.00     0.388 C 
HETATM    6  C5  UNL     1      -1.538   0.640  -0.269  1.00  0.00     0.101 C 
HETATM    7  C7  UNL     1      -0.100   0.855   0.222  1.00  0.00     0.225 C 
ENDROOT
BRANCH   6   8
HETATM    8  C6  UNL     1      -2.461   0.422   0.894  1.00  0.00     0.240 C 
BRANCH   8   9
HETATM    9  N4  UNL     1      -2.151  -0.698   1.722  1.00  0.00    -0.079 N 
ATOM     10  H43 UNL     1      -2.095  -1.545   1.157  1.00  0.00     0.274 HD
ATOM     11  H42 UNL     1      -1.187  -0.635   2.048  1.00  0.00     0.274 HD
ATOM     12  H41 UNL     1      -2.778  -0.846   2.512  1.00  0.00     0.274 HD
ENDBRANCH   8   9
ENDBRANCH   6   8
BRANCH   5  13
HETATM   13  N3  UNL     1      -1.798  -1.742  -0.840  1.00  0.00    -0.050 N 
ATOM     14  H33 UNL     1      -1.667  -2.426  -1.585  1.00  0.00     0.276 HD
ATOM     15  H32 UNL     1      -1.130  -2.118  -0.167  1.00  0.00     0.276 HD
ATOM     16  H31 UNL     1      -2.751  -1.759  -0.476  1.00  0.00     0.276 HD
ENDBRANCH   5  13
BRANCH   7  17
HETATM   17  N5  UNL     1       0.133   2.301   0.230  1.00  0.00    -0.072 N 
ATOM     18  H53 UNL     1       1.119   2.511   0.385  1.00  0.00     0.274 HD
ATOM     19  H52 UNL     1       0.025   2.693  -0.705  1.00  0.00     0.274 HD
ATOM     20  H51 UNL     1      -0.455   2.793   0.903  1.00  0.00     0.274 HD
ENDBRANCH   7  17
BRANCH   1  21
HETATM   21  C2  UNL     1       1.659  -0.896  -0.197  1.00  0.00     0.148 C 
BRANCH  21  22
HETATM   22  N1  UNL     1       2.556  -0.459   0.821  1.00  0.00    -0.423 N 
HETATM   23  C1  UNL     1       3.583   0.439   0.390  1.00  0.00     0.139 C 
ATOM     24  H1  UNL     1       2.471  -0.765   1.790  1.00  0.00     0.152 HD
ENDBRANCH  21  22
ENDBRANCH   1  21
TORSDOF 6
