REMARK  6 active torsions:
REMARK  status: ('A' for Active; 'I' for Inactive)
REMARK    1  A    between atoms: N1_1  and  C1_5 
REMARK    2  A    between atoms: C1_5  and  C2_6 
REMARK    3  A    between atoms: C2_6  and  S1_7 
REMARK    4  A    between atoms: S1_7  and  S2_8 
REMARK    5  A    between atoms: S2_8  and  C3_9 
REMARK    6  A    between atoms: N2_10  and  O1_11 
ROOT
HETATM    1  C3  UNL     1       1.700   0.282  -0.612  1.00  0.00     0.210 C 
HETATM    2  N2  UNL     1       2.568  -0.314  -1.341  1.00  0.00    -0.123 N 
HETATM    3  N3  UNL     1       3.669  -0.718  -0.566  1.00  0.00     0.022 NA
HETATM    4  N4  UNL     1       3.600  -0.038   0.655  1.00  0.00    -0.004 NA
HETATM    5  N5  UNL     1       2.233   0.284   0.695  1.00  0.00    -0.262 N 
ATOM      6  H5  UNL     1       1.704   0.489   1.543  1.00  0.00     0.186 HD
ENDROOT
BRANCH   1   7
HETATM    7  S2  UNL     1       0.163   0.959  -1.135  1.00  0.00    -0.017 SA
BRANCH   7   8
HETATM    8  S1  UNL     1      -0.809   1.807   0.554  1.00  0.00    -0.088 SA
BRANCH   8   9
HETATM    9  C2  UNL     1      -1.834   0.503   1.290  1.00  0.00     0.114 C 
BRANCH   9  10
HETATM   10  C1  UNL     1      -2.927   0.176   0.290  1.00  0.00     0.240 C 
BRANCH  10  11
HETATM   11  N1  UNL     1      -3.808  -0.868   0.800  1.00  0.00    -0.079 N 
ATOM     12  H13 UNL     1      -3.286  -1.701   1.072  1.00  0.00     0.274 HD
ATOM     13  H12 UNL     1      -4.194  -0.622   1.712  1.00  0.00     0.274 HD
ATOM     14  H11 UNL     1      -4.543  -1.088   0.128  1.00  0.00     0.274 HD
ENDBRANCH  10  11
ENDBRANCH   9  10
ENDBRANCH   8   9
ENDBRANCH   7   8
ENDBRANCH   1   7
BRANCH   2  15
HETATM   15  O1  UNL     1       2.526  -0.578  -2.710  1.00  0.00    -0.268 OA
ATOM     16  H1  UNL     1       3.170  -1.020  -3.251  1.00  0.00     0.246 HD
ENDBRANCH   2  15
TORSDOF 6
