REMARK  6 active torsions:
REMARK  status: ('A' for Active; 'I' for Inactive)
REMARK    1  A    between atoms: C2_2  and  C3_3 
REMARK    2  A    between atoms: C3_3  and  N1_4 
REMARK    3  A    between atoms: N1_4  and  C4_7 
REMARK    4  A    between atoms: C4_7  and  N2_8 
REMARK    5  A    between atoms: C6_17  and  N6_18 
REMARK    6  A    between atoms: N6_18  and  N7_20 
ROOT
HETATM    1  N2  UNL     1      -1.442   0.206  -0.750  1.00  0.00    -0.082 N 
HETATM    2  N3  UNL     1      -1.851   0.900  -1.794  1.00  0.00    -0.114 N 
ATOM      3  H3  UNL     1      -1.319   1.021  -2.656  1.00  0.00     0.206 HD
HETATM    4  C5  UNL     1      -3.067   1.425  -1.563  1.00  0.00     0.705 A 
HETATM    5  N4  UNL     1      -3.786   2.158  -2.343  1.00  0.00    -0.233 N 
ATOM      6  H41 UNL     1      -4.709   2.556  -2.168  1.00  0.00     0.174 HD
ATOM      7  H42 UNL     1      -3.522   2.454  -3.283  1.00  0.00     0.174 HD
HETATM    8  N5  UNL     1      -3.413   1.037  -0.330  1.00  0.00    -0.018 N 
ATOM      9  H5  UNL     1      -4.283   1.269   0.149  1.00  0.00     0.203 HD
HETATM   10  C6  UNL     1      -2.420   0.294   0.163  1.00  0.00     0.729 A 
ENDROOT
BRANCH   1  11
HETATM   11  C4  UNL     1      -0.195  -0.510  -0.600  1.00  0.00     0.400 C 
BRANCH  11  12
HETATM   12  N1  UNL     1       0.839   0.335  -0.035  1.00  0.00    -0.057 N 
ATOM     13  H12 UNL     1       0.551   0.757   0.848  1.00  0.00     0.279 HD
ATOM     14  H11 UNL     1       0.970   1.192  -0.572  1.00  0.00     0.279 HD
BRANCH  12  15
HETATM   15  C3  UNL     1       2.063  -0.417   0.096  1.00  0.00     0.234 C 
BRANCH  15  16
HETATM   16  C2  UNL     1       3.167   0.405   0.675  1.00  0.00     0.023 C 
HETATM   17  C1  UNL     1       4.409  -0.491   0.768  1.00  0.00     0.007 C 
ENDBRANCH  15  16
ENDBRANCH  12  15
ENDBRANCH  11  12
ENDBRANCH   1  11
BRANCH  10  18
HETATM   18  N6  UNL     1      -2.354  -0.330   1.443  1.00  0.00    -0.137 N 
ATOM     19  H6  UNL     1      -1.947   0.199   2.214  1.00  0.00     0.205 HD
BRANCH  18  20
HETATM   20  N7  UNL     1      -2.807  -1.605   1.700  1.00  0.00    -0.331 N 
ATOM     21  H72 UNL     1      -3.211  -2.119   0.917  1.00  0.00     0.177 HD
ATOM     22  H71 UNL     1      -2.760  -2.051   2.616  1.00  0.00     0.177 HD
ENDBRANCH  18  20
ENDBRANCH  10  18
TORSDOF 6
