REMARK  6 active torsions:
REMARK  status: ('A' for Active; 'I' for Inactive)
REMARK    1  A    between atoms: N1_2  and  C2_3 
REMARK    2  A    between atoms: N1_2  and  C4_9 
REMARK    3  A    between atoms: C2_3  and  C3_4 
REMARK    4  A    between atoms: C3_4  and  N2_5 
REMARK    5  A    between atoms: C5_12  and  N4_13 
REMARK    6  A    between atoms: C6_18  and  N6_19 
ROOT
HETATM    1  C4  UNL     1      -0.597  -0.145   0.543  1.00  0.00     0.709 A 
HETATM    2  N3  UNL     1      -1.212   1.030   0.220  1.00  0.00    -0.022 N 
ATOM      3  H3  UNL     1      -0.634   1.866   0.132  1.00  0.00     0.203 HD
HETATM    4  C5  UNL     1      -2.518   1.149   0.014  1.00  0.00     0.705 A 
HETATM    5  N5  UNL     1      -3.276   0.055   0.130  1.00  0.00    -0.022 N 
ATOM      6  H5  UNL     1      -4.283   0.111  -0.021  1.00  0.00     0.203 HD
HETATM    7  C6  UNL     1      -2.699  -1.132   0.450  1.00  0.00     0.705 A 
HETATM    8  N7  UNL     1      -1.375  -1.237   0.655  1.00  0.00    -0.022 N 
ATOM      9  H7  UNL     1      -0.963  -2.139   0.894  1.00  0.00     0.203 HD
ENDROOT
BRANCH   1  10
HETATM   10  N1  UNL     1       0.807  -0.183   0.746  1.00  0.00    -0.219 N 
HETATM   11  C1  UNL     1       1.365  -1.475   1.085  1.00  0.00     0.168 C 
BRANCH  10  12
HETATM   12  C2  UNL     1       1.557   1.018   0.607  1.00  0.00     0.168 C 
BRANCH  12  13
HETATM   13  C3  UNL     1       2.487   1.048  -0.574  1.00  0.00     0.250 C 
BRANCH  13  14
HETATM   14  N2  UNL     1       3.477   0.005  -0.548  1.00  0.00    -0.078 N 
ATOM     15  H23 UNL     1       4.002   0.026   0.326  1.00  0.00     0.274 HD
ATOM     16  H22 UNL     1       3.036  -0.910  -0.458  1.00  0.00     0.274 HD
ATOM     17  H21 UNL     1       4.108   0.025  -1.349  1.00  0.00     0.274 HD
ENDBRANCH  13  14
ENDBRANCH  12  13
ENDBRANCH  10  12
ENDBRANCH   1  10
BRANCH   4  18
HETATM   18  N4  UNL     1      -2.995   2.310  -0.287  1.00  0.00    -0.234 N 
ATOM     19  H42 UNL     1      -2.416   3.145  -0.376  1.00  0.00     0.174 HD
ATOM     20  H41 UNL     1      -3.998   2.401  -0.445  1.00  0.00     0.174 HD
ENDBRANCH   4  18
BRANCH   7  21
HETATM   21  N6  UNL     1      -3.450  -2.171   0.556  1.00  0.00    -0.234 N 
ATOM     22  H62 UNL     1      -4.455  -2.091   0.400  1.00  0.00     0.174 HD
ATOM     23  H61 UNL     1      -3.017  -3.063   0.796  1.00  0.00     0.174 HD
ENDBRANCH   7  21
TORSDOF 6
