REMARK  1 active torsions:
REMARK  status: ('A' for Active; 'I' for Inactive)
REMARK    1  A    between atoms: C5_5  and  O1_6 
ROOT
HETATM    1  C1  UNL     1       4.156   0.636  -0.012  1.00  0.00     0.015 C 
HETATM    2  C2  UNL     1       3.052   0.370  -0.423  1.00  0.00    -0.085 C 
HETATM    3  C3  UNL     1       1.707   0.065  -0.927  1.00  0.00     0.209 C 
HETATM    4  C4  UNL     1       1.232  -1.269  -0.463  1.00  0.00     0.082 C 
HETATM    5  C5  UNL     1       0.181  -1.236   0.588  1.00  0.00     0.157 C 
HETATM    6  C6  UNL     1      -0.887  -0.249   0.289  1.00  0.00     0.004 A 
HETATM    7  C7  UNL     1      -2.224  -0.502   0.572  1.00  0.00     0.012 A 
HETATM    8  C8  UNL     1      -3.198   0.437   0.283  1.00  0.00     0.001 A 
HETATM    9  C9  UNL     1      -2.809   1.627  -0.293  1.00  0.00     0.003 A 
HETATM   10  C10 UNL     1      -1.476   1.859  -0.566  1.00  0.00     0.037 A 
HETATM   11  C11 UNL     1      -0.495   0.942  -0.287  1.00  0.00     0.079 A 
HETATM   12  O2  UNL     1       0.850   1.133  -0.543  1.00  0.00    -0.333 OA
ENDROOT
BRANCH   5  13
HETATM   13  O1  UNL     1       0.793  -0.916   1.822  1.00  0.00    -0.391 OA
ATOM     14  H1  UNL     1       0.121  -0.895   2.494  1.00  0.00     0.210 HD
ENDBRANCH   5  13
TORSDOF 1
