REMARK  2 active torsions:
REMARK  status: ('A' for Active; 'I' for Inactive)
REMARK    1  A    between atoms: C1_1  and  C7_11 
REMARK    2  A    between atoms: C2_2  and  C3_3 
ROOT
HETATM    1  C1  UNL     1       0.491  -0.197  -0.053  1.00  0.00    -0.040 C 
HETATM    2  C2  UNL     1      -0.715  -0.116  -0.044  1.00  0.00    -0.023 C 
ENDROOT
BRANCH   2   3
HETATM    3  C3  UNL     1      -2.154   0.005  -0.030  1.00  0.00     0.161 A 
HETATM    4  N1  UNL     1      -2.761   1.214  -0.115  1.00  0.00    -0.345 N 
HETATM    5  C4  UNL     1      -4.087   1.369  -0.105  1.00  0.00     0.091 A 
ATOM      6  H1  UNL     1      -2.176   2.046  -0.190  1.00  0.00     0.167 HD
HETATM    7  C5  UNL     1      -4.909   0.277  -0.005  1.00  0.00     0.034 A 
HETATM    8  C6  UNL     1      -4.314  -0.963   0.083  1.00  0.00     0.091 A 
HETATM    9  N2  UNL     1      -2.965  -1.062   0.068  1.00  0.00    -0.345 N 
ATOM     10  H2  UNL     1      -2.544  -1.989   0.134  1.00  0.00     0.167 HD
ENDBRANCH   2   3
BRANCH   1  11
HETATM   11  C7  UNL     1       1.937  -0.268  -0.065  1.00  0.00     0.086 A 
HETATM   12  C8  UNL     1       2.704   0.819   0.363  1.00  0.00     0.039 A 
HETATM   13  C9  UNL     1       4.069   0.762   0.356  1.00  0.00     0.004 A 
HETATM   14  C10 UNL     1       4.671  -0.396  -0.084  1.00  0.00     0.017 A 
HETATM   15  C11 UNL     1       3.887  -1.449  -0.499  1.00  0.00     0.089 A 
HETATM   16  N3  UNL     1       2.531  -1.377  -0.485  1.00  0.00    -0.359 N 
ATOM     17  H3  UNL     1       1.972  -2.172  -0.796  1.00  0.00     0.166 HD
ENDBRANCH   1  11
TORSDOF 2
