REMARK  2 active torsions:
REMARK  status: ('A' for Active; 'I' for Inactive)
REMARK    1  A    between atoms: C2_2  and  C5_5 
REMARK    2  A    between atoms: C5_5  and  S1_8 
ROOT
HETATM    1  C5  UNL     1       0.483  -0.329  -0.142  1.00  0.00     0.082 C 
HETATM    2  C6  UNL     1       0.444  -1.781   0.352  1.00  0.00     0.035 C 
HETATM    3  C7  UNL     1       0.760  -0.428  -1.630  1.00  0.00     0.035 C 
ENDROOT
BRANCH   1   4
HETATM    4  C2  UNL     1      -0.853   0.296   0.117  1.00  0.00    -0.028 C 
HETATM    5  C1  UNL     1      -0.816   1.742  -0.374  1.00  0.00     0.016 C 
HETATM    6  C3  UNL     1      -1.252   0.338   1.553  1.00  0.00     0.016 C 
HETATM    7  C4  UNL     1      -1.973  -0.384  -0.638  1.00  0.00     0.016 C 
ENDBRANCH   1   4
BRANCH   1   8
HETATM    8  S1  UNL     1       1.829   0.511   0.592  1.00  0.00     0.111 S 
HETATM    9  O1  UNL     1       1.771   0.562   2.086  1.00  0.00    -0.594 OA
HETATM   10  O2  UNL     1       1.970   1.873  -0.023  1.00  0.00    -0.594 OA
HETATM   11  O3  UNL     1       3.242  -0.336   0.193  1.00  0.00    -0.594 OA
ENDBRANCH   1   8
TORSDOF 2
