REMARK  1 active torsions:
REMARK  status: ('A' for Active; 'I' for Inactive)
REMARK       I    between atoms: C2_2  and  N1_4 
REMARK    1  A    between atoms: C6_9  and  O2_10 
ROOT
HETATM    1  C1  UNL     1      -2.626   1.476   0.802  1.00  0.00     0.119 C 
HETATM    2  C2  UNL     1      -1.194   1.724   0.461  1.00  0.00     0.231 C 
HETATM    3  O1  UNL     1      -0.750   2.923   0.464  1.00  0.00    -0.272 OA
HETATM    4  N1  UNL     1      -0.279   0.697   0.128  1.00  0.00    -0.269 N 
HETATM    5  N2  UNL     1       1.047   0.938  -0.182  1.00  0.00    -0.223 NA
HETATM    6  C3  UNL     1       1.703   1.846   0.726  1.00  0.00     0.137 C 
HETATM    7  C4  UNL     1       1.706  -0.346  -0.264  1.00  0.00     0.106 C 
HETATM    8  C5  UNL     1       2.730  -0.259  -1.382  1.00  0.00     0.031 C 
HETATM    9  C6  UNL     1       0.618  -1.334  -0.552  1.00  0.00     0.166 C 
HETATM   10  C7  UNL     1      -0.603  -0.697   0.071  1.00  0.00     0.072 C 
HETATM   11  C8  UNL     1      -1.811  -0.956  -0.846  1.00  0.00     0.042 C 
HETATM   12  C9  UNL     1      -0.931  -1.304   1.392  1.00  0.00     0.042 C 
ENDROOT
BRANCH   9  13
HETATM   13  O2  UNL     1       0.429  -1.543  -1.909  1.00  0.00    -0.391 OA
ATOM     14  H2  UNL     1      -0.261  -2.170  -2.092  1.00  0.00     0.210 HD
ENDBRANCH   9  13
TORSDOF 1
