REMARK  4 active torsions:
REMARK  status: ('A' for Active; 'I' for Inactive)
REMARK    1  A    between atoms: O1_1  and  N1_3 
REMARK    2  A    between atoms: C2_5  and  N2_6 
REMARK    3  A    between atoms: N2_6  and  N3_8 
REMARK    4  A    between atoms: N3_8  and  C3_10 
ROOT
HETATM    1  N2  UNL     1      -0.338  -1.198   0.202  1.00  0.00    -0.269 N 
ATOM      2  H2  UNL     1      -0.405  -1.788   1.031  1.00  0.00     0.189 HD
ENDROOT
BRANCH   1   3
HETATM    3  C2  UNL     1      -1.423  -0.355  -0.129  1.00  0.00     0.153 A 
HETATM    4  C1  UNL     1      -1.685   0.939   0.274  1.00  0.00     0.192 A 
HETATM    5  N1  UNL     1      -2.840   1.313  -0.316  1.00  0.00    -0.155 N 
HETATM    6  N8  UNL     1      -3.279   0.287  -1.057  1.00  0.00     0.007 NA
HETATM    7  N7  UNL     1      -2.429  -0.724  -0.950  1.00  0.00    -0.265 N 
ATOM      8  H7  UNL     1      -2.520  -1.629  -1.411  1.00  0.00     0.186 HD
BRANCH   5   9
HETATM    9  O1  UNL     1      -3.474   2.521  -0.194  1.00  0.00    -0.270 OA
ATOM     10  H1  UNL     1      -4.287   2.784  -0.609  1.00  0.00     0.246 HD
ENDBRANCH   5   9
ENDBRANCH   1   3
BRANCH   1  11
HETATM   11  N3  UNL     1       0.817  -1.247  -0.569  1.00  0.00    -0.128 N 
ATOM     12  H3  UNL     1       0.929  -2.006  -1.241  1.00  0.00     0.205 HD
BRANCH  11  13
HETATM   13  C3  UNL     1       1.849  -0.275  -0.454  1.00  0.00     0.723 A 
HETATM   14  N4  UNL     1       2.201   0.879  -1.014  1.00  0.00    -0.113 N 
HETATM   15  N5  UNL     1       3.283   0.998  -0.242  1.00  0.00     0.007 NA
ATOM     16  H4  UNL     1       1.797   1.455  -1.753  1.00  0.00     0.203 HD
HETATM   17  N6  UNL     1       2.944  -0.154   0.327  1.00  0.00    -0.113 N 
ATOM     18  H6  UNL     1       3.352  -0.725   1.067  1.00  0.00     0.203 HD
ENDBRANCH  11  13
ENDBRANCH   1  11
TORSDOF 4
