REMARK  5 active torsions:
REMARK  status: ('A' for Active; 'I' for Inactive)
REMARK    1  A    between atoms: C3_5  and  C4_6 
REMARK    2  A    between atoms: C4_6  and  N3_7 
REMARK    3  A    between atoms: C4_6  and  C5_11 
REMARK    4  A    between atoms: C5_11  and  N4_12 
REMARK    5  A    between atoms: C6_17  and  N5_18 
ROOT
HETATM    1  C1  UNL     1       3.367   0.493  -0.036  1.00  0.00     0.161 C 
HETATM    2  N1  UNL     1       2.022  -0.019  -0.015  1.00  0.00    -0.304 N 
HETATM    3  C2  UNL     1       0.892   0.605   0.312  1.00  0.00     0.153 A 
HETATM    4  N2  UNL     1       0.759   1.948   0.773  1.00  0.00    -0.080 NA
HETATM    5  C3  UNL     1      -0.172  -0.278   0.088  1.00  0.00     0.130 A 
HETATM    6  O1  UNL     1       0.333  -1.381  -0.362  1.00  0.00    -0.278 OA
HETATM    7  C6  UNL     1       1.673  -1.254  -0.429  1.00  0.00     0.225 A 
ENDROOT
BRANCH   5   8
HETATM    8  C4  UNL     1      -1.573   0.023   0.365  1.00  0.00     0.269 C 
BRANCH   8   9
HETATM    9  N3  UNL     1      -2.078  -1.297   1.010  1.00  0.00    -0.067 N 
ATOM     10  H33 UNL     1      -1.922  -2.135   0.450  1.00  0.00     0.275 HD
ATOM     11  H32 UNL     1      -1.540  -1.614   1.816  1.00  0.00     0.275 HD
ATOM     12  H31 UNL     1      -3.057  -1.087   1.204  1.00  0.00     0.275 HD
ENDBRANCH   8   9
BRANCH   8  13
HETATM   13  C5  UNL     1      -2.407   0.089  -0.914  1.00  0.00     0.269 C 
BRANCH  13  14
HETATM   14  N4  UNL     1      -3.805   0.371  -0.617  1.00  0.00    -0.077 N 
ATOM     15  H43 UNL     1      -4.190  -0.300   0.048  1.00  0.00     0.274 HD
ATOM     16  H42 UNL     1      -3.906   1.219  -0.059  1.00  0.00     0.274 HD
ATOM     17  H41 UNL     1      -4.362   0.415  -1.471  1.00  0.00     0.274 HD
ENDBRANCH  13  14
ENDBRANCH   8  13
ENDBRANCH   5   8
BRANCH   7  18
HETATM   18  N5  UNL     1       2.379  -2.216  -0.838  1.00  0.00    -0.365 N 
ATOM     19  H52 UNL     1       3.393  -2.120  -0.889  1.00  0.00     0.159 HD
ATOM     20  H51 UNL     1       2.115  -3.150  -1.151  1.00  0.00     0.159 HD
ENDBRANCH   7  18
TORSDOF 5
