REMARK  6 active torsions:
REMARK  status: ('A' for Active; 'I' for Inactive)
REMARK    1  A    between atoms: N1_2  and  C2_3 
REMARK    2  A    between atoms: N1_2  and  C4_14 
REMARK    3  A    between atoms: C3_6  and  N3_7 
REMARK    4  A    between atoms: C4_14  and  N6_15 
REMARK    5  A    between atoms: C4_14  and  C5_19 
REMARK    6  A    between atoms: C5_19  and  N7_20 
ROOT
HETATM    1  C1  UNL     1      -0.754   0.023   1.782  1.00  0.00     0.171 C 
HETATM    2  N1  UNL     1      -0.309   0.229   0.426  1.00  0.00    -0.189 N 
ENDROOT
BRANCH   2   3
HETATM    3  C2  UNL     1       1.094   0.131   0.161  1.00  0.00     0.711 A 
HETATM    4  N2  UNL     1       1.706   0.292  -1.041  1.00  0.00    -0.020 N 
HETATM    5  C3  UNL     1       3.025   0.117  -0.846  1.00  0.00     0.705 A 
ATOM      6  H2  UNL     1       1.249   0.506  -1.928  1.00  0.00     0.203 HD
HETATM    7  N4  UNL     1       3.255  -0.149   0.453  1.00  0.00    -0.118 N 
HETATM    8  N5  UNL     1       2.071  -0.134   1.038  1.00  0.00    -0.117 N 
ATOM      9  H4  UNL     1       4.157  -0.326   0.895  1.00  0.00     0.206 HD
ATOM     10  H5  UNL     1       1.920  -0.303   2.032  1.00  0.00     0.206 HD
BRANCH   5  11
HETATM   11  N3  UNL     1       3.884   0.206  -1.802  1.00  0.00    -0.233 N 
ATOM     12  H32 UNL     1       3.710   0.408  -2.787  1.00  0.00     0.174 HD
ATOM     13  H31 UNL     1       4.884   0.073  -1.654  1.00  0.00     0.174 HD
ENDBRANCH   5  11
ENDBRANCH   2   3
BRANCH   2  14
HETATM   14  C4  UNL     1      -1.267   0.519  -0.596  1.00  0.00     0.324 C 
BRANCH  14  15
HETATM   15  N6  UNL     1      -0.675   0.903  -1.849  1.00  0.00    -0.056 N 
ATOM     16  H63 UNL     1      -0.037   1.688  -1.720  1.00  0.00     0.276 HD
ATOM     17  H62 UNL     1      -0.013   0.195  -2.166  1.00  0.00     0.276 HD
ATOM     18  H61 UNL     1      -1.358   1.110  -2.578  1.00  0.00     0.276 HD
ENDBRANCH  14  15
BRANCH  14  19
HETATM   19  C5  UNL     1      -2.235  -0.622  -0.742  1.00  0.00     0.284 C 
BRANCH  19  20
HETATM   20  N7  UNL     1      -2.990  -0.925   0.432  1.00  0.00    -0.076 N 
ATOM     21  H73 UNL     1      -2.364  -1.092   1.220  1.00  0.00     0.274 HD
ATOM     22  H72 UNL     1      -3.475  -0.091   0.764  1.00  0.00     0.274 HD
ATOM     23  H71 UNL     1      -3.647  -1.699   0.333  1.00  0.00     0.274 HD
ENDBRANCH  19  20
ENDBRANCH  14  19
ENDBRANCH   2  14
TORSDOF 6
