REMARK  12 active torsions:
REMARK  status: ('A' for Active; 'I' for Inactive)
REMARK    1  A    between atoms: C2_2  and  C3_3 
REMARK    2  A    between atoms: C2_2  and  N7_24 
REMARK    3  A    between atoms: C3_3  and  N1_4 
REMARK    4  A    between atoms: C4_11  and  C5_12 
REMARK    5  A    between atoms: C5_12  and  N5_13 
REMARK    6  A    between atoms: N5_13  and  C6_16 
REMARK    7  A    between atoms: C6_16  and  O1_17 
REMARK    8  A    between atoms: C6_16  and  C7_19 
REMARK    9  A    between atoms: C7_19  and  N6_20 
REMARK   10  A    between atoms: N7_24  and  C8_26 
REMARK   11  A    between atoms: C10_30  and  N9_31 
REMARK   12  A    between atoms: C11_36  and  N11_37 
ROOT
HETATM    1  N1  UNL     1      -0.681   2.500  -0.326  1.00  0.00    -0.260 N 
HETATM    2  N2  UNL     1      -0.390   3.600  -1.036  1.00  0.00    -0.225 N 
ATOM      3  H2  UNL     1       0.512   4.076  -1.029  1.00  0.00     0.210 HD
HETATM    4  N3  UNL     1      -1.431   3.976  -1.741  1.00  0.00    -0.227 N 
ATOM      5  H3  UNL     1      -1.491   4.778  -2.369  1.00  0.00     0.210 HD
HETATM    6  N4  UNL     1      -2.375   3.114  -1.475  1.00  0.00    -0.271 N 
ATOM      7  H4  UNL     1      -3.312   3.143  -1.877  1.00  0.00     0.190 HD
HETATM    8  C4  UNL     1      -1.944   2.169  -0.588  1.00  0.00     0.141 A 
ENDROOT
BRANCH   1   9
HETATM    9  C3  UNL     1       0.270   1.866   0.511  1.00  0.00     0.176 C 
BRANCH   9  10
HETATM   10  C2  UNL     1       1.210   0.896  -0.148  1.00  0.00     0.098 C 
HETATM   11  C1  UNL     1       0.440  -0.231  -0.783  1.00  0.00     0.034 C 
BRANCH  10  12
HETATM   12  N7  UNL     1       2.167   0.438   0.833  1.00  0.00    -0.380 N 
ATOM     13  H7  UNL     1       1.962   0.652   1.809  1.00  0.00     0.160 HD
BRANCH  12  14
HETATM   14  C8  UNL     1       3.349  -0.271   0.579  1.00  0.00     0.089 A 
HETATM   15  C9  UNL     1       3.805  -0.543  -0.691  1.00  0.00     0.139 A 
HETATM   16  N8  UNL     1       4.952  -1.211  -0.934  1.00  0.00    -0.200 N 
HETATM   17  C10 UNL     1       5.688  -1.631   0.100  1.00  0.00     0.677 A 
ATOM     18  H8  UNL     1       5.253  -1.393  -1.892  1.00  0.00     0.183 HD
HETATM   19  N10 UNL     1       5.262  -1.377   1.332  1.00  0.00    -0.175 N 
HETATM   20  C11 UNL     1       4.135  -0.721   1.634  1.00  0.00     0.142 A 
ATOM     21  H10 UNL     1       5.837  -1.707   2.107  1.00  0.00     0.186 HD
BRANCH  17  22
HETATM   22  N9  UNL     1       6.793  -2.273  -0.118  1.00  0.00    -0.234 N 
ATOM     23  H92 UNL     1       7.120  -2.468  -1.064  1.00  0.00     0.174 HD
ATOM     24  H91 UNL     1       7.355  -2.593   0.671  1.00  0.00     0.174 HD
ENDBRANCH  17  22
BRANCH  20  25
HETATM   25  N11 UNL     1       3.766  -0.500   2.872  1.00  0.00    -0.383 N 
ATOM     26 2H11 UNL     1       2.907  -0.000   3.102  1.00  0.00     0.157 HD
ATOM     27 1H11 UNL     1       4.343  -0.830   3.646  1.00  0.00     0.157 HD
ENDBRANCH  20  25
ENDBRANCH  12  14
ENDBRANCH  10  12
ENDBRANCH   9  10
ENDBRANCH   1   9
BRANCH   8  28
HETATM   28  C5  UNL     1      -2.775   1.051  -0.055  1.00  0.00     0.314 C 
BRANCH  28  29
HETATM   29  N5  UNL     1      -3.298   0.213  -1.092  1.00  0.00    -0.041 N 
ATOM     30  H52 UNL     1      -3.823   0.747  -1.785  1.00  0.00     0.280 HD
ATOM     31  H51 UNL     1      -2.562  -0.142  -1.702  1.00  0.00     0.280 HD
BRANCH  29  32
HETATM   32  C6  UNL     1      -4.084  -0.849  -0.523  1.00  0.00     0.344 C 
BRANCH  32  33
HETATM   33  O1  UNL     1      -3.376  -1.670   0.350  1.00  0.00    -0.368 OA
ATOM     34  H1  UNL     1      -3.895  -2.371   0.726  1.00  0.00     0.212 HD
ENDBRANCH  32  33
BRANCH  32  35
HETATM   35  C7  UNL     1      -5.270  -0.306   0.211  1.00  0.00     0.290 C 
BRANCH  35  36
HETATM   36  N6  UNL     1      -6.141  -1.391   0.669  1.00  0.00    -0.075 N 
ATOM     37  H63 UNL     1      -6.420  -2.001  -0.100  1.00  0.00     0.274 HD
ATOM     38  H62 UNL     1      -5.631  -2.073   1.230  1.00  0.00     0.274 HD
ATOM     39  H61 UNL     1      -6.949  -1.021   1.169  1.00  0.00     0.274 HD
ENDBRANCH  35  36
ENDBRANCH  32  35
ENDBRANCH  29  32
ENDBRANCH  28  29
ENDBRANCH   8  28
TORSDOF 12
