REMARK  11 active torsions:
REMARK  status: ('A' for Active; 'I' for Inactive)
REMARK    1  A    between atoms: C2_2  and  O1_3 
REMARK    2  A    between atoms: C2_2  and  N1_5 
REMARK    3  A    between atoms: N1_5  and  C3_7 
REMARK    4  A    between atoms: N6_21  and  C8_22 
REMARK    5  A    between atoms: C8_22  and  O2_23 
REMARK    6  A    between atoms: O2_23  and  C9_24 
REMARK    7  A    between atoms: C9_24  and  O3_25 
REMARK    8  A    between atoms: O3_25  and  C10_26 
REMARK    9  A    between atoms: C10_26  and  N7_28 
REMARK   10  A    between atoms: C10_26  and  N8_32 
REMARK   11  A    between atoms: N8_32  and  N9_33 
ROOT
HETATM    1  C3  UNL     1       3.456  -0.471  -0.124  1.00  0.00     0.149 A 
HETATM    2  N2  UNL     1       3.436  -1.293   0.911  1.00  0.00    -0.175 N 
ATOM      3  H2  UNL     1       4.303  -1.445   1.426  1.00  0.00     0.186 HD
HETATM    4  C4  UNL     1       2.317  -1.947   1.324  1.00  0.00     0.679 A 
HETATM    5  N3  UNL     1       2.418  -2.733   2.359  1.00  0.00    -0.234 N 
ATOM      6  H31 UNL     1       1.579  -3.223   2.669  1.00  0.00     0.174 HD
ATOM      7  H32 UNL     1       3.303  -2.859   2.850  1.00  0.00     0.174 HD
HETATM    8  N4  UNL     1       1.152  -1.781   0.678  1.00  0.00    -0.174 N 
ATOM      9  H4  UNL     1       0.312  -2.271   0.986  1.00  0.00     0.186 HD
HETATM   10  C5  UNL     1       1.116  -0.956  -0.383  1.00  0.00     0.160 A 
HETATM   11  C6  UNL     1       2.242  -0.293  -0.804  1.00  0.00     0.123 A 
HETATM   12  N5  UNL     1       1.868   0.431  -1.862  1.00  0.00    -0.346 N 
ATOM     13  H5  UNL     1       2.478   1.040  -2.407  1.00  0.00     0.167 HD
HETATM   14  C7  UNL     1       0.562   0.229  -2.093  1.00  0.00     0.192 A 
HETATM   15  N6  UNL     1       0.064  -0.631  -1.188  1.00  0.00    -0.282 N 
ENDROOT
BRANCH  15  16
HETATM   16  C8  UNL     1      -1.269  -1.136  -1.048  1.00  0.00     0.238 C 
BRANCH  16  17
HETATM   17  O2  UNL     1      -2.092  -0.400  -0.238  1.00  0.00    -0.321 OA
BRANCH  17  18
HETATM   18  C9  UNL     1      -2.275   0.914  -0.666  1.00  0.00     0.350 C 
BRANCH  18  19
HETATM   19  O3  UNL     1      -3.117   1.619   0.184  1.00  0.00    -0.316 OA
BRANCH  19  20
HETATM   20  C10 UNL     1      -4.382   1.061   0.284  1.00  0.00     0.314 C 
HETATM   21  C11 UNL     1      -5.103   0.991  -1.024  1.00  0.00     0.101 C 
BRANCH  20  22
HETATM   22  N7  UNL     1      -4.341  -0.254   0.921  1.00  0.00    -0.030 N 
ATOM     23  H73 UNL     1      -3.694  -0.880   0.441  1.00  0.00     0.279 HD
ATOM     24  H72 UNL     1      -3.879  -0.214   1.829  1.00  0.00     0.279 HD
ATOM     25  H71 UNL     1      -5.272  -0.665   0.995  1.00  0.00     0.279 HD
ENDBRANCH  20  22
BRANCH  20  26
HETATM   26  N8  UNL     1      -5.151   1.916   1.171  1.00  0.00    -0.081 NA
BRANCH  26  27
HETATM   27  N9  UNL     1      -6.452   1.464   1.357  1.00  0.00    -0.344 N 
ATOM     28  H92 UNL     1      -6.813   0.620   0.911  1.00  0.00     0.172 HD
ATOM     29  H91 UNL     1      -6.992   2.064   1.980  1.00  0.00     0.172 HD
ENDBRANCH  26  27
ENDBRANCH  20  26
ENDBRANCH  19  20
ENDBRANCH  18  19
ENDBRANCH  17  18
ENDBRANCH  16  17
ENDBRANCH  15  16
BRANCH   1  30
HETATM   30  N1  UNL     1       4.558   0.240  -0.626  1.00  0.00    -0.348 N 
ATOM     31  H1  UNL     1       4.442   0.836  -1.446  1.00  0.00     0.163 HD
BRANCH  30  32
HETATM   32  C2  UNL     1       5.852   0.139   0.002  1.00  0.00     0.215 C 
HETATM   33  C1  UNL     1       5.799   0.684   1.405  1.00  0.00     0.063 C 
BRANCH  32  34
HETATM   34  O1  UNL     1       6.295  -1.189   0.053  1.00  0.00    -0.377 OA
ATOM     35  H1  UNL     1       6.328  -1.533  -0.832  1.00  0.00     0.212 HD
ENDBRANCH  32  34
ENDBRANCH  30  32
ENDBRANCH   1  30
TORSDOF 11
