REMARK  12 active torsions:
REMARK  status: ('A' for Active; 'I' for Inactive)
REMARK    1  A    between atoms: C2_2  and  C3_3 
REMARK    2  A    between atoms: C3_3  and  N1_4 
REMARK    3  A    between atoms: N1_4  and  C4_7 
REMARK    4  A    between atoms: C4_7  and  C5_8 
REMARK    5  A    between atoms: C6_9  and  C7_10 
REMARK    6  A    between atoms: C7_10  and  N2_11 
REMARK    7  A    between atoms: C7_10  and  C8_15 
REMARK    8  A    between atoms: C8_15  and  N3_16 
REMARK    9  A    between atoms: C8_15  and  O1_20 
REMARK   10  A    between atoms: C9_24  and  N5_25 
REMARK   11  A    between atoms: C12_30  and  O2_31 
REMARK   12  A    between atoms: C13_35  and  N8_36 
ROOT
HETATM    1  C5  UNL     1       0.342  -0.654  -0.044  1.00  0.00     0.037 A 
HETATM    2  C6  UNL     1      -0.304   0.506  -0.489  1.00  0.00     0.073 A 
HETATM    3  N4  UNL     1      -1.639   0.583  -0.419  1.00  0.00    -0.192 N 
ATOM      4  H4  UNL     1      -2.102   1.431  -0.745  1.00  0.00     0.184 HD
HETATM    5  C9  UNL     1      -2.391  -0.425   0.069  1.00  0.00     0.689 A 
HETATM    6  N7  UNL     1      -1.768  -1.506   0.481  1.00  0.00    -0.176 N 
ATOM      7  H7  UNL     1      -2.348  -2.261   0.847  1.00  0.00     0.186 HD
HETATM    8  C13 UNL     1      -0.405  -1.719   0.467  1.00  0.00     0.124 A 
ENDROOT
BRANCH   2   9
HETATM    9  C7  UNL     1       0.469   1.661  -1.031  1.00  0.00     0.289 C 
BRANCH   9  10
HETATM   10  N2  UNL     1       1.079   1.288  -2.287  1.00  0.00    -0.065 N 
ATOM     11  H23 UNL     1       1.651   0.448  -2.203  1.00  0.00     0.275 HD
ATOM     12  H22 UNL     1       0.396   0.934  -2.957  1.00  0.00     0.275 HD
ATOM     13  H21 UNL     1       1.608   2.078  -2.658  1.00  0.00     0.275 HD
ENDBRANCH   9  10
BRANCH   9  14
HETATM   14  C8  UNL     1      -0.486   2.817  -1.320  1.00  0.00     0.352 C 
BRANCH  14  15
HETATM   15  N3  UNL     1       0.231   3.960  -1.843  1.00  0.00    -0.051 N 
ATOM     16  H33 UNL     1       0.990   4.244  -1.224  1.00  0.00     0.277 HD
ATOM     17  H32 UNL     1       0.785   3.714  -2.664  1.00  0.00     0.277 HD
ATOM     18  H31 UNL     1      -0.407   4.732  -2.036  1.00  0.00     0.277 HD
ENDBRANCH  14  15
BRANCH  14  19
HETATM   19  O1  UNL     1      -1.143   3.259  -0.175  1.00  0.00    -0.368 OA
ATOM     20  H1  UNL     1      -1.737   3.978  -0.355  1.00  0.00     0.212 HD
ENDBRANCH  14  19
ENDBRANCH   9  14
ENDBRANCH   2   9
BRANCH   1  21
HETATM   21  C4  UNL     1       1.794  -0.753  -0.151  1.00  0.00     0.276 C 
BRANCH  21  22
HETATM   22  N1  UNL     1       2.355  -1.944   0.403  1.00  0.00    -0.071 N 
ATOM     23  H12 UNL     1       1.866  -2.781   0.084  1.00  0.00     0.277 HD
ATOM     24  H11 UNL     1       2.161  -2.029   1.401  1.00  0.00     0.277 HD
BRANCH  22  25
HETATM   25  C3  UNL     1       3.799  -2.004   0.114  1.00  0.00     0.232 C 
BRANCH  25  26
HETATM   26  C2  UNL     1       4.519  -0.940   0.877  1.00  0.00     0.023 C 
HETATM   27  C1  UNL     1       6.003  -1.075   0.524  1.00  0.00     0.007 C 
ENDBRANCH  25  26
ENDBRANCH  22  25
ENDBRANCH  21  22
ENDBRANCH   1  21
BRANCH   8  28
HETATM   28  N8  UNL     1       0.096  -2.749   0.850  1.00  0.00    -0.385 N 
ATOM     29  H82 UNL     1       1.104  -2.906   0.840  1.00  0.00     0.157 HD
ATOM     30  H81 UNL     1      -0.449  -3.526   1.223  1.00  0.00     0.157 HD
ENDBRANCH   8  28
BRANCH   5  31
HETATM   31  N5  UNL     1      -3.815  -0.262   0.112  1.00  0.00    -0.151 N 
HETATM   32  C10 UNL     1      -4.752  -0.581  -0.908  1.00  0.00     0.199 C 
HETATM   33  N6  UNL     1      -5.939  -0.658  -0.408  1.00  0.00    -0.381 N 
HETATM   34  C11 UNL     1      -5.923  -0.397   1.011  1.00  0.00     0.175 C 
ATOM     35  H6  UNL     1      -6.778  -0.875  -0.945  1.00  0.00     0.160 HD
HETATM   36  C12 UNL     1      -4.584   0.269   1.213  1.00  0.00     0.261 C 
BRANCH  36  37
HETATM   37  O2  UNL     1      -4.042  -0.043   2.459  1.00  0.00    -0.374 OA
ATOM     38  H2  UNL     1      -4.548   0.306   3.183  1.00  0.00     0.212 HD
ENDBRANCH  36  37
ENDBRANCH   5  31
TORSDOF 12
