REMARK  4 active torsions:
REMARK  status: ('A' for Active; 'I' for Inactive)
REMARK    1  A    between atoms: N1_1  and  C1_4 
REMARK    2  A    between atoms: C2_8  and  C3_9 
REMARK    3  A    between atoms: C7_16  and  C8_17 
REMARK       I    between atoms: C8_17  and  N4_19 
REMARK    4  A    between atoms: N4_19  and  N5_21 
ROOT
HETATM    1  C1  UNL     1       0.926  -1.555  -1.588  1.00  0.00     0.196 A 
HETATM    2  O1  UNL     1       2.116  -1.918  -2.057  1.00  0.00    -0.216 OA
HETATM    3  N2  UNL     1       3.233  -1.607  -1.473  1.00  0.00    -0.242 N 
ATOM      4  H2  UNL     1       4.121  -1.910  -1.874  1.00  0.00     0.196 HD
HETATM    5  C2  UNL     1       3.217  -0.885  -0.339  1.00  0.00     0.138 A 
HETATM    6  N3  UNL     1       2.028  -0.512   0.145  1.00  0.00    -0.332 N 
ATOM      7  H3  UNL     1       2.006   0.036   1.005  1.00  0.00     0.168 HD
HETATM    8  C7  UNL     1       0.837  -0.828  -0.454  1.00  0.00     0.157 A 
ENDROOT
BRANCH   8   9
HETATM    9  C8  UNL     1      -0.370  -0.348   0.182  1.00  0.00     0.291 C 
HETATM   10  O3  UNL     1      -0.223   0.281   1.303  1.00  0.00    -0.264 OA
HETATM   11  N4  UNL     1      -1.689  -0.463  -0.242  1.00  0.00    -0.263 N 
ATOM     12  H4  UNL     1      -1.919  -0.939  -1.114  1.00  0.00     0.190 HD
BRANCH  11  13
HETATM   13  N5  UNL     1      -2.705   0.098   0.569  1.00  0.00    -0.300 N 
HETATM   14  C9  UNL     1      -2.540   1.482   0.779  1.00  0.00     0.109 C 
HETATM   15  C10 UNL     1      -3.712   2.336   0.495  1.00  0.00     0.213 C 
HETATM   16  O4  UNL     1      -4.877   1.733   0.123  1.00  0.00    -0.384 OA
HETATM   17  C11 UNL     1      -4.655   0.623  -0.687  1.00  0.00     0.189 C 
HETATM   18  C12 UNL     1      -3.994  -0.399   0.251  1.00  0.00     0.174 C 
ENDBRANCH  11  13
ENDBRANCH   8   9
BRANCH   1  19
HETATM   19  N1  UNL     1      -0.118  -1.910  -2.235  1.00  0.00    -0.376 N 
ATOM     20  H12 UNL     1      -0.051  -2.459  -3.092  1.00  0.00     0.158 HD
ATOM     21  H11 UNL     1      -1.031  -1.632  -1.875  1.00  0.00     0.158 HD
ENDBRANCH   1  19
BRANCH   5  22
HETATM   22  C3  UNL     1       4.482  -0.532   0.321  1.00  0.00     0.034 A 
HETATM   23  C4  UNL     1       4.676   0.188   1.468  1.00  0.00     0.041 A 
HETATM   24  C5  UNL     1       6.027   0.245   1.668  1.00  0.00     0.142 A 
HETATM   25  O2  UNL     1       6.611  -0.405   0.696  1.00  0.00    -0.334 OA
HETATM   26  C6  UNL     1       5.735  -0.886  -0.132  1.00  0.00     0.156 A 
ENDBRANCH   5  22
TORSDOF 4
