REMARK  8 active torsions:
REMARK  status: ('A' for Active; 'I' for Inactive)
REMARK    1  A    between atoms: N1_2  and  N2_3 
REMARK    2  A    between atoms: N1_2  and  C8_23 
REMARK    3  A    between atoms: N2_3  and  N3_5 
REMARK    4  A    between atoms: N3_5  and  C2_7 
REMARK    5  A    between atoms: C5_10  and  N4_11 
REMARK    6  A    between atoms: C6_14  and  N5_15 
REMARK    7  A    between atoms: N5_15  and  N6_16 
REMARK    8  A    between atoms: N5_15  and  N7_19 
ROOT
HETATM    1  C2  UNL     1       0.953  -0.165  -0.404  1.00  0.00     0.051 A 
HETATM    2  C3  UNL     1       0.975   1.092  -0.957  1.00  0.00     0.033 A 
HETATM    3  C4  UNL     1       2.140   1.789  -0.959  1.00  0.00     0.041 A 
HETATM    4  C5  UNL     1       3.322   1.235  -0.399  1.00  0.00     0.133 A 
HETATM    5  C6  UNL     1       3.321  -0.015   0.151  1.00  0.00     0.108 A 
HETATM    6  C7  UNL     1       2.088  -0.709   0.135  1.00  0.00     0.066 A 
ENDROOT
BRANCH   1   7
HETATM    7  N3  UNL     1      -0.281  -0.890  -0.391  1.00  0.00    -0.286 N 
ATOM      8  H3  UNL     1      -0.349  -1.845  -0.744  1.00  0.00     0.188 HD
BRANCH   7   9
HETATM    9  N2  UNL     1      -1.302  -0.267   0.092  1.00  0.00    -0.238 N 
ATOM     10  H2  UNL     1      -1.182   0.687   0.431  1.00  0.00     0.208 HD
BRANCH   9  11
HETATM   11  N1  UNL     1      -2.547  -0.846   0.165  1.00  0.00    -0.253 N 
HETATM   12  C1  UNL     1      -2.686  -2.287   0.175  1.00  0.00     0.182 C 
BRANCH  11  13
HETATM   13  C8  UNL     1      -3.742  -0.073   0.242  1.00  0.00     0.193 C 
HETATM   14  N8  UNL     1      -4.058   0.835   1.092  1.00  0.00    -0.359 N 
HETATM   15  C9  UNL     1      -5.375   1.395   0.835  1.00  0.00     0.142 C 
ATOM     16  H8  UNL     1      -3.455   1.130   1.860  1.00  0.00     0.162 HD
HETATM   17  C10 UNL     1      -5.724   0.873  -0.561  1.00  0.00     0.142 C 
HETATM   18  N9  UNL     1      -4.797  -0.237  -0.702  1.00  0.00    -0.359 N 
ATOM     19  H9  UNL     1      -4.886  -1.006  -1.366  1.00  0.00     0.162 HD
ENDBRANCH  11  13
ENDBRANCH   9  11
ENDBRANCH   7   9
ENDBRANCH   1   7
BRANCH   5  20
HETATM   20  N5  UNL     1       4.458  -0.672   0.639  1.00  0.00    -0.207 N 
BRANCH  20  21
HETATM   21  N6  UNL     1       4.224  -1.909   1.350  1.00  0.00    -0.324 N 
ATOM     22  H62 UNL     1       3.251  -2.190   1.470  1.00  0.00     0.178 HD
ATOM     23  H61 UNL     1       5.052  -2.387   1.705  1.00  0.00     0.178 HD
ENDBRANCH  20  21
BRANCH  20  24
HETATM   24  N7  UNL     1       5.764  -0.295   0.478  1.00  0.00    -0.324 N 
ATOM     25  H72 UNL     1       5.929   0.578  -0.024  1.00  0.00     0.178 HD
ATOM     26  H71 UNL     1       6.592  -0.773   0.833  1.00  0.00     0.178 HD
ENDBRANCH  20  24
ENDBRANCH   5  20
BRANCH   4  27
HETATM   27  N4  UNL     1       4.435   2.086  -0.460  1.00  0.00    -0.113 N 
HETATM   28  O1  UNL     1       5.261   2.243   0.412  1.00  0.00    -0.532 OA
HETATM   29  O2  UNL     1       4.571   2.909  -1.583  1.00  0.00    -0.532 OA
ENDBRANCH   4  27
TORSDOF 8
