REMARK  5 active torsions:
REMARK  status: ('A' for Active; 'I' for Inactive)
REMARK    1  A    between atoms: N1_2  and  C2_3 
REMARK    2  A    between atoms: N1_2  and  C8_16 
REMARK    3  A    between atoms: C2_3  and  C3_4 
REMARK    4  A    between atoms: C4_7  and  C5_8 
REMARK    5  A    between atoms: C5_8  and  O1_11 
ROOT
HETATM    1  C3  UNL     1       0.777   0.304  -0.888  1.00  0.00     0.187 A 
HETATM    2  N2  UNL     1       1.700  -0.269  -0.103  1.00  0.00    -0.320 N 
ATOM      3  H2  UNL     1       1.602  -1.183   0.340  1.00  0.00     0.169 HD
HETATM    4  C4  UNL     1       2.771   0.530   0.017  1.00  0.00     0.138 A 
HETATM    5  N3  UNL     1       2.482   1.616  -0.721  1.00  0.00    -0.244 N 
ATOM      6  H3  UNL     1       3.093   2.424  -0.843  1.00  0.00     0.196 HD
HETATM    7  O2  UNL     1       1.295   1.478  -1.259  1.00  0.00    -0.217 OA
ENDROOT
BRANCH   1   8
HETATM    8  C2  UNL     1      -0.562  -0.144  -1.331  1.00  0.00     0.144 C 
BRANCH   8   9
HETATM    9  N1  UNL     1      -1.374  -0.698  -0.336  1.00  0.00    -0.386 N 
HETATM   10  C1  UNL     1      -0.919  -1.903   0.206  1.00  0.00     0.149 C 
BRANCH   9  11
HETATM   11  C8  UNL     1      -2.766  -0.445  -0.410  1.00  0.00     0.086 C 
HETATM   12  C9  UNL     1      -2.985   1.049  -0.621  1.00  0.00     0.028 C 
HETATM   13  C10 UNL     1      -4.118   1.477   0.238  1.00  0.00     0.039 C 
HETATM   14  C11 UNL     1      -4.614   0.224   0.950  1.00  0.00     0.172 C 
HETATM   15  F1  UNL     1      -5.715  -0.295   0.329  1.00  0.00    -0.249 F 
HETATM   16  C12 UNL     1      -3.469  -0.733   0.897  1.00  0.00     0.062 C 
ENDBRANCH   9  11
ENDBRANCH   8   9
ENDBRANCH   1   8
BRANCH   4  17
HETATM   17  C5  UNL     1       4.021   0.333   0.777  1.00  0.00     0.110 C 
HETATM   18  C6  UNL     1       5.243   0.401  -0.113  1.00  0.00     0.054 C 
HETATM   19  C7  UNL     1       4.014  -0.969   1.539  1.00  0.00     0.054 C 
BRANCH  17  20
HETATM   20  O1  UNL     1       4.177   1.351   1.749  1.00  0.00    -0.383 OA
ATOM     21  H1  UNL     1       4.981   1.224   2.238  1.00  0.00     0.211 HD
ENDBRANCH  17  20
ENDBRANCH   4  17
TORSDOF 5
