REMARK  7 active torsions:
REMARK  status: ('A' for Active; 'I' for Inactive)
REMARK    1  A    between atoms: C2_2  and  C3_3 
REMARK    2  A    between atoms: C3_3  and  N1_4 
REMARK    3  A    between atoms: N1_4  and  C4_5 
REMARK    4  A    between atoms: N1_4  and  C6_8 
REMARK    5  A    between atoms: C4_5  and  C5_6 
REMARK    6  A    between atoms: C6_8  and  C7_12 
REMARK    7  A    between atoms: N5_17  and  C8_18 
ROOT
HETATM    1  C7  UNL     1       0.320  -0.222  -0.081  1.00  0.00     0.181 A 
HETATM    2  N3  UNL     1       0.462   0.852  -0.858  1.00  0.00    -0.265 N 
ATOM      3  H3  UNL     1      -0.294   1.341  -1.337  1.00  0.00     0.190 HD
HETATM    4  N4  UNL     1       1.756   1.185  -0.908  1.00  0.00    -0.224 N 
ATOM      5  H4  UNL     1       2.143   1.970  -1.432  1.00  0.00     0.210 HD
HETATM    6  N5  UNL     1       2.452   0.343  -0.177  1.00  0.00    -0.209 N 
HETATM    7  N6  UNL     1       1.581  -0.512   0.326  1.00  0.00    -0.263 N 
ATOM      8  H6  UNL     1       1.824  -1.289   0.940  1.00  0.00     0.190 HD
ENDROOT
BRANCH   1   9
HETATM    9  C6  UNL     1      -0.855  -0.985   0.317  1.00  0.00     0.144 C 
HETATM   10  N2  UNL     1      -0.700  -2.027   1.112  1.00  0.00    -0.382 N 
ATOM     11  H22 UNL     1      -1.523  -2.561   1.391  1.00  0.00     0.157 HD
ATOM     12  H21 UNL     1       0.264  -2.218   1.386  1.00  0.00     0.157 HD
BRANCH   9  13
HETATM   13  N1  UNL     1      -2.175  -0.723  -0.058  1.00  0.00    -0.362 N 
BRANCH  13  14
HETATM   14  C3  UNL     1      -2.919   0.369   0.507  1.00  0.00     0.124 C 
BRANCH  14  15
HETATM   15  C2  UNL     1      -3.247   1.408  -0.536  1.00  0.00     0.015 C 
HETATM   16  C1  UNL     1      -4.040   2.512   0.163  1.00  0.00     0.006 C 
ENDBRANCH  14  15
ENDBRANCH  13  14
BRANCH  13  17
HETATM   17  C4  UNL     1      -2.836  -1.584  -1.014  1.00  0.00     0.156 C 
BRANCH  17  18
HETATM   18  C5  UNL     1      -3.917  -2.386  -0.295  1.00  0.00     0.241 C 
HETATM   19  F1  UNL     1      -4.553  -3.210  -1.196  1.00  0.00    -0.254 F 
ENDBRANCH  17  18
ENDBRANCH  13  17
ENDBRANCH   9  13
ENDBRANCH   1   9
BRANCH   6  20
HETATM   20  C8  UNL     1       3.902   0.303   0.078  1.00  0.00     0.061 C 
HETATM   21  C9  UNL     1       4.599   1.438  -0.589  1.00  0.00     0.041 C 
HETATM   22  C10 UNL     1       4.365  -1.048  -0.437  1.00  0.00     0.041 C 
HETATM   23  C11 UNL     1       4.127   0.338   1.591  1.00  0.00     0.041 C 
ENDBRANCH   6  20
TORSDOF 7
