REMARK  6 active torsions:
REMARK  status: ('A' for Active; 'I' for Inactive)
REMARK    1  A    between atoms: C2_2  and  C3_4 
REMARK    2  A    between atoms: C3_4  and  S1_5 
REMARK    3  A    between atoms: S1_5  and  C4_6 
REMARK    4  A    between atoms: C4_6  and  C5_8 
REMARK    5  A    between atoms: C7_10  and  O2_11 
REMARK    6  A    between atoms: C7_10  and  C8_13 
ROOT
HETATM    1  C5  UNL     1      -0.709  -0.231   0.601  1.00  0.00     0.083 C 
HETATM    2  C6  UNL     1      -1.584   0.655  -0.253  1.00  0.00     0.074 C 
HETATM    3  C7  UNL     1      -2.904   0.258   0.399  1.00  0.00     0.160 C 
HETATM    4  S2  UNL     1      -2.063  -0.639   1.710  1.00  0.00    -0.117 SA
ENDROOT
BRANCH   1   5
HETATM    5  C4  UNL     1      -0.183  -1.395  -0.236  1.00  0.00     0.157 C 
HETATM    6 CL1  UNL     1       0.734  -2.534   0.752  1.00  0.00    -0.112 Cl
BRANCH   5   7
HETATM    7  S1  UNL     1       0.756  -0.654  -1.575  1.00  0.00    -0.140 SA
BRANCH   7   8
HETATM    8  C3  UNL     1       2.020   0.433  -0.910  1.00  0.00     0.153 C 
BRANCH   8   9
HETATM    9  C2  UNL     1       3.150  -0.269  -0.279  1.00  0.00     0.132 C 
HETATM   10  C1  UNL     1       4.183   0.562   0.411  1.00  0.00     0.091 C 
HETATM   11  O1  UNL     1       3.311  -1.461  -0.274  1.00  0.00    -0.298 OA
ENDBRANCH   8   9
ENDBRANCH   7   8
ENDBRANCH   5   7
ENDBRANCH   1   5
BRANCH   3  12
HETATM   12  O2  UNL     1      -3.558   1.430   0.816  1.00  0.00    -0.373 OA
ATOM     13  H2  UNL     1      -4.380   1.183   1.222  1.00  0.00     0.212 HD
ENDBRANCH   3  12
BRANCH   3  14
HETATM   14  C8  UNL     1      -3.772  -0.614  -0.421  1.00  0.00     0.280 C 
HETATM   15  O3  UNL     1      -4.916  -0.302  -0.684  1.00  0.00    -0.303 OA
ENDBRANCH   3  14
TORSDOF 6
