REMARK  3 active torsions:
REMARK  status: ('A' for Active; 'I' for Inactive)
REMARK    1  A    between atoms: O1_2  and  C2_3 
REMARK       I    between atoms: C2_3  and  N1_5 
REMARK    2  A    between atoms: C5_9  and  C7_11 
REMARK    3  A    between atoms: C7_11  and  O4_13 
ROOT
HETATM    1  C2  UNL     1       3.088  -0.358   0.660  1.00  0.00     0.364 C 
HETATM    2  O2  UNL     1       3.183   0.227   1.771  1.00  0.00    -0.238 OA
HETATM    3  N1  UNL     1       2.182  -1.378   0.357  1.00  0.00    -0.307 N 
ATOM      4  H1  UNL     1       2.587  -2.241  -0.005  1.00  0.00     0.170 HD
HETATM    5  C3  UNL     1       0.925  -1.364   0.476  1.00  0.00     0.026 C 
HETATM    6  C4  UNL     1       0.114  -0.231   0.976  1.00  0.00     0.075 C 
HETATM    7  C5  UNL     1      -1.018   0.074  -0.002  1.00  0.00     0.049 C 
HETATM    8  C6  UNL     1      -0.474   0.631  -1.296  1.00  0.00     0.026 C 
HETATM    9  C9  UNL     1      -1.797  -1.215  -0.233  1.00  0.00     0.023 C 
HETATM   10  C10 UNL     1      -0.866  -2.168  -0.957  1.00  0.00     0.044 C 
HETATM   11  C11 UNL     1       0.182  -2.596   0.080  1.00  0.00     0.215 C 
HETATM   12  F1  UNL     1       0.990  -3.525  -0.510  1.00  0.00    -0.243 F 
ENDROOT
BRANCH   1  13
HETATM   13  O1  UNL     1       3.966   0.061  -0.338  1.00  0.00    -0.309 OA
HETATM   14  C1  UNL     1       4.921   1.072  -0.167  1.00  0.00     0.215 C 
ENDBRANCH   1  13
BRANCH   7  15
HETATM   15  C7  UNL     1      -1.944   1.050   0.577  1.00  0.00     0.267 C 
HETATM   16  O3  UNL     1      -1.744   1.506   1.717  1.00  0.00    -0.264 OA
BRANCH  15  17
HETATM   17  O4  UNL     1      -3.043   1.472  -0.135  1.00  0.00    -0.326 OA
HETATM   18  C8  UNL     1      -3.979   2.412   0.362  1.00  0.00     0.213 C 
ENDBRANCH  15  17
ENDBRANCH   7  15
TORSDOF 3
