REMARK  3 active torsions:
REMARK  status: ('A' for Active; 'I' for Inactive)
REMARK    1  A    between atoms: C2_2  and  O2_4 
REMARK    2  A    between atoms: O2_4  and  C3_5 
REMARK    3  A    between atoms: C3_5  and  C4_7 
ROOT
HETATM    1  C4  UNL     1      -0.568   0.056   0.080  1.00  0.00     0.168 A 
HETATM    2  O4  UNL     1      -1.709   0.202   0.693  1.00  0.00    -0.308 OA
HETATM    3  C5  UNL     1      -2.719   0.135  -0.142  1.00  0.00     0.051 A 
HETATM    4  C6  UNL     1      -4.169   0.256   0.176  1.00  0.00     0.077 C 
HETATM    5  C7  UNL     1      -2.214  -0.072  -1.412  1.00  0.00     0.054 A 
HETATM    6  C8  UNL     1      -0.840  -0.118  -1.239  1.00  0.00     0.053 A 
HETATM    7 BR1  UNL     1       0.438  -0.380  -2.610  1.00  0.00    -0.048 Br
ENDROOT
BRANCH   1   8
HETATM    8  C3  UNL     1       0.733   0.083   0.743  1.00  0.00     0.326 C 
HETATM    9  O3  UNL     1       0.839   0.254   1.975  1.00  0.00    -0.256 OA
BRANCH   8  10
HETATM   10  O2  UNL     1       1.919  -0.080   0.031  1.00  0.00    -0.240 OA
BRANCH  10  11
HETATM   11  C2  UNL     1       3.140  -0.049   0.687  1.00  0.00     0.262 C 
HETATM   12  C1  UNL     1       4.376  -0.223  -0.079  1.00  0.00     0.126 C 
HETATM   13  O1  UNL     1       3.213   0.127   1.949  1.00  0.00    -0.265 OA
ENDBRANCH  10  11
ENDBRANCH   8  10
ENDBRANCH   1   8
TORSDOF 3
