REMARK  5 active torsions:
REMARK  status: ('A' for Active; 'I' for Inactive)
REMARK    1  A    between atoms: C2_2  and  O1_3 
REMARK    2  A    between atoms: O1_3  and  C3_4 
REMARK    3  A    between atoms: C3_4  and  O2_5 
REMARK    4  A    between atoms: C3_4  and  C4_7 
REMARK       I    between atoms: N1_15  and  C11_16 
REMARK    5  A    between atoms: C11_16  and  O4_18 
ROOT
HETATM    1  C4  UNL     1       0.507  -0.261  -0.673  1.00  0.00     0.151 C 
HETATM    2  C5  UNL     1       0.136  -1.588   0.001  1.00  0.00     0.046 C 
HETATM    3  C6  UNL     1      -1.314  -1.707  -0.390  1.00  0.00    -0.001 C 
HETATM    4  C7  UNL     1      -1.466  -2.415  -1.726  1.00  0.00     0.021 C 
HETATM    5  C8  UNL     1      -2.149  -2.417   0.630  1.00  0.00     0.021 C 
HETATM    6  C9  UNL     1      -1.737  -0.266  -0.533  1.00  0.00     0.052 C 
HETATM    7  C10 UNL     1      -2.952   0.080  -0.861  1.00  0.00     0.214 C 
HETATM    8  F1  UNL     1      -3.918  -0.837  -1.096  1.00  0.00    -0.217 F 
HETATM    9  N1  UNL     1      -0.568   0.559  -0.243  1.00  0.00    -0.285 N 
HETATM   10  C11 UNL     1      -0.722   1.833   0.314  1.00  0.00     0.367 C 
HETATM   11  O3  UNL     1       0.237   2.617   0.555  1.00  0.00    -0.238 OA
ENDROOT
BRANCH   1  12
HETATM   12  C3  UNL     1       1.878   0.108  -0.448  1.00  0.00     0.279 C 
BRANCH  12  13
HETATM   13  O1  UNL     1       2.460   1.141   0.208  1.00  0.00    -0.360 OA
BRANCH  13  14
HETATM   14  C2  UNL     1       3.859   1.314   0.310  1.00  0.00     0.166 C 
HETATM   15  C1  UNL     1       4.559   0.182   0.988  1.00  0.00     0.033 C 
ENDBRANCH  13  14
ENDBRANCH  12  13
BRANCH  12  16
HETATM   16  O2  UNL     1       2.739  -0.719  -0.981  1.00  0.00    -0.369 OA
ATOM     17  H2  UNL     1       2.331  -1.443  -1.441  1.00  0.00     0.212 HD
ENDBRANCH  12  16
ENDBRANCH   1  12
BRANCH  10  18
HETATM   18  O4  UNL     1      -1.987   2.343   0.654  1.00  0.00    -0.309 OA
HETATM   19  C12 UNL     1      -2.114   3.633   1.216  1.00  0.00     0.215 C 
ENDBRANCH  10  18
TORSDOF 5
