REMARK  2 active torsions:
REMARK  status: ('A' for Active; 'I' for Inactive)
REMARK    1  A    between atoms: S1_2  and  C2_3 
REMARK    2  A    between atoms: C2_3  and  C3_4 
ROOT
HETATM    1  C3  UNL     1       0.199  -1.330  -0.604  1.00  0.00     0.208 C 
HETATM    2  O1  UNL     1       0.661  -0.465  -1.626  1.00  0.00    -0.300 OA
HETATM    3  C4  UNL     1       1.472   0.536  -1.168  1.00  0.00     0.301 C 
HETATM    4  O2  UNL     1       1.386   1.776  -1.484  1.00  0.00    -0.259 OA
HETATM    5  C5  UNL     1       2.499   0.051  -0.241  1.00  0.00     0.085 C 
HETATM    6  C6  UNL     1       3.666   0.567   0.079  1.00  0.00     0.080 C 
HETATM    7 BR1  UNL     1       4.177   2.203  -0.748  1.00  0.00    -0.062 Br
HETATM    8  S2  UNL     1       1.751  -1.484   0.380  1.00  0.00    -0.090 SA
ENDROOT
BRANCH   1   9
HETATM    9  C2  UNL     1      -0.884  -0.680   0.193  1.00  0.00     0.117 C 
BRANCH   9  10
HETATM   10  S1  UNL     1      -2.254  -0.279  -0.896  1.00  0.00    -0.170 SA
HETATM   11  C1  UNL     1      -3.568   0.504   0.045  1.00  0.00     0.089 C 
ENDBRANCH   9  10
ENDBRANCH   1   9
TORSDOF 2
