REMARK  9 active torsions:
REMARK  status: ('A' for Active; 'I' for Inactive)
REMARK    1  A    between atoms: N1_1  and  C1_4 
REMARK    2  A    between atoms: C3_10  and  N4_11 
REMARK       I    between atoms: N5_14  and  C6_15 
REMARK    3  A    between atoms: C6_15  and  C7_17 
REMARK    4  A    between atoms: C7_17  and  N6_18 
REMARK    5  A    between atoms: N12_34  and  N13_35 
REMARK    6  A    between atoms: N13_35  and  C13_37 
REMARK    7  A    between atoms: C13_37  and  C14_38 
REMARK    8  A    between atoms: C14_38  and  C15_39 
REMARK    9  A    between atoms: N14_40  and  O3_42 
ROOT
HETATM    1  C1  UNL     1       4.514  -0.953  -0.385  1.00  0.00     0.714 A 
HETATM    2  N2  UNL     1       3.230  -1.326  -0.683  1.00  0.00    -0.170 N 
ATOM      3  H2  UNL     1       3.082  -2.181  -1.220  1.00  0.00     0.186 HD
HETATM    4  C2  UNL     1       2.161  -0.617  -0.300  1.00  0.00     0.182 A 
HETATM    5  N3  UNL     1       0.831  -0.742  -0.448  1.00  0.00    -0.172 N 
ATOM      6  H3  UNL     1       0.356  -1.499  -0.940  1.00  0.00     0.186 HD
HETATM    7  C3  UNL     1       0.233   0.289   0.156  1.00  0.00     0.683 A 
HETATM    8  N10 UNL     1       1.199   1.059   0.683  1.00  0.00    -0.171 N 
ATOM      9  H10 UNL     1       1.037   1.920   1.206  1.00  0.00     0.186 HD
HETATM   10  C12 UNL     1       2.423   0.530   0.422  1.00  0.00     0.183 A 
HETATM   11  N11 UNL     1       3.671   0.867   0.694  1.00  0.00    -0.246 N 
ATOM     12  H11 UNL     1       3.826   1.721   1.230  1.00  0.00     0.191 HD
HETATM   13  N12 UNL     1       4.761   0.157   0.311  1.00  0.00    -0.023 N 
ENDROOT
BRANCH   7  14
HETATM   14  N4  UNL     1      -1.189   0.537   0.231  1.00  0.00    -0.214 N 
HETATM   15  C4  UNL     1      -1.614   1.715   0.928  1.00  0.00     0.161 C 
HETATM   16  C5  UNL     1      -2.962   1.560   1.545  1.00  0.00     0.146 C 
HETATM   17  N5  UNL     1      -3.793   0.872   0.542  1.00  0.00    -0.348 N 
HETATM   18  C6  UNL     1      -4.840   1.511  -0.110  1.00  0.00     0.239 C 
HETATM   19  C10 UNL     1      -3.436  -0.488   0.292  1.00  0.00     0.146 C 
HETATM   20  O1  UNL     1      -5.122   2.740   0.135  1.00  0.00    -0.271 OA
HETATM   21  C11 UNL     1      -2.065  -0.425  -0.408  1.00  0.00     0.161 C 
BRANCH  18  22
HETATM   22  C7  UNL     1      -5.679   0.827  -1.111  1.00  0.00     0.257 C 
BRANCH  22  23
HETATM   23  N6  UNL     1      -6.847   0.296  -0.426  1.00  0.00    -0.231 N 
HETATM   24  N7  UNL     1      -7.061  -0.871   0.149  1.00  0.00    -0.267 N 
HETATM   25  C8  UNL     1      -8.302  -0.923   0.659  1.00  0.00     0.211 A 
ATOM     26  H7  UNL     1      -6.379  -1.628   0.199  1.00  0.00     0.190 HD
HETATM   27  N8  UNL     1      -8.898  -2.028   1.357  1.00  0.00    -0.062 NA
HETATM   28  N9  UNL     1      -8.886   0.258   0.392  1.00  0.00    -0.280 N 
HETATM   29  C9  UNL     1      -7.993   0.999  -0.271  1.00  0.00     0.344 A 
ATOM     30  H9  UNL     1      -9.833   0.536   0.648  1.00  0.00     0.173 HD
HETATM   31  O2  UNL     1      -8.189   2.173  -0.687  1.00  0.00    -0.245 OA
ENDBRANCH  22  23
ENDBRANCH  18  22
ENDBRANCH   7  14
BRANCH   1  32
HETATM   32  N1  UNL     1       5.485  -1.709  -0.763  1.00  0.00    -0.231 N 
ATOM     33  H12 UNL     1       5.296  -2.558  -1.295  1.00  0.00     0.174 HD
ATOM     34  H11 UNL     1       6.441  -1.431  -0.541  1.00  0.00     0.174 HD
ENDBRANCH   1  32
BRANCH  13  35
HETATM   35  N13 UNL     1       6.013   0.657   0.640  1.00  0.00    -0.300 N 
ATOM     36  H13 UNL     1       6.021   1.466   1.261  1.00  0.00     0.182 HD
BRANCH  35  37
HETATM   37  C13 UNL     1       7.279   0.187   0.223  1.00  0.00     0.147 C 
BRANCH  37  38
HETATM   38  C14 UNL     1       7.698   0.594  -1.178  1.00  0.00     0.067 C 
BRANCH  38  39
HETATM   39  C15 UNL     1       9.022  -0.023  -1.405  1.00  0.00     0.088 C 
HETATM   40  N14 UNL     1      10.001   0.308  -0.658  1.00  0.00    -0.284 N 
ATOM     41  H14 UNL     1       9.830   0.995   0.077  1.00  0.00     0.192 HD
BRANCH  40  42
HETATM   42  O3  UNL     1      11.269  -0.201  -0.780  1.00  0.00    -0.291 OA
ATOM     43  H3  UNL     1      11.998   0.046  -0.223  1.00  0.00     0.244 HD
ENDBRANCH  40  42
ENDBRANCH  38  39
ENDBRANCH  37  38
ENDBRANCH  35  37
ENDBRANCH  13  35
TORSDOF 9
