REMARK  12 active torsions:
REMARK  status: ('A' for Active; 'I' for Inactive)
REMARK    1  A    between atoms: N1_1  and  C1_5 
REMARK    2  A    between atoms: N2_9  and  C5_10 
REMARK    3  A    between atoms: C6_13  and  N4_14 
REMARK    4  A    between atoms: C10_18  and  C11_19 
REMARK    5  A    between atoms: C11_19  and  O1_20 
REMARK    6  A    between atoms: C13_27  and  C14_28 
REMARK    7  A    between atoms: C14_28  and  O2_29 
REMARK    8  A    between atoms: C14_28  and  C15_31 
REMARK    9  A    between atoms: C15_31  and  O3_32 
REMARK   10  A    between atoms: C15_31  and  N7_34 
REMARK   11  A    between atoms: N7_34  and  C16_37 
REMARK   12  A    between atoms: C18_39  and  N8_40 
ROOT
HETATM    1  C5  UNL     1      -1.259   0.736   0.097  1.00  0.00     0.731 A 
HETATM    2  N3  UNL     1      -2.150  -0.196   0.478  1.00  0.00    -0.019 N 
ATOM      3  H3  UNL     1      -3.096   0.110   0.708  1.00  0.00     0.203 HD
HETATM    4  C6  UNL     1      -1.870  -1.501   0.574  1.00  0.00     0.710 A 
HETATM    5  N5  UNL     1      -0.590  -1.850   0.254  1.00  0.00    -0.019 N 
ATOM      6  H5  UNL     1      -0.325  -2.833   0.311  1.00  0.00     0.203 HD
HETATM    7  C12 UNL     1       0.337  -0.958  -0.133  1.00  0.00     0.734 A 
HETATM    8  N6  UNL     1       1.638  -1.025  -0.501  1.00  0.00    -0.173 N 
ATOM      9  H6  UNL     1       2.186  -1.884  -0.542  1.00  0.00     0.185 HD
HETATM   10  C13 UNL     1       2.105   0.189  -0.803  1.00  0.00     0.146 A 
HETATM   11  N9  UNL     1       1.063   1.023  -0.613  1.00  0.00    -0.250 N 
ATOM     12  H9  UNL     1       1.089   2.032  -0.757  1.00  0.00     0.190 HD
HETATM   13  N10 UNL     1       0.005   0.343  -0.214  1.00  0.00     0.092 N 
ENDROOT
BRANCH  10  14
HETATM   14  C14 UNL     1       3.478   0.619  -1.251  1.00  0.00     0.243 C 
BRANCH  14  15
HETATM   15  O2  UNL     1       3.321   1.358  -2.454  1.00  0.00    -0.383 OA
ATOM     16  H2  UNL     1       4.187   1.629  -2.736  1.00  0.00     0.210 HD
ENDBRANCH  14  15
BRANCH  14  17
HETATM   17  C15 UNL     1       4.287  -0.602  -1.604  1.00  0.00     0.355 C 
BRANCH  17  18
HETATM   18  O3  UNL     1       3.588  -1.330  -2.567  1.00  0.00    -0.367 OA
ATOM     19  H3  UNL     1       4.098  -2.100  -2.790  1.00  0.00     0.212 HD
ENDBRANCH  17  18
BRANCH  17  20
HETATM   20  N7  UNL     1       4.500  -1.404  -0.429  1.00  0.00    -0.040 N 
ATOM     21  H72 UNL     1       3.627  -1.751  -0.032  1.00  0.00     0.280 HD
ATOM     22  H71 UNL     1       4.926  -2.305  -0.646  1.00  0.00     0.280 HD
BRANCH  20  23
HETATM   23  C16 UNL     1       5.277  -0.642   0.527  1.00  0.00     0.221 A 
HETATM   24  C17 UNL     1       5.120  -0.914   1.979  1.00  0.00     0.070 A 
HETATM   25  C18 UNL     1       6.357  -1.406   1.222  1.00  0.00     0.216 A 
BRANCH  25  26
HETATM   26  N8  UNL     1       7.598  -0.690   1.502  1.00  0.00    -0.073 N 
ATOM     27  H83 UNL     1       7.964  -0.292   0.637  1.00  0.00     0.274 HD
ATOM     28  H82 UNL     1       7.390   0.160   2.027  1.00  0.00     0.274 HD
ATOM     29  H81 UNL     1       8.335  -1.211   1.976  1.00  0.00     0.274 HD
ENDBRANCH  25  26
ENDBRANCH  20  23
ENDBRANCH  17  20
ENDBRANCH  14  17
ENDBRANCH  10  14
BRANCH   1  30
HETATM   30  N2  UNL     1      -1.565   2.123   0.015  1.00  0.00    -0.213 N 
HETATM   31  C4  UNL     1      -0.725   3.062   0.775  1.00  0.00     0.141 C 
HETATM   32  C3  UNL     1      -0.361   4.162  -0.201  1.00  0.00     0.022 C 
HETATM   33  C2  UNL     1      -1.670   4.920  -0.442  1.00  0.00     0.036 C 
HETATM   34  C1  UNL     1      -2.637   4.039  -1.144  1.00  0.00     0.202 C 
HETATM   35  C19 UNL     1      -2.660   2.608  -0.775  1.00  0.00     0.173 C 
BRANCH  34  36
HETATM   36  N1  UNL     1      -2.527   4.267  -2.592  1.00  0.00    -0.073 N 
ATOM     37  H13 UNL     1      -2.645   5.249  -2.841  1.00  0.00     0.274 HD
ATOM     38  H12 UNL     1      -1.573   4.147  -2.933  1.00  0.00     0.274 HD
ATOM     39  H11 UNL     1      -3.191   3.662  -3.074  1.00  0.00     0.274 HD
ENDBRANCH  34  36
ENDBRANCH   1  30
BRANCH   4  40
HETATM   40  N4  UNL     1      -2.804  -2.486   0.970  1.00  0.00    -0.210 N 
HETATM   41  C7  UNL     1      -2.447  -3.913   1.040  1.00  0.00     0.142 C 
HETATM   42  C8  UNL     1      -3.646  -4.647   1.531  1.00  0.00     0.022 C 
HETATM   43  C9  UNL     1      -4.771  -3.745   1.054  1.00  0.00     0.029 C 
HETATM   44  C10 UNL     1      -4.163  -2.375   1.356  1.00  0.00     0.125 C 
BRANCH  44  45
HETATM   45  C11 UNL     1      -4.979  -1.388   0.574  1.00  0.00     0.190 C 
BRANCH  45  46
HETATM   46  O1  UNL     1      -5.039  -1.668  -0.777  1.00  0.00    -0.399 OA
ATOM     47  H1  UNL     1      -5.556  -1.043  -1.272  1.00  0.00     0.209 HD
ENDBRANCH  45  46
ENDBRANCH  44  45
ENDBRANCH   4  40
TORSDOF 12
