REMARK  14 active torsions:
REMARK  status: ('A' for Active; 'I' for Inactive)
REMARK    1  A    between atoms: S1_2  and  C2_3 
REMARK    2  A    between atoms: C4_6  and  O2_7 
REMARK    3  A    between atoms: O2_7  and  C5_8 
REMARK    4  A    between atoms: C5_8  and  N1_10 
REMARK    5  A    between atoms: N1_10  and  C6_12 
REMARK    6  A    between atoms: C6_12  and  C7_13 
REMARK    7  A    between atoms: C10_16  and  O3_17 
REMARK    8  A    between atoms: C11_19  and  O4_20 
REMARK    9  A    between atoms: O4_20  and  C12_21 
REMARK   10  A    between atoms: C13_23  and  C14_24 
REMARK   11  A    between atoms: C14_24  and  O6_25 
REMARK   12  A    between atoms: C15_27  and  O7_28 
REMARK   13  A    between atoms: C16_30  and  O8_31 
REMARK   14  A    between atoms: C17_33  and  O9_34 
ROOT
HETATM    1  C2  UNL     1       0.135  -0.868   1.899  1.00  0.00     0.102 C 
HETATM    2  C3  UNL     1       1.501  -1.312   1.376  1.00  0.00     0.189 C 
HETATM    3  O1  UNL     1       1.301  -1.638   0.033  1.00  0.00    -0.357 OA
HETATM    4  C4  UNL     1       1.166  -0.467  -0.669  1.00  0.00     0.299 C 
HETATM    5  C10 UNL     1       0.729   0.712   0.139  1.00  0.00     0.204 C 
HETATM    6  C11 UNL     1      -0.341   0.343   1.163  1.00  0.00     0.174 C 
ENDROOT
BRANCH   6   7
HETATM    7  O4  UNL     1      -1.514   0.198   0.479  1.00  0.00    -0.349 OA
BRANCH   7   8
HETATM    8  C12 UNL     1      -2.513   1.104   0.765  1.00  0.00     0.292 C 
HETATM    9  O5  UNL     1      -2.847   1.978  -0.215  1.00  0.00    -0.348 OA
HETATM   10  C13 UNL     1      -3.844   1.671  -1.055  1.00  0.00     0.179 C 
HETATM   11  C15 UNL     1      -5.020   0.949  -0.464  1.00  0.00     0.180 C 
HETATM   12  C16 UNL     1      -4.563  -0.148   0.460  1.00  0.00     0.183 C 
HETATM   13  C17 UNL     1      -3.682   0.520   1.496  1.00  0.00     0.204 C 
BRANCH  10  14
HETATM   14  C14 UNL     1      -3.305   0.991  -2.304  1.00  0.00     0.198 C 
BRANCH  14  15
HETATM   15  O6  UNL     1      -2.641  -0.177  -2.079  1.00  0.00    -0.398 OA
ATOM     16  H6  UNL     1      -2.304  -0.602  -2.859  1.00  0.00     0.209 HD
ENDBRANCH  14  15
ENDBRANCH  10  14
BRANCH  11  17
HETATM   17  O7  UNL     1      -5.864   1.844   0.227  1.00  0.00    -0.390 OA
ATOM     18  H7  UNL     1      -6.608   1.387   0.601  1.00  0.00     0.210 HD
ENDBRANCH  11  17
BRANCH  12  19
HETATM   19  O8  UNL     1      -5.641  -0.803   1.059  1.00  0.00    -0.390 OA
ATOM     20  H8  UNL     1      -5.353  -1.495   1.642  1.00  0.00     0.210 HD
ENDBRANCH  12  19
BRANCH  13  21
HETATM   21  O9  UNL     1      -4.454   1.511   2.102  1.00  0.00    -0.388 OA
ATOM     22  H9  UNL     1      -5.196   1.140   2.566  1.00  0.00     0.210 HD
ENDBRANCH  13  21
ENDBRANCH   7   8
ENDBRANCH   6   7
BRANCH   1  23
HETATM   23  S1  UNL     1      -0.973  -2.287   1.709  1.00  0.00    -0.164 SA
HETATM   24  C1  UNL     1      -0.489  -3.646   2.779  1.00  0.00     0.090 C 
ENDBRANCH   1  23
BRANCH   5  25
HETATM   25  O3  UNL     1       0.197   1.648  -0.780  1.00  0.00    -0.388 OA
ATOM     26  H3  UNL     1      -0.081   2.397  -0.266  1.00  0.00     0.210 HD
ENDBRANCH   5  25
BRANCH   4  27
HETATM   27  O2  UNL     1       2.390  -0.206  -1.323  1.00  0.00    -0.293 OA
BRANCH  27  28
HETATM   28  C5  UNL     1       2.978  -1.032  -2.243  1.00  0.00     0.212 C 
HETATM   29  S2  UNL     1       2.210  -1.656  -3.530  1.00  0.00    -0.033 SA
BRANCH  28  30
HETATM   30  N1  UNL     1       4.365  -1.378  -2.069  1.00  0.00    -0.361 N 
ATOM     31  H1  UNL     1       4.820  -1.993  -2.744  1.00  0.00     0.162 HD
BRANCH  30  32
HETATM   32  C6  UNL     1       5.114  -0.868  -0.957  1.00  0.00     0.127 C 
BRANCH  32  33
HETATM   33  C7  UNL     1       5.306   0.645  -1.111  1.00  0.00     0.003 A 
HETATM   34  C8  UNL     1       6.031   1.075  -2.330  1.00  0.00     0.007 A 
HETATM   35  C9  UNL     1       6.688   1.120  -0.973  1.00  0.00     0.007 A 
ENDBRANCH  32  33
ENDBRANCH  30  32
ENDBRANCH  28  30
ENDBRANCH  27  28
ENDBRANCH   4  27
TORSDOF 14
