REMARK  11 active torsions:
REMARK  status: ('A' for Active; 'I' for Inactive)
REMARK    1  A    between atoms: C3_4  and  O2_5 
REMARK    2  A    between atoms: O2_5  and  C4_6 
REMARK    3  A    between atoms: C5_7  and  N1_8 
REMARK    4  A    between atoms: C7_13  and  N2_14 
REMARK    5  A    between atoms: C8_18  and  N3_19 
REMARK    6  A    between atoms: N3_19  and  C9_21 
REMARK    7  A    between atoms: C9_21  and  C10_22 
REMARK    8  A    between atoms: C10_22  and  C11_23 
REMARK    9  A    between atoms: C11_23  and  C12_24 
REMARK   10  A    between atoms: C18_30  and  O3_31 
REMARK   11  A    between atoms: C23_39  and  O6_40 
ROOT
HETATM    1  C4  UNL     1      -0.964  -0.983   0.401  1.00  0.00     0.185 C 
HETATM    2  C5  UNL     1      -0.323  -1.657  -0.765  1.00  0.00     0.217 C 
HETATM    3  C6  UNL     1       0.694  -2.690  -0.493  1.00  0.00     0.070 C 
HETATM    4  C7  UNL     1       1.552  -2.399   0.665  1.00  0.00     0.210 C 
HETATM    5  C8  UNL     1       1.469  -0.978   1.065  1.00  0.00     0.138 C 
HETATM    6  C18 UNL     1       0.065  -0.523   1.378  1.00  0.00     0.173 C 
ENDROOT
BRANCH   1   7
HETATM    7  O2  UNL     1      -1.619   0.131  -0.063  1.00  0.00    -0.349 OA
BRANCH   7   8
HETATM    8  C3  UNL     1      -2.958   0.207   0.126  1.00  0.00     0.292 C 
HETATM    9  O1  UNL     1      -3.375   1.234   0.973  1.00  0.00    -0.351 OA
HETATM   10  C2  UNL     1      -4.518   0.817   1.654  1.00  0.00     0.152 C 
HETATM   11  C1  UNL     1      -5.026   2.002   2.450  1.00  0.00     0.042 C 
HETATM   12  C23 UNL     1      -5.602   0.373   0.678  1.00  0.00     0.178 C 
HETATM   13  C22 UNL     1      -5.182   0.810  -0.682  1.00  0.00     0.186 C 
HETATM   14  C19 UNL     1      -3.814   0.253  -1.090  1.00  0.00     0.208 C 
HETATM   15  O5  UNL     1      -6.061   0.446  -1.691  1.00  0.00    -0.378 OA
HETATM   16  O4  UNL     1      -3.370   1.082  -2.093  1.00  0.00    -0.376 OA
HETATM   17  C20 UNL     1      -4.231   0.901  -3.189  1.00  0.00     0.194 C 
HETATM   18  C21 UNL     1      -5.667   1.181  -2.828  1.00  0.00     0.194 C 
BRANCH  12  19
HETATM   19  O6  UNL     1      -5.821  -1.001   0.766  1.00  0.00    -0.390 OA
ATOM     20  H6  UNL     1      -6.496  -1.278   0.158  1.00  0.00     0.210 HD
ENDBRANCH  12  19
ENDBRANCH   7   8
ENDBRANCH   1   7
BRANCH   2  21
HETATM   21  N1  UNL     1      -1.335  -2.348  -1.596  1.00  0.00    -0.072 N 
ATOM     22  H13 UNL     1      -1.895  -2.999  -1.045  1.00  0.00     0.274 HD
ATOM     23  H12 UNL     1      -2.079  -1.715  -1.889  1.00  0.00     0.274 HD
ATOM     24  H11 UNL     1      -0.897  -2.809  -2.393  1.00  0.00     0.274 HD
ENDBRANCH   2  21
BRANCH   6  25
HETATM   25  O3  UNL     1       0.080   0.864   1.445  1.00  0.00    -0.391 OA
ATOM     26  H3  UNL     1       0.735   1.157   2.067  1.00  0.00     0.210 HD
ENDBRANCH   6  25
BRANCH   5  27
HETATM   27  N3  UNL     1       1.978  -0.125   0.025  1.00  0.00    -0.413 N 
ATOM     28  H3  UNL     1       1.390   0.555  -0.457  1.00  0.00     0.153 HD
BRANCH  27  29
HETATM   29  C9  UNL     1       3.369  -0.294  -0.289  1.00  0.00     0.114 C 
BRANCH  29  30
HETATM   30  C10 UNL     1       3.700   0.729  -1.351  1.00  0.00     0.024 C 
BRANCH  30  31
HETATM   31  C11 UNL     1       5.116   0.711  -1.814  1.00  0.00     0.040 C 
BRANCH  31  32
HETATM   32  C12 UNL     1       6.015   0.975  -0.653  1.00  0.00    -0.058 A 
HETATM   33  C13 UNL     1       6.302   2.304  -0.351  1.00  0.00     0.007 A 
HETATM   34  C14 UNL     1       7.129   2.618   0.705  1.00  0.00     0.001 A 
HETATM   35  C15 UNL     1       7.655   1.588   1.444  1.00  0.00     0.000 A 
HETATM   36  C16 UNL     1       7.375   0.274   1.150  1.00  0.00     0.001 A 
HETATM   37  C17 UNL     1       6.551  -0.036   0.098  1.00  0.00     0.007 A 
ENDBRANCH  31  32
ENDBRANCH  30  31
ENDBRANCH  29  30
ENDBRANCH  27  29
ENDBRANCH   5  27
BRANCH   4  38
HETATM   38  N2  UNL     1       1.090  -3.236   1.775  1.00  0.00    -0.073 N 
ATOM     39  H23 UNL     1       0.097  -3.118   1.976  1.00  0.00     0.274 HD
ATOM     40  H22 UNL     1       1.061  -4.228   1.540  1.00  0.00     0.274 HD
ATOM     41  H21 UNL     1       1.685  -3.034   2.578  1.00  0.00     0.274 HD
ENDBRANCH   4  38
TORSDOF 11
