REMARK  13 active torsions:
REMARK  status: ('A' for Active; 'I' for Inactive)
REMARK    1  A    between atoms: C4_4  and  O1_5 
REMARK    2  A    between atoms: O1_5  and  C5_6 
REMARK    3  A    between atoms: C5_6  and  C6_7 
REMARK    4  A    between atoms: C7_9  and  C8_10 
REMARK    5  A    between atoms: C8_10  and  O3_11 
REMARK    6  A    between atoms: C9_13  and  O4_14 
REMARK    7  A    between atoms: C10_16  and  O5_17 
REMARK    8  A    between atoms: C11_19  and  O6_20 
REMARK    9  A    between atoms: C12_22  and  O7_23 
REMARK   10  A    between atoms: O7_23  and  C13_24 
REMARK   11  A    between atoms: C14_26  and  C15_27 
REMARK   12  A    between atoms: C15_27  and  O9_28 
REMARK   13  A    between atoms: C16_30  and  O10_31 
ROOT
HETATM    1  C1  UNL     1       0.730   1.258   3.659  1.00  0.00     0.012 C 
HETATM    2  C2  UNL     1      -0.080   1.649   2.449  1.00  0.00     0.015 C 
HETATM    3  C3  UNL     1       0.797   1.702   1.190  1.00  0.00     0.041 C 
HETATM    4  C4  UNL     1       0.595   0.179   1.114  1.00  0.00     0.151 C 
HETATM    5  C12 UNL     1      -0.736   0.443   1.841  1.00  0.00     0.157 C 
ENDROOT
BRANCH   4   6
HETATM    6  O1  UNL     1       0.457  -0.264  -0.168  1.00  0.00    -0.381 OA
BRANCH   6   7
HETATM    7  C5  UNL     1       1.320  -1.311  -0.423  1.00  0.00     0.203 C 
BRANCH   7   8
HETATM    8  C6  UNL     1       2.782  -0.962  -0.307  1.00  0.00     0.177 C 
HETATM    9  O2  UNL     1       3.148   0.040  -1.189  1.00  0.00    -0.371 OA
HETATM   10  C7  UNL     1       4.403  -0.081  -1.720  1.00  0.00     0.177 C 
HETATM   11  C9  UNL     1       5.428  -0.540  -0.700  1.00  0.00     0.180 C 
HETATM   12  C10 UNL     1       5.056  -1.858  -0.076  1.00  0.00     0.180 C 
HETATM   13  C11 UNL     1       3.647  -2.197  -0.455  1.00  0.00     0.180 C 
BRANCH  10  14
HETATM   14  C8  UNL     1       4.828   1.321  -2.178  1.00  0.00     0.198 C 
BRANCH  14  15
HETATM   15  O3  UNL     1       4.841   2.202  -1.099  1.00  0.00    -0.398 OA
ATOM     16  H3  UNL     1       5.104   3.070  -1.382  1.00  0.00     0.209 HD
ENDBRANCH  14  15
ENDBRANCH  10  14
BRANCH  11  17
HETATM   17  O4  UNL     1       6.688  -0.685  -1.301  1.00  0.00    -0.390 OA
ATOM     18  H4  UNL     1       7.330  -0.972  -0.662  1.00  0.00     0.210 HD
ENDBRANCH  11  17
BRANCH  12  19
HETATM   19  O5  UNL     1       5.135  -1.776   1.313  1.00  0.00    -0.390 OA
ATOM     20  H5  UNL     1       4.900  -2.608   1.707  1.00  0.00     0.210 HD
ENDBRANCH  12  19
BRANCH  13  21
HETATM   21  O6  UNL     1       3.542  -2.790  -1.699  1.00  0.00    -0.390 OA
ATOM     22  H6  UNL     1       4.084  -3.564  -1.792  1.00  0.00     0.210 HD
ENDBRANCH  13  21
ENDBRANCH   7   8
ENDBRANCH   6   7
ENDBRANCH   4   6
BRANCH   5  23
HETATM   23  O7  UNL     1      -1.767   0.681   0.968  1.00  0.00    -0.353 OA
BRANCH  23  24
HETATM   24  C13 UNL     1      -2.834  -0.202   1.092  1.00  0.00     0.268 C 
HETATM   25  O8  UNL     1      -3.907   0.507   1.563  1.00  0.00    -0.350 OA
HETATM   26  C14 UNL     1      -4.869   0.915   0.710  1.00  0.00     0.185 C 
HETATM   27  C16 UNL     1      -4.985   0.189  -0.587  1.00  0.00     0.119 C 
HETATM   28  C17 UNL     1      -5.451  -1.237  -0.221  1.00  0.00     0.044 C 
HETATM   29  C20 UNL     1      -3.660  -0.092  -1.182  1.00  0.00     0.124 A 
HETATM   30  C18 UNL     1      -4.195  -2.011   0.029  1.00  0.00     0.016 C 
HETATM   31  C19 UNL     1      -3.069  -1.017  -0.131  1.00  0.00     0.081 C 
HETATM   32  C21 UNL     1      -3.484  -0.310  -2.589  1.00  0.00     0.210 A 
HETATM   33  O11 UNL     1      -2.904   0.776  -1.899  1.00  0.00    -0.371 OA
BRANCH  26  34
HETATM   34  C15 UNL     1      -4.739   2.433   0.528  1.00  0.00     0.199 C 
BRANCH  34  35
HETATM   35  O9  UNL     1      -3.498   2.780   0.027  1.00  0.00    -0.398 OA
ATOM     36  H9  UNL     1      -3.418   3.720  -0.086  1.00  0.00     0.209 HD
ENDBRANCH  34  35
ENDBRANCH  26  34
BRANCH  27  37
HETATM   37  O10 UNL     1      -5.886   0.773  -1.464  1.00  0.00    -0.384 OA
ATOM     38  H10 UNL     1      -5.960   0.310  -2.290  1.00  0.00     0.210 HD
ENDBRANCH  27  37
ENDBRANCH  23  24
ENDBRANCH   5  23
TORSDOF 13
