REMARK  12 active torsions:
REMARK  status: ('A' for Active; 'I' for Inactive)
REMARK    1  A    between atoms: C3_4  and  N2_5 
REMARK       I    between atoms: N2_5  and  C4_7 
REMARK    2  A    between atoms: C4_7  and  C5_9 
REMARK    3  A    between atoms: C5_9  and  N3_10 
REMARK    4  A    between atoms: C6_15  and  C7_16 
REMARK    5  A    between atoms: C7_16  and  O3_17 
REMARK    6  A    between atoms: C8_19  and  O4_20 
REMARK    7  A    between atoms: O4_20  and  C9_21 
REMARK    8  A    between atoms: C9_21  and  C10_23 
REMARK    9  A    between atoms: C10_23  and  N4_24 
REMARK   10  A    between atoms: C11_28  and  O6_29 
REMARK   11  A    between atoms: O6_29  and  C12_30 
REMARK       I    between atoms: C12_30  and  N5_32 
REMARK   12  A    between atoms: N5_32  and  C13_34 
ROOT
HETATM    1  N1  UNL     1      -0.573   2.307  -2.640  1.00  0.00    -0.197 NA
HETATM    2  C1  UNL     1      -1.268   1.545  -2.142  1.00  0.00     0.071 C 
HETATM    3  C2  UNL     1      -2.138   0.567  -1.529  1.00  0.00     0.173 C 
HETATM    4  C3  UNL     1      -3.537   1.145  -1.282  1.00  0.00     0.244 C 
HETATM    5  O2  UNL     1      -4.325   0.057  -1.012  1.00  0.00    -0.355 OA
HETATM    6  C6  UNL     1      -4.039  -0.643   0.116  1.00  0.00     0.179 C 
HETATM    7  C8  UNL     1      -2.660  -0.542   0.670  1.00  0.00     0.194 C 
HETATM    8  C11 UNL     1      -1.635   0.162  -0.161  1.00  0.00     0.187 C 
ENDROOT
BRANCH   4   9
HETATM    9  N2  UNL     1      -4.016   1.875  -2.410  1.00  0.00    -0.332 N 
HETATM   10  C4  UNL     1      -4.374   3.242  -2.256  1.00  0.00     0.245 C 
HETATM   11  O1  UNL     1      -4.282   3.833  -1.151  1.00  0.00    -0.272 OA
ATOM     12  H2  UNL     1      -4.101   1.420  -3.319  1.00  0.00     0.165 HD
BRANCH  10  13
HETATM   13  C5  UNL     1      -4.871   3.993  -3.433  1.00  0.00     0.332 C 
BRANCH  13  14
HETATM   14  N3  UNL     1      -5.168   5.344  -3.043  1.00  0.00    -0.071 N 
ATOM     15  H33 UNL     1      -5.815   5.386  -2.256  1.00  0.00     0.274 HD
ATOM     16  H32 UNL     1      -4.372   5.802  -2.600  1.00  0.00     0.274 HD
ATOM     17  H31 UNL     1      -5.510   5.861  -3.853  1.00  0.00     0.274 HD
ENDBRANCH  13  14
ENDBRANCH  10  13
ENDBRANCH   4   9
BRANCH   8  18
HETATM   18  O6  UNL     1      -0.454  -0.589  -0.375  1.00  0.00    -0.294 OA
BRANCH  18  19
HETATM   19  C12 UNL     1       0.809  -0.133  -0.031  1.00  0.00     0.361 C 
HETATM   20  O7  UNL     1       0.844   1.027   0.500  1.00  0.00    -0.238 OA
HETATM   21  N5  UNL     1       1.966  -0.895  -0.252  1.00  0.00    -0.332 N 
ATOM     22  H5  UNL     1       1.858  -1.814  -0.680  1.00  0.00     0.165 HD
BRANCH  21  23
HETATM   23  C13 UNL     1       3.307  -0.458   0.090  1.00  0.00     0.086 C 
HETATM   24  C14 UNL     1       4.110  -0.357  -1.162  1.00  0.00     0.025 C 
HETATM   25  C15 UNL     1       5.182  -1.361  -1.345  1.00  0.00     0.002 C 
HETATM   26  C16 UNL     1       6.399  -1.189  -0.518  1.00  0.00     0.000 C 
HETATM   27  C17 UNL     1       6.562   0.153   0.122  1.00  0.00     0.000 C 
HETATM   28  C18 UNL     1       5.738   0.394   1.328  1.00  0.00     0.000 C 
HETATM   29  C19 UNL     1       5.028  -0.767   1.906  1.00  0.00     0.002 C 
HETATM   30  C20 UNL     1       3.892  -1.325   1.152  1.00  0.00     0.025 C 
ENDBRANCH  21  23
ENDBRANCH  18  19
ENDBRANCH   8  18
BRANCH   7  31
HETATM   31  O4  UNL     1      -2.179  -1.812   1.125  1.00  0.00    -0.309 OA
BRANCH  31  32
HETATM   32  C9  UNL     1      -1.931  -2.115   2.435  1.00  0.00     0.284 C 
HETATM   33  O5  UNL     1      -2.152  -1.194   3.262  1.00  0.00    -0.263 OA
BRANCH  32  34
HETATM   34  C10 UNL     1      -1.429  -3.459   2.863  1.00  0.00     0.340 C 
BRANCH  34  35
HETATM   35  N4  UNL     1      -1.272  -3.459   4.302  1.00  0.00    -0.070 N 
ATOM     36  H43 UNL     1      -0.677  -2.698   4.630  1.00  0.00     0.274 HD
ATOM     37  H42 UNL     1      -2.127  -3.189   4.788  1.00  0.00     0.274 HD
ATOM     38  H41 UNL     1      -0.930  -4.375   4.594  1.00  0.00     0.274 HD
ENDBRANCH  34  35
ENDBRANCH  32  34
ENDBRANCH  31  32
ENDBRANCH   7  31
BRANCH   6  39
HETATM   39  C7  UNL     1      -5.090  -0.229   1.165  1.00  0.00     0.198 C 
BRANCH  39  40
HETATM   40  O3  UNL     1      -6.347  -0.563   0.642  1.00  0.00    -0.398 OA
ATOM     41  H3  UNL     1      -6.995  -0.308   1.288  1.00  0.00     0.209 HD
ENDBRANCH  39  40
ENDBRANCH   6  39
TORSDOF 12
