REMARK  16 active torsions:
REMARK  status: ('A' for Active; 'I' for Inactive)
REMARK    1  A    between atoms: C2_2  and  C3_3 
REMARK    2  A    between atoms: C3_3  and  O1_4 
REMARK    3  A    between atoms: O1_4  and  C4_5 
REMARK    4  A    between atoms: C4_5  and  C6_7 
REMARK    5  A    between atoms: C6_7  and  C7_8 
REMARK    6  A    between atoms: C7_8  and  C8_9 
REMARK    7  A    between atoms: C17_19  and  C18_20 
REMARK    8  A    between atoms: C18_20  and  O2_21 
REMARK    9  A    between atoms: C18_20  and  C19_23 
REMARK   10  A    between atoms: C19_23  and  C21_25 
REMARK   11  A    between atoms: C21_25  and  C22_26 
REMARK   12  A    between atoms: C22_26  and  C23_27 
REMARK   13  A    between atoms: C23_27  and  O3_28 
REMARK   14  A    between atoms: C23_27  and  C24_30 
REMARK   15  A    between atoms: C31_37  and  O4_38 
REMARK   16  A    between atoms: C33_41  and  O5_42 
ROOT
HETATM    1  C8  UNL     1       2.248  -1.248   0.615  1.00  0.00     0.092 C 
HETATM    2 CL1  UNL     1       2.789  -2.853   1.350  1.00  0.00    -0.111 Cl
HETATM    3  C9  UNL     1       1.154  -0.719   1.399  1.00  0.00    -0.058 C 
HETATM    4  C10 UNL     1       1.411   0.080   2.440  1.00  0.00     0.017 C 
HETATM    5  C11 UNL     1      -0.274  -1.011   1.199  1.00  0.00     0.031 C 
HETATM    6  C12 UNL     1      -0.665  -1.833   2.391  1.00  0.00     0.043 C 
HETATM    7  C13 UNL     1      -2.016  -2.382   2.305  1.00  0.00    -0.088 C 
HETATM    8  C14 UNL     1      -2.882  -2.312   3.299  1.00  0.00     0.014 C 
HETATM    9  C15 UNL     1      -2.369  -3.031   1.033  1.00  0.00     0.034 C 
HETATM   10  C16 UNL     1      -1.921  -2.333  -0.193  1.00  0.00     0.018 C 
HETATM   11  C17 UNL     1      -0.712  -1.441  -0.151  1.00  0.00     0.004 C 
HETATM   12  C27 UNL     1       0.421  -2.183  -0.884  1.00  0.00     0.000 C 
HETATM   13  C28 UNL     1       0.460  -3.616  -0.384  1.00  0.00     0.019 C 
HETATM   14  C29 UNL     1       0.159  -2.326  -2.367  1.00  0.00     0.016 C 
HETATM   15  C30 UNL     1       1.107  -3.412  -2.917  1.00  0.00     0.032 C 
HETATM   16  C31 UNL     1       2.534  -3.047  -2.722  1.00  0.00     0.121 C 
HETATM   17  C32 UNL     1       2.845  -2.516  -1.353  1.00  0.00     0.072 C 
HETATM   18  C33 UNL     1       1.776  -1.577  -0.781  1.00  0.00     0.093 C 
ENDROOT
BRANCH  11  19
HETATM   19  C18 UNL     1      -1.121  -0.220  -0.968  1.00  0.00     0.132 C 
BRANCH  19  20
HETATM   20  O2  UNL     1      -1.610  -0.511  -2.234  1.00  0.00    -0.394 OA
ATOM     21  H2  UNL     1      -1.865   0.250  -2.743  1.00  0.00     0.210 HD
ENDBRANCH  19  20
BRANCH  19  22
HETATM   22  C19 UNL     1      -1.942   0.840  -0.394  1.00  0.00     0.011 C 
HETATM   23  C20 UNL     1      -2.087   1.835  -1.596  1.00  0.00     0.012 C 
BRANCH  22  24
HETATM   24  C21 UNL     1      -3.349   0.612  -0.018  1.00  0.00     0.009 C 
BRANCH  24  25
HETATM   25  C22 UNL     1      -3.975   1.885   0.540  1.00  0.00     0.032 C 
BRANCH  25  26
HETATM   26  C23 UNL     1      -5.422   1.499   0.886  1.00  0.00     0.121 C 
BRANCH  26  27
HETATM   27  O3  UNL     1      -5.451   0.476   1.826  1.00  0.00    -0.395 OA
ATOM     28  H3  UNL     1      -6.345   0.237   2.040  1.00  0.00     0.210 HD
ENDBRANCH  26  27
BRANCH  26  29
HETATM   29  C24 UNL     1      -6.144   2.682   1.492  1.00  0.00     0.006 C 
HETATM   30  C25 UNL     1      -6.161   3.839   0.493  1.00  0.00     0.012 C 
HETATM   31  C26 UNL     1      -7.558   2.288   1.772  1.00  0.00     0.012 C 
ENDBRANCH  26  29
ENDBRANCH  25  26
ENDBRANCH  24  25
ENDBRANCH  22  24
ENDBRANCH  19  22
ENDBRANCH  11  19
BRANCH  18  32
HETATM   32  O5  UNL     1       1.944  -0.446  -1.553  1.00  0.00    -0.387 OA
ATOM     33  H5  UNL     1       1.647  -0.653  -2.431  1.00  0.00     0.210 HD
ENDBRANCH  18  32
BRANCH   1  34
HETATM   34  C7  UNL     1       3.470  -0.439   0.719  1.00  0.00     0.036 C 
BRANCH  34  35
HETATM   35  C6  UNL     1       3.529   0.966   0.287  1.00  0.00     0.034 C 
BRANCH  35  36
HETATM   36  C4  UNL     1       4.985   1.437   0.549  1.00  0.00     0.117 C 
HETATM   37  C5  UNL     1       5.221   1.358   2.035  1.00  0.00     0.039 C 
BRANCH  36  38
HETATM   38  O1  UNL     1       5.141   2.749   0.172  1.00  0.00    -0.383 OA
BRANCH  38  39
HETATM   39  C3  UNL     1       6.168   2.819  -0.767  1.00  0.00     0.194 C 
BRANCH  39  40
HETATM   40  C2  UNL     1       6.412   4.198  -1.236  1.00  0.00    -0.011 C 
HETATM   41  C1  UNL     1       7.581   4.809  -1.085  1.00  0.00     0.009 C 
ENDBRANCH  39  40
ENDBRANCH  38  39
ENDBRANCH  36  38
ENDBRANCH  35  36
ENDBRANCH  34  35
ENDBRANCH   1  34
BRANCH  16  42
HETATM   42  O4  UNL     1       3.019  -2.303  -3.770  1.00  0.00    -0.395 OA
ATOM     43  H4  UNL     1       3.931  -2.070  -3.645  1.00  0.00     0.210 HD
ENDBRANCH  16  42
TORSDOF 16
