REMARK  18 active torsions:
REMARK  status: ('A' for Active; 'I' for Inactive)
REMARK    1  A    between atoms: C2_2  and  C3_3 
REMARK    2  A    between atoms: C3_3  and  C4_4 
REMARK    3  A    between atoms: C3_3  and  C6_12 
REMARK    4  A    between atoms: C4_4  and  C5_5 
REMARK    5  A    between atoms: C5_5  and  O1_6 
REMARK    6  A    between atoms: N1_8  and  O2_10 
REMARK    7  A    between atoms: C6_12  and  O3_14 
REMARK    8  A    between atoms: C6_12  and  C8_16 
REMARK    9  A    between atoms: C8_16  and  C9_17 
REMARK   10  A    between atoms: C9_17  and  C11_19 
REMARK   11  A    between atoms: C11_19  and  O4_20 
REMARK   12  A    between atoms: C11_19  and  C12_22 
REMARK   13  A    between atoms: C12_22  and  C13_23 
REMARK   14  A    between atoms: C13_23  and  C14_24 
REMARK   15  A    between atoms: C14_24  and  O5_25 
REMARK   16  A    between atoms: C14_24  and  C15_27 
REMARK   17  A    between atoms: C16_28  and  C17_29 
REMARK   18  A    between atoms: C24_36  and  O6_37 
ROOT
HETATM    1  C14 UNL     1       0.207   0.410   1.688  1.00  0.00     0.140 C 
ENDROOT
BRANCH   1   2
HETATM    2  C13 UNL     1       1.715   0.725   1.693  1.00  0.00     0.038 C 
BRANCH   2   3
HETATM    3  C12 UNL     1       2.482  -0.440   1.126  1.00  0.00     0.035 C 
BRANCH   3   4
HETATM    4  C11 UNL     1       3.980  -0.112   1.145  1.00  0.00     0.122 C 
BRANCH   4   5
HETATM    5  C9  UNL     1       4.785  -1.224   0.596  1.00  0.00     0.013 C 
HETATM    6  C10 UNL     1       4.268  -2.481   1.391  1.00  0.00     0.012 C 
BRANCH   5   7
HETATM    7  C8  UNL     1       6.252  -1.193   0.663  1.00  0.00     0.044 C 
BRANCH   7   8
HETATM    8  C6  UNL     1       6.979  -0.115  -0.036  1.00  0.00     0.059 C 
HETATM    9  C7  UNL     1       6.579   0.030  -1.454  1.00  0.00     0.046 C 
BRANCH   8  10
HETATM   10  C3  UNL     1       8.476  -0.372   0.173  1.00  0.00     0.027 C 
BRANCH  10  11
HETATM   11  C2  UNL     1       8.955  -1.643  -0.463  1.00  0.00     0.003 C 
HETATM   12  C1  UNL     1       8.973  -1.709  -1.939  1.00  0.00     0.005 C 
ENDBRANCH  10  11
BRANCH  10  13
HETATM   13  C4  UNL     1       9.354   0.740  -0.276  1.00  0.00     0.093 C 
BRANCH  13  14
HETATM   14  C5  UNL     1       9.072   2.075   0.266  1.00  0.00     0.135 C 
HETATM   15  N1  UNL     1       8.724   3.112  -0.413  1.00  0.00    -0.251 N 
ATOM     16  H1  UNL     1       8.548   4.002   0.052  1.00  0.00     0.196 HD
BRANCH  14  17
HETATM   17  O1  UNL     1       9.201   2.227   1.665  1.00  0.00    -0.348 OA
ATOM     18  H1  UNL     1       9.019   3.091   2.016  1.00  0.00     0.219 HD
ENDBRANCH  14  17
BRANCH  15  19
HETATM   19  O2  UNL     1       8.595   2.998  -1.770  1.00  0.00    -0.288 OA
ATOM     20  H2  UNL     1       8.338   3.763  -2.271  1.00  0.00     0.244 HD
ENDBRANCH  15  19
ENDBRANCH  13  14
ENDBRANCH  10  13
ENDBRANCH   8  10
BRANCH   8  21
HETATM   21  O3  UNL     1       6.763   1.099   0.641  1.00  0.00    -0.390 OA
ATOM     22  H3  UNL     1       5.835   1.258   0.512  1.00  0.00     0.210 HD
ENDBRANCH   8  21
ENDBRANCH   7   8
ENDBRANCH   5   7
ENDBRANCH   4   5
BRANCH   4  23
HETATM   23  O4  UNL     1       4.105   1.136   0.608  1.00  0.00    -0.395 OA
ATOM     24  H4  UNL     1       3.588   1.851   0.961  1.00  0.00     0.210 HD
ENDBRANCH   4  23
ENDBRANCH   3   4
ENDBRANCH   2   3
ENDBRANCH   1   2
BRANCH   1  25
HETATM   25  O5  UNL     1       0.112  -0.746   2.476  1.00  0.00    -0.392 OA
ATOM     26  H5  UNL     1      -0.818  -0.940   2.473  1.00  0.00     0.210 HD
ENDBRANCH   1  25
BRANCH   1  27
HETATM   27  C15 UNL     1      -0.274   0.138   0.335  1.00  0.00     0.001 C 
HETATM   28  C16 UNL     1      -1.432  -0.268  -0.070  1.00  0.00    -0.023 C 
BRANCH  28  29
HETATM   29  C17 UNL     1      -2.686  -0.614   0.525  1.00  0.00     0.016 C 
HETATM   30  C18 UNL     1      -2.900  -0.350   1.981  1.00  0.00     0.010 C 
HETATM   31  C19 UNL     1      -4.429  -0.157   2.142  1.00  0.00     0.007 C 
HETATM   32  C20 UNL     1      -4.921  -0.314   0.761  1.00  0.00     0.003 C 
HETATM   33  C21 UNL     1      -3.844   0.280  -0.067  1.00  0.00    -0.030 C 
HETATM   34  C32 UNL     1      -6.305   0.184   0.474  1.00  0.00    -0.033 C 
HETATM   35  C22 UNL     1      -3.438   1.673   0.227  1.00  0.00     0.016 C 
HETATM   36  C23 UNL     1      -4.010   0.024  -1.527  1.00  0.00     0.042 C 
HETATM   37  C24 UNL     1      -5.472  -0.299  -1.816  1.00  0.00     0.124 C 
HETATM   38  C25 UNL     1      -6.428   0.510  -0.975  1.00  0.00     0.030 C 
HETATM   39  C26 UNL     1      -7.814   0.464  -1.529  1.00  0.00    -0.041 C 
HETATM   40  C27 UNL     1      -8.620   1.715  -1.266  1.00  0.00     0.015 C 
HETATM   41  C28 UNL     1      -7.730   0.342  -3.058  1.00  0.00     0.015 C 
HETATM   42  C29 UNL     1      -8.622  -0.734  -1.086  1.00  0.00     0.009 C 
HETATM   43  C30 UNL     1      -8.633  -0.760   0.424  1.00  0.00     0.002 C 
HETATM   44  C31 UNL     1      -7.243  -0.911   0.946  1.00  0.00     0.010 C 
HETATM   45  C33 UNL     1      -6.649   1.397   1.356  1.00  0.00     0.016 C 
BRANCH  37  46
HETATM   46  O6  UNL     1      -5.693  -1.654  -1.768  1.00  0.00    -0.395 OA
ATOM     47  H6  UNL     1      -6.604  -1.855  -1.948  1.00  0.00     0.210 HD
ENDBRANCH  37  46
ENDBRANCH  28  29
ENDBRANCH   1  27
TORSDOF 18
