REMARK  15 active torsions:
REMARK  status: ('A' for Active; 'I' for Inactive)
REMARK    1  A    between atoms: C4_4  and  C5_5 
REMARK    2  A    between atoms: C5_5  and  C6_6 
REMARK    3  A    between atoms: C6_6  and  C7_7 
REMARK    4  A    between atoms: C7_7  and  C8_8 
REMARK    5  A    between atoms: C7_7  and  C9_13 
REMARK    6  A    between atoms: C16_21  and  O1_22 
REMARK    7  A    between atoms: O1_22  and  C17_23 
REMARK    8  A    between atoms: C18_24  and  C19_25 
REMARK    9  A    between atoms: C19_25  and  C20_26 
REMARK   10  A    between atoms: C20_26  and  O2_27 
REMARK   11  A    between atoms: C21_30  and  C22_31 
REMARK   12  A    between atoms: C22_31  and  C24_33 
REMARK   13  A    between atoms: C25_34  and  C26_35 
REMARK   14  A    between atoms: C26_35  and  O4_37 
REMARK   15  A    between atoms: C31_42  and  C32_43 
ROOT
HETATM    1  C9  UNL     1      -2.582   0.308  -1.229  1.00  0.00     0.018 C 
HETATM    2  C10 UNL     1      -3.146   1.357  -2.207  1.00  0.00     0.007 C 
HETATM    3  C11 UNL     1      -2.099   1.478  -3.327  1.00  0.00     0.009 C 
HETATM    4  C12 UNL     1      -1.359   0.211  -3.064  1.00  0.00     0.042 C 
HETATM    5  C13 UNL     1      -0.244  -0.180  -3.887  1.00  0.00     0.175 C 
HETATM    6  F1  UNL     1       0.834   0.616  -4.039  1.00  0.00    -0.249 F 
HETATM    7  C14 UNL     1       0.136  -1.607  -3.465  1.00  0.00     0.040 C 
HETATM    8  C15 UNL     1      -0.572  -1.965  -2.151  1.00  0.00     0.036 C 
HETATM    9  C16 UNL     1      -0.341  -0.820  -1.121  1.00  0.00     0.142 C 
HETATM   10  C31 UNL     1      -1.134   0.343  -1.552  1.00  0.00     0.085 C 
ENDROOT
BRANCH   9  11
HETATM   11  O1  UNL     1       1.009  -0.718  -1.079  1.00  0.00    -0.376 OA
BRANCH  11  12
HETATM   12  C17 UNL     1       1.649  -1.131   0.076  1.00  0.00     0.161 C 
HETATM   13  C18 UNL     1       2.351  -2.486  -0.133  1.00  0.00     0.153 C 
HETATM   14  O3  UNL     1       3.575  -2.430   0.527  1.00  0.00    -0.376 OA
HETATM   15  C21 UNL     1       3.685  -1.217   1.134  1.00  0.00     0.139 C 
HETATM   16  C28 UNL     1       2.860  -0.287   0.331  1.00  0.00     0.008 C 
HETATM   17  C29 UNL     1       2.581   0.941   1.159  1.00  0.00     0.020 C 
HETATM   18  C30 UNL     1       3.446   0.025  -1.029  1.00  0.00     0.020 C 
BRANCH  13  19
HETATM   19  C19 UNL     1       1.607  -3.602   0.626  1.00  0.00     0.060 C 
BRANCH  19  20
HETATM   20  C20 UNL     1       2.380  -4.878   0.343  1.00  0.00     0.166 C 
BRANCH  20  21
HETATM   21  O2  UNL     1       2.404  -5.132  -1.043  1.00  0.00    -0.401 OA
ATOM     22  H2  UNL     1       2.888  -5.930  -1.220  1.00  0.00     0.209 HD
ENDBRANCH  20  21
ENDBRANCH  19  20
ENDBRANCH  13  19
BRANCH  15  23
HETATM   23  C22 UNL     1       5.054  -0.881   1.538  1.00  0.00     0.034 C 
HETATM   24  C23 UNL     1       5.996  -0.886   0.353  1.00  0.00     0.017 C 
BRANCH  23  25
HETATM   25  C24 UNL     1       5.246   0.307   2.377  1.00  0.00    -0.021 C 
HETATM   26  C25 UNL     1       6.144   1.217   2.071  1.00  0.00     0.001 C 
BRANCH  26  27
HETATM   27  C26 UNL     1       6.418   2.441   2.837  1.00  0.00     0.136 C 
HETATM   28  C27 UNL     1       5.179   3.096   3.402  1.00  0.00     0.043 C 
BRANCH  27  29
HETATM   29  O4  UNL     1       7.345   2.143   3.831  1.00  0.00    -0.392 OA
ATOM     30  H4  UNL     1       7.522   2.934   4.326  1.00  0.00     0.210 HD
ENDBRANCH  27  29
ENDBRANCH  26  27
ENDBRANCH  23  25
ENDBRANCH  15  23
ENDBRANCH  11  12
ENDBRANCH   9  11
BRANCH  10  31
HETATM   31  C32 UNL     1      -0.573   1.628  -1.202  1.00  0.00     0.185 C 
HETATM   32  O5  UNL     1      -1.180   2.405  -0.430  1.00  0.00    -0.647 OA
HETATM   33  O6  UNL     1       0.634   2.174  -1.626  1.00  0.00    -0.647 OA
ENDBRANCH  10  31
BRANCH   1  34
HETATM   34  C7  UNL     1      -3.171   0.557   0.071  1.00  0.00     0.055 C 
BRANCH  34  35
HETATM   35  C6  UNL     1      -4.709   0.382  -0.147  1.00  0.00     0.016 C 
BRANCH  35  36
HETATM   36  C5  UNL     1      -5.461   0.731   1.108  1.00  0.00     0.028 C 
BRANCH  36  37
HETATM   37  C4  UNL     1      -6.904   0.539   0.842  1.00  0.00    -0.025 C 
HETATM   38  C2  UNL     1      -7.734   1.560   0.973  1.00  0.00    -0.091 C 
HETATM   39  C1  UNL     1      -7.218   2.883   1.379  1.00  0.00     0.042 C 
HETATM   40  C3  UNL     1      -9.171   1.376   0.716  1.00  0.00     0.042 C 
ENDBRANCH  36  37
ENDBRANCH  35  36
ENDBRANCH  34  35
BRANCH  34  41
HETATM   41  C8  UNL     1      -2.848  -0.365   1.169  1.00  0.00     0.091 C 
HETATM   42  N1  UNL     1      -3.354  -1.528   1.207  1.00  0.00    -0.391 N 
ATOM     43  H12 UNL     1      -3.997  -1.803   0.464  1.00  0.00     0.157 HD
ATOM     44  H11 UNL     1      -3.130  -2.168   1.969  1.00  0.00     0.157 HD
HETATM   45  N2  UNL     1      -1.955   0.017   2.201  1.00  0.00    -0.088 NA
ENDBRANCH  34  41
ENDBRANCH   1  34
TORSDOF 15
