REMARK  14 active torsions:
REMARK  status: ('A' for Active; 'I' for Inactive)
REMARK    1  A    between atoms: C1_4  and  C2_6 
REMARK    2  A    between atoms: C3_8  and  C4_9 
REMARK    3  A    between atoms: C5_10  and  C6_11 
REMARK    4  A    between atoms: C6_11  and  O2_13 
REMARK    5  A    between atoms: O2_13  and  C7_14 
REMARK    6  A    between atoms: C7_14  and  C8_15 
REMARK    7  A    between atoms: C8_15  and  C9_16 
REMARK    8  A    between atoms: C9_16  and  C10_17 
REMARK    9  A    between atoms: C10_17  and  C11_18 
REMARK   10  A    between atoms: C11_18  and  C12_19 
REMARK   11  A    between atoms: C12_19  and  N3_20 
REMARK       I    between atoms: N3_20  and  C13_22 
REMARK       I    between atoms: C13_22  and  N4_24 
REMARK   12  A    between atoms: C17_28  and  C18_29 
REMARK   13  A    between atoms: C20_33  and  C21_34 
REMARK   14  A    between atoms: C21_34  and  C22_35 
ROOT
HETATM    1  O2  UNL     1       1.097   0.705  -0.359  1.00  0.00    -0.318 OA
ENDROOT
BRANCH   1   2
HETATM    2  C6  UNL     1       2.232   0.863  -1.076  1.00  0.00     0.282 C 
HETATM    3  O1  UNL     1       2.261   1.551  -2.126  1.00  0.00    -0.260 OA
BRANCH   2   4
HETATM    4  C5  UNL     1       3.512   0.244  -0.682  1.00  0.00     0.083 C 
HETATM    5  C4  UNL     1       4.605   0.412  -1.394  1.00  0.00     0.025 C 
BRANCH   5   6
HETATM    6  C3  UNL     1       5.828  -0.240  -0.929  1.00  0.00     0.006 A 
HETATM    7  S1  UNL     1       6.036  -1.206   0.439  1.00  0.00    -0.086 SA
HETATM    8  C2  UNL     1       7.727  -1.577   0.283  1.00  0.00     0.056 A 
HETATM    9  C20 UNL     1       8.062  -0.900  -0.877  1.00  0.00    -0.014 A 
HETATM   10  C19 UNL     1       7.077  -0.223  -1.481  1.00  0.00     0.031 A 
BRANCH   8  11
HETATM   11  C1  UNL     1       8.505  -2.416   1.206  1.00  0.00     0.128 C 
HETATM   12  N1  UNL     1       9.666  -2.747   1.194  1.00  0.00    -0.387 N 
ATOM     13  H12 UNL     1      10.206  -3.329   1.834  1.00  0.00     0.157 HD
ATOM     14  H11 UNL     1      10.215  -2.391   0.411  1.00  0.00     0.157 HD
HETATM   15  N2  UNL     1       7.712  -2.930   2.337  1.00  0.00    -0.082 NA
ENDBRANCH   8  11
BRANCH   9  16
HETATM   16  C21 UNL     1       9.453  -0.943  -1.371  1.00  0.00     0.025 C 
BRANCH  16  17
HETATM   17  C22 UNL     1       9.969  -0.422  -2.442  1.00  0.00     0.085 C 
HETATM   18 CL1  UNL     1       9.189   0.510  -3.668  1.00  0.00    -0.097 Cl
ENDBRANCH  16  17
ENDBRANCH   9  16
ENDBRANCH   5   6
ENDBRANCH   2   4
ENDBRANCH   1   2
BRANCH   1  19
HETATM   19  C7  UNL     1      -0.167   1.282  -0.678  1.00  0.00     0.179 C 
BRANCH  19  20
HETATM   20  C8  UNL     1      -0.081   2.758  -0.583  1.00  0.00     0.027 C 
BRANCH  20  21
HETATM   21  C9  UNL     1      -1.248   3.596  -0.857  1.00  0.00     0.002 C 
BRANCH  21  22
HETATM   22  C10 UNL     1      -2.381   3.586   0.070  1.00  0.00     0.002 C 
BRANCH  22  23
HETATM   23  C11 UNL     1      -3.041   2.295   0.328  1.00  0.00     0.020 C 
BRANCH  23  24
HETATM   24  C12 UNL     1      -4.298   2.506   1.205  1.00  0.00     0.124 C 
BRANCH  24  25
HETATM   25  N3  UNL     1      -4.905   1.251   1.453  1.00  0.00    -0.343 N 
HETATM   26  C13 UNL     1      -5.434   0.412   0.454  1.00  0.00     0.319 C 
HETATM   27  O3  UNL     1      -5.406   0.731  -0.741  1.00  0.00    -0.247 OA
HETATM   28  N4  UNL     1      -6.033  -0.863   0.802  1.00  0.00    -0.320 N 
HETATM   29  C14 UNL     1      -6.129  -1.353   2.142  1.00  0.00     0.129 C 
HETATM   30  C17 UNL     1      -6.607  -1.800  -0.104  1.00  0.00     0.190 C 
HETATM   31  C15 UNL     1      -6.075  -2.867   2.004  1.00  0.00     0.022 C 
HETATM   32  C16 UNL     1      -6.732  -3.080   0.660  1.00  0.00     0.038 C 
ATOM     33  H3  UNL     1      -4.963   0.933   2.421  1.00  0.00     0.164 HD
BRANCH  30  34
HETATM   34  C18 UNL     1      -7.973  -1.401  -0.532  1.00  0.00     0.197 C 
HETATM   35  O4  UNL     1      -8.483  -0.344  -0.100  1.00  0.00    -0.646 OA
HETATM   36  O5  UNL     1      -8.666  -2.204  -1.405  1.00  0.00    -0.646 OA
ENDBRANCH  30  34
ENDBRANCH  24  25
ENDBRANCH  23  24
ENDBRANCH  22  23
ENDBRANCH  21  22
ENDBRANCH  20  21
ENDBRANCH  19  20
ENDBRANCH   1  19
TORSDOF 14
