REMARK  17 active torsions:
REMARK  status: ('A' for Active; 'I' for Inactive)
REMARK    1  A    between atoms: C2_2  and  C4_4 
REMARK    2  A    between atoms: C4_4  and  C5_5 
REMARK    3  A    between atoms: C5_5  and  C6_6 
REMARK    4  A    between atoms: C5_5  and  C13_13 
REMARK    5  A    between atoms: C7_7  and  C8_8 
REMARK    6  A    between atoms: C13_13  and  C14_14 
REMARK    7  A    between atoms: C13_13  and  C20_23 
REMARK    8  A    between atoms: C14_14  and  C15_15 
REMARK    9  A    between atoms: C16_16  and  C17_17 
REMARK   10  A    between atoms: C17_17  and  O1_18 
REMARK   11  A    between atoms: C17_17  and  C18_20 
REMARK   12  A    between atoms: C20_23  and  C21_24 
REMARK   13  A    between atoms: C21_24  and  O3_26 
REMARK   14  A    between atoms: O3_26  and  C22_27 
REMARK   15  A    between atoms: C24_29  and  O4_30 
REMARK   16  A    between atoms: C25_32  and  O5_33 
REMARK   17  A    between atoms: C27_36  and  O6_37 
ROOT
HETATM    1  C13 UNL     1      -0.088   0.516  -0.626  1.00  0.00     0.006 C 
ENDROOT
BRANCH   1   2
HETATM    2  C5  UNL     1      -1.420   0.625  -1.338  1.00  0.00     0.013 C 
BRANCH   2   3
HETATM    3  C4  UNL     1      -1.285   0.185  -2.777  1.00  0.00     0.012 C 
BRANCH   3   4
HETATM    4  C2  UNL     1      -1.015  -1.190  -3.127  1.00  0.00    -0.022 C 
HETATM    5  C1  UNL     1      -1.916  -2.292  -2.767  1.00  0.00     0.009 C 
HETATM    6  C3  UNL     1      -0.725  -1.326  -4.640  1.00  0.00     0.009 C 
ENDBRANCH   3   4
ENDBRANCH   2   3
BRANCH   2   7
HETATM    7  C6  UNL     1      -2.550  -0.066  -0.687  1.00  0.00    -0.025 C 
HETATM    8  C7  UNL     1      -2.645  -0.814   0.355  1.00  0.00    -0.025 C 
BRANCH   8   9
HETATM    9  C8  UNL     1      -3.985  -1.365   0.767  1.00  0.00     0.016 A 
HETATM   10  C9  UNL     1      -4.915  -1.957  -0.192  1.00  0.00     0.018 A 
HETATM   11  C10 UNL     1      -4.298  -2.777   0.906  1.00  0.00    -0.040 A 
HETATM   12  C11 UNL     1      -5.175  -3.161   2.093  1.00  0.00     0.015 C 
HETATM   13  C12 UNL     1      -3.399  -3.899   0.442  1.00  0.00     0.015 C 
ENDBRANCH   8   9
ENDBRANCH   2   7
ENDBRANCH   1   2
BRANCH   1  14
HETATM   14  C14 UNL     1      -0.076   1.037   0.776  1.00  0.00     0.032 C 
BRANCH  14  15
HETATM   15  C15 UNL     1      -0.428   2.518   0.784  1.00  0.00    -0.028 C 
HETATM   16  C16 UNL     1      -1.485   2.975   1.444  1.00  0.00     0.002 C 
BRANCH  16  17
HETATM   17  C17 UNL     1      -1.875   4.389   1.488  1.00  0.00     0.158 C 
BRANCH  17  18
HETATM   18  O1  UNL     1      -2.995   4.676   0.712  1.00  0.00    -0.390 OA
ATOM     19  H1  UNL     1      -3.247   5.591   0.740  1.00  0.00     0.210 HD
ENDBRANCH  17  18
BRANCH  17  20
HETATM   20  C18 UNL     1      -2.183   4.719   2.953  1.00  0.00     0.110 C 
HETATM   21  C19 UNL     1      -2.599   6.186   3.074  1.00  0.00     0.030 C 
HETATM   22 CL1  UNL     1      -3.489   3.675   3.562  1.00  0.00    -0.122 Cl
ENDBRANCH  17  20
ENDBRANCH  16  17
ENDBRANCH  14  15
ENDBRANCH   1  14
BRANCH   1  23
HETATM   23  C20 UNL     1       1.022   1.155  -1.383  1.00  0.00     0.116 C 
BRANCH  23  24
HETATM   24  C21 UNL     1       2.288   1.013  -0.641  1.00  0.00     0.259 C 
HETATM   25  O2  UNL     1       2.771   2.001  -0.032  1.00  0.00    -0.265 OA
BRANCH  24  26
HETATM   26  O3  UNL     1       3.014  -0.159  -0.558  1.00  0.00    -0.313 OA
BRANCH  26  27
HETATM   27  C22 UNL     1       4.221  -0.286   0.151  1.00  0.00     0.163 C 
HETATM   28  C23 UNL     1       4.177  -1.250   1.283  1.00  0.00     0.069 C 
HETATM   29  C24 UNL     1       5.518  -1.191   1.991  1.00  0.00     0.149 C 
HETATM   30  C25 UNL     1       6.519  -1.804   1.006  1.00  0.00     0.149 C 
HETATM   31  C26 UNL     1       6.653  -0.816  -0.126  1.00  0.00     0.068 C 
HETATM   32  C27 UNL     1       5.356  -0.538  -0.816  1.00  0.00     0.150 C 
BRANCH  29  33
HETATM   33  O4  UNL     1       5.892   0.142   2.135  1.00  0.00    -0.393 OA
ATOM     34  H4  UNL     1       6.731   0.179   2.578  1.00  0.00     0.210 HD
ENDBRANCH  29  33
BRANCH  30  35
HETATM   35  O5  UNL     1       5.989  -3.014   0.524  1.00  0.00    -0.393 OA
ATOM     36  H5  UNL     1       6.610  -3.394  -0.087  1.00  0.00     0.210 HD
ENDBRANCH  30  35
BRANCH  32  37
HETATM   37  O6  UNL     1       5.092  -1.508  -1.745  1.00  0.00    -0.393 OA
ATOM     38  H6  UNL     1       5.805  -1.666  -2.352  1.00  0.00     0.210 HD
ENDBRANCH  32  37
ENDBRANCH  26  27
ENDBRANCH  24  26
ENDBRANCH  23  24
ENDBRANCH   1  23
TORSDOF 17
