REMARK  14 active torsions:
REMARK  status: ('A' for Active; 'I' for Inactive)
REMARK       I    between atoms: C2_2  and  N1_4 
REMARK    1  A    between atoms: N1_4  and  C3_6 
REMARK    2  A    between atoms: C3_6  and  C5_8 
REMARK    3  A    between atoms: C5_8  and  C6_9 
REMARK    4  A    between atoms: C7_10  and  C8_11 
REMARK    5  A    between atoms: C8_11  and  N2_12 
REMARK    6  A    between atoms: N2_12  and  C9_14 
REMARK    7  A    between atoms: C10_16  and  O3_17 
REMARK    8  A    between atoms: C12_20  and  O4_21 
REMARK    9  A    between atoms: O4_21  and  C13_22 
REMARK   10  A    between atoms: C17_26  and  C18_27 
REMARK   11  A    between atoms: C18_27  and  C20_29 
REMARK   12  A    between atoms: C20_29  and  C21_30 
REMARK   13  A    between atoms: C21_30  and  O5_31 
REMARK   14  A    between atoms: C21_30  and  C22_33 
ROOT
HETATM    1  C9  UNL     1       1.362   2.634   0.911  1.00  0.00     0.249 C 
HETATM    2  O2  UNL     1       1.593   3.401   2.045  1.00  0.00    -0.335 OA
HETATM    3  C10 UNL     1       1.397   2.627   3.145  1.00  0.00     0.262 C 
HETATM    4  C11 UNL     1       0.979   1.258   2.757  1.00  0.00     0.097 C 
HETATM    5  C12 UNL     1       0.578   1.414   1.309  1.00  0.00     0.175 C 
ENDROOT
BRANCH   5   6
HETATM    6  O4  UNL     1      -0.755   1.726   1.154  1.00  0.00    -0.376 OA
BRANCH   6   7
HETATM    7  C13 UNL     1      -1.453   0.905   0.239  1.00  0.00     0.126 C 
HETATM    8  C14 UNL     1      -1.915   1.785  -0.900  1.00  0.00     0.032 C 
HETATM    9  C15 UNL     1      -2.301   1.024  -2.117  1.00  0.00     0.003 C 
HETATM   10  C16 UNL     1      -3.711   0.557  -2.137  1.00  0.00     0.005 C 
HETATM   11  C17 UNL     1      -3.889  -0.545  -1.049  1.00  0.00    -0.010 C 
HETATM   12  C23 UNL     1      -3.900   0.150   0.222  1.00  0.00     0.011 C 
HETATM   13  C24 UNL     1      -2.605   0.339   0.949  1.00  0.00     0.011 C 
HETATM   14  C25 UNL     1      -2.219  -1.041   1.512  1.00  0.00     0.012 C 
BRANCH  11  15
HETATM   15  C18 UNL     1      -4.989  -1.460  -1.453  1.00  0.00    -0.012 C 
HETATM   16  C19 UNL     1      -4.561  -2.077  -2.824  1.00  0.00     0.010 C 
BRANCH  15  17
HETATM   17  C20 UNL     1      -6.343  -0.956  -1.609  1.00  0.00     0.037 C 
BRANCH  17  18
HETATM   18  C21 UNL     1      -7.092  -0.428  -0.441  1.00  0.00     0.132 C 
BRANCH  18  19
HETATM   19  O5  UNL     1      -8.356   0.126  -1.032  1.00  0.00    -0.394 OA
ATOM     20  H5  UNL     1      -8.835   0.464  -0.285  1.00  0.00     0.210 HD
ENDBRANCH  18  19
BRANCH  18  21
HETATM   21  C22 UNL     1      -7.655  -1.473   0.505  1.00  0.00     0.146 C 
HETATM   22 CL1  UNL     1      -6.523  -2.541   1.231  1.00  0.00    -0.128 Cl
ENDBRANCH  18  21
ENDBRANCH  17  18
ENDBRANCH  15  17
ENDBRANCH  11  15
ENDBRANCH   6   7
ENDBRANCH   5   6
BRANCH   1  23
HETATM   23  N2  UNL     1       2.546   2.395   0.161  1.00  0.00    -0.392 N 
ATOM     24  H2  UNL     1       2.661   2.762  -0.784  1.00  0.00     0.156 HD
BRANCH  23  25
HETATM   25  C8  UNL     1       3.565   1.620   0.787  1.00  0.00     0.143 C 
BRANCH  25  26
HETATM   26  C7  UNL     1       4.770   1.681  -0.074  1.00  0.00    -0.012 C 
HETATM   27  C6  UNL     1       5.374   0.686  -0.655  1.00  0.00    -0.027 C 
BRANCH  27  28
HETATM   28  C5  UNL     1       5.034  -0.736  -0.622  1.00  0.00     0.051 C 
BRANCH  28  29
HETATM   29  C3  UNL     1       6.142  -1.609  -0.044  1.00  0.00     0.083 C 
HETATM   30  C4  UNL     1       6.343  -1.456   1.415  1.00  0.00     0.032 C 
BRANCH  29  31
HETATM   31  N1  UNL     1       7.364  -1.463  -0.826  1.00  0.00    -0.357 N 
HETATM   32  C2  UNL     1       7.807  -2.426  -1.762  1.00  0.00     0.213 C 
HETATM   33  C1  UNL     1       9.064  -2.179  -2.504  1.00  0.00     0.117 C 
HETATM   34  O1  UNL     1       7.158  -3.478  -1.974  1.00  0.00    -0.274 OA
ATOM     35  H1  UNL     1       7.928  -0.624  -0.691  1.00  0.00     0.162 HD
ENDBRANCH  29  31
ENDBRANCH  28  29
ENDBRANCH  27  28
ENDBRANCH  25  26
ENDBRANCH  23  25
ENDBRANCH   1  23
BRANCH   3  36
HETATM   36  O3  UNL     1       0.517   3.243   4.039  1.00  0.00    -0.371 OA
ATOM     37  H3  UNL     1       0.380   2.702   4.808  1.00  0.00     0.212 HD
ENDBRANCH   3  36
TORSDOF 14
