REMARK  15 active torsions:
REMARK  status: ('A' for Active; 'I' for Inactive)
REMARK    1  A    between atoms: N1_2  and  C3_4 
REMARK    2  A    between atoms: C3_4  and  C4_5 
REMARK    3  A    between atoms: C4_5  and  C5_6 
REMARK    4  A    between atoms: C5_6  and  C6_7 
REMARK    5  A    between atoms: C6_7  and  C7_8 
REMARK    6  A    between atoms: C7_8  and  C8_9 
REMARK    7  A    between atoms: C8_9  and  N2_10 
REMARK    8  A    between atoms: C12_18  and  N4_19 
REMARK    9  A    between atoms: N4_19  and  C13_21 
REMARK   10  A    between atoms: C13_21  and  C14_22 
REMARK   11  A    between atoms: C14_22  and  C15_23 
REMARK   12  A    between atoms: C15_23  and  N5_24 
REMARK       I    between atoms: N5_24  and  C16_26 
REMARK       I    between atoms: C16_26  and  N6_28 
REMARK   13  A    between atoms: N6_28  and  C17_30 
REMARK   14  A    between atoms: N8_34  and  C19_35 
REMARK   15  A    between atoms: C22_38  and  O2_39 
ROOT
HETATM    1  C13 UNL     1       0.684  -0.742  -1.098  1.00  0.00     0.123 C 
ENDROOT
BRANCH   1   2
HETATM    2  N4  UNL     1       0.488   0.664  -1.042  1.00  0.00    -0.374 N 
ATOM      3  H4  UNL     1      -0.454   0.984  -1.268  1.00  0.00     0.161 HD
BRANCH   2   4
HETATM    4  C12 UNL     1       1.322   1.583  -0.749  1.00  0.00     0.140 A 
HETATM    5  C11 UNL     1       0.886   2.912  -0.762  1.00  0.00     0.094 A 
HETATM    6  C10 UNL     1       1.794   3.882  -0.449  1.00  0.00     0.133 A 
HETATM    7 CL1  UNL     1      -0.780   3.252  -1.175  1.00  0.00    -0.079 Cl
HETATM    8  N3  UNL     1       3.050   3.554  -0.142  1.00  0.00    -0.200 N 
HETATM    9  C9  UNL     1       3.514   2.263  -0.119  1.00  0.00     0.679 A 
ATOM     10  H3  UNL     1       3.701   4.304   0.088  1.00  0.00     0.183 HD
HETATM   11  N2  UNL     1       4.743   2.043   0.186  1.00  0.00    -0.226 N 
HETATM   12  N9  UNL     1       2.604   1.327  -0.430  1.00  0.00    -0.175 N 
ATOM     13  H2  UNL     1       5.345   2.837   0.403  1.00  0.00     0.177 HD
ATOM     14  H9  UNL     1       2.905   0.353  -0.424  1.00  0.00     0.186 HD
BRANCH  11  15
HETATM   15  C8  UNL     1       5.298   0.725   0.232  1.00  0.00     0.138 C 
BRANCH  15  16
HETATM   16  C7  UNL     1       5.728   0.202  -1.124  1.00  0.00     0.020 C 
BRANCH  16  17
HETATM   17  C6  UNL     1       6.292  -1.178  -1.045  1.00  0.00     0.002 C 
BRANCH  17  18
HETATM   18  C5  UNL     1       7.503  -1.314  -0.178  1.00  0.00     0.002 C 
BRANCH  18  19
HETATM   19  C4  UNL     1       8.650  -0.469  -0.632  1.00  0.00     0.030 C 
BRANCH  19  20
HETATM   20  C3  UNL     1       9.810  -0.677   0.300  1.00  0.00     0.271 C 
BRANCH  20  21
HETATM   21  N1  UNL     1      10.969   0.095  -0.057  1.00  0.00     0.080 N 
HETATM   22  C1  UNL     1      10.701   1.491   0.146  1.00  0.00     0.309 C 
HETATM   23  C2  UNL     1      11.433  -0.173  -1.394  1.00  0.00     0.309 C 
ENDBRANCH  20  21
ENDBRANCH  19  20
ENDBRANCH  18  19
ENDBRANCH  17  18
ENDBRANCH  16  17
ENDBRANCH  15  16
ENDBRANCH  11  15
ENDBRANCH   2   4
ENDBRANCH   1   2
BRANCH   1  24
HETATM   24  C14 UNL     1      -0.077  -1.387   0.068  1.00  0.00     0.039 C 
BRANCH  24  25
HETATM   25  C15 UNL     1      -1.528  -1.049  -0.104  1.00  0.00     0.126 C 
BRANCH  25  26
HETATM   26  N5  UNL     1      -2.364  -1.594   0.924  1.00  0.00    -0.343 N 
HETATM   27  C16 UNL     1      -3.758  -1.375   0.904  1.00  0.00     0.320 C 
HETATM   28  O1  UNL     1      -4.228  -0.688  -0.044  1.00  0.00    -0.247 OA
HETATM   29  N6  UNL     1      -4.573  -1.919   1.923  1.00  0.00    -0.306 N 
ATOM     30  H6  UNL     1      -4.110  -2.458   2.654  1.00  0.00     0.171 HD
ATOM     31  H5  UNL     1      -1.949  -2.144   1.676  1.00  0.00     0.164 HD
BRANCH  29  32
HETATM   32  C17 UNL     1      -5.971  -1.778   2.012  1.00  0.00     0.070 A 
HETATM   33  C18 UNL     1      -6.784  -2.295   3.027  1.00  0.00     0.138 A 
HETATM   34  N7  UNL     1      -8.066  -1.954   2.757  1.00  0.00    -0.307 N 
HETATM   35  N8  UNL     1      -8.112  -1.258   1.640  1.00  0.00    -0.297 N 
ATOM     36  H7  UNL     1      -8.873  -2.199   3.331  1.00  0.00     0.186 HD
HETATM   37  C25 UNL     1      -6.840  -1.135   1.163  1.00  0.00     0.141 A 
BRANCH  35  38
HETATM   38  C19 UNL     1      -9.306  -0.722   1.030  1.00  0.00     0.107 C 
HETATM   39  C20 UNL     1      -9.522   0.721   1.416  1.00  0.00     0.030 C 
HETATM   40  C21 UNL     1     -10.910   1.099   0.915  1.00  0.00     0.034 C 
HETATM   41  C22 UNL     1     -10.940   1.013  -0.583  1.00  0.00     0.118 C 
HETATM   42  C23 UNL     1      -9.673   0.427  -1.155  1.00  0.00     0.034 C 
HETATM   43  C24 UNL     1      -9.315  -0.888  -0.487  1.00  0.00     0.030 C 
BRANCH  41  44
HETATM   44  O2  UNL     1     -12.034   0.225  -0.994  1.00  0.00    -0.396 OA
ATOM     45  H2  UNL     1     -12.053   0.171  -1.942  1.00  0.00     0.210 HD
ENDBRANCH  41  44
ENDBRANCH  35  38
ENDBRANCH  29  32
ENDBRANCH  25  26
ENDBRANCH  24  25
ENDBRANCH   1  24
TORSDOF 15
