REMARK  16 active torsions:
REMARK  status: ('A' for Active; 'I' for Inactive)
REMARK    1  A    between atoms: C4_8  and  C5_9 
REMARK    2  A    between atoms: C5_9  and  C6_10 
REMARK    3  A    between atoms: C6_10  and  C7_11 
REMARK    4  A    between atoms: C7_11  and  C8_12 
REMARK    5  A    between atoms: C8_12  and  N3_13 
REMARK    6  A    between atoms: N3_13  and  C9_15 
REMARK    7  A    between atoms: C9_15  and  N4_17 
REMARK    8  A    between atoms: N4_17  and  C10_19 
REMARK    9  A    between atoms: C15_25  and  O1_26 
REMARK   10  A    between atoms: O1_26  and  C16_27 
REMARK   11  A    between atoms: C16_27  and  C17_28 
REMARK   12  A    between atoms: C17_28  and  O2_29 
REMARK   13  A    between atoms: O2_29  and  C18_30 
REMARK   14  A    between atoms: C18_30  and  C19_31 
REMARK   15  A    between atoms: C19_31  and  N5_32 
REMARK   16  A    between atoms: N5_32  and  C20_34 
ROOT
HETATM    1  C9  UNL     1      -0.979   3.064   0.666  1.00  0.00     0.172 C 
HETATM    2  S1  UNL     1      -1.684   4.329  -0.063  1.00  0.00    -0.041 SA
ENDROOT
BRANCH   1   3
HETATM    3  N3  UNL     1      -1.908   2.227   1.418  1.00  0.00    -0.367 N 
ATOM      4  H3  UNL     1      -2.904   2.445   1.446  1.00  0.00     0.161 HD
BRANCH   3   5
HETATM    5  C8  UNL     1      -1.385   1.096   2.113  1.00  0.00     0.122 C 
BRANCH   5   6
HETATM    6  C7  UNL     1      -2.353   0.229   2.814  1.00  0.00     0.020 C 
BRANCH   6   7
HETATM    7  C6  UNL     1      -3.347  -0.541   2.026  1.00  0.00     0.009 C 
BRANCH   7   8
HETATM    8  C5  UNL     1      -4.258   0.245   1.168  1.00  0.00     0.076 C 
BRANCH   8   9
HETATM    9  C4  UNL     1      -5.268  -0.664   0.478  1.00  0.00     0.084 A 
HETATM   10  N2  UNL     1      -6.474  -1.027   0.943  1.00  0.00    -0.328 N 
HETATM   11  C3  UNL     1      -7.093  -1.836   0.067  1.00  0.00     0.161 A 
ATOM     12  H2  UNL     1      -6.866  -0.730   1.837  1.00  0.00     0.169 HD
HETATM   13  N1  UNL     1      -8.172  -2.573  -0.254  1.00  0.00    -0.323 N 
HETATM   14  C21 UNL     1      -6.242  -1.998  -1.006  1.00  0.00     0.195 A 
HETATM   15  C2  UNL     1      -8.006  -3.158  -1.452  1.00  0.00     0.123 A 
ATOM     16  H1  UNL     1      -9.001  -2.674   0.331  1.00  0.00     0.169 HD
HETATM   17  C1  UNL     1      -8.984  -4.061  -2.163  1.00  0.00     0.098 C 
HETATM   18  O3  UNL     1      -6.825  -2.786  -1.876  1.00  0.00    -0.277 OA
HETATM   19  N7  UNL     1      -5.132  -1.263  -0.716  1.00  0.00    -0.323 N 
ATOM     20  H7  UNL     1      -4.314  -1.180  -1.320  1.00  0.00     0.169 HD
ENDBRANCH   8   9
ENDBRANCH   7   8
ENDBRANCH   6   7
ENDBRANCH   5   6
ENDBRANCH   3   5
ENDBRANCH   1   3
BRANCH   1  21
HETATM   21  N4  UNL     1       0.380   2.753   0.654  1.00  0.00    -0.331 N 
ATOM     22  H4  UNL     1       0.663   1.943   1.205  1.00  0.00     0.168 HD
BRANCH  21  23
HETATM   23  C10 UNL     1       1.413   3.433  -0.036  1.00  0.00     0.069 A 
HETATM   24  C11 UNL     1       1.239   4.361  -1.000  1.00  0.00     0.056 A 
HETATM   25  C12 UNL     1       2.322   4.943  -1.648  1.00  0.00     0.036 A 
HETATM   26 CL1  UNL     1       2.046   6.149  -2.898  1.00  0.00    -0.084 Cl
HETATM   27  C13 UNL     1       3.598   4.577  -1.312  1.00  0.00     0.026 A 
HETATM   28  C14 UNL     1       3.797   3.633  -0.332  1.00  0.00     0.041 A 
HETATM   29  C15 UNL     1       2.746   3.067   0.298  1.00  0.00     0.095 A 
BRANCH  29  30
HETATM   30  O1  UNL     1       2.938   2.142   1.263  1.00  0.00    -0.347 OA
BRANCH  30  31
HETATM   31  C16 UNL     1       4.009   1.535   1.839  1.00  0.00     0.201 C 
BRANCH  31  32
HETATM   32  C17 UNL     1       4.888   0.683   0.985  1.00  0.00     0.194 C 
BRANCH  32  33
HETATM   33  O2  UNL     1       4.194  -0.381   0.405  1.00  0.00    -0.387 OA
BRANCH  33  34
HETATM   34  C18 UNL     1       5.049  -1.158  -0.385  1.00  0.00     0.187 C 
BRANCH  34  35
HETATM   35  C19 UNL     1       4.349  -2.306  -1.023  1.00  0.00     0.148 C 
BRANCH  35  36
HETATM   36  N5  UNL     1       5.258  -3.081  -1.825  1.00  0.00    -0.367 N 
ATOM     37  H5  UNL     1       5.140  -3.050  -2.838  1.00  0.00     0.161 HD
BRANCH  36  38
HETATM   38  C20 UNL     1       6.306  -3.885  -1.309  1.00  0.00     0.181 C 
HETATM   39  N6  UNL     1       7.183  -4.630  -2.157  1.00  0.00    -0.070 NA
HETATM   40  S2  UNL     1       6.549  -4.008   0.297  1.00  0.00    -0.044 SA
ENDBRANCH  36  38
ENDBRANCH  35  36
ENDBRANCH  34  35
ENDBRANCH  33  34
ENDBRANCH  32  33
ENDBRANCH  31  32
ENDBRANCH  30  31
ENDBRANCH  29  30
ENDBRANCH  21  23
ENDBRANCH   1  21
TORSDOF 16
