REMARK  14 active torsions:
REMARK  status: ('A' for Active; 'I' for Inactive)
REMARK    1  A    between atoms: C2_2  and  C3_3 
REMARK    2  A    between atoms: C3_3  and  C4_4 
REMARK    3  A    between atoms: C4_4  and  C5_5 
REMARK    4  A    between atoms: C6_8  and  C7_9 
REMARK    5  A    between atoms: C7_9  and  O1_10 
REMARK    6  A    between atoms: C7_9  and  C8_12 
REMARK    7  A    between atoms: C8_12  and  N2_13 
REMARK    8  A    between atoms: N2_13  and  C9_16 
REMARK    9  A    between atoms: C14_21  and  C15_22 
REMARK   10  A    between atoms: C15_22  and  N3_23 
REMARK   11  A    between atoms: N3_23  and  C16_25 
REMARK   12  A    between atoms: C16_25  and  C17_26 
REMARK   13  A    between atoms: C17_26  and  C18_27 
REMARK   14  A    between atoms: C18_27  and  N4_28 
ROOT
HETATM    1  C9  UNL     1       1.582  -0.112   2.104  1.00  0.00     0.190 C 
HETATM    2  C10 UNL     1       1.537   0.905   0.974  1.00  0.00     0.058 C 
HETATM    3  C11 UNL     1       0.152   0.736   0.464  1.00  0.00     0.085 C 
HETATM    4  C12 UNL     1      -0.528   1.633  -0.431  1.00  0.00     0.026 C 
HETATM    5  C13 UNL     1      -2.012   1.184  -0.412  1.00  0.00     0.012 C 
HETATM    6  C14 UNL     1      -2.256  -0.231  -0.214  1.00  0.00     0.025 C 
HETATM    7  C23 UNL     1      -1.780  -0.861   1.075  1.00  0.00     0.035 C 
HETATM    8  C24 UNL     1      -0.336  -1.402   0.959  1.00  0.00     0.086 C 
HETATM    9  C25 UNL     1       0.510  -1.115   2.149  1.00  0.00     0.058 C 
HETATM   10  N5  UNL     1       0.140  -0.589  -0.097  1.00  0.00    -0.390 N 
HETATM   11  C26 UNL     1       1.023  -1.014  -1.012  1.00  0.00     0.116 C 
ENDROOT
BRANCH   1  12
HETATM   12  N2  UNL     1       2.946  -0.611   2.351  1.00  0.00    -0.065 N 
ATOM     13  H22 UNL     1       3.352  -1.108   1.558  1.00  0.00     0.278 HD
ATOM     14  H21 UNL     1       2.987  -1.387   3.011  1.00  0.00     0.278 HD
BRANCH  12  15
HETATM   15  C8  UNL     1       3.705   0.545   2.764  1.00  0.00     0.299 C 
BRANCH  15  16
HETATM   16  C7  UNL     1       5.048   0.336   3.300  1.00  0.00     0.095 C 
BRANCH  16  17
HETATM   17  C6  UNL     1       6.175   0.105   2.400  1.00  0.00     0.065 A 
HETATM   18  N1  UNL     1       6.235  -0.144   1.087  1.00  0.00    -0.356 N 
HETATM   19  C5  UNL     1       7.490  -0.278   0.656  1.00  0.00     0.031 A 
ATOM     20  H1  UNL     1       5.415  -0.222   0.485  1.00  0.00     0.166 HD
HETATM   21  C28 UNL     1       8.318  -0.105   1.757  1.00  0.00     0.058 A 
HETATM   22  C27 UNL     1       7.498   0.131   2.827  1.00  0.00     0.058 A 
HETATM   23 CL1  UNL     1      10.064  -0.171   1.764  1.00  0.00    -0.082 Cl
BRANCH  19  24
HETATM   24  C4  UNL     1       8.052  -0.574  -0.688  1.00  0.00     0.059 C 
BRANCH  24  25
HETATM   25  C3  UNL     1       8.667   0.661  -1.275  1.00  0.00     0.006 C 
BRANCH  25  26
HETATM   26  C2  UNL     1       9.300   0.419  -2.621  1.00  0.00    -0.004 C 
HETATM   27  C1  UNL     1      10.417  -0.611  -2.538  1.00  0.00     0.005 C 
ENDBRANCH  25  26
ENDBRANCH  24  25
ENDBRANCH  19  24
ENDBRANCH  16  17
BRANCH  16  28
HETATM   28  O1  UNL     1       5.098  -0.512   4.420  1.00  0.00    -0.361 OA
ATOM     29  H1  UNL     1       4.365  -0.362   5.005  1.00  0.00     0.217 HD
ENDBRANCH  16  28
ENDBRANCH  15  16
ENDBRANCH  12  15
ENDBRANCH   1  12
BRANCH   6  30
HETATM   30  C15 UNL     1      -3.716  -0.582  -0.355  1.00  0.00     0.060 C 
BRANCH  30  31
HETATM   31  N3  UNL     1      -4.365  -0.278  -1.549  1.00  0.00    -0.402 N 
ATOM     32  H3  UNL     1      -4.435  -1.003  -2.263  1.00  0.00     0.158 HD
BRANCH  31  33
HETATM   33  C16 UNL     1      -4.924   0.974  -1.815  1.00  0.00     0.120 C 
BRANCH  33  34
HETATM   34  C17 UNL     1      -6.308   1.172  -1.140  1.00  0.00     0.039 C 
BRANCH  34  35
HETATM   35  C18 UNL     1      -7.271   0.163  -1.729  1.00  0.00     0.123 C 
BRANCH  35  36
HETATM   36  N4  UNL     1      -8.591   0.297  -1.226  1.00  0.00    -0.389 N 
HETATM   37  C19 UNL     1      -8.863  -0.058   0.110  1.00  0.00     0.084 C 
HETATM   38  C20 UNL     1     -10.297  -0.576   0.208  1.00  0.00     0.212 C 
HETATM   39  O2  UNL     1     -10.476  -1.627  -0.696  1.00  0.00    -0.385 OA
HETATM   40  C21 UNL     1     -10.240  -1.280  -2.008  1.00  0.00     0.187 C 
HETATM   41  C22 UNL     1      -9.642   0.085  -2.179  1.00  0.00     0.148 C 
ENDBRANCH  35  36
ENDBRANCH  34  35
ENDBRANCH  33  34
ENDBRANCH  31  33
ENDBRANCH  30  31
ENDBRANCH   6  30
TORSDOF 14
