REMARK  16 active torsions:
REMARK  status: ('A' for Active; 'I' for Inactive)
REMARK    1  A    between atoms: C2_2  and  C3_3 
REMARK    2  A    between atoms: C3_3  and  N1_4 
REMARK    3  A    between atoms: C4_5  and  C5_6 
REMARK    4  A    between atoms: C7_10  and  N2_11 
REMARK    5  A    between atoms: N2_11  and  C8_13 
REMARK    6  A    between atoms: C8_13  and  C9_14 
REMARK    7  A    between atoms: C9_14  and  C10_15 
REMARK    8  A    between atoms: C10_15  and  C11_16 
REMARK    9  A    between atoms: C11_16  and  C12_17 
REMARK   10  A    between atoms: C12_17  and  N3_18 
REMARK   11  A    between atoms: N3_18  and  C13_20 
REMARK   12  A    between atoms: C13_20  and  N4_22 
REMARK   13  A    between atoms: N4_22  and  C14_24 
REMARK   14  A    between atoms: C14_24  and  C15_25 
REMARK   15  A    between atoms: C15_25  and  C16_26 
REMARK   16  A    between atoms: C22_36  and  N6_37 
ROOT
HETATM    1  C9  UNL     1      -1.530   1.555  -0.559  1.00  0.00     0.020 C 
ENDROOT
BRANCH   1   2
HETATM    2  C8  UNL     1      -2.862   1.140   0.030  1.00  0.00     0.121 C 
BRANCH   2   3
HETATM    3  N2  UNL     1      -3.871   0.963  -0.968  1.00  0.00    -0.376 N 
ATOM      4  H2  UNL     1      -3.677   1.249  -1.927  1.00  0.00     0.161 HD
BRANCH   3   5
HETATM    5  C7  UNL     1      -5.019   0.451  -0.686  1.00  0.00     0.119 A 
HETATM    6  C6  UNL     1      -5.356   0.045   0.563  1.00  0.00     0.082 A 
HETATM    7  C4  UNL     1      -6.604  -0.523   0.916  1.00  0.00     0.093 A 
HETATM    8  N1  UNL     1      -7.491  -0.657  -0.067  1.00  0.00    -0.160 N 
HETATM    9  C22 UNL     1      -7.146  -0.243  -1.338  1.00  0.00     0.684 A 
HETATM   10  N5  UNL     1      -5.959   0.291  -1.645  1.00  0.00    -0.177 N 
ATOM     11  H5  UNL     1      -5.762   0.578  -2.604  1.00  0.00     0.186 HD
BRANCH   7  12
HETATM   12  C5  UNL     1      -6.823  -0.895   2.282  1.00  0.00     0.131 C 
HETATM   13 CL1  UNL     1      -7.386  -2.475   2.724  1.00  0.00    -0.068 Cl
HETATM   14 CL2  UNL     1      -7.521   0.431   3.306  1.00  0.00    -0.068 Cl
ENDBRANCH   7  12
BRANCH   8  15
HETATM   15  C3  UNL     1      -8.760  -1.217   0.132  1.00  0.00     0.088 C 
BRANCH  15  16
HETATM   16  C2  UNL     1      -9.913  -0.378   0.532  1.00  0.00     0.041 C 
HETATM   17  C1  UNL     1     -10.286   0.740  -0.398  1.00  0.00     0.010 C 
ENDBRANCH  15  16
ENDBRANCH   8  15
BRANCH   9  18
HETATM   18  N6  UNL     1      -7.991  -0.385  -2.301  1.00  0.00    -0.234 N 
ATOM     19  H62 UNL     1      -8.896  -0.792  -2.067  1.00  0.00     0.174 HD
ATOM     20  H61 UNL     1      -7.736  -0.079  -3.240  1.00  0.00     0.174 HD
ENDBRANCH   9  18
ENDBRANCH   3   5
ENDBRANCH   2   3
ENDBRANCH   1   2
BRANCH   1  21
HETATM   21  C10 UNL     1      -0.991   0.551  -1.526  1.00  0.00     0.003 C 
BRANCH  21  22
HETATM   22  C11 UNL     1      -0.764  -0.803  -0.907  1.00  0.00     0.020 C 
BRANCH  22  23
HETATM   23  C12 UNL     1       0.205  -0.784   0.222  1.00  0.00     0.122 C 
BRANCH  23  24
HETATM   24  N3  UNL     1       1.480  -0.310  -0.241  1.00  0.00    -0.367 N 
ATOM     25  H3  UNL     1       1.608  -0.048  -1.218  1.00  0.00     0.161 HD
BRANCH  24  26
HETATM   26  C13 UNL     1       2.558  -0.210   0.675  1.00  0.00     0.167 C 
HETATM   27  S1  UNL     1       2.306  -0.639   2.223  1.00  0.00    -0.041 SA
BRANCH  26  28
HETATM   28  N4  UNL     1       3.842   0.252   0.274  1.00  0.00    -0.367 N 
ATOM     29  H4  UNL     1       4.008   0.524  -0.695  1.00  0.00     0.161 HD
BRANCH  28  30
HETATM   30  C14 UNL     1       4.896   0.334   1.231  1.00  0.00     0.124 C 
BRANCH  30  31
HETATM   31  C15 UNL     1       6.192   0.839   0.644  1.00  0.00     0.051 C 
BRANCH  31  32
HETATM   32  C16 UNL     1       6.702  -0.043  -0.462  1.00  0.00     0.128 C 
HETATM   33  C17 UNL     1       6.976  -1.453  -0.025  1.00  0.00     0.058 C 
HETATM   34  C18 UNL     1       8.301  -1.409   0.740  1.00  0.00     0.174 C 
HETATM   35  O1  UNL     1       9.241  -0.958  -0.151  1.00  0.00    -0.356 OA
HETATM   36  C19 UNL     1       9.003   0.270  -0.709  1.00  0.00     0.157 C 
HETATM   37  C20 UNL     1       9.918   0.360  -1.943  1.00  0.00     0.078 C 
HETATM   38  C21 UNL     1       9.493   1.353   0.243  1.00  0.00     0.078 C 
HETATM   39  O2  UNL     1       7.737   0.504  -1.168  1.00  0.00    -0.350 OA
ENDBRANCH  31  32
ENDBRANCH  30  31
ENDBRANCH  28  30
ENDBRANCH  26  28
ENDBRANCH  24  26
ENDBRANCH  23  24
ENDBRANCH  22  23
ENDBRANCH  21  22
ENDBRANCH   1  21
TORSDOF 16
