REMARK  16 active torsions:
REMARK  status: ('A' for Active; 'I' for Inactive)
REMARK    1  A    between atoms: C2_2  and  N1_3 
REMARK    2  A    between atoms: C3_5  and  N2_6 
REMARK    3  A    between atoms: C3_5  and  O2_36 
REMARK    4  A    between atoms: N2_6  and  C4_8 
REMARK    5  A    between atoms: C4_8  and  C5_9 
REMARK    6  A    between atoms: N4_16  and  C9_17 
REMARK    7  A    between atoms: C9_17  and  C10_18 
REMARK    8  A    between atoms: C10_18  and  C11_19 
REMARK    9  A    between atoms: C11_19  and  C12_20 
REMARK   10  A    between atoms: C12_20  and  C13_21 
REMARK   11  A    between atoms: C13_21  and  N5_22 
REMARK   12  A    between atoms: N5_22  and  C14_25 
REMARK   13  A    between atoms: C14_25  and  C15_26 
REMARK   14  A    between atoms: C15_26  and  O1_27 
REMARK   15  A    between atoms: O1_27  and  C16_28 
REMARK   16  A    between atoms: O2_36  and  C22_37 
ROOT
HETATM    1  C5  UNL     1      -1.979  -0.874   0.156  1.00  0.00     0.266 C 
HETATM    2  C6  UNL     1      -3.140  -1.428  -0.610  1.00  0.00     0.269 C 
HETATM    3  N3  UNL     1      -2.672  -2.534  -1.434  1.00  0.00    -0.071 N 
ATOM      4  H31 UNL     1      -3.433  -3.128  -1.763  1.00  0.00     0.277 HD
ATOM      5  H32 UNL     1      -2.169  -3.239  -0.895  1.00  0.00     0.277 HD
HETATM    6  C7  UNL     1      -1.888  -1.997  -2.507  1.00  0.00     0.262 C 
HETATM    7  C8  UNL     1      -1.032  -0.861  -2.002  1.00  0.00     0.300 C 
HETATM    8  N4  UNL     1      -0.752  -0.927  -0.603  1.00  0.00     0.098 N 
ENDROOT
BRANCH   8   9
HETATM    9  C9  UNL     1       0.113  -1.989  -0.205  1.00  0.00     0.273 C 
BRANCH   9  10
HETATM   10  C10 UNL     1       1.384  -1.990  -1.019  1.00  0.00     0.030 C 
BRANCH  10  11
HETATM   11  C11 UNL     1       2.154  -0.695  -0.861  1.00  0.00     0.003 C 
BRANCH  11  12
HETATM   12  C12 UNL     1       3.397  -0.785  -1.701  1.00  0.00     0.027 C 
BRANCH  12  13
HETATM   13  C13 UNL     1       4.250   0.438  -1.634  1.00  0.00     0.232 C 
BRANCH  13  14
HETATM   14  N5  UNL     1       4.692   0.704  -0.289  1.00  0.00    -0.073 N 
ATOM     15  H52 UNL     1       3.913   0.766   0.367  1.00  0.00     0.277 HD
ATOM     16  H51 UNL     1       5.169  -0.097   0.125  1.00  0.00     0.277 HD
BRANCH  14  17
HETATM   17  C14 UNL     1       5.528   1.916  -0.275  1.00  0.00     0.258 C 
BRANCH  17  18
HETATM   18  C15 UNL     1       5.949   2.136   1.147  1.00  0.00     0.203 C 
BRANCH  18  19
HETATM   19  O1  UNL     1       6.675   1.137   1.743  1.00  0.00    -0.349 OA
BRANCH  19  20
HETATM   20  C16 UNL     1       7.897   0.605   1.502  1.00  0.00     0.072 A 
HETATM   21  C17 UNL     1       8.698   1.085   0.494  1.00  0.00     0.060 A 
HETATM   22  C18 UNL     1       9.966   0.552   0.219  1.00  0.00     0.038 A 
HETATM   23 CL1  UNL     1      10.924   1.214  -1.078  1.00  0.00    -0.084 Cl
HETATM   24  C19 UNL     1      10.426  -0.493   0.991  1.00  0.00     0.048 A 
HETATM   25  C20 UNL     1       9.608  -0.960   1.998  1.00  0.00     0.038 A 
HETATM   26 CL2  UNL     1      10.219  -2.294   2.971  1.00  0.00    -0.084 Cl
HETATM   27  C21 UNL     1       8.380  -0.455   2.275  1.00  0.00     0.060 A 
ENDBRANCH  19  20
ENDBRANCH  18  19
ENDBRANCH  17  18
ENDBRANCH  14  17
ENDBRANCH  13  14
ENDBRANCH  12  13
ENDBRANCH  11  12
ENDBRANCH  10  11
ENDBRANCH   9  10
ENDBRANCH   8   9
BRANCH   1  28
HETATM   28  C4  UNL     1      -2.155   0.574   0.563  1.00  0.00     0.161 C 
BRANCH  28  29
HETATM   29  N2  UNL     1      -3.275   0.838   1.396  1.00  0.00    -0.354 N 
ATOM     30  H2  UNL     1      -3.067   1.118   2.354  1.00  0.00     0.163 HD
BRANCH  29  31
HETATM   31  C3  UNL     1      -4.640   0.758   1.053  1.00  0.00     0.215 C 
HETATM   32  N1  UNL     1      -5.194   1.427   0.122  1.00  0.00    -0.357 N 
ATOM     33  H1  UNL     1      -6.191   1.295  -0.046  1.00  0.00     0.163 HD
BRANCH  32  34
HETATM   34  C2  UNL     1      -4.481   2.352  -0.695  1.00  0.00     0.118 C 
HETATM   35  C1  UNL     1      -5.389   3.437  -1.271  1.00  0.00     0.026 C 
ENDBRANCH  32  34
BRANCH  31  36
HETATM   36  O2  UNL     1      -5.435  -0.108   1.781  1.00  0.00    -0.312 OA
BRANCH  36  37
HETATM   37  C22 UNL     1      -6.814  -0.285   1.565  1.00  0.00     0.060 C 
HETATM   38  C23 UNL     1      -7.155  -0.768   0.190  1.00  0.00     0.046 C 
HETATM   39  C24 UNL     1      -7.289  -1.325   2.560  1.00  0.00     0.046 C 
HETATM   40  C25 UNL     1      -7.604   0.975   1.823  1.00  0.00     0.046 C 
ENDBRANCH  36  37
ENDBRANCH  31  36
ENDBRANCH  29  31
ENDBRANCH  28  29
ENDBRANCH   1  28
TORSDOF 16
