REMARK  13 active torsions:
REMARK  status: ('A' for Active; 'I' for Inactive)
REMARK    1  A    between atoms: C4_4  and  C5_5 
REMARK    2  A    between atoms: C5_5  and  C6_6 
REMARK    3  A    between atoms: C9_9  and  C10_10 
REMARK    4  A    between atoms: C10_10  and  C11_11 
REMARK    5  A    between atoms: C11_11  and  C12_12 
REMARK    6  A    between atoms: C11_11  and  C18_20 
REMARK    7  A    between atoms: C12_12  and  C13_13 
REMARK    8  A    between atoms: C14_14  and  C15_15 
REMARK    9  A    between atoms: C16_16  and  C17_17 
REMARK   10  A    between atoms: C18_20  and  C19_21 
REMARK   11  A    between atoms: C20_22  and  C21_23 
REMARK   12  A    between atoms: C21_23  and  O2_26 
REMARK   13  A    between atoms: C31_37  and  O5_38 
ROOT
HETATM    1  C6  UNL     1      -2.755   0.241  -0.387  1.00  0.00     0.018 C 
HETATM    2  C7  UNL     1      -1.978  -1.019  -0.077  1.00  0.00     0.011 C 
HETATM    3  C8  UNL     1      -0.523  -0.765  -0.290  1.00  0.00     0.035 C 
HETATM    4  C9  UNL     1       0.211  -0.141   0.844  1.00  0.00    -0.070 C 
HETATM    5  C24 UNL     1      -0.079  -0.505   2.230  1.00  0.00     0.110 C 
HETATM    6  C25 UNL     1       0.996   0.136   3.129  1.00  0.00     0.025 C 
HETATM    7  C26 UNL     1      -1.319   0.145   2.839  1.00  0.00     0.267 C 
HETATM    8  O3  UNL     1      -1.710  -0.613   3.797  1.00  0.00    -0.264 OA
HETATM    9  O4  UNL     1      -1.775   1.269   2.359  1.00  0.00    -0.310 OA
HETATM   10  C27 UNL     1      -2.798   2.090   2.070  1.00  0.00     0.066 C 
HETATM   11  C28 UNL     1      -3.303   2.753   3.377  1.00  0.00     0.046 C 
HETATM   12  C29 UNL     1      -2.277   3.299   1.272  1.00  0.00     0.046 C 
HETATM   13  C30 UNL     1      -3.998   1.562   1.388  1.00  0.00     0.070 C 
HETATM   14  C31 UNL     1      -3.891   0.371   0.539  1.00  0.00     0.125 C 
ENDROOT
BRANCH   4  15
HETATM   15  C10 UNL     1       1.598   0.187   0.491  1.00  0.00    -0.018 C 
BRANCH  15  16
HETATM   16  C11 UNL     1       2.640  -0.664   0.012  1.00  0.00     0.015 C 
BRANCH  16  17
HETATM   17  C12 UNL     1       3.880   0.285  -0.170  1.00  0.00     0.036 C 
BRANCH  17  18
HETATM   18  C13 UNL     1       3.617   1.347  -1.111  1.00  0.00    -0.026 C 
HETATM   19  C14 UNL     1       3.679   2.662  -0.781  1.00  0.00    -0.004 C 
BRANCH  19  20
HETATM   20  C15 UNL     1       3.411   3.677  -1.744  1.00  0.00     0.005 C 
HETATM   21  C16 UNL     1       3.441   4.953  -1.537  1.00  0.00     0.071 C 
BRANCH  21  22
HETATM   22  C17 UNL     1       3.741   5.645  -0.333  1.00  0.00     0.254 C 
HETATM   23  N1  UNL     1       4.079   5.144   0.934  1.00  0.00    -0.058 NA
HETATM   24  O1  UNL     1       3.702   6.938  -0.394  1.00  0.00    -0.272 OA
ENDBRANCH  21  22
ENDBRANCH  19  20
ENDBRANCH  17  18
ENDBRANCH  16  17
BRANCH  16  25
HETATM   25  C18 UNL     1       3.228  -1.857   0.597  1.00  0.00     0.035 C 
BRANCH  25  26
HETATM   26  C19 UNL     1       2.420  -3.065   0.843  1.00  0.00    -0.027 C 
HETATM   27  C20 UNL     1       2.552  -4.258   0.352  1.00  0.00     0.006 C 
BRANCH  27  28
HETATM   28  C21 UNL     1       3.598  -4.653  -0.602  1.00  0.00     0.068 C 
HETATM   29  C22 UNL     1       3.331  -6.058  -1.161  1.00  0.00     0.050 C 
HETATM   30  C23 UNL     1       4.988  -4.703  -0.027  1.00  0.00     0.050 C 
BRANCH  28  31
HETATM   31  O2  UNL     1       3.532  -3.767  -1.696  1.00  0.00    -0.387 OA
ATOM     32  H2  UNL     1       4.208  -4.022  -2.313  1.00  0.00     0.211 HD
ENDBRANCH  28  31
ENDBRANCH  27  28
ENDBRANCH  25  26
ENDBRANCH  16  25
ENDBRANCH  15  16
ENDBRANCH   4  15
BRANCH   1  33
HETATM   33  C5  UNL     1      -3.065   0.322  -1.846  1.00  0.00     0.034 C 
BRANCH  33  34
HETATM   34  C4  UNL     1      -3.860  -0.737  -2.439  1.00  0.00    -0.024 C 
HETATM   35  C2  UNL     1      -5.021  -0.476  -3.014  1.00  0.00    -0.091 C 
HETATM   36  C1  UNL     1      -5.593   0.898  -3.095  1.00  0.00     0.042 C 
HETATM   37  C3  UNL     1      -5.868  -1.555  -3.638  1.00  0.00     0.042 C 
ENDBRANCH  33  34
ENDBRANCH   1  33
BRANCH  14  38
HETATM   38  O5  UNL     1      -4.076  -0.770   1.363  1.00  0.00    -0.395 OA
ATOM     39  H5  UNL     1      -4.809  -0.686   1.961  1.00  0.00     0.210 HD
ENDBRANCH  14  38
TORSDOF 13
