REMARK  13 active torsions:
REMARK  status: ('A' for Active; 'I' for Inactive)
REMARK    1  A    between atoms: O1_2  and  C2_3 
REMARK    2  A    between atoms: C12_13  and  C13_14 
REMARK    3  A    between atoms: C13_14  and  C14_15 
REMARK       I    between atoms: C14_15  and  N1_17 
REMARK    4  A    between atoms: N1_17  and  C15_19 
REMARK    5  A    between atoms: C15_19  and  C16_20 
REMARK    6  A    between atoms: C16_20  and  N2_21 
REMARK    7  A    between atoms: N2_21  and  C17_23 
REMARK    8  A    between atoms: C17_23  and  C18_24 
REMARK    9  A    between atoms: C18_24  and  N3_25 
REMARK   10  A    between atoms: N3_25  and  C19_27 
REMARK   11  A    between atoms: C19_27  and  C20_28 
REMARK   12  A    between atoms: C20_28  and  C21_29 
REMARK   13  A    between atoms: C21_29  and  N4_30 
ROOT
HETATM    1  C2  UNL     1      -5.297  -3.718   1.658  1.00  0.00     0.069 A 
HETATM    2  C3  UNL     1      -5.850  -2.471   1.742  1.00  0.00     0.044 A 
HETATM    3  C4  UNL     1      -5.598  -1.434   0.811  1.00  0.00    -0.055 A 
HETATM    4  C5  UNL     1      -4.753  -1.664  -0.249  1.00  0.00     0.014 A 
HETATM    5  C6  UNL     1      -4.174  -2.899  -0.374  1.00  0.00    -0.055 A 
HETATM    6  C7  UNL     1      -4.465  -3.895   0.588  1.00  0.00     0.044 A 
HETATM    7  C8  UNL     1      -3.243  -3.419  -1.403  1.00  0.00     0.038 C 
HETATM    8  C9  UNL     1      -1.911  -2.771  -1.552  1.00  0.00     0.005 C 
HETATM    9  C10 UNL     1      -1.274  -2.312  -0.269  1.00  0.00     0.001 C 
HETATM   10  C11 UNL     1      -1.358  -0.846  -0.030  1.00  0.00     0.005 C 
HETATM   11  C12 UNL     1      -0.015  -0.131  -0.069  1.00  0.00    -0.006 C 
HETATM   12  C22 UNL     1      -0.335   1.351   0.111  1.00  0.00     0.005 C 
HETATM   13  C23 UNL     1      -0.238   2.071  -1.207  1.00  0.00     0.000 C 
HETATM   14  C24 UNL     1      -1.559   2.680  -1.624  1.00  0.00     0.000 C 
HETATM   15  C25 UNL     1      -1.993   3.772  -0.669  1.00  0.00     0.000 C 
HETATM   16  C26 UNL     1      -3.386   4.204  -1.074  1.00  0.00     0.000 C 
HETATM   17  C27 UNL     1      -4.302   3.034  -0.854  1.00  0.00     0.000 C 
HETATM   18  C28 UNL     1      -5.659   3.449  -0.351  1.00  0.00     0.004 C 
HETATM   19  C29 UNL     1      -6.671   2.389  -0.787  1.00  0.00     0.027 C 
HETATM   20  C30 UNL     1      -7.831   2.373   0.107  1.00  0.00    -0.031 C 
HETATM   21  C31 UNL     1      -8.280   1.254   0.635  1.00  0.00    -0.030 C 
HETATM   22  C32 UNL     1      -7.615  -0.027   0.334  1.00  0.00     0.031 C 
HETATM   23  C33 UNL     1      -6.354  -0.205   1.195  1.00  0.00     0.042 C 
ENDROOT
BRANCH  11  24
HETATM   24  C13 UNL     1       0.919  -0.628   0.978  1.00  0.00     0.107 C 
BRANCH  24  25
HETATM   25  C14 UNL     1       2.229   0.105   0.870  1.00  0.00     0.221 C 
HETATM   26  O2  UNL     1       2.381   0.924  -0.060  1.00  0.00    -0.273 OA
HETATM   27  N1  UNL     1       3.273  -0.119   1.798  1.00  0.00    -0.336 N 
ATOM     28  H1  UNL     1       3.054  -0.791   2.534  1.00  0.00     0.168 HD
BRANCH  27  29
HETATM   29  C15 UNL     1       4.558   0.432   1.870  1.00  0.00     0.107 C 
BRANCH  29  30
HETATM   30  C16 UNL     1       5.597   0.125   0.845  1.00  0.00     0.100 C 
BRANCH  30  31
HETATM   31  N2  UNL     1       5.264   0.421  -0.489  1.00  0.00    -0.393 N 
ATOM     32  H2  UNL     1       4.317   0.713  -0.732  1.00  0.00     0.159 HD
BRANCH  31  33
HETATM   33  C17 UNL     1       6.264   0.309  -1.498  1.00  0.00     0.163 C 
BRANCH  33  34
HETATM   34  C18 UNL     1       7.379   1.269  -1.522  1.00  0.00     0.074 C 
BRANCH  34  35
HETATM   35  N3  UNL     1       8.284   1.331  -0.452  1.00  0.00    -0.401 N 
ATOM     36  H3  UNL     1       8.298   2.137   0.173  1.00  0.00     0.158 HD
BRANCH  35  37
HETATM   37  C19 UNL     1       9.179   0.248  -0.259  1.00  0.00     0.120 C 
BRANCH  37  38
HETATM   38  C20 UNL     1      10.040   0.589   0.964  1.00  0.00     0.039 C 
BRANCH  38  39
HETATM   39  C21 UNL     1      10.993  -0.567   1.160  1.00  0.00     0.166 C 
BRANCH  39  40
HETATM   40  N4  UNL     1      11.811  -0.705  -0.048  1.00  0.00     0.017 NA
HETATM   41  F1  UNL     1      12.498   0.459  -0.230  1.00  0.00    -0.101 F 
HETATM   42  F2  UNL     1      12.750  -1.665   0.139  1.00  0.00    -0.101 F 
ENDBRANCH  39  40
ENDBRANCH  38  39
ENDBRANCH  37  38
ENDBRANCH  35  37
ENDBRANCH  34  35
ENDBRANCH  33  34
ENDBRANCH  31  33
ENDBRANCH  30  31
ENDBRANCH  29  30
ENDBRANCH  27  29
ENDBRANCH  24  25
ENDBRANCH  11  24
BRANCH   1  43
HETATM   43  O1  UNL     1      -5.560  -4.718   2.583  1.00  0.00    -0.356 OA
HETATM   44  C1  UNL     1      -4.926  -5.968   2.388  1.00  0.00     0.210 C 
ENDBRANCH   1  43
TORSDOF 13
