REMARK  14 active torsions:
REMARK  status: ('A' for Active; 'I' for Inactive)
REMARK    1  A    between atoms: S1_2  and  C2_3 
REMARK    2  A    between atoms: C2_3  and  C3_4 
REMARK    3  A    between atoms: C3_4  and  C4_5 
REMARK    4  A    between atoms: C4_5  and  O1_7 
REMARK    5  A    between atoms: C4_5  and  N1_9 
REMARK       I    between atoms: N1_9  and  C6_11 
REMARK    6  A    between atoms: C6_11  and  C7_13 
REMARK    7  A    between atoms: C7_13  and  C8_14 
REMARK    8  A    between atoms: C8_14  and  C9_15 
REMARK    9  A    between atoms: C9_15  and  C10_16 
REMARK   10  A    between atoms: C10_16  and  C11_17 
REMARK   11  A    between atoms: C11_17  and  C12_18 
REMARK   12  A    between atoms: C12_18  and  C13_19 
REMARK   13  A    between atoms: C13_19  and  C14_20 
REMARK   14  A    between atoms: C15_21  and  O3_22 
ROOT
HETATM    1  C14 UNL     1      -3.375  -1.326   0.061  1.00  0.00    -0.047 C 
HETATM    2  C15 UNL     1      -2.689  -0.791   1.244  1.00  0.00     0.147 C 
HETATM    3  C16 UNL     1      -3.457   0.374   1.937  1.00  0.00     0.037 C 
HETATM    4  C17 UNL     1      -4.739  -0.277   2.317  1.00  0.00     0.017 C 
HETATM    5  C18 UNL     1      -5.598  -0.542   1.083  1.00  0.00    -0.009 C 
HETATM    6  C19 UNL     1      -6.790  -1.319   1.631  1.00  0.00     0.021 C 
HETATM    7  C20 UNL     1      -6.193   0.732   0.596  1.00  0.00    -0.040 A 
HETATM    8  C21 UNL     1      -6.118   1.919   1.301  1.00  0.00     0.052 A 
HETATM    9  C22 UNL     1      -6.713   3.062   0.812  1.00  0.00     0.134 A 
HETATM   10  F1  UNL     1      -6.643   4.236   1.503  1.00  0.00    -0.205 F 
HETATM   11  C23 UNL     1      -7.381   2.995  -0.388  1.00  0.00     0.050 A 
HETATM   12 BR1  UNL     1      -8.214   4.573  -1.081  1.00  0.00    -0.048 Br
HETATM   13  C24 UNL     1      -7.452   1.801  -1.089  1.00  0.00     0.030 A 
HETATM   14  C25 UNL     1      -6.865   0.674  -0.609  1.00  0.00    -0.050 A 
HETATM   15  C26 UNL     1      -6.884  -0.607  -1.331  1.00  0.00     0.040 C 
HETATM   16  C27 UNL     1      -5.394  -1.007  -1.348  1.00  0.00     0.015 C 
HETATM   17  C28 UNL     1      -4.879  -1.293   0.040  1.00  0.00     0.030 C 
ENDROOT
BRANCH   1  18
HETATM   18  C13 UNL     1      -2.749  -0.997  -1.232  1.00  0.00     0.002 C 
BRANCH  18  19
HETATM   19  C12 UNL     1      -1.391  -1.442  -1.590  1.00  0.00    -0.026 C 
BRANCH  19  20
HETATM   20  C11 UNL     1      -0.177  -0.978  -0.910  1.00  0.00     0.027 C 
BRANCH  20  21
HETATM   21  C10 UNL     1       0.092   0.510  -1.022  1.00  0.00     0.004 C 
BRANCH  21  22
HETATM   22  C9  UNL     1       1.347   0.851  -0.269  1.00  0.00     0.001 C 
BRANCH  22  23
HETATM   23  C8  UNL     1       2.517   0.110  -0.825  1.00  0.00     0.009 C 
BRANCH  23  24
HETATM   24  C7  UNL     1       3.774   0.495  -0.047  1.00  0.00     0.103 C 
BRANCH  24  25
HETATM   25  C6  UNL     1       4.927  -0.232  -0.590  1.00  0.00     0.219 C 
HETATM   26  N1  UNL     1       6.245  -0.073  -0.059  1.00  0.00    -0.330 N 
ATOM     27  H1  UNL     1       6.397   0.564   0.723  1.00  0.00     0.165 HD
HETATM   28  O2  UNL     1       4.763  -1.021  -1.551  1.00  0.00    -0.274 OA
BRANCH  26  29
HETATM   29  C4  UNL     1       7.366  -0.799  -0.610  1.00  0.00     0.130 C 
HETATM   30  C5  UNL     1       7.170  -2.301  -0.488  1.00  0.00     0.070 C 
BRANCH  29  31
HETATM   31  C3  UNL     1       8.619  -0.449   0.127  1.00  0.00     0.071 C 
BRANCH  31  32
HETATM   32  C2  UNL     1       8.942   1.027   0.090  1.00  0.00     0.078 C 
BRANCH  32  33
HETATM   33  S1  UNL     1      10.480   1.261   1.026  1.00  0.00    -0.173 SA
HETATM   34  C1  UNL     1      10.992   2.989   1.068  1.00  0.00     0.089 C 
ENDBRANCH  32  33
ENDBRANCH  31  32
ENDBRANCH  29  31
BRANCH  29  35
HETATM   35  O1  UNL     1       7.545  -0.453  -1.948  1.00  0.00    -0.371 OA
ATOM     36  H1  UNL     1       6.749  -0.675  -2.416  1.00  0.00     0.212 HD
ENDBRANCH  29  35
ENDBRANCH  26  29
ENDBRANCH  24  25
ENDBRANCH  23  24
ENDBRANCH  22  23
ENDBRANCH  21  22
ENDBRANCH  20  21
ENDBRANCH  19  20
ENDBRANCH  18  19
ENDBRANCH   1  18
BRANCH   2  37
HETATM   37  O3  UNL     1      -2.568  -1.760   2.276  1.00  0.00    -0.391 OA
ATOM     38  H3  UNL     1      -2.124  -1.414   3.041  1.00  0.00     0.210 HD
ENDBRANCH   2  37
TORSDOF 14
