REMARK  12 active torsions:
REMARK  status: ('A' for Active; 'I' for Inactive)
REMARK       I    between atoms: C1_2  and  N1_3 
REMARK       I    between atoms: C1_2  and  N6_39 
REMARK    1  A    between atoms: N1_3  and  C2_5 
REMARK    2  A    between atoms: C2_5  and  C3_6 
REMARK    3  A    between atoms: C3_6  and  C4_7 
REMARK    4  A    between atoms: C4_7  and  N2_8 
REMARK    5  A    between atoms: N2_8  and  C5_9 
REMARK    6  A    between atoms: N2_8  and  C18_25 
REMARK    7  A    between atoms: C5_9  and  C6_10 
REMARK    8  A    between atoms: C6_10  and  C7_11 
REMARK    9  A    between atoms: C7_11  and  N3_12 
REMARK   10  A    between atoms: N3_12  and  C8_15 
REMARK   11  A    between atoms: C18_25  and  C19_26 
REMARK   12  A    between atoms: N6_39  and  C26_41 
ROOT
HETATM    1  N2  UNL     1       0.717   1.350  -0.918  1.00  0.00    -0.347 N 
ENDROOT
BRANCH   1   2
HETATM    2  C4  UNL     1       1.978   1.009  -0.418  1.00  0.00     0.070 C 
BRANCH   2   3
HETATM    3  C3  UNL     1       2.418  -0.411  -0.697  1.00  0.00     0.065 C 
BRANCH   3   4
HETATM    4  C2  UNL     1       3.791  -0.559  -0.079  1.00  0.00     0.129 C 
BRANCH   4   5
HETATM    5  N1  UNL     1       4.307  -1.905  -0.307  1.00  0.00    -0.343 N 
HETATM    6  C1  UNL     1       5.581  -2.310   0.168  1.00  0.00     0.322 C 
HETATM    7  O1  UNL     1       6.251  -1.449   0.804  1.00  0.00    -0.247 OA
HETATM    8  N6  UNL     1       6.025  -3.627  -0.089  1.00  0.00    -0.289 N 
ATOM      9  H6  UNL     1       5.405  -4.246  -0.611  1.00  0.00     0.172 HD
ATOM     10  H1  UNL     1       3.735  -2.574  -0.823  1.00  0.00     0.164 HD
BRANCH   8  11
HETATM   11  C26 UNL     1       7.277  -4.144   0.332  1.00  0.00     0.150 A 
HETATM   12  C27 UNL     1       8.283  -3.544   1.036  1.00  0.00     0.058 A 
HETATM   13  C28 UNL     1       9.281  -4.495   1.178  1.00  0.00     0.029 A 
HETATM   14  C29 UNL     1       8.841  -5.620   0.560  1.00  0.00     0.144 A 
HETATM   15  O2  UNL     1       7.671  -5.376   0.080  1.00  0.00    -0.306 OA
ENDBRANCH   8  11
ENDBRANCH   4   5
ENDBRANCH   3   4
ENDBRANCH   2   3
ENDBRANCH   1   2
BRANCH   1  16
HETATM   16  C5  UNL     1      -0.443   0.792  -0.392  1.00  0.00     0.070 C 
BRANCH  16  17
HETATM   17  C6  UNL     1      -1.698   1.267  -1.064  1.00  0.00     0.072 C 
BRANCH  17  18
HETATM   18  C7  UNL     1      -2.943   0.647  -0.474  1.00  0.00     0.238 C 
BRANCH  18  19
HETATM   19  N3  UNL     1      -2.993  -0.759  -0.550  1.00  0.00    -0.066 N 
ATOM     20  H32 UNL     1      -2.844  -1.086  -1.505  1.00  0.00     0.278 HD
ATOM     21  H31 UNL     1      -2.179  -1.185  -0.107  1.00  0.00     0.278 HD
BRANCH  19  22
HETATM   22  C8  UNL     1      -4.224  -1.280  -0.001  1.00  0.00     0.127 C 
HETATM   23  C9  UNL     1      -4.367  -0.970   1.452  1.00  0.00     0.043 C 
HETATM   24  C10 UNL     1      -5.663  -1.542   1.991  1.00  0.00    -0.012 C 
HETATM   25  C11 UNL     1      -6.815  -0.985   1.186  1.00  0.00     0.009 C 
HETATM   26  C15 UNL     1      -5.587  -3.034   1.943  1.00  0.00     0.009 C 
HETATM   27  C12 UNL     1      -6.662  -1.483  -0.223  1.00  0.00    -0.012 C 
HETATM   28  C13 UNL     1      -6.657  -2.988  -0.241  1.00  0.00     0.009 C 
HETATM   29  C17 UNL     1      -5.428  -0.881  -0.826  1.00  0.00     0.043 C 
HETATM   30  C14 UNL     1      -5.394  -3.422   0.480  1.00  0.00    -0.012 C 
HETATM   31  C16 UNL     1      -4.157  -2.815  -0.098  1.00  0.00     0.043 C 
ENDBRANCH  19  22
ENDBRANCH  18  19
ENDBRANCH  17  18
ENDBRANCH  16  17
ENDBRANCH   1  16
BRANCH   1  32
HETATM   32  C18 UNL     1       0.699   2.375  -1.863  1.00  0.00     0.143 C 
BRANCH  32  33
HETATM   33  C19 UNL     1       1.261   3.619  -1.243  1.00  0.00     0.122 A 
HETATM   34  N4  UNL     1       1.621   3.840   0.033  1.00  0.00    -0.339 N 
HETATM   35  C20 UNL     1       2.087   5.098   0.167  1.00  0.00     0.062 A 
ATOM     36  H4  UNL     1       1.552   3.157   0.788  1.00  0.00     0.167 HD
HETATM   37  C21 UNL     1       2.581   5.845   1.216  1.00  0.00     0.057 A 
HETATM   38  C25 UNL     1       2.018   5.698  -1.072  1.00  0.00     0.062 A 
HETATM   39  C22 UNL     1       3.003   7.168   1.045  1.00  0.00     0.058 A 
HETATM   40 CL1  UNL     1       3.629   8.097   2.391  1.00  0.00    -0.082 Cl
HETATM   41  C23 UNL     1       2.931   7.759  -0.197  1.00  0.00     0.058 A 
HETATM   42 CL2  UNL     1       3.466   9.416  -0.381  1.00  0.00    -0.082 Cl
HETATM   43  C24 UNL     1       2.439   7.020  -1.247  1.00  0.00     0.057 A 
HETATM   44  N5  UNL     1       1.512   4.773  -1.906  1.00  0.00    -0.339 N 
ATOM     45  H5  UNL     1       1.341   4.920  -2.901  1.00  0.00     0.167 HD
ENDBRANCH  32  33
ENDBRANCH   1  32
TORSDOF 12
