REMARK  17 active torsions:
REMARK  status: ('A' for Active; 'I' for Inactive)
REMARK    1  A    between atoms: C2_2  and  N1_3 
REMARK       I    between atoms: N1_3  and  C3_5 
REMARK    2  A    between atoms: C3_5  and  C4_7 
REMARK    3  A    between atoms: C6_11  and  C7_12 
REMARK    4  A    between atoms: C11_18  and  C12_19 
REMARK    5  A    between atoms: C12_19  and  O2_20 
REMARK    6  A    between atoms: C12_19  and  N4_22 
REMARK    7  A    between atoms: N4_22  and  C13_24 
REMARK    8  A    between atoms: C13_24  and  C20_33 
REMARK    9  A    between atoms: C14_25  and  C15_26 
REMARK   10  A    between atoms: C20_33  and  C21_34 
REMARK   11  A    between atoms: C20_33  and  N5_36 
REMARK   12  A    between atoms: N5_36  and  C23_38 
REMARK   13  A    between atoms: C23_38  and  O3_39 
REMARK   14  A    between atoms: C24_41  and  N6_42 
REMARK   15  A    between atoms: C24_41  and  C27_48 
REMARK       I    between atoms: N6_42  and  C25_44 
REMARK   16  A    between atoms: C25_44  and  O5_46 
REMARK   17  A    between atoms: C27_48  and  C29_50 
ROOT
HETATM    1  C13 UNL     1      -2.122  -2.361   0.028  1.00  0.00     0.053 C 
HETATM    2  C14 UNL     1      -2.761  -3.537  -0.520  1.00  0.00     0.015 C 
ENDROOT
BRANCH   1   3
HETATM    3  N4  UNL     1      -0.951  -1.774  -0.612  1.00  0.00    -0.335 N 
ATOM      4  H4  UNL     1      -1.115  -1.353  -1.526  1.00  0.00     0.168 HD
BRANCH   3   5
HETATM    5  C12 UNL     1       0.347  -1.709  -0.153  1.00  0.00     0.152 C 
BRANCH   5   6
HETATM    6  C11 UNL     1       1.465  -1.089  -0.831  1.00  0.00     0.030 A 
HETATM    7  C9  UNL     1       1.623  -1.120  -2.187  1.00  0.00    -0.032 A 
HETATM    8  C8  UNL     1       2.736  -0.490  -2.737  1.00  0.00     0.096 A 
HETATM    9  C10 UNL     1       0.702  -1.767  -3.161  1.00  0.00     0.050 C 
HETATM   10  N3  UNL     1       3.621   0.123  -1.977  1.00  0.00    -0.364 N 
HETATM   11  C7  UNL     1       3.535   0.199  -0.613  1.00  0.00     0.057 A 
ATOM     12  H3  UNL     1       4.418   0.568  -2.433  1.00  0.00     0.165 HD
HETATM   13  C31 UNL     1       2.445  -0.412  -0.069  1.00  0.00    -0.019 A 
HETATM   14  C32 UNL     1       2.242  -0.248   1.402  1.00  0.00     0.052 C 
BRANCH  11  15
HETATM   15  C6  UNL     1       4.626   0.860   0.096  1.00  0.00     0.049 A 
HETATM   16  C5  UNL     1       5.674   1.517  -0.512  1.00  0.00     0.110 A 
HETATM   17  N2  UNL     1       6.563   2.051   0.253  1.00  0.00    -0.354 N 
HETATM   18  C4  UNL     1       6.462   1.967   1.565  1.00  0.00     0.143 A 
ATOM     19  H2  UNL     1       7.354   2.544  -0.161  1.00  0.00     0.166 HD
HETATM   20  S1  UNL     1       5.021   1.075   1.735  1.00  0.00    -0.063 SA
BRANCH  18  21
HETATM   21  C3  UNL     1       7.366   2.529   2.598  1.00  0.00     0.275 C 
HETATM   22  N1  UNL     1       8.543   3.221   2.196  1.00  0.00    -0.356 N 
ATOM     23  H1  UNL     1       8.773   3.330   1.208  1.00  0.00     0.162 HD
HETATM   24  O1  UNL     1       7.053   2.368   3.782  1.00  0.00    -0.265 OA
BRANCH  22  25
HETATM   25  C2  UNL     1       9.405   3.766   3.223  1.00  0.00     0.118 C 
HETATM   26  C1  UNL     1      10.613   4.451   2.611  1.00  0.00     0.026 C 
ENDBRANCH  22  25
ENDBRANCH  18  21
ENDBRANCH  11  15
ENDBRANCH   5   6
BRANCH   5  27
HETATM   27  O2  UNL     1       0.664  -2.228   0.999  1.00  0.00    -0.345 OA
ATOM     28  H2  UNL     1      -0.070  -2.635   1.444  1.00  0.00     0.219 HD
ENDBRANCH   5  27
ENDBRANCH   3   5
ENDBRANCH   1   3
BRANCH   1  29
HETATM   29  C20 UNL     1      -2.931  -1.285   0.650  1.00  0.00     0.037 C 
BRANCH  29  30
HETATM   30  C21 UNL     1      -4.216  -1.569   1.310  1.00  0.00     0.055 C 
HETATM   31  C22 UNL     1      -5.361  -2.104   0.569  1.00  0.00     0.011 C 
ENDBRANCH  29  30
BRANCH  29  32
HETATM   32  N5  UNL     1      -3.030  -0.029  -0.127  1.00  0.00    -0.337 N 
ATOM     33  H5  UNL     1      -3.150  -0.084  -1.138  1.00  0.00     0.168 HD
BRANCH  32  34
HETATM   34  C23 UNL     1      -2.965   1.232   0.478  1.00  0.00     0.168 C 
HETATM   35  C24 UNL     1      -3.024   2.595   0.043  1.00  0.00     0.090 C 
BRANCH  34  36
HETATM   36  O3  UNL     1      -2.818   1.097   1.794  1.00  0.00    -0.344 OA
ATOM     37  H3  UNL     1      -2.774   1.953   2.204  1.00  0.00     0.219 HD
ENDBRANCH  34  36
BRANCH  35  38
HETATM   38  N6  UNL     1      -3.903   3.397   0.921  1.00  0.00    -0.299 N 
HETATM   39  C25 UNL     1      -3.510   4.198   1.974  1.00  0.00     0.364 C 
HETATM   40  O4  UNL     1      -2.295   4.336   2.317  1.00  0.00    -0.238 OA
ATOM     41  H6  UNL     1      -4.904   3.354   0.728  1.00  0.00     0.171 HD
BRANCH  39  42
HETATM   42  O5  UNL     1      -4.442   4.895   2.715  1.00  0.00    -0.309 OA
HETATM   43  C26 UNL     1      -4.135   5.733   3.813  1.00  0.00     0.215 C 
ENDBRANCH  39  42
ENDBRANCH  35  38
BRANCH  35  44
HETATM   44  C27 UNL     1      -2.966   3.038  -1.346  1.00  0.00    -0.053 C 
HETATM   45  C28 UNL     1      -3.968   2.558  -2.324  1.00  0.00     0.046 C 
BRANCH  44  46
HETATM   46  C29 UNL     1      -1.601   3.075  -1.990  1.00  0.00     0.031 C 
HETATM   47  C30 UNL     1      -0.897   1.756  -2.037  1.00  0.00     0.010 C 
ENDBRANCH  44  46
ENDBRANCH  35  44
ENDBRANCH  32  34
ENDBRANCH  29  32
ENDBRANCH   1  29
BRANCH   2  48
HETATM   48  C15 UNL     1      -2.169  -4.860  -0.686  1.00  0.00     0.083 C 
HETATM   49  C16 UNL     1      -3.358  -5.726  -1.296  1.00  0.00     0.015 C 
HETATM   50  C17 UNL     1      -2.680  -7.070  -1.262  1.00  0.00     0.007 C 
HETATM   51  C18 UNL     1      -1.235  -6.804  -1.588  1.00  0.00     0.080 C 
HETATM   52  C19 UNL     1      -1.131  -5.243  -1.621  1.00  0.00     0.250 C 
HETATM   53  F1  UNL     1       0.184  -5.047  -1.243  1.00  0.00    -0.206 F 
HETATM   54  F2  UNL     1      -1.381  -4.954  -2.947  1.00  0.00    -0.206 F 
ENDBRANCH   2  48
TORSDOF 17
