REMARK  16 active torsions:
REMARK  status: ('A' for Active; 'I' for Inactive)
REMARK    1  A    between atoms: C2_2  and  C22_34 
REMARK    2  A    between atoms: C3_3  and  C4_4 
REMARK    3  A    between atoms: C15_18  and  N2_19 
REMARK       I    between atoms: N2_19  and  C16_21 
REMARK    4  A    between atoms: C16_21  and  C17_23 
REMARK    5  A    between atoms: C17_23  and  O3_24 
REMARK    6  A    between atoms: C17_23  and  C18_26 
REMARK    7  A    between atoms: C21_30  and  O4_31 
REMARK    8  A    between atoms: C22_34  and  O6_35 
REMARK    9  A    between atoms: C22_34  and  C23_37 
REMARK   10  A    between atoms: C24_38  and  C25_39 
REMARK   11  A    between atoms: C25_39  and  C26_40 
REMARK   12  A    between atoms: C27_41  and  C28_42 
REMARK   13  A    between atoms: C28_42  and  C29_43 
REMARK   14  A    between atoms: C30_44  and  C31_45 
REMARK   15  A    between atoms: C31_45  and  C32_46 
REMARK   16  A    between atoms: C33_47  and  C34_48 
ROOT
HETATM    1  C18 UNL     1      -6.460   1.879  -2.404  1.00  0.00     0.126 C 
HETATM    2  C19 UNL     1      -7.217   2.787  -1.484  1.00  0.00     0.028 C 
HETATM    3  C20 UNL     1      -7.205   1.643  -3.657  1.00  0.00     0.066 C 
HETATM    4  N3  UNL     1      -7.789   1.438  -4.632  1.00  0.00    -0.197 NA
ENDROOT
BRANCH   1   5
HETATM    5  C17 UNL     1      -5.122   2.501  -2.704  1.00  0.00     0.227 C 
BRANCH   5   6
HETATM    6  C16 UNL     1      -4.346   2.681  -1.472  1.00  0.00     0.248 C 
HETATM    7  N2  UNL     1      -3.991   1.582  -0.661  1.00  0.00    -0.349 N 
ATOM      8  H2  UNL     1      -4.302   0.653  -0.946  1.00  0.00     0.163 HD
HETATM    9  O2  UNL     1      -3.990   3.834  -1.139  1.00  0.00    -0.271 OA
BRANCH   7  10
HETATM   10  C15 UNL     1      -3.214   1.698   0.548  1.00  0.00     0.141 C 
HETATM   11  C14 UNL     1      -3.666   0.997   1.750  1.00  0.00     0.060 C 
HETATM   12  C11 UNL     1      -5.116   0.832   2.022  1.00  0.00     0.027 C 
HETATM   13  N1  UNL     1      -5.847  -0.044   1.176  1.00  0.00    -0.353 N 
HETATM   14  C12 UNL     1      -5.190   0.342   3.490  1.00  0.00     0.038 C 
HETATM   15  C13 UNL     1      -5.726   2.234   2.063  1.00  0.00     0.038 C 
HETATM   16  C10 UNL     1      -6.027  -1.436   1.249  1.00  0.00     0.218 C 
ATOM     17  H1  UNL     1      -6.315   0.409   0.391  1.00  0.00     0.163 HD
HETATM   18  C9  UNL     1      -4.982  -2.476   1.402  1.00  0.00     0.103 C 
HETATM   19  O1  UNL     1      -7.217  -1.923   1.181  1.00  0.00    -0.274 OA
HETATM   20  C8  UNL     1      -4.940  -3.410   0.210  1.00  0.00     0.009 C 
HETATM   21  C7  UNL     1      -3.523  -3.575  -0.344  1.00  0.00     0.001 C 
HETATM   22  C6  UNL     1      -2.772  -2.278  -0.158  1.00  0.00     0.003 C 
HETATM   23  C5  UNL     1      -1.888  -1.985  -1.343  1.00  0.00     0.036 C 
HETATM   24  C4  UNL     1      -1.107  -0.694  -1.146  1.00  0.00     0.147 C 
HETATM   25  O5  UNL     1      -1.883   0.395  -0.950  1.00  0.00    -0.350 OA
HETATM   26  C21 UNL     1      -1.817   1.109   0.194  1.00  0.00     0.280 C 
BRANCH  24  27
HETATM   27  C3  UNL     1      -0.082  -0.977  -0.138  1.00  0.00     0.010 C 
HETATM   28  C2  UNL     1       1.192  -0.886  -0.449  1.00  0.00    -0.053 C 
HETATM   29  C1  UNL     1       1.584  -0.492  -1.823  1.00  0.00     0.046 C 
BRANCH  28  30
HETATM   30  C22 UNL     1       2.308  -1.178   0.528  1.00  0.00     0.169 C 
BRANCH  30  31
HETATM   31  O6  UNL     1       1.766  -1.482   1.779  1.00  0.00    -0.387 OA
ATOM     32  H6  UNL     1       2.467  -1.666   2.393  1.00  0.00     0.210 HD
ENDBRANCH  30  31
BRANCH  30  33
HETATM   33  C23 UNL     1       3.138  -2.305   0.025  1.00  0.00     0.005 C 
HETATM   34  C24 UNL     1       4.182  -2.818   0.648  1.00  0.00    -0.024 C 
BRANCH  34  35
HETATM   35  C25 UNL     1       4.723  -2.376   1.951  1.00  0.00     0.053 C 
BRANCH  35  36
HETATM   36  C26 UNL     1       6.142  -1.926   1.835  1.00  0.00    -0.027 C 
HETATM   37  C27 UNL     1       6.768  -1.941   0.679  1.00  0.00    -0.027 C 
BRANCH  37  38
HETATM   38  C28 UNL     1       8.173  -1.502   0.541  1.00  0.00     0.053 C 
BRANCH  38  39
HETATM   39  C29 UNL     1       8.214  -0.348  -0.417  1.00  0.00    -0.027 C 
HETATM   40  C30 UNL     1       8.677   0.834  -0.053  1.00  0.00    -0.027 C 
BRANCH  40  41
HETATM   41  C31 UNL     1       8.700   1.951  -1.032  1.00  0.00     0.053 C 
BRANCH  41  42
HETATM   42  C32 UNL     1      10.093   2.400  -1.221  1.00  0.00    -0.026 C 
HETATM   43  C33 UNL     1      11.098   1.825  -0.572  1.00  0.00    -0.016 C 
BRANCH  43  44
HETATM   44  C34 UNL     1      12.508   2.269  -0.754  1.00  0.00     0.141 C 
HETATM   45 CL1  UNL     1      13.443   0.877  -1.374  1.00  0.00    -0.126 Cl
ENDBRANCH  43  44
ENDBRANCH  41  42
ENDBRANCH  40  41
ENDBRANCH  38  39
ENDBRANCH  37  38
ENDBRANCH  35  36
ENDBRANCH  34  35
ENDBRANCH  30  33
ENDBRANCH  28  30
ENDBRANCH  24  27
BRANCH  26  46
HETATM   46  O4  UNL     1      -0.968   2.212   0.136  1.00  0.00    -0.369 OA
ATOM     47  H4  UNL     1      -0.116   1.853  -0.080  1.00  0.00     0.212 HD
ENDBRANCH  26  46
ENDBRANCH   7  10
ENDBRANCH   5   6
BRANCH   5  48
HETATM   48  O3  UNL     1      -5.296   3.737  -3.372  1.00  0.00    -0.385 OA
ATOM     49  H3  UNL     1      -5.798   3.620  -4.170  1.00  0.00     0.210 HD
ENDBRANCH   5  48
ENDBRANCH   1   5
TORSDOF 16
