REMARK  20 active torsions:
REMARK  status: ('A' for Active; 'I' for Inactive)
REMARK    1  A    between atoms: O1_2  and  C2_3 
REMARK    2  A    between atoms: C4_5  and  N1_6 
REMARK    3  A    between atoms: N1_6  and  C5_8 
REMARK    4  A    between atoms: C5_8  and  N2_9 
REMARK    5  A    between atoms: C5_8  and  C23_41 
REMARK    6  A    between atoms: N2_9  and  O2_10 
REMARK    7  A    between atoms: N2_9  and  C6_12 
REMARK    8  A    between atoms: C6_12  and  O3_13 
REMARK    9  A    between atoms: C6_12  and  N3_15 
REMARK   10  A    between atoms: C9_18  and  O4_19 
REMARK   11  A    between atoms: O4_19  and  C10_20 
REMARK       I    between atoms: C10_20  and  N4_22 
REMARK   12  A    between atoms: N4_22  and  C11_24 
REMARK   13  A    between atoms: C11_24  and  C14_27 
REMARK       I    between atoms: C14_27  and  N5_29 
REMARK   14  A    between atoms: N5_29  and  C15_31 
REMARK   15  A    between atoms: C15_31  and  C16_32 
REMARK   16  A    between atoms: C16_32  and  C17_33 
REMARK   17  A    between atoms: C17_33  and  C18_34 
REMARK   18  A    between atoms: C18_34  and  C19_35 
REMARK   19  A    between atoms: C19_35  and  C20_36 
REMARK   20  A    between atoms: C20_36  and  C21_37 
ROOT
HETATM    1  N3  UNL     1      -2.811  -0.904   1.950  1.00  0.00    -0.343 N 
HETATM    2  C7  UNL     1      -3.444  -2.021   1.332  1.00  0.00     0.129 C 
HETATM    3  C8  UNL     1      -2.615  -3.270   1.702  1.00  0.00     0.054 C 
HETATM    4  C9  UNL     1      -1.488  -2.738   2.481  1.00  0.00     0.153 C 
HETATM    5  C22 UNL     1      -2.142  -1.501   3.160  1.00  0.00     0.159 C 
ENDROOT
BRANCH   1   6
HETATM    6  C6  UNL     1      -2.801   0.448   1.630  1.00  0.00     0.243 C 
BRANCH   6   7
HETATM    7  N2  UNL     1      -3.517   1.181   0.709  1.00  0.00    -0.199 N 
BRANCH   7   8
HETATM    8  C5  UNL     1      -4.633   0.760  -0.137  1.00  0.00     0.223 C 
BRANCH   8   9
HETATM    9  N1  UNL     1      -4.291   0.933  -1.523  1.00  0.00    -0.366 N 
ATOM     10  H1  UNL     1      -3.683   1.724  -1.737  1.00  0.00     0.162 HD
BRANCH   9  11
HETATM   11  C4  UNL     1      -4.690   0.148  -2.624  1.00  0.00     0.038 A 
HETATM   12  C3  UNL     1      -5.377  -1.039  -2.476  1.00  0.00     0.068 A 
HETATM   13  C2  UNL     1      -5.763  -1.823  -3.521  1.00  0.00     0.092 A 
HETATM   14  C30 UNL     1      -5.459  -1.430  -4.807  1.00  0.00     0.068 A 
HETATM   15  C29 UNL     1      -4.777  -0.260  -4.983  1.00  0.00     0.035 A 
HETATM   16 CL1  UNL     1      -5.914  -2.369  -6.217  1.00  0.00    -0.081 Cl
HETATM   17  C27 UNL     1      -4.382   0.545  -3.911  1.00  0.00    -0.034 A 
HETATM   18  C28 UNL     1      -3.633   1.786  -4.259  1.00  0.00     0.050 C 
BRANCH  13  19
HETATM   19  O1  UNL     1      -6.468  -3.041  -3.377  1.00  0.00    -0.354 OA
HETATM   20  C1  UNL     1      -6.766  -3.397  -2.018  1.00  0.00     0.210 C 
ENDBRANCH  13  19
ENDBRANCH   9  11
ENDBRANCH   8   9
BRANCH   8  21
HETATM   21  C23 UNL     1      -5.859   1.575   0.283  1.00  0.00    -0.011 C 
HETATM   22  C24 UNL     1      -6.099   1.387   1.791  1.00  0.00     0.018 C 
HETATM   23  C25 UNL     1      -7.128   1.025  -0.349  1.00  0.00     0.018 C 
HETATM   24  C26 UNL     1      -5.718   3.046   0.037  1.00  0.00     0.018 C 
ENDBRANCH   8  21
ENDBRANCH   7   8
BRANCH   7  25
HETATM   25  O2  UNL     1      -3.133   2.503   0.516  1.00  0.00    -0.282 OA
ATOM     26  H2  UNL     1      -2.408   2.777   1.066  1.00  0.00     0.245 HD
ENDBRANCH   7  25
ENDBRANCH   6   7
BRANCH   6  27
HETATM   27  O3  UNL     1      -1.950   1.148   2.343  1.00  0.00    -0.331 OA
ATOM     28  H3  UNL     1      -1.456   0.643   2.978  1.00  0.00     0.221 HD
ENDBRANCH   6  27
ENDBRANCH   1   6
BRANCH   4  29
HETATM   29  O4  UNL     1      -0.371  -2.270   1.763  1.00  0.00    -0.297 OA
BRANCH  29  30
HETATM   30  C10 UNL     1       0.953  -2.456   2.228  1.00  0.00     0.362 C 
HETATM   31  O5  UNL     1       1.017  -3.086   3.312  1.00  0.00    -0.238 OA
HETATM   32  N4  UNL     1       2.037  -1.950   1.495  1.00  0.00    -0.319 N 
ATOM     33  H4  UNL     1       1.857  -1.472   0.612  1.00  0.00     0.166 HD
BRANCH  32  34
HETATM   34  C11 UNL     1       3.400  -2.086   1.953  1.00  0.00     0.108 C 
HETATM   35  C12 UNL     1       3.748  -3.539   2.043  1.00  0.00     0.049 C 
HETATM   36  C13 UNL     1       3.557  -1.401   3.311  1.00  0.00     0.049 C 
BRANCH  34  37
HETATM   37  C14 UNL     1       4.309  -1.365   1.029  1.00  0.00     0.245 C 
HETATM   38  O6  UNL     1       3.818  -0.847  -0.005  1.00  0.00    -0.271 OA
HETATM   39  N5  UNL     1       5.691  -1.234   1.268  1.00  0.00    -0.359 N 
ATOM     40  H5  UNL     1       6.117  -1.656   2.094  1.00  0.00     0.162 HD
BRANCH  39  41
HETATM   41  C15 UNL     1       6.527  -0.464   0.288  1.00  0.00     0.122 C 
BRANCH  41  42
HETATM   42  C16 UNL     1       7.916  -0.403   0.752  1.00  0.00     0.020 C 
BRANCH  42  43
HETATM   43  C17 UNL     1       8.969   0.257  -0.009  1.00  0.00     0.002 C 
BRANCH  43  44
HETATM   44  C18 UNL     1       8.935   1.691  -0.241  1.00  0.00     0.001 C 
BRANCH  44  45
HETATM   45  C19 UNL     1       7.833   2.295  -1.014  1.00  0.00     0.009 C 
BRANCH  45  46
HETATM   46  C20 UNL     1       8.121   3.841  -1.148  1.00  0.00     0.099 C 
BRANCH  46  47
HETATM   47  C21 UNL     1       7.021   4.463  -1.877  1.00  0.00     0.231 C 
HETATM   48  N6  UNL     1       7.124   5.812  -2.284  1.00  0.00    -0.062 NA
HETATM   49  O7  UNL     1       5.975   3.795  -2.142  1.00  0.00    -0.277 OA
ENDBRANCH  46  47
ENDBRANCH  45  46
ENDBRANCH  44  45
ENDBRANCH  43  44
ENDBRANCH  42  43
ENDBRANCH  41  42
ENDBRANCH  39  41
ENDBRANCH  34  37
ENDBRANCH  32  34
ENDBRANCH  29  30
ENDBRANCH   4  29
TORSDOF 20
