REMARK  15 active torsions:
REMARK  status: ('A' for Active; 'I' for Inactive)
REMARK    1  A    between atoms: C4_4  and  C5_5 
REMARK    2  A    between atoms: C5_5  and  C6_6 
REMARK    3  A    between atoms: C13_15  and  C14_16 
REMARK    4  A    between atoms: C15_17  and  C16_18 
REMARK    5  A    between atoms: C16_18  and  O3_19 
REMARK    6  A    between atoms: C16_18  and  C17_21 
REMARK    7  A    between atoms: C17_21  and  C18_22 
REMARK    8  A    between atoms: C18_22  and  C19_24 
REMARK    9  A    between atoms: C19_24  and  N1_25 
REMARK   10  A    between atoms: N1_25  and  C20_28 
REMARK   11  A    between atoms: C20_28  and  C21_29 
REMARK   12  A    between atoms: C21_29  and  C22_30 
REMARK   13  A    between atoms: C23_31  and  C24_32 
REMARK   14  A    between atoms: C24_32  and  N2_34 
REMARK   15  A    between atoms: C28_41  and  O5_42 
ROOT
HETATM    1  C6  UNL     1      -6.106  -0.860  -0.262  1.00  0.00     0.146 C 
HETATM    2  O1  UNL     1      -6.062  -0.182  -1.504  1.00  0.00    -0.315 OA
HETATM    3  C7  UNL     1      -5.326  -0.550  -2.608  1.00  0.00     0.259 C 
HETATM    4  O2  UNL     1      -5.803  -0.780  -3.755  1.00  0.00    -0.265 OA
HETATM    5  C8  UNL     1      -3.853  -0.695  -2.466  1.00  0.00     0.111 C 
HETATM    6  C9  UNL     1      -3.261   0.640  -2.744  1.00  0.00     0.014 C 
HETATM    7  C10 UNL     1      -1.759   0.711  -2.748  1.00  0.00    -0.017 C 
HETATM    8  C11 UNL     1      -1.421   2.163  -3.020  1.00  0.00     0.010 C 
HETATM    9  C12 UNL     1      -1.073   0.085  -1.599  1.00  0.00     0.020 C 
HETATM   10  C13 UNL     1      -0.326   0.962  -0.660  1.00  0.00     0.078 C 
HETATM   11  C26 UNL     1      -0.668   0.810   0.776  1.00  0.00     0.137 C 
HETATM   12  O4  UNL     1      -0.461   1.773   1.491  1.00  0.00    -0.297 OA
HETATM   13  C27 UNL     1      -1.219  -0.411   1.325  1.00  0.00     0.114 C 
HETATM   14  C28 UNL     1      -2.681  -0.403   1.716  1.00  0.00     0.147 C 
HETATM   15  C29 UNL     1      -3.462   0.697   1.135  1.00  0.00     0.002 C 
HETATM   16  C30 UNL     1      -4.715   0.851   0.834  1.00  0.00    -0.017 C 
HETATM   17  C31 UNL     1      -5.921   0.011   0.932  1.00  0.00    -0.003 C 
HETATM   18  C32 UNL     1      -6.008  -0.829   2.180  1.00  0.00     0.021 C 
HETATM   19  C33 UNL     1      -7.098   1.008   1.071  1.00  0.00     0.021 C 
ENDROOT
BRANCH  10  20
HETATM   20  C14 UNL     1       1.166   0.760  -0.821  1.00  0.00    -0.016 C 
HETATM   21  C15 UNL     1       1.898   1.724  -1.300  1.00  0.00     0.001 C 
BRANCH  21  22
HETATM   22  C16 UNL     1       3.394   1.580  -1.485  1.00  0.00     0.145 C 
BRANCH  22  23
HETATM   23  O3  UNL     1       3.670   0.266  -1.232  1.00  0.00    -0.391 OA
ATOM     24  H3  UNL     1       4.609   0.176  -1.348  1.00  0.00     0.210 HD
ENDBRANCH  22  23
BRANCH  22  25
HETATM   25  C17 UNL     1       4.007   2.589  -0.594  1.00  0.00     0.079 C 
BRANCH  25  26
HETATM   26  C18 UNL     1       5.452   2.760  -0.529  1.00  0.00    -0.005 C 
HETATM   27 BR1  UNL     1       6.266   3.140  -2.258  1.00  0.00    -0.059 Br
BRANCH  26  28
HETATM   28  C19 UNL     1       6.320   1.999   0.370  1.00  0.00     0.274 C 
BRANCH  28  29
HETATM   29  N1  UNL     1       6.300   0.580   0.205  1.00  0.00    -0.071 N 
ATOM     30  H12 UNL     1       5.405   0.156   0.450  1.00  0.00     0.277 HD
ATOM     31  H11 UNL     1       6.316   0.285  -0.771  1.00  0.00     0.277 HD
BRANCH  29  32
HETATM   32  C20 UNL     1       7.461   0.042   1.014  1.00  0.00     0.236 C 
BRANCH  32  33
HETATM   33  C21 UNL     1       7.542  -1.419   0.828  1.00  0.00     0.054 C 
BRANCH  33  34
HETATM   34  C22 UNL     1       8.611  -2.129   1.517  1.00  0.00    -0.027 C 
HETATM   35  C23 UNL     1      10.018  -2.066   1.186  1.00  0.00     0.001 C 
BRANCH  35  36
HETATM   36  C24 UNL     1      10.819  -0.840   1.087  1.00  0.00     0.202 C 
HETATM   37  C25 UNL     1      12.306  -1.304   0.832  1.00  0.00     0.044 C 
BRANCH  36  38
HETATM   38  N2  UNL     1      10.567  -0.147  -0.219  1.00  0.00    -0.072 N 
ATOM     39  H23 UNL     1      10.725  -0.767  -1.013  1.00  0.00     0.275 HD
ATOM     40  H22 UNL     1       9.574   0.037  -0.364  1.00  0.00     0.275 HD
ATOM     41  H21 UNL     1      11.124   0.705  -0.288  1.00  0.00     0.275 HD
ENDBRANCH  36  38
ENDBRANCH  35  36
ENDBRANCH  33  34
ENDBRANCH  32  33
ENDBRANCH  29  32
ENDBRANCH  28  29
ENDBRANCH  26  28
ENDBRANCH  25  26
ENDBRANCH  22  25
ENDBRANCH  21  22
ENDBRANCH  10  20
BRANCH  14  42
HETATM   42  O5  UNL     1      -3.148  -1.676   1.542  1.00  0.00    -0.391 OA
ATOM     43  H5  UNL     1      -4.066  -1.671   1.787  1.00  0.00     0.210 HD
ENDBRANCH  14  42
BRANCH   1  44
HETATM   44  C5  UNL     1      -7.321  -1.731  -0.225  1.00  0.00     0.061 C 
BRANCH  44  45
HETATM   45  C4  UNL     1      -8.621  -1.070  -0.390  1.00  0.00    -0.022 C 
HETATM   46  C2  UNL     1      -9.670  -1.128   0.395  1.00  0.00    -0.091 C 
HETATM   47  C1  UNL     1      -9.705  -1.913   1.633  1.00  0.00     0.042 C 
HETATM   48  C3  UNL     1     -10.892  -0.350   0.016  1.00  0.00     0.042 C 
ENDBRANCH  44  45
ENDBRANCH   1  44
TORSDOF 15
