REMARK  17 active torsions:
REMARK  status: ('A' for Active; 'I' for Inactive)
REMARK    1  A    between atoms: C2_2  and  C3_3 
REMARK    2  A    between atoms: C2_2  and  C9_9 
REMARK    3  A    between atoms: C4_4  and  C5_5 
REMARK    4  A    between atoms: C9_9  and  C10_10 
REMARK    5  A    between atoms: C10_10  and  O1_11 
REMARK    6  A    between atoms: C10_10  and  C11_13 
REMARK    7  A    between atoms: C11_13  and  O2_14 
REMARK    8  A    between atoms: C11_13  and  C12_16 
REMARK    9  A    between atoms: C12_16  and  C13_17 
REMARK   10  A    between atoms: C13_17  and  C14_19 
REMARK   11  A    between atoms: C14_19  and  C15_20 
REMARK       I    between atoms: C15_20  and  N1_22 
REMARK   12  A    between atoms: N1_22  and  C16_24 
REMARK   13  A    between atoms: C16_24  and  C17_25 
REMARK   14  A    between atoms: C16_24  and  C36_47 
REMARK   15  A    between atoms: C17_25  and  C18_26 
REMARK   16  A    between atoms: C18_26  and  C20_28 
REMARK   17  A    between atoms: C21_29  and  O4_30 
ROOT
HETATM    1  C16 UNL     1      -0.496  -1.273   1.629  1.00  0.00     0.185 C 
ENDROOT
BRANCH   1   2
HETATM    2  N1  UNL     1       0.657  -1.599   0.730  1.00  0.00    -0.346 N 
HETATM    3  C15 UNL     1       1.891  -0.939   0.855  1.00  0.00     0.221 C 
HETATM    4  O3  UNL     1       2.007  -0.070   1.738  1.00  0.00    -0.273 OA
ATOM      5  H1  UNL     1       0.544  -2.315   0.012  1.00  0.00     0.163 HD
BRANCH   3   6
HETATM    6  C14 UNL     1       2.980  -1.299  -0.049  1.00  0.00     0.140 C 
BRANCH   6   7
HETATM    7  C13 UNL     1       4.255  -0.550   0.096  1.00  0.00     0.181 C 
HETATM    8  F1  UNL     1       5.256  -1.163  -0.658  1.00  0.00    -0.249 F 
BRANCH   7   9
HETATM    9  C12 UNL     1       4.117   0.906  -0.162  1.00  0.00     0.072 C 
BRANCH   9  10
HETATM   10  C11 UNL     1       5.350   1.729   0.163  1.00  0.00     0.149 C 
BRANCH  10  11
HETATM   11  C10 UNL     1       6.552   1.307  -0.634  1.00  0.00     0.147 C 
BRANCH  11  12
HETATM   12  C9  UNL     1       7.652   2.366  -0.388  1.00  0.00     0.042 C 
BRANCH  12  13
HETATM   13  C2  UNL     1       8.915   2.038  -1.157  1.00  0.00     0.006 C 
HETATM   14  C1  UNL     1       8.682   1.993  -2.656  1.00  0.00     0.014 C 
BRANCH  13  15
HETATM   15  C3  UNL     1       9.397   0.708  -0.738  1.00  0.00    -0.026 C 
HETATM   16  C4  UNL     1      10.591   0.566  -0.199  1.00  0.00    -0.022 C 
BRANCH  16  17
HETATM   17  C5  UNL     1      11.073  -0.800   0.227  1.00  0.00    -0.034 C 
HETATM   18  C6  UNL     1      12.552  -0.931   0.066  1.00  0.00     0.018 C 
HETATM   19  C7  UNL     1      10.343  -1.798  -0.633  1.00  0.00     0.018 C 
HETATM   20  C8  UNL     1      10.709  -0.952   1.680  1.00  0.00     0.018 C 
ENDBRANCH  16  17
ENDBRANCH  13  15
ENDBRANCH  12  13
ENDBRANCH  11  12
BRANCH  11  21
HETATM   21  O1  UNL     1       6.289   1.306  -1.986  1.00  0.00    -0.393 OA
ATOM     22  H1  UNL     1       5.613   0.656  -2.137  1.00  0.00     0.210 HD
ENDBRANCH  11  21
ENDBRANCH  10  11
BRANCH  10  23
HETATM   23  O2  UNL     1       5.042   3.054  -0.232  1.00  0.00    -0.393 OA
ATOM     24  H2  UNL     1       4.282   3.321   0.272  1.00  0.00     0.210 HD
ENDBRANCH  10  23
ENDBRANCH   9  10
ENDBRANCH   7   9
ENDBRANCH   6   7
ENDBRANCH   3   6
ENDBRANCH   1   2
BRANCH   1  25
HETATM   25  C17 UNL     1      -1.608  -0.963   0.696  1.00  0.00     0.041 C 
BRANCH  25  26
HETATM   26  C18 UNL     1      -2.924  -0.577   1.309  1.00  0.00    -0.009 C 
HETATM   27  C19 UNL     1      -2.739   0.641   2.135  1.00  0.00     0.010 C 
BRANCH  26  28
HETATM   28  C20 UNL     1      -3.905  -0.523   0.216  1.00  0.00     0.027 C 
HETATM   29  C21 UNL     1      -3.715   0.402  -0.908  1.00  0.00     0.123 C 
HETATM   30  C22 UNL     1      -5.065   0.278  -1.631  1.00  0.00     0.038 C 
HETATM   31  C23 UNL     1      -5.925  -0.622  -0.816  1.00  0.00     0.005 C 
HETATM   32  C24 UNL     1      -5.362  -0.398   0.588  1.00  0.00    -0.033 C 
HETATM   33  C34 UNL     1      -7.389  -0.477  -0.930  1.00  0.00    -0.031 C 
HETATM   34  C25 UNL     1      -5.628  -1.592   1.500  1.00  0.00     0.016 C 
HETATM   35  C26 UNL     1      -5.773   0.874   1.188  1.00  0.00     0.010 C 
HETATM   36  C27 UNL     1      -7.071   1.439   0.627  1.00  0.00     0.009 C 
HETATM   37  C28 UNL     1      -8.005   0.392   0.135  1.00  0.00     0.028 C 
HETATM   38  C29 UNL     1      -9.281   1.074  -0.313  1.00  0.00     0.058 C 
HETATM   39  C30 UNL     1      -9.708   2.013   0.797  1.00  0.00     0.046 C 
HETATM   40  C31 UNL     1     -10.409   0.111  -0.539  1.00  0.00     0.046 C 
HETATM   41  O5  UNL     1      -8.937   1.820  -1.411  1.00  0.00    -0.381 OA
HETATM   42  C32 UNL     1      -8.697   1.028  -2.506  1.00  0.00     0.169 C 
HETATM   43  C33 UNL     1      -7.760  -0.091  -2.331  1.00  0.00     0.036 C 
HETATM   44  C35 UNL     1      -7.990  -1.876  -0.690  1.00  0.00     0.016 C 
BRANCH  29  45
HETATM   45  O4  UNL     1      -3.384   1.695  -0.648  1.00  0.00    -0.395 OA
ATOM     46  H4  UNL     1      -3.261   2.294  -1.375  1.00  0.00     0.210 HD
ENDBRANCH  29  45
ENDBRANCH  26  28
ENDBRANCH  25  26
ENDBRANCH   1  25
BRANCH   1  47
HETATM   47  C36 UNL     1      -0.766  -2.428   2.485  1.00  0.00     0.196 C 
HETATM   48  O6  UNL     1      -0.115  -3.489   2.342  1.00  0.00    -0.646 OA
HETATM   49  O7  UNL     1      -1.727  -2.391   3.464  1.00  0.00    -0.646 OA
ENDBRANCH   1  47
TORSDOF 17
