REMARK  3 active torsions:
REMARK  status: ('A' for Active; 'I' for Inactive)
REMARK    1  A    between atoms: C2_2  and  C3_4 
REMARK    2  A    between atoms: C4_5  and  O2_6 
REMARK    3  A    between atoms: C8_12  and  O3_13 
ROOT
HETATM    1  C3  UNL     1       2.559  -0.213  -0.030  1.00  0.00     0.078 A 
HETATM    2  C4  UNL     1       2.117  -1.501   0.101  1.00  0.00     0.107 A 
HETATM    3  C5  UNL     1       0.738  -1.785   0.038  1.00  0.00     0.087 A 
HETATM    4  N1  UNL     1       0.293  -3.104   0.173  1.00  0.00    -0.099 NA
HETATM    5  C6  UNL     1      -0.144  -0.762  -0.153  1.00  0.00    -0.014 A 
HETATM    6  C7  UNL     1       0.253   0.548  -0.289  1.00  0.00     0.052 A 
HETATM    7  C8  UNL     1       1.624   0.835  -0.228  1.00  0.00     0.096 A 
HETATM    8  C9  UNL     1      -0.568   1.740  -0.491  1.00  0.00     0.164 C 
HETATM    9  O4  UNL     1      -0.056   2.803  -0.072  1.00  0.00    -0.292 OA
HETATM   10  C10 UNL     1      -1.906   1.749  -1.135  1.00  0.00     0.100 C 
HETATM   11  C11 UNL     1      -2.913   0.911  -0.453  1.00  0.00     0.070 C 
HETATM   12  S1  UNL     1      -3.935   2.025   0.590  1.00  0.00    -0.092 SA
HETATM   13  C12 UNL     1      -2.409  -0.165   0.439  1.00  0.00     0.001 C 
HETATM   14  C13 UNL     1      -3.611  -0.783   1.147  1.00  0.00     0.011 C 
HETATM   15  C14 UNL     1      -1.582  -1.226  -0.202  1.00  0.00     0.047 C 
ENDROOT
BRANCH   1  16
HETATM   16  C2  UNL     1       3.977   0.164   0.024  1.00  0.00     0.161 C 
HETATM   17  C1  UNL     1       4.493   1.527  -0.112  1.00  0.00     0.097 C 
HETATM   18  O1  UNL     1       4.828  -0.750   0.200  1.00  0.00    -0.293 OA
ENDBRANCH   1  16
BRANCH   2  19
HETATM   19  O2  UNL     1       2.952  -2.544   0.291  1.00  0.00    -0.358 OA
ATOM     20  H2  UNL     1       2.645  -3.438   0.382  1.00  0.00     0.217 HD
ENDBRANCH   2  19
BRANCH   7  21
HETATM   21  O3  UNL     1       1.981   2.094  -0.362  1.00  0.00    -0.359 OA
ATOM     22  H3  UNL     1       1.355   2.796  -0.495  1.00  0.00     0.217 HD
ENDBRANCH   7  21
TORSDOF 3
