REMARK  2 active torsions:
REMARK  status: ('A' for Active; 'I' for Inactive)
REMARK    1  A    between atoms: C3_3  and  N1_4 
REMARK    2  A    between atoms: C4_6  and  C5_8 
ROOT
HETATM    1  C1  UNL     1      -0.373   2.026  -1.496  1.00  0.00     0.053 C 
HETATM    2  C2  UNL     1      -0.953   1.028  -0.585  1.00  0.00    -0.004 A 
HETATM    3  C3  UNL     1      -0.145   0.334   0.284  1.00  0.00     0.068 A 
HETATM    4  C9  UNL     1      -0.744  -0.585   1.111  1.00  0.00     0.100 A 
HETATM    5  N3  UNL     1       0.018  -1.334   2.026  1.00  0.00    -0.098 NA
HETATM    6  C10 UNL     1      -2.117  -0.812   1.080  1.00  0.00     0.103 A 
HETATM    7  N4  UNL     1      -2.760  -1.757   1.925  1.00  0.00    -0.098 NA
HETATM    8  C11 UNL     1      -2.907  -0.105   0.202  1.00  0.00     0.101 A 
HETATM    9  C12 UNL     1      -2.322   0.821  -0.636  1.00  0.00     0.071 A 
HETATM   10  N5  UNL     1      -3.167   1.533  -1.529  1.00  0.00    -0.349 N 
ATOM     11  H5  UNL     1      -2.741   2.220  -2.151  1.00  0.00     0.167 HD
HETATM   12  C13 UNL     1      -4.443   1.358  -1.596  1.00  0.00     0.197 A 
HETATM   13  N6  UNL     1      -5.067   0.411  -0.745  1.00  0.00    -0.296 N 
ATOM     14  H6  UNL     1      -6.076   0.270  -0.795  1.00  0.00     0.187 HD
HETATM   15  N7  UNL     1      -4.312  -0.323   0.154  1.00  0.00    -0.296 N 
ATOM     16  H7  UNL     1      -4.754  -1.006   0.769  1.00  0.00     0.187 HD
ENDROOT
BRANCH   3  17
HETATM   17  N1  UNL     1       1.224   0.535   0.342  1.00  0.00    -0.342 N 
HETATM   18  C4  UNL     1       2.146  -0.251  -0.002  1.00  0.00     0.134 C 
HETATM   19  N2  UNL     1       1.883  -1.529  -0.527  1.00  0.00    -0.081 NA
ATOM     20  H1  UNL     1       1.525   1.437   0.711  1.00  0.00     0.167 HD
BRANCH  18  21
HETATM   21  C5  UNL     1       3.558   0.149   0.137  1.00  0.00     0.046 A 
HETATM   22  C6  UNL     1       4.666  -0.587  -0.190  1.00  0.00     0.023 A 
HETATM   23  C7  UNL     1       5.869  -0.008   0.027  1.00  0.00     0.009 A 
HETATM   24  C8  UNL     1       5.876   1.251   0.549  1.00  0.00     0.050 A 
HETATM   25  S1  UNL     1       4.226   1.606   0.728  1.00  0.00    -0.099 SA
ENDBRANCH  18  21
ENDBRANCH   3  17
TORSDOF 2
