REMARK  2 active torsions:
REMARK  status: ('A' for Active; 'I' for Inactive)
REMARK    1  A    between atoms: C7_7  and  N1_8 
REMARK    2  A    between atoms: N1_8  and  O1_10 
ROOT
HETATM    1  C1  UNL     1       4.701  -0.760   1.354  1.00  0.00     0.050 C 
HETATM    2  C2  UNL     1       3.422  -0.533   0.638  1.00  0.00    -0.033 A 
HETATM    3  C3  UNL     1       2.183  -0.537   1.267  1.00  0.00     0.023 A 
HETATM    4  C4  UNL     1       1.011  -0.321   0.566  1.00  0.00     0.000 A 
HETATM    5  C5  UNL     1       1.081  -0.098  -0.784  1.00  0.00    -0.034 A 
HETATM    6  C6  UNL     1       2.305  -0.084  -1.462  1.00  0.00     0.040 A 
HETATM    7  C7  UNL     1       3.470  -0.306  -0.718  1.00  0.00     0.060 A 
HETATM    8  C8  UNL     1      -0.279   0.104  -1.311  1.00  0.00     0.068 A 
HETATM    9  C9  UNL     1      -0.416   1.282  -2.200  1.00  0.00     0.021 C 
HETATM   10  C10 UNL     1      -1.154  -0.015  -0.182  1.00  0.00     0.050 A 
HETATM   11  C11 UNL     1      -0.408  -0.258   0.885  1.00  0.00     0.069 A 
HETATM   12  N2  UNL     1      -0.848  -0.454   2.249  1.00  0.00    -0.328 N 
ATOM     13  H2  UNL     1      -0.099  -0.551   2.935  1.00  0.00     0.168 HD
HETATM   14  C12 UNL     1      -2.036  -0.525   2.729  1.00  0.00     0.195 C 
HETATM   15  N3  UNL     1      -2.135  -0.729   4.154  1.00  0.00    -0.063 NA
HETATM   16  N4  UNL     1      -3.304  -0.429   2.043  1.00  0.00    -0.302 N 
ATOM     17  H4  UNL     1      -4.131  -0.594   2.616  1.00  0.00     0.171 HD
HETATM   18  C13 UNL     1      -3.528  -0.161   0.798  1.00  0.00     0.184 C 
HETATM   19  N5  UNL     1      -4.856  -0.101   0.264  1.00  0.00    -0.360 N 
ATOM     20  H5  UNL     1      -5.712  -0.427   0.713  1.00  0.00     0.162 HD
HETATM   21  C14 UNL     1      -4.738   0.514  -1.039  1.00  0.00     0.143 C 
HETATM   22  C15 UNL     1      -3.260   0.554  -1.395  1.00  0.00     0.151 C 
HETATM   23  N6  UNL     1      -2.594   0.111  -0.226  1.00  0.00    -0.318 N 
ENDROOT
BRANCH   7  24
HETATM   24  N1  UNL     1       4.690  -0.284  -1.447  1.00  0.00    -0.269 N 
ATOM     25  H1  UNL     1       5.029  -1.161  -1.843  1.00  0.00     0.194 HD
BRANCH  24  26
HETATM   26  O1  UNL     1       5.424   0.826  -1.645  1.00  0.00    -0.289 OA
ATOM     27  H1  UNL     1       6.239   0.841  -2.132  1.00  0.00     0.244 HD
ENDBRANCH  24  26
ENDBRANCH   7  24
TORSDOF 2
