REMARK  3 active torsions:
REMARK  status: ('A' for Active; 'I' for Inactive)
REMARK    1  A    between atoms: O1_1  and  C1_3 
REMARK    2  A    between atoms: C4_6  and  O2_7 
REMARK    3  A    between atoms: N1_9  and  C5_10 
ROOT
HETATM    1  C1  UNL     1       0.814   1.004  -0.814  1.00  0.00     0.151 A 
HETATM    2  C2  UNL     1       2.064   0.788  -0.321  1.00  0.00     0.007 A 
HETATM    3  C3  UNL     1       1.949  -0.266   0.563  1.00  0.00     0.021 A 
HETATM    4  C4  UNL     1       0.620  -0.628   0.550  1.00  0.00     0.153 A 
HETATM    5  N1  UNL     1      -0.085   0.146  -0.293  1.00  0.00    -0.303 N 
HETATM    6  C11 UNL     1       3.199  -0.694   1.240  1.00  0.00     0.157 C 
HETATM    7  N2  UNL     1       4.216  -0.823   0.243  1.00  0.00    -0.417 N 
ATOM      8  H2  UNL     1       4.693  -1.706   0.061  1.00  0.00     0.153 HD
HETATM    9  C12 UNL     1       4.516   0.370  -0.479  1.00  0.00     0.118 C 
HETATM   10  C13 UNL     1       3.425   1.389  -0.506  1.00  0.00     0.063 C 
ENDROOT
BRANCH   5  11
HETATM   11  C5  UNL     1      -1.486   0.092  -0.590  1.00  0.00     0.094 C 
HETATM   12  C6  UNL     1      -2.310   0.843   0.458  1.00  0.00     0.026 C 
HETATM   13  C7  UNL     1      -3.761   0.759   0.139  1.00  0.00     0.002 C 
HETATM   14  C8  UNL     1      -4.273  -0.641  -0.022  1.00  0.00     0.000 C 
HETATM   15  C9  UNL     1      -3.113  -1.588   0.256  1.00  0.00     0.002 C 
HETATM   16  C10 UNL     1      -2.025  -1.285  -0.776  1.00  0.00     0.026 C 
ENDBRANCH   5  11
BRANCH   1  17
HETATM   17  O1  UNL     1       0.534   2.012  -1.755  1.00  0.00    -0.345 OA
ATOM     18  H1  UNL     1      -0.339   2.163  -2.099  1.00  0.00     0.219 HD
ENDBRANCH   1  17
BRANCH   4  19
HETATM   19  O2  UNL     1       0.110  -1.667   1.324  1.00  0.00    -0.345 OA
ATOM     20  H2  UNL     1      -0.807  -1.917   1.315  1.00  0.00     0.219 HD
ENDBRANCH   4  19
TORSDOF 3
