REMARK  3 active torsions:
REMARK  status: ('A' for Active; 'I' for Inactive)
REMARK    1  A    between atoms: C2_2  and  C3_3 
REMARK    2  A    between atoms: C3_3  and  N2_7 
REMARK    3  A    between atoms: N3_9  and  C4_11 
ROOT
HETATM    1  C4  UNL     1      -0.431   0.130   1.208  1.00  0.00     0.191 A 
HETATM    2  O1  UNL     1      -0.333   1.385   0.821  1.00  0.00    -0.300 OA
HETATM    3  C5  UNL     1      -1.253   1.694  -0.039  1.00  0.00     0.176 A 
HETATM    4  C6  UNL     1      -2.052   0.578  -0.273  1.00  0.00     0.088 A 
HETATM    5  N4  UNL     1      -3.107   0.075  -0.942  1.00  0.00    -0.330 N 
ATOM      6  H4  UNL     1      -3.703   0.567  -1.608  1.00  0.00     0.168 HD
HETATM    7  C7  UNL     1      -3.215  -1.197  -0.557  1.00  0.00     0.177 A 
HETATM    8  S1  UNL     1      -4.341  -2.243  -1.081  1.00  0.00    -0.041 SA
HETATM    9  N5  UNL     1      -2.256  -1.512   0.337  1.00  0.00    -0.328 N 
ATOM     10  H5  UNL     1      -2.119  -2.418   0.784  1.00  0.00     0.168 HD
HETATM   11  C8  UNL     1      -1.515  -0.407   0.528  1.00  0.00     0.116 A 
ENDROOT
BRANCH   1  12
HETATM   12  N3  UNL     1       0.383  -0.574   2.129  1.00  0.00    -0.276 N 
HETATM   13  N2  UNL     1       1.562  -0.861   1.807  1.00  0.00    -0.284 N 
ATOM     14  H2  UNL     1       2.167  -1.366   2.455  1.00  0.00     0.188 HD
ATOM     15  H3  UNL     1       0.016  -0.844   3.042  1.00  0.00     0.189 HD
BRANCH  13  16
HETATM   16  C3  UNL     1       2.040  -0.473   0.530  1.00  0.00     0.112 C 
HETATM   17  N1  UNL     1       1.494  -0.884  -0.550  1.00  0.00    -0.384 N 
ATOM     18  H12 UNL     1       1.838  -0.605  -1.469  1.00  0.00     0.157 HD
ATOM     19  H11 UNL     1       0.690  -1.510  -0.498  1.00  0.00     0.157 HD
BRANCH  16  20
HETATM   20  C2  UNL     1       3.176   0.412   0.457  1.00  0.00     0.039 C 
HETATM   21  C1  UNL     1       3.707   0.838  -0.671  1.00  0.00     0.015 C 
ENDBRANCH  16  20
ENDBRANCH  13  16
ENDBRANCH   1  12
TORSDOF 3
