REMARK  3 active torsions:
REMARK  status: ('A' for Active; 'I' for Inactive)
REMARK    1  A    between atoms: O1_1  and  C1_3 
REMARK    2  A    between atoms: C2_6  and  O2_7 
REMARK    3  A    between atoms: C4_12  and  C5_13 
ROOT
HETATM    1  C1  UNL     1      -3.423   0.114  -1.412  1.00  0.00     0.172 A 
HETATM    2  N1  UNL     1      -4.403   0.316  -0.528  1.00  0.00    -0.314 N 
ATOM      3  H1  UNL     1      -5.393   0.381  -0.764  1.00  0.00     0.170 HD
HETATM    4  C2  UNL     1      -3.898   0.423   0.731  1.00  0.00     0.172 A 
HETATM    5  C3  UNL     1      -2.528   0.284   0.656  1.00  0.00     0.116 A 
HETATM    6  N2  UNL     1      -1.382   0.261   1.353  1.00  0.00    -0.340 N 
ATOM      7  H2  UNL     1      -1.289   0.376   2.362  1.00  0.00     0.167 HD
HETATM    8  C4  UNL     1      -0.379   0.059   0.482  1.00  0.00     0.086 A 
HETATM    9  N3  UNL     1      -0.902  -0.044  -0.750  1.00  0.00    -0.340 N 
ATOM     10  H3  UNL     1      -0.369  -0.201  -1.605  1.00  0.00     0.167 HD
HETATM   11  C11 UNL     1      -2.254   0.093  -0.680  1.00  0.00     0.116 A 
ENDROOT
BRANCH   8  12
HETATM   12  C5  UNL     1       1.068  -0.039   0.804  1.00  0.00     0.053 C 
HETATM   13  C6  UNL     1       1.742   1.138   0.131  1.00  0.00     0.012 C 
HETATM   14  C7  UNL     1       3.228   0.986   0.476  1.00  0.00     0.001 C 
HETATM   15  C8  UNL     1       3.697  -0.174  -0.367  1.00  0.00     0.000 C 
HETATM   16  C9  UNL     1       3.015  -1.431   0.004  1.00  0.00     0.001 C 
HETATM   17  C10 UNL     1       1.590  -1.360   0.354  1.00  0.00     0.012 C 
ENDBRANCH   8  12
BRANCH   4  18
HETATM   18  O2  UNL     1      -4.577   0.634   1.917  1.00  0.00    -0.344 OA
ATOM     19  H2  UNL     1      -4.224   0.709   2.796  1.00  0.00     0.219 HD
ENDBRANCH   4  18
BRANCH   1  20
HETATM   20  O1  UNL     1      -3.516  -0.047  -2.789  1.00  0.00    -0.344 OA
ATOM     21  H1  UNL     1      -2.819  -0.191  -3.418  1.00  0.00     0.219 HD
ENDBRANCH   1  20
TORSDOF 3
