REMARK  4 active torsions:
REMARK  status: ('A' for Active; 'I' for Inactive)
REMARK    1  A    between atoms: C3_3  and  O1_4 
REMARK    2  A    between atoms: C6_10  and  O2_11 
REMARK    3  A    between atoms: C7_13  and  N2_14 
REMARK    4  A    between atoms: N2_14  and  O3_16 
ROOT
HETATM    1  C1  UNL     1      -3.325   0.915   0.165  1.00  0.00     0.052 C 
HETATM    2  C2  UNL     1      -2.020   0.157   0.022  1.00  0.00    -0.022 A 
HETATM    3  C3  UNL     1      -2.047  -1.189  -0.230  1.00  0.00     0.074 A 
HETATM    4  C4  UNL     1      -0.883  -1.898  -0.364  1.00  0.00     0.067 A 
HETATM    5  C5  UNL     1       0.331  -1.232  -0.241  1.00  0.00     0.050 A 
HETATM    6  N1  UNL     1       1.490  -1.914  -0.370  1.00  0.00    -0.334 N 
ATOM      7  H1  UNL     1       1.471  -2.916  -0.558  1.00  0.00     0.168 HD
HETATM    8  C6  UNL     1       2.660  -1.281  -0.252  1.00  0.00     0.172 A 
HETATM    9  C7  UNL     1       2.741   0.070   0.001  1.00  0.00     0.132 A 
HETATM   10  C8  UNL     1       1.534   0.749   0.129  1.00  0.00     0.072 A 
HETATM   11  N3  UNL     1       1.615   2.000   0.363  1.00  0.00    -0.396 N 
ATOM     12  H31 UNL     1       0.730   2.498   0.457  1.00  0.00     0.156 HD
ATOM     13  H32 UNL     1       2.515   2.472   0.451  1.00  0.00     0.156 HD
HETATM   14  C9  UNL     1       0.336   0.121   0.012  1.00  0.00     0.026 A 
HETATM   15  C10 UNL     1      -0.843   0.873   0.154  1.00  0.00    -0.038 A 
HETATM   16  C11 UNL     1      -0.860   2.319   0.425  1.00  0.00     0.050 C 
ENDROOT
BRANCH   9  17
HETATM   17  N2  UNL     1       3.985   0.752   0.127  1.00  0.00    -0.263 N 
ATOM     18  H2  UNL     1       4.126   1.449   0.858  1.00  0.00     0.194 HD
BRANCH  17  19
HETATM   19  O3  UNL     1       4.890   0.479  -0.671  1.00  0.00    -0.289 OA
ATOM     20  H3  UNL     1       5.720   0.934  -0.587  1.00  0.00     0.244 HD
ENDBRANCH  17  19
ENDBRANCH   9  17
BRANCH   8  21
HETATM   21  O2  UNL     1       3.836  -1.996  -0.387  1.00  0.00    -0.344 OA
ATOM     22  H2  UNL     1       4.668  -1.546  -0.303  1.00  0.00     0.219 HD
ENDBRANCH   8  21
BRANCH   3  23
HETATM   23  O1  UNL     1      -3.280  -1.810  -0.346  1.00  0.00    -0.360 OA
ATOM     24  H1  UNL     1      -3.299  -2.744  -0.521  1.00  0.00     0.217 HD
ENDBRANCH   3  23
TORSDOF 4
