REMARK  2 active torsions:
REMARK  status: ('A' for Active; 'I' for Inactive)
REMARK    1  A    between atoms: O1_2  and  C2_3 
REMARK    2  A    between atoms: N1_6  and  C5_7 
ROOT
HETATM    1  C5  UNL     1      -0.596  -0.217  -0.700  1.00  0.00     0.087 C 
HETATM    2  C6  UNL     1      -1.500  -1.349  -0.385  1.00  0.00     0.010 C 
HETATM    3  C7  UNL     1      -2.621  -1.306  -1.449  1.00  0.00     0.011 C 
HETATM    4  C8  UNL     1      -3.340   0.021  -1.328  1.00  0.00    -0.012 C 
HETATM    5  C9  UNL     1      -2.428   1.205  -1.418  1.00  0.00     0.011 C 
HETATM    6  C10 UNL     1      -1.292   1.087  -0.387  1.00  0.00     0.010 C 
HETATM    7  C11 UNL     1      -1.939   1.107   0.959  1.00  0.00     0.027 C 
HETATM    8  C12 UNL     1      -2.973   0.040   1.083  1.00  0.00     0.019 C 
HETATM    9 BR1  UNL     1      -3.837   0.065   2.799  1.00  0.00    -0.086 Br
HETATM   10  C13 UNL     1      -4.047   0.122   0.022  1.00  0.00     0.025 C 
HETATM   11  C14 UNL     1      -2.252  -1.296   0.901  1.00  0.00     0.027 C 
ENDROOT
BRANCH   1  12
HETATM   12  N1  UNL     1       0.755  -0.293  -0.315  1.00  0.00    -0.407 N 
HETATM   13  C4  UNL     1       1.138  -0.379   1.034  1.00  0.00     0.119 C 
HETATM   14  C3  UNL     1       2.581  -0.901   1.050  1.00  0.00     0.051 C 
HETATM   15  C2  UNL     1       3.484   0.172   0.550  1.00  0.00     0.123 C 
HETATM   16  C16 UNL     1       2.767   1.109  -0.359  1.00  0.00     0.051 C 
HETATM   17  C15 UNL     1       1.666   0.447  -1.152  1.00  0.00     0.119 C 
BRANCH  15  18
HETATM   18  O1  UNL     1       4.661  -0.327  -0.003  1.00  0.00    -0.391 OA
HETATM   19  C1  UNL     1       5.794   0.040   0.685  1.00  0.00     0.202 C 
ENDBRANCH  15  18
ENDBRANCH   1  12
TORSDOF 2
