REMARK  2 active torsions:
REMARK  status: ('A' for Active; 'I' for Inactive)
REMARK    1  A    between atoms: C2_2  and  C3_3 
REMARK    2  A    between atoms: C3_3  and  N1_4 
ROOT
HETATM    1  N1  UNL     1       3.499  -1.431   0.042  1.00  0.00    -0.371 N 
ATOM      2  H1  UNL     1       3.642  -2.439   0.109  1.00  0.00     0.161 HD
HETATM    3  C4  UNL     1       2.302  -1.094  -0.156  1.00  0.00     0.120 C 
HETATM    4  C5  UNL     1       1.308  -2.225  -0.257  1.00  0.00     0.089 C 
HETATM    5  C6  UNL     1      -0.044  -1.830   0.193  1.00  0.00     0.050 C 
HETATM    6  C7  UNL     1      -0.378  -0.415   0.043  1.00  0.00    -0.016 A 
HETATM    7  C8  UNL     1      -1.726  -0.042   0.139  1.00  0.00    -0.043 A 
HETATM    8  C9  UNL     1      -2.129   1.248   0.013  1.00  0.00    -0.050 A 
HETATM    9  C10 UNL     1      -1.198   2.248  -0.218  1.00  0.00     0.029 A 
HETATM   10  C11 UNL     1       0.142   1.910  -0.318  1.00  0.00     0.046 A 
HETATM   11 BR1  UNL     1       1.461   3.243  -0.637  1.00  0.00    -0.048 Br
HETATM   12  C12 UNL     1       0.546   0.596  -0.189  1.00  0.00     0.101 A 
HETATM   13  O1  UNL     1       1.875   0.212  -0.281  1.00  0.00    -0.296 OA
HETATM   14  C13 UNL     1      -3.531   1.657   0.112  1.00  0.00     0.039 C 
HETATM   15  C14 UNL     1      -4.536   0.559   0.125  1.00  0.00     0.005 C 
HETATM   16  C15 UNL     1      -4.043  -0.680   0.842  1.00  0.00     0.005 C 
HETATM   17  C16 UNL     1      -2.700  -1.116   0.383  1.00  0.00     0.040 C 
ENDROOT
BRANCH   1  18
HETATM   18  C3  UNL     1       4.679  -0.671   0.188  1.00  0.00     0.148 C 
BRANCH  18  19
HETATM   19  C2  UNL     1       4.593   0.763  -0.073  1.00  0.00    -0.018 C 
HETATM   20  C1  UNL     1       5.327   1.323  -1.023  1.00  0.00     0.008 C 
ENDBRANCH  18  19
ENDBRANCH   1  18
TORSDOF 2
