REMARK  2 active torsions:
REMARK  status: ('A' for Active; 'I' for Inactive)
REMARK    1  A    between atoms: C4_5  and  C5_6 
REMARK    2  A    between atoms: N1_7  and  C6_9 
ROOT
HETATM    1  C5  UNL     1       1.734  -0.479  -0.258  1.00  0.00     0.113 C 
HETATM    2  N1  UNL     1       0.896   0.263   0.347  1.00  0.00    -0.388 N 
ATOM      3  H1  UNL     1       1.282   0.998   0.939  1.00  0.00     0.159 HD
ENDROOT
BRANCH   2   4
HETATM    4  C6  UNL     1      -0.526   0.176   0.285  1.00  0.00     0.030 C 
HETATM    5  C7  UNL     1      -1.148   1.469   0.812  1.00  0.00     0.035 C 
HETATM    6  C8  UNL     1      -2.653   1.345   0.761  1.00  0.00    -0.012 C 
HETATM    7  C9  UNL     1      -3.160   0.179   1.561  1.00  0.00     0.009 C 
HETATM    8  C13 UNL     1      -3.021   1.154  -0.712  1.00  0.00     0.009 C 
HETATM    9  C10 UNL     1      -2.481  -1.093   1.085  1.00  0.00    -0.012 C 
HETATM   10  C11 UNL     1      -2.919  -1.326  -0.337  1.00  0.00     0.009 C 
HETATM   11  C15 UNL     1      -1.006  -0.921   1.229  1.00  0.00     0.035 C 
HETATM   12  C12 UNL     1      -2.489  -0.158  -1.191  1.00  0.00    -0.012 C 
HETATM   13  C14 UNL     1      -0.966  -0.084  -1.135  1.00  0.00     0.035 C 
ENDBRANCH   2   4
BRANCH   1  14
HETATM   14  C4  UNL     1       3.151  -0.241  -0.074  1.00  0.00     0.047 A 
HETATM   15  C3  UNL     1       4.099  -1.032  -0.720  1.00  0.00     0.032 A 
HETATM   16  C2  UNL     1       5.420  -0.753  -0.502  1.00  0.00     0.023 A 
HETATM   17  C1  UNL     1       5.761   0.286   0.338  1.00  0.00     0.026 A 
HETATM   18 BR1  UNL     1       7.605   0.666   0.636  1.00  0.00    -0.050 Br
HETATM   19  C16 UNL     1       4.817   1.064   0.974  1.00  0.00     0.107 A 
HETATM   20  N2  UNL     1       3.530   0.761   0.736  1.00  0.00    -0.364 N 
ATOM     21  H2  UNL     1       2.807   1.318   1.192  1.00  0.00     0.165 HD
ENDBRANCH   1  14
TORSDOF 2
