REMARK  2 active torsions:
REMARK  status: ('A' for Active; 'I' for Inactive)
REMARK    1  A    between atoms: C9_10  and  C10_11 
REMARK    2  A    between atoms: C10_11  and  C11_12 
ROOT
HETATM    1 BR1  UNL     1      -3.447  -2.378  -0.781  1.00  0.00    -0.085 Br
HETATM    2  C1  UNL     1      -2.070  -1.081  -0.365  1.00  0.00     0.019 C 
HETATM    3  C2  UNL     1      -2.009  -0.095  -1.495  1.00  0.00     0.025 C 
HETATM    4  C3  UNL     1      -0.906   0.923  -1.312  1.00  0.00    -0.012 C 
HETATM    5  C4  UNL     1      -1.432   2.022  -0.446  1.00  0.00     0.005 C 
HETATM    6  C5  UNL     1      -1.355   1.824   0.999  1.00  0.00     0.005 C 
HETATM    7  C6  UNL     1      -1.345   0.429   1.510  1.00  0.00    -0.012 C 
HETATM    8  C7  UNL     1      -2.405  -0.452   0.948  1.00  0.00     0.025 C 
HETATM    9  C8  UNL     1       0.039  -0.209   1.443  1.00  0.00     0.014 C 
HETATM   10  C9  UNL     1       0.318  -0.780   0.076  1.00  0.00    -0.034 C 
HETATM   11  C14 UNL     1       0.392   0.351  -0.892  1.00  0.00     0.014 C 
HETATM   12  C15 UNL     1      -0.764  -1.796  -0.288  1.00  0.00     0.030 C 
ENDROOT
BRANCH  10  13
HETATM   13  C10 UNL     1       1.611  -1.553   0.141  1.00  0.00     0.057 C 
BRANCH  13  14
HETATM   14  C11 UNL     1       2.766  -0.709   0.542  1.00  0.00    -0.000 A 
HETATM   15  C12 UNL     1       3.257  -0.442   1.790  1.00  0.00     0.102 A 
HETATM   16  N1  UNL     1       4.288   0.334   1.886  1.00  0.00    -0.368 N 
HETATM   17  C13 UNL     1       4.837   0.844   0.794  1.00  0.00     0.138 A 
ATOM     18  H1  UNL     1       4.678   0.553   2.803  1.00  0.00     0.165 HD
HETATM   19  S1  UNL     1       3.837   0.189  -0.439  1.00  0.00    -0.088 SA
ENDBRANCH  13  14
ENDBRANCH  10  13
TORSDOF 2
