REMARK  2 active torsions:
REMARK  status: ('A' for Active; 'I' for Inactive)
REMARK    1  A    between atoms: O1_2  and  C2_3 
REMARK    2  A    between atoms: C8_10  and  N1_11 
ROOT
HETATM    1  C2  UNL     1      -2.173   2.536   0.556  1.00  0.00     0.092 A 
HETATM    2  C3  UNL     1      -2.325   1.386  -0.168  1.00  0.00     0.068 A 
HETATM    3  C4  UNL     1      -1.323   0.446  -0.065  1.00  0.00     0.041 A 
HETATM    4  C5  UNL     1      -0.173   0.614   0.739  1.00  0.00     0.003 A 
HETATM    5  C6  UNL     1      -0.033   1.758   1.452  1.00  0.00     0.038 A 
HETATM    6  C7  UNL     1      -1.050   2.717   1.349  1.00  0.00     0.068 A 
HETATM    7 CL1  UNL     1      -0.845   4.182   2.277  1.00  0.00    -0.081 Cl
HETATM    8  C8  UNL     1       0.872  -0.436   0.853  1.00  0.00     0.258 C 
HETATM    9  C14 UNL     1       0.294  -1.829   0.930  1.00  0.00     0.047 C 
HETATM   10  C15 UNL     1      -0.409  -2.449  -0.175  1.00  0.00     0.006 C 
HETATM   11  C16 UNL     1      -1.842  -2.814   0.255  1.00  0.00     0.008 C 
HETATM   12  C17 UNL     1      -2.919  -2.520  -0.731  1.00  0.00     0.020 C 
HETATM   13  C18 UNL     1      -3.056  -0.973  -1.001  1.00  0.00     0.123 C 
HETATM   14  N2  UNL     1      -1.651  -0.661  -0.846  1.00  0.00    -0.380 N 
HETATM   15  C19 UNL     1      -0.643  -1.583  -1.411  1.00  0.00     0.127 C 
ENDROOT
BRANCH   8  16
HETATM   16  N1  UNL     1       1.965  -0.317  -0.040  1.00  0.00     0.097 N 
HETATM   17  C9  UNL     1       2.348   1.012  -0.387  1.00  0.00     0.273 C 
HETATM   18  C10 UNL     1       3.573   0.880  -1.298  1.00  0.00     0.030 C 
HETATM   19  C11 UNL     1       4.753   0.608  -0.398  1.00  0.00     0.003 C 
HETATM   20  C12 UNL     1       4.232  -0.012   0.872  1.00  0.00     0.030 C 
HETATM   21  C13 UNL     1       3.124  -0.988   0.513  1.00  0.00     0.273 C 
ENDBRANCH   8  16
BRANCH   1  22
HETATM   22  O1  UNL     1      -3.145   3.513   0.491  1.00  0.00    -0.354 OA
HETATM   23  C1  UNL     1      -4.306   3.388  -0.294  1.00  0.00     0.210 C 
ENDBRANCH   1  22
TORSDOF 2
