REMARK  3 active torsions:
REMARK  status: ('A' for Active; 'I' for Inactive)
REMARK    1  A    between atoms: C4_4  and  C5_5 
REMARK    2  A    between atoms: C6_6  and  C7_7 
REMARK    3  A    between atoms: C12_16  and  C13_17 
ROOT
HETATM    1  C1  UNL     1       1.399  -3.761   1.108  1.00  0.00     0.043 C 
HETATM    2  C2  UNL     1       1.195  -2.524   0.766  1.00  0.00     0.024 A 
HETATM    3  C3  UNL     1      -0.119  -1.916   0.653  1.00  0.00     0.049 A 
HETATM    4  C4  UNL     1      -0.268  -0.660   0.303  1.00  0.00     0.022 A 
HETATM    5  C11 UNL     1       0.945   0.133   0.024  1.00  0.00     0.051 A 
HETATM    6  C12 UNL     1       2.167  -0.329   0.100  1.00  0.00     0.044 A 
HETATM    7  N3  UNL     1       2.325  -1.682   0.476  1.00  0.00    -0.356 N 
ATOM      8  H3  UNL     1       3.265  -2.072   0.544  1.00  0.00     0.166 HD
ENDROOT
BRANCH   4   9
HETATM    9  C5  UNL     1      -1.582  -0.079   0.198  1.00  0.00    -0.058 C 
HETATM   10  C6  UNL     1      -2.687   0.423   0.098  1.00  0.00    -0.024 C 
BRANCH  10  11
HETATM   11  C7  UNL     1      -3.979   1.037  -0.025  1.00  0.00     0.164 A 
HETATM   12  N1  UNL     1      -4.299   2.349  -0.067  1.00  0.00    -0.324 N 
HETATM   13  C8  UNL     1      -5.622   2.501  -0.189  1.00  0.00     0.121 A 
ATOM     14  H1  UNL     1      -3.627   3.115  -0.013  1.00  0.00     0.169 HD
HETATM   15 CL1  UNL     1      -6.423   4.055  -0.277  1.00  0.00    -0.063 Cl
HETATM   16  C9  UNL     1      -6.154   1.240  -0.225  1.00  0.00     0.135 A 
HETATM   17  N2  UNL     1      -5.129   0.346  -0.123  1.00  0.00    -0.337 N 
HETATM   18  C10 UNL     1      -5.315  -1.094  -0.126  1.00  0.00     0.158 C 
ENDBRANCH  10  11
ENDBRANCH   4   9
BRANCH   6  19
HETATM   19  C13 UNL     1       3.325   0.496  -0.186  1.00  0.00    -0.009 A 
HETATM   20  C14 UNL     1       4.575  -0.061  -0.085  1.00  0.00     0.013 A 
HETATM   21  C15 UNL     1       5.681   0.721  -0.356  1.00  0.00     0.001 A 
HETATM   22  C16 UNL     1       5.554   2.042  -0.725  1.00  0.00     0.000 A 
HETATM   23  C17 UNL     1       4.303   2.606  -0.829  1.00  0.00     0.001 A 
HETATM   24  C18 UNL     1       3.190   1.818  -0.555  1.00  0.00     0.013 A 
ENDBRANCH   6  19
TORSDOF 3
