REMARK  3 active torsions:
REMARK  status: ('A' for Active; 'I' for Inactive)
REMARK    1  A    between atoms: C3_6  and  C4_7 
REMARK    2  A    between atoms: C5_8  and  C6_9 
REMARK    3  A    between atoms: C12_15  and  C13_16 
ROOT
HETATM    1  O1  UNL     1      -4.113  -4.044  -0.667  1.00  0.00    -0.267 OA
HETATM    2  C1  UNL     1      -3.107  -3.273  -0.658  1.00  0.00     0.261 A 
HETATM    3  C2  UNL     1      -1.960  -3.765  -1.229  1.00  0.00     0.163 A 
HETATM    4  N1  UNL     1      -0.880  -2.979  -1.234  1.00  0.00    -0.352 N 
ATOM      5  H1  UNL     1      -0.022  -3.334  -1.656  1.00  0.00     0.166 HD
HETATM    6  C3  UNL     1      -0.873  -1.708  -0.694  1.00  0.00     0.115 A 
HETATM    7  C12 UNL     1      -2.037  -1.263  -0.141  1.00  0.00     0.081 A 
HETATM    8  N2  UNL     1      -3.156  -2.073  -0.132  1.00  0.00    -0.319 N 
ATOM      9  H2  UNL     1      -4.024  -1.736   0.285  1.00  0.00     0.169 HD
ENDROOT
BRANCH   6  10
HETATM   10  C4  UNL     1       0.385  -1.005  -0.678  1.00  0.00    -0.041 C 
HETATM   11  C5  UNL     1       1.460  -0.456  -0.650  1.00  0.00    -0.060 C 
BRANCH  11  12
HETATM   12  C6  UNL     1       2.741   0.197  -0.611  1.00  0.00     0.018 A 
HETATM   13  C7  UNL     1       2.813   1.558  -0.745  1.00  0.00     0.020 A 
HETATM   14  C8  UNL     1       4.039   2.187  -0.707  1.00  0.00     0.001 A 
HETATM   15  C9  UNL     1       5.215   1.453  -0.534  1.00  0.00     0.000 A 
HETATM   16  C10 UNL     1       5.159   0.092  -0.399  1.00  0.00     0.001 A 
HETATM   17  C11 UNL     1       3.919  -0.513  -0.440  1.00  0.00     0.020 A 
ENDBRANCH  11  12
ENDBRANCH   6  10
BRANCH   7  18
HETATM   18  C13 UNL     1      -2.118   0.023   0.511  1.00  0.00    -0.005 A 
HETATM   19  C14 UNL     1      -2.985   0.140   1.595  1.00  0.00     0.014 A 
HETATM   20  C15 UNL     1      -3.196   1.331   2.209  1.00  0.00     0.003 A 
HETATM   21  C16 UNL     1      -2.567   2.478   1.791  1.00  0.00     0.024 A 
HETATM   22  C17 UNL     1      -1.711   2.395   0.729  1.00  0.00     0.035 A 
HETATM   23 CL1  UNL     1      -0.893   3.848   0.176  1.00  0.00    -0.084 Cl
HETATM   24  C18 UNL     1      -1.503   1.151   0.102  1.00  0.00     0.037 A 
ENDBRANCH   7  18
TORSDOF 3
