REMARK  8 active torsions:
REMARK  status: ('A' for Active; 'I' for Inactive)
REMARK    1  A    between atoms: N1_2  and  S1_4 
REMARK    2  A    between atoms: S1_4  and  C2_7 
REMARK    3  A    between atoms: C5_10  and  C6_11 
REMARK    4  A    between atoms: C6_11  and  C7_12 
REMARK    5  A    between atoms: C7_12  and  N2_13 
REMARK    6  A    between atoms: C7_12  and  C8_17 
REMARK    7  A    between atoms: C9_18  and  C10_19 
REMARK    8  A    between atoms: C13_22  and  C14_23 
ROOT
HETATM    1  C7  UNL     1       1.407   0.630   0.118  1.00  0.00     0.266 C 
ENDROOT
BRANCH   1   2
HETATM    2  C6  UNL     1       1.901  -0.794   0.204  1.00  0.00     0.084 C 
BRANCH   2   3
HETATM    3  C5  UNL     1       3.382  -0.804   0.342  1.00  0.00    -0.055 A 
HETATM    4  C4  UNL     1       4.012  -0.780   1.569  1.00  0.00     0.009 A 
HETATM    5  C3  UNL     1       5.385  -0.788   1.711  1.00  0.00     0.026 A 
HETATM    6  C2  UNL     1       6.192  -0.823   0.589  1.00  0.00     0.079 A 
HETATM    7  C23 UNL     1       5.579  -0.847  -0.639  1.00  0.00     0.026 A 
HETATM    8  C22 UNL     1       4.204  -0.838  -0.774  1.00  0.00     0.009 A 
BRANCH   6   9
HETATM    9  S1  UNL     1       7.927  -0.835   0.801  1.00  0.00     0.258 S 
HETATM   10  O1  UNL     1       8.240  -1.496   2.104  1.00  0.00    -0.201 OA
HETATM   11  O2  UNL     1       8.569  -1.617  -0.309  1.00  0.00    -0.201 OA
BRANCH   9  12
HETATM   12  N1  UNL     1       8.536   0.773   0.844  1.00  0.00    -0.320 N 
HETATM   13  C1  UNL     1       8.232   1.400  -0.429  1.00  0.00     0.159 C 
ATOM     14  H1  UNL     1       9.025   1.209   1.626  1.00  0.00     0.171 HD
ENDBRANCH   9  12
ENDBRANCH   6   9
ENDBRANCH   2   3
ENDBRANCH   1   2
BRANCH   1  15
HETATM   15  N2  UNL     1       1.738   1.409   1.270  1.00  0.00    -0.064 N 
ATOM     16  H23 UNL     1       1.403   0.959   2.122  1.00  0.00     0.275 HD
ATOM     17  H22 UNL     1       2.742   1.383   1.451  1.00  0.00     0.275 HD
ATOM     18  H21 UNL     1       1.404   2.371   1.212  1.00  0.00     0.275 HD
ENDBRANCH   1  15
BRANCH   1  19
HETATM   19  C8  UNL     1      -0.061   0.553  -0.028  1.00  0.00    -0.068 C 
HETATM   20  C9  UNL     1      -1.259   0.471  -0.137  1.00  0.00    -0.065 C 
BRANCH  20  21
HETATM   21  C10 UNL     1      -2.688   0.353  -0.253  1.00  0.00     0.017 A 
HETATM   22  C11 UNL     1      -3.394   0.943  -1.301  1.00  0.00     0.021 A 
HETATM   23  C12 UNL     1      -4.760   0.831  -1.413  1.00  0.00     0.013 A 
HETATM   24  C13 UNL     1      -5.443   0.113  -0.457  1.00  0.00    -0.026 A 
HETATM   25  C20 UNL     1      -4.798  -0.495   0.606  1.00  0.00     0.013 A 
HETATM   26  C21 UNL     1      -3.431  -0.355   0.676  1.00  0.00     0.021 A 
BRANCH  24  27
HETATM   27  C14 UNL     1      -6.891  -0.015  -0.563  1.00  0.00    -0.026 A 
HETATM   28  C15 UNL     1      -7.503  -0.045  -1.799  1.00  0.00     0.015 A 
HETATM   29  C16 UNL     1      -8.872  -0.165  -1.917  1.00  0.00     0.043 A 
HETATM   30  C17 UNL     1      -9.683  -0.260  -0.804  1.00  0.00     0.116 A 
HETATM   31  F1  UNL     1     -11.031  -0.379  -0.886  1.00  0.00    -0.206 F 
HETATM   32  C18 UNL     1      -9.048  -0.228   0.426  1.00  0.00     0.043 A 
HETATM   33  C19 UNL     1      -7.684  -0.109   0.559  1.00  0.00     0.015 A 
ENDBRANCH  24  27
ENDBRANCH  20  21
ENDBRANCH   1  19
TORSDOF 8
