REMARK  8 active torsions:
REMARK  status: ('A' for Active; 'I' for Inactive)
REMARK    1  A    between atoms: N1_1  and  C1_5 
REMARK    2  A    between atoms: C1_5  and  C2_6 
REMARK    3  A    between atoms: C1_5  and  C9_14 
REMARK    4  A    between atoms: C2_6  and  C3_7 
REMARK    5  A    between atoms: C12_17  and  C13_18 
REMARK    6  A    between atoms: C14_19  and  C15_20 
REMARK    7  A    between atoms: C15_20  and  N2_21 
REMARK    8  A    between atoms: N3_24  and  C18_25 
ROOT
HETATM    1  C9  UNL     1      -3.934  -2.206   0.477  1.00  0.00     0.041 A 
HETATM    2  C10 UNL     1      -4.120  -2.566   1.795  1.00  0.00     0.030 A 
HETATM    3  C11 UNL     1      -2.926  -2.282   2.424  1.00  0.00     0.041 A 
HETATM    4  C12 UNL     1      -2.028  -1.756   1.498  1.00  0.00     0.087 A 
HETATM    5  N4  UNL     1      -2.683  -1.730   0.338  1.00  0.00    -0.351 N 
ATOM      6  H4  UNL     1      -2.288  -1.393  -0.540  1.00  0.00     0.166 HD
ENDROOT
BRANCH   4   7
HETATM    7  C13 UNL     1      -0.678  -1.339   1.780  1.00  0.00    -0.047 C 
HETATM    8  C14 UNL     1       0.442  -1.002   2.035  1.00  0.00    -0.069 C 
BRANCH   8   9
HETATM    9  C15 UNL     1       1.789  -0.606   2.365  1.00  0.00     0.366 C 
BRANCH   9  10
HETATM   10  N2  UNL     1       2.552  -0.081   1.285  1.00  0.00     0.102 N 
HETATM   11  C16 UNL     1       2.888  -1.056   0.259  1.00  0.00     0.293 C 
HETATM   12  C17 UNL     1       3.557  -0.274  -0.870  1.00  0.00     0.153 C 
HETATM   13  N3  UNL     1       4.171   0.929  -0.368  1.00  0.00    -0.378 N 
HETATM   14  C24 UNL     1       3.279   1.938   0.243  1.00  0.00     0.153 C 
HETATM   15  C25 UNL     1       2.056   1.140   0.712  1.00  0.00     0.293 C 
BRANCH  13  16
HETATM   16  C18 UNL     1       5.549   1.220  -0.400  1.00  0.00     0.030 A 
HETATM   17  C19 UNL     1       6.457   0.256  -0.742  1.00  0.00     0.029 A 
HETATM   18  C20 UNL     1       7.826   0.555  -0.780  1.00  0.00     0.002 A 
HETATM   19  C21 UNL     1       8.253   1.828  -0.469  1.00  0.00     0.000 A 
HETATM   20  C22 UNL     1       7.335   2.777  -0.131  1.00  0.00     0.002 A 
HETATM   21  C23 UNL     1       5.997   2.496  -0.091  1.00  0.00     0.029 A 
ENDBRANCH  13  16
ENDBRANCH   9  10
ENDBRANCH   8   9
ENDBRANCH   4   7
BRANCH   1  22
HETATM   22  C1  UNL     1      -4.891  -2.293  -0.656  1.00  0.00     0.237 C 
BRANCH  22  23
HETATM   23  N1  UNL     1      -5.575  -3.596  -0.608  1.00  0.00    -0.069 N 
ATOM     24  H13 UNL     1      -6.211  -3.687   0.184  1.00  0.00     0.275 HD
ATOM     25  H12 UNL     1      -6.270  -3.712  -1.345  1.00  0.00     0.275 HD
ATOM     26  H11 UNL     1      -4.849  -4.312  -0.624  1.00  0.00     0.275 HD
ENDBRANCH  22  23
BRANCH  22  27
HETATM   27  C2  UNL     1      -5.953  -1.246  -0.632  1.00  0.00     0.077 C 
BRANCH  27  28
HETATM   28  C3  UNL     1      -5.480   0.136  -0.678  1.00  0.00    -0.056 A 
HETATM   29  C4  UNL     1      -5.278   0.816  -1.854  1.00  0.00     0.010 A 
HETATM   30  C5  UNL     1      -4.831   2.123  -1.829  1.00  0.00     0.043 A 
HETATM   31  C6  UNL     1      -4.573   2.788  -0.655  1.00  0.00     0.116 A 
HETATM   32  F1  UNL     1      -4.137   4.060  -0.608  1.00  0.00    -0.206 F 
HETATM   33  C7  UNL     1      -4.774   2.112   0.525  1.00  0.00     0.043 A 
HETATM   34  C8  UNL     1      -5.221   0.807   0.496  1.00  0.00     0.010 A 
ENDBRANCH  27  28
ENDBRANCH  22  27
ENDBRANCH   1  22
TORSDOF 8
