REMARK  8 active torsions:
REMARK  status: ('A' for Active; 'I' for Inactive)
REMARK    1  A    between atoms: C2_3  and  C3_4 
REMARK    2  A    between atoms: C2_3  and  N4_15 
REMARK       I    between atoms: C3_4  and  N2_6 
REMARK    3  A    between atoms: N2_6  and  C4_8 
REMARK    4  A    between atoms: N4_15  and  C7_16 
REMARK    5  A    between atoms: N4_15  and  C8_18 
REMARK    6  A    between atoms: C8_18  and  C9_19 
REMARK    7  A    between atoms: C12_22  and  C13_23 
REMARK    8  A    between atoms: C14_24  and  C15_25 
ROOT
HETATM    1  N1  UNL     1       2.685   1.127   1.046  1.00  0.00    -0.195 NA
HETATM    2  C1  UNL     1       2.811   0.606   0.019  1.00  0.00     0.094 C 
HETATM    3  C2  UNL     1       2.993  -0.050  -1.286  1.00  0.00     0.287 C 
ENDROOT
BRANCH   3   4
HETATM    4  C3  UNL     1       4.442  -0.141  -1.585  1.00  0.00     0.260 C 
HETATM    5  O1  UNL     1       4.942  -1.276  -1.768  1.00  0.00    -0.270 OA
HETATM    6  N2  UNL     1       5.262   1.007  -1.667  1.00  0.00    -0.304 N 
ATOM      7  H2  UNL     1       5.097   1.711  -2.387  1.00  0.00     0.171 HD
BRANCH   6   8
HETATM    8  C4  UNL     1       6.244   1.154  -0.798  1.00  0.00     0.152 A 
HETATM    9  N3  UNL     1       7.111   2.159  -0.720  1.00  0.00    -0.345 N 
HETATM   10  C5  UNL     1       8.019   2.134   0.210  1.00  0.00     0.116 A 
ATOM     11  H3  UNL     1       7.064   2.936  -1.379  1.00  0.00     0.167 HD
HETATM   12  C6  UNL     1       8.027   1.061   1.064  1.00  0.00     0.070 A 
HETATM   13 BR1  UNL     1       9.226   0.720   2.536  1.00  0.00    -0.042 Br
HETATM   14  S1  UNL     1       6.719   0.132   0.484  1.00  0.00    -0.045 SA
ENDBRANCH   6   8
ENDBRANCH   3   4
BRANCH   3  15
HETATM   15  N4  UNL     1       2.392  -1.381  -1.260  1.00  0.00    -0.330 N 
BRANCH  15  16
HETATM   16  C7  UNL     1       2.935  -2.304  -0.341  1.00  0.00     0.352 C 
HETATM   17  O2  UNL     1       2.440  -3.469  -0.298  1.00  0.00    -0.283 OA
ENDBRANCH  15  16
BRANCH  15  18
HETATM   18  C8  UNL     1       1.304  -1.754  -2.113  1.00  0.00     0.165 C 
BRANCH  18  19
HETATM   19  C9  UNL     1       0.020  -1.451  -1.476  1.00  0.00    -0.040 A 
HETATM   20  C10 UNL     1      -0.754  -2.344  -0.782  1.00  0.00     0.010 A 
HETATM   21  C11 UNL     1      -1.960  -1.968  -0.207  1.00  0.00     0.021 A 
HETATM   22  C12 UNL     1      -2.434  -0.687  -0.305  1.00  0.00     0.018 A 
HETATM   23  C21 UNL     1      -1.646   0.206  -1.008  1.00  0.00     0.021 A 
HETATM   24  C22 UNL     1      -0.457  -0.149  -1.579  1.00  0.00     0.010 A 
BRANCH  22  25
HETATM   25  C13 UNL     1      -3.685  -0.320   0.298  1.00  0.00    -0.061 C 
HETATM   26  C14 UNL     1      -4.744  -0.014   0.786  1.00  0.00    -0.061 C 
BRANCH  26  27
HETATM   27  C15 UNL     1      -6.011   0.327   1.369  1.00  0.00     0.018 A 
HETATM   28  C16 UNL     1      -6.548  -0.468   2.368  1.00  0.00     0.020 A 
HETATM   29  C17 UNL     1      -7.762  -0.163   2.943  1.00  0.00     0.001 A 
HETATM   30  C18 UNL     1      -8.483   0.952   2.537  1.00  0.00     0.000 A 
HETATM   31  C19 UNL     1      -7.961   1.746   1.549  1.00  0.00     0.001 A 
HETATM   32  C20 UNL     1      -6.752   1.424   0.990  1.00  0.00     0.020 A 
ENDBRANCH  26  27
ENDBRANCH  22  25
ENDBRANCH  18  19
ENDBRANCH  15  18
ENDBRANCH   3  15
TORSDOF 8
