REMARK  16 active torsions:
REMARK  status: ('A' for Active; 'I' for Inactive)
REMARK    1  A    between atoms: N1_2  and  C2_3 
REMARK    2  A    between atoms: N1_2  and  C16_41 
REMARK    3  A    between atoms: C2_3  and  O1_4 
REMARK    4  A    between atoms: C2_3  and  C3_6 
REMARK    5  A    between atoms: N2_9  and  C6_10 
REMARK    6  A    between atoms: C7_11  and  O2_12 
REMARK    7  A    between atoms: C8_14  and  O3_15 
REMARK    8  A    between atoms: C9_17  and  O4_18 
REMARK       I    between atoms: N3_20  and  C10_21 
REMARK    9  A    between atoms: C10_21  and  C11_23 
REMARK   10  A    between atoms: C11_23  and  O6_24 
REMARK   11  A    between atoms: C13_29  and  N5_30 
REMARK   12  A    between atoms: C16_41  and  O8_42 
REMARK   13  A    between atoms: C16_41  and  C17_44 
REMARK   14  A    between atoms: C17_44  and  O9_45 
REMARK   15  A    between atoms: C17_44  and  C18_47 
REMARK   16  A    between atoms: C18_47  and  O10_48 
ROOT
HETATM    1  C3  UNL     1       1.735  -0.400   1.128  1.00  0.00     0.078 A 
HETATM    2  C4  UNL     1       0.419  -0.110   1.465  1.00  0.00     0.081 A 
HETATM    3  C5  UNL     1      -0.403  -0.497   0.426  1.00  0.00     0.135 A 
HETATM    4  N2  UNL     1      -1.690  -0.545   0.022  1.00  0.00    -0.290 N 
HETATM    5  C12 UNL     1      -1.656  -1.106  -1.206  1.00  0.00     0.161 A 
HETATM    6  N4  UNL     1      -2.598  -1.422  -2.120  1.00  0.00    -0.174 N 
ATOM      7  H4  UNL     1      -3.574  -1.221  -1.904  1.00  0.00     0.186 HD
HETATM    8  C13 UNL     1      -2.304  -1.990  -3.303  1.00  0.00     0.680 A 
HETATM    9  N6  UNL     1      -1.039  -2.280  -3.654  1.00  0.00    -0.154 N 
ATOM     10  H6  UNL     1      -0.830  -2.709  -4.555  1.00  0.00     0.187 HD
HETATM   11  C14 UNL     1      -0.063  -1.989  -2.787  1.00  0.00     0.292 A 
HETATM   12  O7  UNL     1       1.118  -2.255  -3.102  1.00  0.00    -0.265 OA
HETATM   13  C15 UNL     1      -0.348  -1.409  -1.573  1.00  0.00     0.171 A 
HETATM   14  N7  UNL     1       0.404  -1.008  -0.516  1.00  0.00    -0.230 N 
HETATM   15  N8  UNL     1       1.679  -0.950  -0.097  1.00  0.00    -0.291 N 
ATOM     16  H8  UNL     1       2.486  -1.275  -0.630  1.00  0.00     0.187 HD
ENDROOT
BRANCH   4  17
HETATM   17  C6  UNL     1      -2.869  -0.101   0.724  1.00  0.00     0.232 C 
HETATM   18  C7  UNL     1      -3.795  -1.172   1.150  1.00  0.00     0.194 C 
HETATM   19  C8  UNL     1      -5.188  -0.714   0.825  1.00  0.00     0.199 C 
HETATM   20  C9  UNL     1      -5.002   0.664   0.252  1.00  0.00     0.256 C 
HETATM   21  N3  UNL     1      -3.614   0.914   0.054  1.00  0.00    -0.296 N 
HETATM   22  C10 UNL     1      -3.032   1.969  -0.677  1.00  0.00     0.247 C 
HETATM   23  O5  UNL     1      -1.744   2.023  -0.780  1.00  0.00    -0.271 OA
BRANCH  18  24
HETATM   24  O2  UNL     1      -3.762  -1.386   2.550  1.00  0.00    -0.389 OA
ATOM     25  H2  UNL     1      -4.357  -2.074   2.824  1.00  0.00     0.210 HD
ENDBRANCH  18  24
BRANCH  19  26
HETATM   26  O3  UNL     1      -6.025  -0.734   1.941  1.00  0.00    -0.388 OA
ATOM     27  H3  UNL     1      -6.906  -0.444   1.735  1.00  0.00     0.210 HD
ENDBRANCH  19  26
BRANCH  20  28
HETATM   28  O4  UNL     1      -5.548   1.540   1.230  1.00  0.00    -0.374 OA
ATOM     29  H4  UNL     1      -5.431   2.410   0.868  1.00  0.00     0.212 HD
ENDBRANCH  20  28
BRANCH  22  30
HETATM   30  C11 UNL     1      -3.770   3.055  -1.359  1.00  0.00     0.267 C 
BRANCH  30  31
HETATM   31  O6  UNL     1      -5.133   3.040  -1.189  1.00  0.00    -0.392 OA
ATOM     32  H6  UNL     1      -5.607   3.737  -1.627  1.00  0.00     0.210 HD
ENDBRANCH  30  31
ENDBRANCH  22  30
ENDBRANCH   4  17
BRANCH   1  33
HETATM   33  C2  UNL     1       2.936  -0.141   1.975  1.00  0.00     0.270 C 
BRANCH  33  34
HETATM   34  N1  UNL     1       3.989   0.454   1.224  1.00  0.00    -0.359 N 
HETATM   35  C1  UNL     1       3.748   1.705   0.667  1.00  0.00     0.148 C 
BRANCH  34  36
HETATM   36  C16 UNL     1       5.225  -0.175   1.192  1.00  0.00     0.248 C 
BRANCH  36  37
HETATM   37  O8  UNL     1       6.145   0.600   1.941  1.00  0.00    -0.374 OA
ATOM     38  H8  UNL     1       6.991   0.169   1.919  1.00  0.00     0.212 HD
ENDBRANCH  36  37
BRANCH  36  39
HETATM   39  C17 UNL     1       5.848  -0.556  -0.091  1.00  0.00     0.190 C 
BRANCH  39  40
HETATM   40  O9  UNL     1       7.081  -1.190   0.226  1.00  0.00    -0.389 OA
ATOM     41  H9  UNL     1       7.482  -1.435  -0.600  1.00  0.00     0.210 HD
ENDBRANCH  39  40
BRANCH  39  42
HETATM   42  C18 UNL     1       6.249   0.598  -0.985  1.00  0.00     0.200 C 
BRANCH  42  43
HETATM   43  O10 UNL     1       7.113   1.472  -0.365  1.00  0.00    -0.398 OA
ATOM     44  H10 UNL     1       7.365   2.196  -0.926  1.00  0.00     0.209 HD
ENDBRANCH  42  43
ENDBRANCH  39  42
ENDBRANCH  36  39
ENDBRANCH  34  36
ENDBRANCH  33  34
BRANCH  33  45
HETATM   45  O1  UNL     1       2.552   0.629   3.067  1.00  0.00    -0.371 OA
ATOM     46  H1  UNL     1       1.849   0.232   3.568  1.00  0.00     0.212 HD
ENDBRANCH  33  45
ENDBRANCH   1  33
BRANCH   8  47
HETATM   47  N5  UNL     1      -3.227  -2.282  -4.159  1.00  0.00    -0.234 N 
ATOM     48  H52 UNL     1      -4.187  -2.062  -3.893  1.00  0.00     0.174 HD
ATOM     49  H51 UNL     1      -3.004  -2.713  -5.056  1.00  0.00     0.174 HD
ENDBRANCH   8  47
TORSDOF 16
