REMARK  16 active torsions:
REMARK  status: ('A' for Active; 'I' for Inactive)
REMARK    1  A    between atoms: N5_15  and  C6_16 
REMARK    2  A    between atoms: C7_18  and  C8_19 
REMARK    3  A    between atoms: C8_19  and  O2_20 
REMARK    4  A    between atoms: C8_19  and  C9_22 
REMARK    5  A    between atoms: C9_22  and  C10_24 
REMARK    6  A    between atoms: C10_24  and  O4_25 
REMARK    7  A    between atoms: C10_24  and  C11_27 
REMARK    8  A    between atoms: C11_27  and  N6_28 
REMARK    9  A    between atoms: C11_27  and  C12_32 
REMARK   10  A    between atoms: C12_32  and  O5_33 
REMARK   11  A    between atoms: C12_32  and  C13_35 
REMARK   12  A    between atoms: C15_37  and  O6_38 
REMARK   13  A    between atoms: C16_40  and  O7_41 
REMARK   14  A    between atoms: C17_43  and  O8_44 
REMARK   15  A    between atoms: C18_47  and  O10_48 
REMARK   16  A    between atoms: C19_50  and  O11_51 
ROOT
HETATM    1  C8  UNL     1      -0.709   2.186   1.261  1.00  0.00     0.222 C 
ENDROOT
BRANCH   1   2
HETATM    2  C7  UNL     1      -1.840   2.151   0.260  1.00  0.00     0.191 C 
HETATM    3  O1  UNL     1      -2.124   0.848  -0.045  1.00  0.00    -0.353 OA
HETATM    4  C6  UNL     1      -3.338   0.492   0.532  1.00  0.00     0.262 C 
HETATM    5  C19 UNL     1      -4.152   1.752   0.361  1.00  0.00     0.198 C 
HETATM    6  C18 UNL     1      -3.100   2.781   0.811  1.00  0.00     0.183 C 
BRANCH   4   7
HETATM    7  N5  UNL     1      -3.917  -0.649  -0.097  1.00  0.00    -0.297 N 
HETATM    8  C3  UNL     1      -5.086  -0.807  -0.732  1.00  0.00     0.142 A 
HETATM    9  N3  UNL     1      -6.082   0.028  -0.985  1.00  0.00    -0.336 N 
HETATM   10  C4  UNL     1      -5.209  -2.115  -1.179  1.00  0.00     0.122 A 
HETATM   11  C2  UNL     1      -7.168  -0.374  -1.649  1.00  0.00     0.183 A 
ATOM     12  H3  UNL     1      -6.018   0.995  -0.667  1.00  0.00     0.168 HD
HETATM   13  N2  UNL     1      -7.301  -1.636  -2.089  1.00  0.00    -0.337 N 
HETATM   14  C1  UNL     1      -6.321  -2.556  -1.868  1.00  0.00     0.131 A 
ATOM     15  H2  UNL     1      -8.144  -1.908  -2.594  1.00  0.00     0.168 HD
HETATM   16  N1  UNL     1      -6.435  -3.773  -2.285  1.00  0.00    -0.383 N 
ATOM     17  H12 UNL     1      -7.257  -4.099  -2.794  1.00  0.00     0.157 HD
ATOM     18  H11 UNL     1      -5.701  -4.462  -2.120  1.00  0.00     0.157 HD
HETATM   19  N4  UNL     1      -4.096  -2.733  -0.802  1.00  0.00    -0.346 N 
HETATM   20  C5  UNL     1      -3.317  -1.851  -0.150  1.00  0.00     0.188 A 
ATOM     21  H4  UNL     1      -3.870  -3.712  -0.977  1.00  0.00     0.167 HD
ENDBRANCH   4   7
BRANCH   5  22
HETATM   22  O11 UNL     1      -5.207   1.837   1.263  1.00  0.00    -0.388 OA
ATOM     23  H11 UNL     1      -5.719   2.630   1.155  1.00  0.00     0.210 HD
ENDBRANCH   5  22
BRANCH   6  24
HETATM   24  O10 UNL     1      -3.124   2.825   2.184  1.00  0.00    -0.390 OA
ATOM     25  H10 UNL     1      -3.915   3.221   2.530  1.00  0.00     0.210 HD
ENDBRANCH   6  24
ENDBRANCH   1   2
BRANCH   1  26
HETATM   26  O2  UNL     1      -1.000   1.522   2.431  1.00  0.00    -0.385 OA
ATOM     27  H2  UNL     1      -0.289   1.544   3.060  1.00  0.00     0.210 HD
ENDBRANCH   1  26
BRANCH   1  28
HETATM   28  C9  UNL     1       0.573   1.720   0.704  1.00  0.00     0.188 C 
HETATM   29  O3  UNL     1       0.917   2.216  -0.353  1.00  0.00    -0.292 OA
BRANCH  28  30
HETATM   30  C10 UNL     1       1.434   0.723   1.330  1.00  0.00     0.223 C 
BRANCH  30  31
HETATM   31  O4  UNL     1       0.931   0.258   2.575  1.00  0.00    -0.386 OA
ATOM     32  H4  UNL     1       1.492  -0.391   2.983  1.00  0.00     0.210 HD
ENDBRANCH  30  31
BRANCH  30  33
HETATM   33  C11 UNL     1       1.749  -0.511   0.565  1.00  0.00     0.250 C 
BRANCH  33  34
HETATM   34  N6  UNL     1       0.601  -1.381   0.327  1.00  0.00    -0.070 N 
ATOM     35  H63 UNL     1       0.143  -1.615   1.208  1.00  0.00     0.275 HD
ATOM     36  H62 UNL     1      -0.151  -0.862  -0.128  1.00  0.00     0.275 HD
ATOM     37  H61 UNL     1       0.817  -2.228  -0.198  1.00  0.00     0.275 HD
ENDBRANCH  33  34
BRANCH  33  38
HETATM   38  C12 UNL     1       2.633  -0.400  -0.618  1.00  0.00     0.180 C 
BRANCH  38  39
HETATM   39  O5  UNL     1       2.108   0.078  -1.772  1.00  0.00    -0.391 OA
ATOM     40  H5  UNL     1       2.675   0.149  -2.531  1.00  0.00     0.210 HD
ENDBRANCH  38  39
BRANCH  38  41
HETATM   41  C13 UNL     1       3.925   0.317  -0.202  1.00  0.00     0.158 C 
HETATM   42  C14 UNL     1       4.970   0.211  -1.276  1.00  0.00     0.069 C 
HETATM   43  C15 UNL     1       5.668  -1.147  -1.162  1.00  0.00     0.154 C 
HETATM   44  C16 UNL     1       6.407  -1.154   0.141  1.00  0.00     0.201 C 
HETATM   45  C17 UNL     1       5.702  -0.283   1.146  1.00  0.00     0.288 C 
HETATM   46  O9  UNL     1       4.325  -0.289   0.986  1.00  0.00    -0.351 OA
BRANCH  43  47
HETATM   47  O6  UNL     1       6.624  -1.269  -2.182  1.00  0.00    -0.393 OA
ATOM     48  H6  UNL     1       7.057  -2.112  -2.111  1.00  0.00     0.210 HD
ENDBRANCH  43  47
BRANCH  44  49
HETATM   49  O7  UNL     1       7.686  -0.634  -0.053  1.00  0.00    -0.388 OA
ATOM     50  H7  UNL     1       8.155  -0.638   0.773  1.00  0.00     0.210 HD
ENDBRANCH  44  49
BRANCH  45  51
HETATM   51  O8  UNL     1       5.950  -0.862   2.411  1.00  0.00    -0.369 OA
ATOM     52  H8  UNL     1       5.505  -0.312   3.045  1.00  0.00     0.212 HD
ENDBRANCH  45  51
ENDBRANCH  38  41
ENDBRANCH  33  38
ENDBRANCH  30  33
ENDBRANCH  28  30
ENDBRANCH   1  28
TORSDOF 16
