REMARK  13 active torsions:
REMARK  status: ('A' for Active; 'I' for Inactive)
REMARK    1  A    between atoms: C2_5  and  C3_6 
REMARK    2  A    between atoms: C3_6  and  N3_7 
REMARK    3  A    between atoms: C3_6  and  C10_29 
REMARK       I    between atoms: N3_7  and  C4_9 
REMARK       I    between atoms: C4_9  and  N4_11 
REMARK    4  A    between atoms: N4_11  and  C5_13 
REMARK    5  A    between atoms: C6_15  and  C7_16 
REMARK    6  A    between atoms: C7_16  and  N5_17 
REMARK    7  A    between atoms: C8_21  and  N6_22 
REMARK    8  A    between atoms: C9_26  and  O3_27 
REMARK    9  A    between atoms: C10_29  and  N7_30 
REMARK   10  A    between atoms: C10_29  and  C11_34 
REMARK   11  A    between atoms: C11_34  and  O4_35 
REMARK   12  A    between atoms: C11_34  and  C12_37 
REMARK   13  A    between atoms: C15_45  and  N11_46 
ROOT
HETATM    1  C3  UNL     1      -1.523   0.849   0.015  1.00  0.00     0.093 C 
ENDROOT
BRANCH   1   2
HETATM    2  C2  UNL     1      -2.161  -0.072   0.941  1.00  0.00     0.155 A 
HETATM    3  N2  UNL     1      -2.238   0.205   2.292  1.00  0.00    -0.279 N 
HETATM    4  N1  UNL     1      -2.803  -0.562   3.174  1.00  0.00    -0.257 N 
ATOM      5  H2  UNL     1      -1.821   1.076   2.621  1.00  0.00     0.189 HD
HETATM    6  C1  UNL     1      -2.823  -0.168   4.565  1.00  0.00     0.181 C 
HETATM    7  C18 UNL     1      -3.373  -1.718   2.829  1.00  0.00     0.306 A 
HETATM    8  C13 UNL     1      -3.328  -2.047   1.491  1.00  0.00     0.187 A 
HETATM    9  O6  UNL     1      -3.931  -2.493   3.648  1.00  0.00    -0.262 OA
HETATM   10  N9  UNL     1      -2.727  -1.223   0.579  1.00  0.00    -0.259 N 
HETATM   11  N10 UNL     1      -3.828  -3.130   0.869  1.00  0.00    -0.331 N 
HETATM   12  C17 UNL     1      -2.892  -1.854  -0.598  1.00  0.00     0.147 A 
HETATM   13  C14 UNL     1      -3.575  -3.041  -0.429  1.00  0.00     0.123 A 
HETATM   14  N13 UNL     1      -2.533  -1.538  -1.828  1.00  0.00    -0.336 N 
HETATM   15  C15 UNL     1      -3.832  -3.808  -1.545  1.00  0.00     0.131 A 
HETATM   16  N12 UNL     1      -3.425  -3.402  -2.760  1.00  0.00    -0.337 N 
HETATM   17  C16 UNL     1      -2.762  -2.250  -2.930  1.00  0.00     0.183 A 
ATOM     18  H12 UNL     1      -3.626  -3.985  -3.572  1.00  0.00     0.168 HD
ATOM     19  H13 UNL     1      -2.029  -0.659  -1.947  1.00  0.00     0.168 HD
ATOM     20  H10 UNL     1      -4.323  -3.897   1.324  1.00  0.00     0.168 HD
BRANCH  15  21
HETATM   21  N11 UNL     1      -4.471  -4.922  -1.394  1.00  0.00    -0.383 N 
ATOM     22 2H11 UNL     1      -4.780  -5.230  -0.472  1.00  0.00     0.157 HD
ATOM     23 1H11 UNL     1      -4.661  -5.490  -2.220  1.00  0.00     0.157 HD
ENDBRANCH  15  21
ENDBRANCH   1   2
BRANCH   1  24
HETATM   24  N3  UNL     1      -0.325   0.436  -0.649  1.00  0.00    -0.307 N 
HETATM   25  C4  UNL     1       0.940   0.537  -0.010  1.00  0.00     0.322 C 
HETATM   26  O1  UNL     1       1.022   0.990   1.143  1.00  0.00    -0.247 OA
HETATM   27  N4  UNL     1       2.099   0.125  -0.681  1.00  0.00    -0.314 N 
ATOM     28  H4  UNL     1       2.017  -0.246  -1.628  1.00  0.00     0.167 HD
ATOM     29  H3  UNL     1      -0.380   0.063  -1.597  1.00  0.00     0.170 HD
BRANCH  27  30
HETATM   30  C5  UNL     1       3.411   0.210  -0.070  1.00  0.00     0.256 C 
HETATM   31  O2  UNL     1       3.913  -1.107  -0.022  1.00  0.00    -0.355 OA
HETATM   32  C6  UNL     1       5.267  -0.945   0.266  1.00  0.00     0.182 C 
HETATM   33  C8  UNL     1       5.718   0.273  -0.503  1.00  0.00     0.246 C 
HETATM   34  C9  UNL     1       4.408   0.901  -0.943  1.00  0.00     0.200 C 
BRANCH  32  35
HETATM   35  C7  UNL     1       6.090  -2.121  -0.162  1.00  0.00     0.263 C 
BRANCH  35  36
HETATM   36  N5  UNL     1       7.472  -1.842   0.186  1.00  0.00    -0.077 N 
ATOM     37  H53 UNL     1       7.808  -0.960  -0.202  1.00  0.00     0.274 HD
ATOM     38  H52 UNL     1       7.594  -1.611   1.172  1.00  0.00     0.274 HD
ATOM     39  H51 UNL     1       8.032  -2.643  -0.105  1.00  0.00     0.274 HD
ENDBRANCH  35  36
ENDBRANCH  32  35
BRANCH  33  40
HETATM   40  N6  UNL     1       6.436   1.141   0.413  1.00  0.00    -0.070 N 
ATOM     41  H63 UNL     1       5.891   1.377   1.242  1.00  0.00     0.274 HD
ATOM     42  H62 UNL     1       7.205   0.666   0.886  1.00  0.00     0.274 HD
ATOM     43  H61 UNL     1       6.741   1.964  -0.107  1.00  0.00     0.274 HD
ENDBRANCH  33  40
BRANCH  34  44
HETATM   44  O3  UNL     1       4.166   0.601  -2.286  1.00  0.00    -0.389 OA
ATOM     45  H3  UNL     1       4.800   1.040  -2.841  1.00  0.00     0.210 HD
ENDBRANCH  34  44
ENDBRANCH  27  30
ENDBRANCH   1  24
BRANCH   1  46
HETATM   46  C10 UNL     1      -2.424   1.769  -0.757  1.00  0.00     0.274 C 
BRANCH  46  47
HETATM   47  N7  UNL     1      -1.651   2.626  -1.644  1.00  0.00    -0.067 N 
ATOM     48  H73 UNL     1      -0.930   3.141  -1.138  1.00  0.00     0.275 HD
ATOM     49  H72 UNL     1      -1.047   2.083  -2.262  1.00  0.00     0.275 HD
ATOM     50  H71 UNL     1      -2.263   3.251  -2.168  1.00  0.00     0.275 HD
ENDBRANCH  46  47
BRANCH  46  51
HETATM   51  C11 UNL     1      -3.168   2.738   0.156  1.00  0.00     0.243 C 
BRANCH  51  52
HETATM   52  O4  UNL     1      -2.325   3.542   0.882  1.00  0.00    -0.384 OA
ATOM     53  H4  UNL     1      -2.788   4.146   1.451  1.00  0.00     0.210 HD
ENDBRANCH  51  52
BRANCH  51  54
HETATM   54  C12 UNL     1      -4.057   3.544  -0.746  1.00  0.00     0.262 C 
HETATM   55  N8  UNL     1      -3.997   4.960  -0.808  1.00  0.00    -0.060 NA
HETATM   56  O5  UNL     1      -4.894   2.966  -1.485  1.00  0.00    -0.274 OA
ENDBRANCH  51  54
ENDBRANCH  46  51
ENDBRANCH   1  46
TORSDOF 13
