REMARK  17 active torsions:
REMARK  status: ('A' for Active; 'I' for Inactive)
REMARK    1  A    between atoms: O1_2  and  C2_3 
REMARK    2  A    between atoms: C3_5  and  O3_6 
REMARK    3  A    between atoms: C3_5  and  C4_8 
REMARK    4  A    between atoms: C4_8  and  N1_9 
REMARK    5  A    between atoms: C8_15  and  O4_16 
REMARK    6  A    between atoms: C8_15  and  C9_18 
REMARK    7  A    between atoms: C9_18  and  O5_19 
REMARK    8  A    between atoms: C9_18  and  C10_21 
REMARK    9  A    between atoms: C10_21  and  O6_22 
REMARK   10  A    between atoms: C11_24  and  O7_25 
REMARK   11  A    between atoms: C12_27  and  O8_28 
REMARK   12  A    between atoms: C12_27  and  C13_30 
REMARK   13  A    between atoms: C14_33  and  C15_34 
REMARK   14  A    between atoms: C14_33  and  C16_37 
REMARK   15  A    between atoms: C15_34  and  O11_35 
REMARK   16  A    between atoms: C17_40  and  O14_41 
REMARK   17  A    between atoms: C18_43  and  O15_44 
ROOT
HETATM    1  N1  UNL     1       0.822   0.255  -1.092  1.00  0.00    -0.337 N 
HETATM    2  C5  UNL     1       0.988   1.501  -1.631  1.00  0.00     0.183 A 
HETATM    3  N2  UNL     1      -0.125   2.161  -1.557  1.00  0.00    -0.353 N 
ATOM      4  H2  UNL     1      -0.283   3.114  -1.883  1.00  0.00     0.166 HD
HETATM    5  C6  UNL     1      -1.049   1.346  -0.962  1.00  0.00     0.061 A 
HETATM    6  C7  UNL     1      -0.435   0.151  -0.678  1.00  0.00     0.077 A 
HETATM    7  C8  UNL     1      -1.282  -0.885  -0.042  1.00  0.00     0.159 C 
HETATM    8  C11 UNL     1      -2.699  -0.749  -0.469  1.00  0.00     0.208 C 
HETATM    9  C12 UNL     1      -3.341   0.596  -0.313  1.00  0.00     0.200 C 
HETATM   10  C14 UNL     1      -2.480   1.728  -0.675  1.00  0.00     0.157 C 
ENDROOT
BRANCH   1  11
HETATM   11  C4  UNL     1       1.914  -0.685  -1.001  1.00  0.00     0.201 C 
BRANCH  11  12
HETATM   12  C3  UNL     1       2.860  -0.523   0.117  1.00  0.00     0.210 C 
HETATM   13  O2  UNL     1       3.510   0.721   0.114  1.00  0.00    -0.318 OA
HETATM   14  C2  UNL     1       4.400   0.601   1.168  1.00  0.00     0.294 C 
HETATM   15  C18 UNL     1       3.728  -0.218   2.240  1.00  0.00     0.207 C 
HETATM   16  C17 UNL     1       2.444  -0.691   1.507  1.00  0.00     0.215 C 
BRANCH  14  17
HETATM   17  O1  UNL     1       5.564   0.028   0.697  1.00  0.00    -0.363 OA
HETATM   18  C1  UNL     1       6.678   0.819   0.844  1.00  0.00     0.204 C 
ENDBRANCH  14  17
BRANCH  15  19
HETATM   19  O15 UNL     1       3.343   0.512   3.337  1.00  0.00    -0.388 OA
ATOM     20  H15 UNL     1       2.919  -0.004   4.013  1.00  0.00     0.210 HD
ENDBRANCH  15  19
BRANCH  16  21
HETATM   21  O14 UNL     1       2.306  -2.068   1.790  1.00  0.00    -0.387 OA
ATOM     22  H14 UNL     1       2.035  -2.177   2.694  1.00  0.00     0.210 HD
ENDBRANCH  16  21
BRANCH  12  23
HETATM   23  O3  UNL     1       3.904  -1.470  -0.115  1.00  0.00    -0.362 OA
ATOM     24  H3  UNL     1       3.464  -2.312  -0.113  1.00  0.00     0.213 HD
ENDBRANCH  12  23
ENDBRANCH  11  12
ENDBRANCH   1  11
BRANCH   7  25
HETATM   25  O4  UNL     1      -1.140  -0.736   1.351  1.00  0.00    -0.378 OA
ATOM     26  H4  UNL     1      -1.683  -1.400   1.759  1.00  0.00     0.211 HD
ENDBRANCH   7  25
BRANCH   7  27
HETATM   27  C9  UNL     1      -0.886  -2.309  -0.324  1.00  0.00     0.185 C 
BRANCH  27  28
HETATM   28  O5  UNL     1      -0.946  -2.646  -1.691  1.00  0.00    -0.390 OA
ATOM     29  H5  UNL     1      -0.696  -3.545  -1.869  1.00  0.00     0.210 HD
ENDBRANCH  27  28
BRANCH  27  30
HETATM   30  C10 UNL     1      -1.976  -3.224   0.281  1.00  0.00     0.199 C 
BRANCH  30  31
HETATM   31  O6  UNL     1      -2.142  -3.049   1.622  1.00  0.00    -0.398 OA
ATOM     32  H6  UNL     1      -2.812  -3.611   1.994  1.00  0.00     0.209 HD
ENDBRANCH  30  31
ENDBRANCH  27  30
ENDBRANCH   7  27
BRANCH  10  33
HETATM   33  C15 UNL     1      -2.981   2.314  -2.047  1.00  0.00     0.195 C 
BRANCH  33  34
HETATM   34  O11 UNL     1      -2.880   1.345  -3.038  1.00  0.00    -0.399 OA
ATOM     35  H11 UNL     1      -3.182   1.699  -3.866  1.00  0.00     0.209 HD
ENDBRANCH  33  34
ENDBRANCH  10  33
BRANCH  10  36
HETATM   36  C16 UNL     1      -2.513   2.928   0.186  1.00  0.00     0.194 C 
HETATM   37  O12 UNL     1      -3.057   3.004   1.268  1.00  0.00    -0.647 OA
HETATM   38  O13 UNL     1      -1.853   4.086  -0.292  1.00  0.00    -0.647 OA
ENDBRANCH  10  36
BRANCH   8  39
HETATM   39  O7  UNL     1      -2.832  -1.224  -1.766  1.00  0.00    -0.388 OA
ATOM     40  H7  UNL     1      -3.738  -1.137  -2.039  1.00  0.00     0.210 HD
ENDBRANCH   8  39
BRANCH   9  41
HETATM   41  O8  UNL     1      -4.388   0.587  -1.307  1.00  0.00    -0.375 OA
ATOM     42  H8  UNL     1      -4.795   1.440  -1.208  1.00  0.00     0.211 HD
ENDBRANCH   9  41
BRANCH   9  43
HETATM   43  C13 UNL     1      -4.080   0.661   0.964  1.00  0.00     0.213 C 
HETATM   44  O9  UNL     1      -3.563   0.475   2.091  1.00  0.00    -0.646 OA
HETATM   45  O10 UNL     1      -5.466   0.946   1.032  1.00  0.00    -0.646 OA
ENDBRANCH   9  43
TORSDOF 17
