REMARK  17 active torsions:
REMARK  status: ('A' for Active; 'I' for Inactive)
REMARK    1  A    between atoms: N1_1  and  O1_4 
REMARK    2  A    between atoms: O1_4  and  C1_5 
REMARK    3  A    between atoms: C2_6  and  O2_7 
REMARK    4  A    between atoms: N2_13  and  C6_14 
REMARK    5  A    between atoms: C7_16  and  C8_17 
REMARK    6  A    between atoms: C8_17  and  O5_18 
REMARK    7  A    between atoms: C9_20  and  O6_21 
REMARK    8  A    between atoms: C10_23  and  N3_24 
REMARK       I    between atoms: N3_24  and  C11_26 
REMARK       I    between atoms: C11_26  and  N4_28 
REMARK    9  A    between atoms: N4_28  and  N5_30 
REMARK   10  A    between atoms: N5_30  and  O8_31 
REMARK       I    between atoms: N5_30  and  C12_33 
REMARK   11  A    between atoms: C12_33  and  C13_35 
REMARK   12  A    between atoms: C13_35  and  N6_36 
REMARK   13  A    between atoms: C13_35  and  C14_40 
REMARK   14  A    between atoms: C14_40  and  O10_41 
REMARK   15  A    between atoms: C14_40  and  C15_43 
REMARK   16  A    between atoms: C15_43  and  O11_44 
REMARK   17  A    between atoms: C15_43  and  O12_46 
ROOT
HETATM    1  C6  UNL     1      -3.443   0.161  -0.619  1.00  0.00     0.302 C 
HETATM    2  O4  UNL     1      -4.059  -1.048  -0.395  1.00  0.00    -0.349 OA
HETATM    3  C7  UNL     1      -3.505  -2.128  -1.047  1.00  0.00     0.179 C 
HETATM    4  C9  UNL     1      -2.092  -2.039  -1.437  1.00  0.00     0.179 C 
HETATM    5  C10 UNL     1      -1.242  -1.075  -0.650  1.00  0.00     0.192 C 
HETATM    6  C16 UNL     1      -2.005   0.168  -0.404  1.00  0.00     0.200 C 
HETATM    7  O13 UNL     1      -1.416   1.143  -0.037  1.00  0.00    -0.291 OA
ENDROOT
BRANCH   5   8
HETATM    8  N3  UNL     1      -0.098  -0.704  -1.457  1.00  0.00    -0.328 N 
HETATM    9  C11 UNL     1       1.240  -0.828  -1.063  1.00  0.00     0.337 C 
HETATM   10  O7  UNL     1       1.489  -1.297   0.074  1.00  0.00    -0.245 OA
HETATM   11  N4  UNL     1       2.325  -0.452  -1.880  1.00  0.00    -0.222 N 
ATOM     12  H4  UNL     1       2.134  -0.071  -2.807  1.00  0.00     0.194 HD
ATOM     13  H3  UNL     1      -0.281  -0.323  -2.385  1.00  0.00     0.165 HD
BRANCH  11  14
HETATM   14  N5  UNL     1       3.655  -0.583  -1.465  1.00  0.00    -0.121 N 
HETATM   15  C12 UNL     1       4.179   0.117  -0.354  1.00  0.00     0.297 C 
HETATM   16  O9  UNL     1       3.366   0.883   0.260  1.00  0.00    -0.267 OA
BRANCH  14  17
HETATM   17  O8  UNL     1       4.503  -1.419  -2.153  1.00  0.00    -0.265 OA
ATOM     18  H8  UNL     1       5.406  -1.508  -1.871  1.00  0.00     0.247 HD
ENDBRANCH  14  17
BRANCH  15  19
HETATM   19  C13 UNL     1       5.557   0.032   0.140  1.00  0.00     0.312 C 
BRANCH  19  20
HETATM   20  N6  UNL     1       6.320  -0.918  -0.639  1.00  0.00    -0.064 N 
ATOM     21  H63 UNL     1       5.870  -1.833  -0.666  1.00  0.00     0.275 HD
ATOM     22  H62 UNL     1       6.288  -0.703  -1.636  1.00  0.00     0.275 HD
ATOM     23  H61 UNL     1       7.279  -0.977  -0.295  1.00  0.00     0.275 HD
ENDBRANCH  19  20
BRANCH  19  24
HETATM   24  C14 UNL     1       6.317   1.342   0.070  1.00  0.00     0.212 C 
BRANCH  24  25
HETATM   25  O10 UNL     1       7.599   1.088   0.615  1.00  0.00    -0.388 OA
ATOM     26  H10 UNL     1       8.075   1.909   0.571  1.00  0.00     0.210 HD
ENDBRANCH  24  25
BRANCH  24  27
HETATM   27  C15 UNL     1       5.718   2.412   0.963  1.00  0.00     0.285 C 
BRANCH  27  28
HETATM   28  O11 UNL     1       5.639   1.892   2.250  1.00  0.00    -0.369 OA
ATOM     29  H11 UNL     1       5.264   2.562   2.809  1.00  0.00     0.212 HD
ENDBRANCH  27  28
BRANCH  27  30
HETATM   30  O12 UNL     1       6.616   3.493   1.027  1.00  0.00    -0.369 OA
ATOM     31  H12 UNL     1       6.241   4.163   1.586  1.00  0.00     0.212 HD
ENDBRANCH  27  30
ENDBRANCH  24  27
ENDBRANCH  19  24
ENDBRANCH  15  19
ENDBRANCH  11  14
ENDBRANCH   5   8
BRANCH   4  32
HETATM   32  O6  UNL     1      -1.468  -3.288  -1.392  1.00  0.00    -0.390 OA
ATOM     33  H6  UNL     1      -0.554  -3.230  -1.644  1.00  0.00     0.210 HD
ENDBRANCH   4  32
BRANCH   3  34
HETATM   34  C8  UNL     1      -3.871  -3.354  -0.239  1.00  0.00     0.198 C 
BRANCH  34  35
HETATM   35  O5  UNL     1      -3.388  -4.537  -0.769  1.00  0.00    -0.398 OA
ATOM     36  H5  UNL     1      -3.618  -5.307  -0.262  1.00  0.00     0.209 HD
ENDBRANCH  34  35
ENDBRANCH   3  34
BRANCH   1  37
HETATM   37  N2  UNL     1      -4.174   1.167   0.138  1.00  0.00    -0.299 N 
HETATM   38  C1  UNL     1      -4.056   1.309   1.449  1.00  0.00     0.211 A 
HETATM   39  C2  UNL     1      -4.761   2.271   2.126  1.00  0.00     0.170 A 
HETATM   40  C3  UNL     1      -5.609   3.110   1.446  1.00  0.00     0.210 A 
HETATM   41  O3  UNL     1      -6.254   3.992   2.070  1.00  0.00    -0.285 OA
HETATM   42  C4  UNL     1      -5.735   2.966   0.084  1.00  0.00     0.075 A 
HETATM   43  C5  UNL     1      -5.000   1.980  -0.544  1.00  0.00     0.100 A 
BRANCH  38  44
HETATM   44  O1  UNL     1      -3.185   0.442   2.119  1.00  0.00    -0.223 OA
BRANCH  44  45
HETATM   45  N1  UNL     1      -3.507  -0.799   2.555  1.00  0.00    -0.303 N 
ATOM     46  H12 UNL     1      -4.461  -1.110   2.373  1.00  0.00     0.184 HD
ATOM     47  H11 UNL     1      -2.872  -1.431   3.043  1.00  0.00     0.184 HD
ENDBRANCH  44  45
ENDBRANCH  38  44
BRANCH  39  48
HETATM   48  O2  UNL     1      -4.592   2.371   3.512  1.00  0.00    -0.354 OA
ATOM     49  H2  UNL     1      -5.080   3.037   3.981  1.00  0.00     0.218 HD
ENDBRANCH  39  48
ENDBRANCH   1  37
TORSDOF 17
