REMARK  16 active torsions:
REMARK  status: ('A' for Active; 'I' for Inactive)
REMARK    1  A    between atoms: N1_1  and  C1_4 
REMARK    2  A    between atoms: C2_7  and  C3_8 
REMARK    3  A    between atoms: C3_8  and  C4_9 
REMARK    4  A    between atoms: C4_9  and  C5_10 
REMARK    5  A    between atoms: C5_10  and  C6_11 
REMARK    6  A    between atoms: C6_11  and  C7_12 
REMARK    7  A    between atoms: C7_12  and  C8_13 
REMARK    8  A    between atoms: C8_13  and  C9_14 
REMARK    9  A    between atoms: N5_19  and  C10_20 
REMARK   10  A    between atoms: C10_20  and  C11_21 
REMARK   11  A    between atoms: C11_21  and  C12_22 
REMARK   12  A    between atoms: C12_22  and  C13_23 
REMARK   13  A    between atoms: C13_23  and  C14_24 
REMARK   14  A    between atoms: C14_24  and  C15_25 
REMARK   15  A    between atoms: C16_27  and  O1_28 
REMARK   16  A    between atoms: C18_32  and  N6_33 
ROOT
HETATM    1  C6  UNL     1       2.695   0.466  -2.382  1.00  0.00     0.000 C 
ENDROOT
BRANCH   1   2
HETATM    2  C5  UNL     1       3.463   0.856  -1.159  1.00  0.00     0.000 C 
BRANCH   2   3
HETATM    3  C4  UNL     1       2.685   0.973   0.092  1.00  0.00     0.006 C 
BRANCH   3   4
HETATM    4  C3  UNL     1       3.549   1.274   1.291  1.00  0.00     0.059 C 
BRANCH   4   5
HETATM    5  C2  UNL     1       4.566   0.272   1.600  1.00  0.00     0.052 A 
HETATM    6  N2  UNL     1       4.153  -0.818   2.338  1.00  0.00    -0.194 N 
HETATM    7  C1  UNL     1       5.024  -1.802   2.574  1.00  0.00     0.677 A 
ATOM      8  H2  UNL     1       3.200  -0.871   2.697  1.00  0.00     0.184 HD
HETATM    9  N7  UNL     1       6.281  -1.751   2.111  1.00  0.00    -0.176 N 
HETATM   10  C18 UNL     1       6.708  -0.708   1.395  1.00  0.00     0.138 A 
ATOM     11  H7  UNL     1       6.921  -2.520   2.309  1.00  0.00     0.186 HD
HETATM   12  C17 UNL     1       5.838   0.345   1.124  1.00  0.00     0.101 A 
HETATM   13 CL2  UNL     1       6.502   1.739   0.262  1.00  0.00    -0.078 Cl
BRANCH   7  14
HETATM   14  N1  UNL     1       4.671  -2.862   3.275  1.00  0.00    -0.234 N 
ATOM     15  H12 UNL     1       3.715  -2.901   3.627  1.00  0.00     0.174 HD
ATOM     16  H11 UNL     1       5.336  -3.614   3.455  1.00  0.00     0.174 HD
ENDBRANCH   7  14
BRANCH  10  17
HETATM   17  N6  UNL     1       7.923  -0.648   0.938  1.00  0.00    -0.384 N 
ATOM     18  H62 UNL     1       8.249   0.149   0.391  1.00  0.00     0.157 HD
ATOM     19  H61 UNL     1       8.560  -1.419   1.137  1.00  0.00     0.157 HD
ENDBRANCH  10  17
ENDBRANCH   4   5
ENDBRANCH   3   4
ENDBRANCH   2   3
ENDBRANCH   1   2
BRANCH   1  20
HETATM   20  C7  UNL     1       1.650   1.324  -2.927  1.00  0.00     0.006 C 
BRANCH  20  21
HETATM   21  C8  UNL     1       0.449   1.688  -2.171  1.00  0.00     0.063 C 
BRANCH  21  22
HETATM   22  C9  UNL     1      -0.381   0.559  -1.687  1.00  0.00     0.079 A 
HETATM   23  N3  UNL     1      -0.212  -0.761  -1.705  1.00  0.00    -0.286 N 
HETATM   24  N4  UNL     1      -1.281  -1.336  -1.126  1.00  0.00    -0.238 N 
ATOM     25  H3  UNL     1       0.593  -1.254  -2.093  1.00  0.00     0.188 HD
HETATM   26  N5  UNL     1      -2.120  -0.401  -0.744  1.00  0.00    -0.252 N 
ATOM     27  H4  UNL     1      -1.418  -2.339  -1.003  1.00  0.00     0.208 HD
HETATM   28  C16 UNL     1      -1.602   0.780  -1.071  1.00  0.00     0.183 A 
BRANCH  26  29
HETATM   29  C10 UNL     1      -3.435  -0.587  -0.070  1.00  0.00     0.180 C 
BRANCH  29  30
HETATM   30  C11 UNL     1      -4.421  -0.723  -1.143  1.00  0.00    -0.009 C 
BRANCH  30  31
HETATM   31  C12 UNL     1      -5.837  -0.945  -0.916  1.00  0.00    -0.029 C 
BRANCH  31  32
HETATM   32  C13 UNL     1      -6.715  -0.018  -0.212  1.00  0.00     0.028 C 
BRANCH  32  33
HETATM   33  C14 UNL     1      -6.422   0.267   1.227  1.00  0.00     0.019 C 
BRANCH  33  34
HETATM   34  C15 UNL     1      -6.471  -1.022   2.048  1.00  0.00     0.115 C 
HETATM   35 CL1  UNL     1      -6.129  -0.728   3.745  1.00  0.00    -0.130 Cl
ENDBRANCH  33  34
ENDBRANCH  32  33
ENDBRANCH  31  32
ENDBRANCH  30  31
ENDBRANCH  29  30
ENDBRANCH  26  29
BRANCH  28  36
HETATM   36  O1  UNL     1      -2.227   1.999  -0.813  1.00  0.00    -0.344 OA
ATOM     37  H1  UNL     1      -3.064   2.151  -0.391  1.00  0.00     0.219 HD
ENDBRANCH  28  36
ENDBRANCH  21  22
ENDBRANCH  20  21
ENDBRANCH   1  20
TORSDOF 16
