REMARK  15 active torsions:
REMARK  status: ('A' for Active; 'I' for Inactive)
REMARK    1  A    between atoms: O1_1  and  C1_3 
REMARK    2  A    between atoms: C3_5  and  C4_6 
REMARK    3  A    between atoms: C4_6  and  N1_7 
REMARK    4  A    between atoms: N1_7  and  C5_10 
REMARK    5  A    between atoms: C5_10  and  C6_11 
REMARK    6  A    between atoms: C6_11  and  C7_12 
REMARK    7  A    between atoms: C7_12  and  N2_13 
REMARK    8  A    between atoms: N2_13  and  C8_16 
REMARK    9  A    between atoms: C8_16  and  C9_17 
REMARK   10  A    between atoms: C9_17  and  C10_18 
REMARK   11  A    between atoms: C10_18  and  N3_19 
REMARK   12  A    between atoms: N3_19  and  C11_22 
REMARK   13  A    between atoms: C11_22  and  C12_23 
REMARK   14  A    between atoms: C12_23  and  N4_24 
REMARK   15  A    between atoms: N4_24  and  C13_26 
ROOT
HETATM    1  C8  UNL     1      -0.039  -1.999   0.275  1.00  0.00     0.233 C 
ENDROOT
BRANCH   1   2
HETATM    2  N2  UNL     1      -1.343  -1.399   0.252  1.00  0.00    -0.075 N 
ATOM      3  H22 UNL     1      -1.376  -0.584  -0.360  1.00  0.00     0.277 HD
ATOM      4  H21 UNL     1      -1.564  -0.935   1.133  1.00  0.00     0.277 HD
BRANCH   2   5
HETATM    5  C7  UNL     1      -2.343  -2.384  -0.105  1.00  0.00     0.233 C 
BRANCH   5   6
HETATM    6  C6  UNL     1      -3.715  -1.692  -0.148  1.00  0.00     0.055 C 
BRANCH   6   7
HETATM    7  C5  UNL     1      -3.676  -0.584  -1.189  1.00  0.00     0.234 C 
BRANCH   7   8
HETATM    8  N1  UNL     1      -4.926   0.126  -1.286  1.00  0.00    -0.071 N 
ATOM      9  H12 UNL     1      -5.699  -0.505  -1.495  1.00  0.00     0.277 HD
ATOM     10  H11 UNL     1      -4.964   0.704  -2.125  1.00  0.00     0.277 HD
BRANCH   8  11
HETATM   11  C4  UNL     1      -5.180   0.893  -0.110  1.00  0.00     0.271 C 
BRANCH  11  12
HETATM   12  C3  UNL     1      -6.496   1.640  -0.302  1.00  0.00    -0.023 A 
HETATM   13  C2  UNL     1      -7.674   1.089   0.047  1.00  0.00     0.053 A 
HETATM   14  C1  UNL     1      -8.799   1.840  -0.158  1.00  0.00     0.107 A 
HETATM   15  S1  UNL     1      -8.191   3.281  -0.827  1.00  0.00    -0.077 SA
HETATM   16  C18 UNL     1      -6.532   2.904  -0.832  1.00  0.00     0.061 A 
BRANCH  14  17
HETATM   17  O1  UNL     1     -10.140   1.498   0.119  1.00  0.00    -0.354 OA
ATOM     18  H1  UNL     1     -10.921   2.019  -0.023  1.00  0.00     0.218 HD
ENDBRANCH  14  17
ENDBRANCH  11  12
ENDBRANCH   8  11
ENDBRANCH   7   8
ENDBRANCH   6   7
ENDBRANCH   5   6
ENDBRANCH   2   5
ENDBRANCH   1   2
BRANCH   1  19
HETATM   19  C9  UNL     1       0.930  -0.870   0.682  1.00  0.00     0.055 C 
BRANCH  19  20
HETATM   20  C10 UNL     1       2.329  -1.445   0.716  1.00  0.00     0.234 C 
BRANCH  20  21
HETATM   21  N3  UNL     1       3.252  -0.446   1.111  1.00  0.00    -0.074 N 
ATOM     22  H32 UNL     1       2.994  -0.047   2.014  1.00  0.00     0.277 HD
ATOM     23  H31 UNL     1       4.151  -0.858   1.362  1.00  0.00     0.277 HD
BRANCH  21  24
HETATM   24  C11 UNL     1       3.416   0.579   0.126  1.00  0.00     0.251 C 
BRANCH  24  25
HETATM   25  C12 UNL     1       4.121   0.050  -1.088  1.00  0.00     0.148 C 
BRANCH  25  26
HETATM   26  N4  UNL     1       5.421  -0.477  -0.789  1.00  0.00    -0.373 N 
ATOM     27  H4  UNL     1       5.587  -1.473  -0.931  1.00  0.00     0.161 HD
BRANCH  26  28
HETATM   28  C13 UNL     1       6.482   0.320  -0.307  1.00  0.00     0.123 A 
HETATM   29  N5  UNL     1       6.398   1.644  -0.098  1.00  0.00    -0.350 N 
HETATM   30  C14 UNL     1       7.423   2.382   0.357  1.00  0.00     0.113 A 
ATOM     31  H5  UNL     1       5.513   2.111  -0.294  1.00  0.00     0.166 HD
HETATM   32  C15 UNL     1       8.657   1.849   0.651  1.00  0.00     0.051 A 
HETATM   33 CL1  UNL     1      10.005   2.795   1.243  1.00  0.00    -0.083 Cl
HETATM   34  C16 UNL     1       8.791   0.485   0.451  1.00  0.00     0.053 A 
HETATM   35  C17 UNL     1       7.729  -0.249  -0.015  1.00  0.00     0.079 A 
HETATM   36 CL2  UNL     1       7.909  -1.984  -0.263  1.00  0.00    -0.080 Cl
ENDBRANCH  26  28
ENDBRANCH  25  26
ENDBRANCH  24  25
ENDBRANCH  21  24
ENDBRANCH  20  21
ENDBRANCH  19  20
ENDBRANCH   1  19
TORSDOF 15
