REMARK  13 active torsions:
REMARK  status: ('A' for Active; 'I' for Inactive)
REMARK       I    between atoms: C2_2  and  N1_4 
REMARK       I    between atoms: N1_4  and  C3_5 
REMARK    1  A    between atoms: N1_4  and  C23_40 
REMARK       I    between atoms: C3_5  and  N2_7 
REMARK    2  A    between atoms: N2_7  and  C4_9 
REMARK    3  A    between atoms: C4_9  and  C5_10 
REMARK    4  A    between atoms: C5_10  and  C6_11 
REMARK    5  A    between atoms: C6_11  and  N3_12 
REMARK       I    between atoms: N3_12  and  C7_14 
REMARK       I    between atoms: C7_14  and  N4_16 
REMARK    6  A    between atoms: C10_19  and  C12_21 
REMARK    7  A    between atoms: C12_21  and  N5_22 
REMARK    8  A    between atoms: N5_22  and  S1_24 
REMARK    9  A    between atoms: S1_24  and  C13_27 
REMARK   10  A    between atoms: C13_27  and  C14_28 
REMARK   11  A    between atoms: C14_28  and  N6_29 
REMARK       I    between atoms: N6_29  and  C15_31 
REMARK   12  A    between atoms: C15_31  and  C16_33 
REMARK   13  A    between atoms: C16_33  and  C17_34 
ROOT
HETATM    1  N3  UNL     1       3.767   1.184   0.743  1.00  0.00    -0.343 N 
ATOM      2  H3  UNL     1       3.370   0.436   1.312  1.00  0.00     0.164 HD
HETATM    3  C7  UNL     1       3.053   1.649  -0.385  1.00  0.00     0.318 C 
HETATM    4  O3  UNL     1       3.551   2.569  -1.081  1.00  0.00    -0.247 OA
HETATM    5  N4  UNL     1       1.805   1.122  -0.761  1.00  0.00    -0.334 N 
HETATM    6  C8  UNL     1       1.105   0.062  -0.059  1.00  0.00     0.128 C 
HETATM    7  C9  UNL     1      -0.102   0.686   0.608  1.00  0.00     0.031 C 
HETATM    8  C10 UNL     1      -0.662   1.837  -0.132  1.00  0.00    -0.024 C 
HETATM    9  C11 UNL     1      -0.302   3.167   0.505  1.00  0.00     0.017 C 
HETATM   10  C21 UNL     1      -0.338   1.857  -1.606  1.00  0.00     0.031 C 
HETATM   11  C22 UNL     1       1.095   1.635  -1.937  1.00  0.00     0.128 C 
ENDROOT
BRANCH   1  12
HETATM   12  C6  UNL     1       5.054   1.749   1.108  1.00  0.00     0.126 C 
BRANCH  12  13
HETATM   13  C5  UNL     1       5.685   1.177   2.292  1.00  0.00     0.039 C 
BRANCH  13  14
HETATM   14  C4  UNL     1       6.100  -0.205   2.454  1.00  0.00     0.126 C 
BRANCH  14  15
HETATM   15  N2  UNL     1       7.134  -0.741   1.636  1.00  0.00    -0.343 N 
HETATM   16  C3  UNL     1       7.186  -1.011   0.264  1.00  0.00     0.325 C 
HETATM   17  N1  UNL     1       8.335  -1.537  -0.442  1.00  0.00    -0.266 N 
HETATM   18  O2  UNL     1       6.188  -0.794  -0.435  1.00  0.00    -0.247 OA
HETATM   19  C2  UNL     1       8.286  -1.783  -1.830  1.00  0.00     0.224 C 
HETATM   20  C1  UNL     1       7.090  -1.537  -2.667  1.00  0.00     0.117 C 
HETATM   21  O1  UNL     1       9.287  -2.236  -2.434  1.00  0.00    -0.273 OA
ATOM     22  H2  UNL     1       7.991  -0.969   2.140  1.00  0.00     0.164 HD
BRANCH  17  23
HETATM   23  C23 UNL     1       9.540  -1.808   0.302  1.00  0.00     0.097 A 
HETATM   24  C24 UNL     1      10.909  -1.575  -0.363  1.00  0.00     0.028 A 
HETATM   25  C25 UNL     1      10.420  -2.961  -0.110  1.00  0.00     0.028 A 
ENDBRANCH  17  23
ENDBRANCH  14  15
ENDBRANCH  13  14
ENDBRANCH  12  13
ENDBRANCH   1  12
BRANCH   8  26
HETATM   26  C12 UNL     1      -2.197   1.751  -0.065  1.00  0.00     0.141 C 
BRANCH  26  27
HETATM   27  N5  UNL     1      -2.697   0.558  -0.654  1.00  0.00    -0.315 N 
ATOM     28  H5  UNL     1      -2.145  -0.189  -1.076  1.00  0.00     0.172 HD
BRANCH  27  29
HETATM   29  S1  UNL     1      -4.478   0.618  -0.513  1.00  0.00     0.250 S 
HETATM   30  O4  UNL     1      -4.866  -0.670  -1.214  1.00  0.00    -0.201 OA
HETATM   31  O5  UNL     1      -4.914   1.842  -1.255  1.00  0.00    -0.201 OA
BRANCH  29  32
HETATM   32  C13 UNL     1      -4.818   0.654   1.179  1.00  0.00     0.148 C 
BRANCH  32  33
HETATM   33  C14 UNL     1      -6.152   0.752   1.758  1.00  0.00     0.104 C 
BRANCH  33  34
HETATM   34  N6  UNL     1      -7.119  -0.210   1.476  1.00  0.00    -0.337 N 
HETATM   35  C15 UNL     1      -7.849  -0.424   0.315  1.00  0.00     0.221 C 
HETATM   36  O6  UNL     1      -7.740   0.306  -0.687  1.00  0.00    -0.273 OA
ATOM     37  H6  UNL     1      -7.322  -0.856   2.239  1.00  0.00     0.168 HD
BRANCH  35  38
HETATM   38  C16 UNL     1      -8.825  -1.574   0.215  1.00  0.00     0.108 C 
BRANCH  38  39
HETATM   39  C17 UNL     1      -9.480  -1.574  -1.124  1.00  0.00    -0.002 A 
HETATM   40  C18 UNL     1     -10.487  -2.688  -1.349  1.00  0.00     0.010 A 
HETATM   41  C19 UNL     1     -10.913  -1.260  -1.307  1.00  0.00    -0.014 A 
HETATM   42  C20 UNL     1     -11.813  -0.888  -0.171  1.00  0.00     0.010 C 
ENDBRANCH  38  39
ENDBRANCH  35  38
ENDBRANCH  33  34
ENDBRANCH  32  33
ENDBRANCH  29  32
ENDBRANCH  27  29
ENDBRANCH  26  27
ENDBRANCH   8  26
TORSDOF 13
