REMARK  17 active torsions:
REMARK  status: ('A' for Active; 'I' for Inactive)
REMARK    1  A    between atoms: C2_2  and  C3_3 
REMARK    2  A    between atoms: C3_3  and  C4_4 
REMARK    3  A    between atoms: C4_4  and  C5_5 
REMARK    4  A    between atoms: C5_5  and  N1_6 
REMARK    5  A    between atoms: C5_5  and  C24_37 
REMARK       I    between atoms: N1_6  and  C6_8 
REMARK    6  A    between atoms: C6_8  and  C7_10 
REMARK    7  A    between atoms: C7_10  and  C8_11 
REMARK       I    between atoms: C8_11  and  N2_13 
REMARK    8  A    between atoms: N2_13  and  C9_15 
REMARK    9  A    between atoms: C9_15  and  C10_16 
REMARK   10  A    between atoms: C9_15  and  C14_24 
REMARK   11  A    between atoms: C10_16  and  C11_17 
REMARK   12  A    between atoms: C11_17  and  C12_18 
REMARK   13  A    between atoms: C12_18  and  N3_19 
REMARK   14  A    between atoms: C14_24  and  O3_25 
REMARK   15  A    between atoms: C14_24  and  N6_27 
REMARK   16  A    between atoms: C24_37  and  O4_38 
REMARK   17  A    between atoms: C24_37  and  N7_40 
ROOT
HETATM    1  C8  UNL     1      -0.293  -0.303   0.373  1.00  0.00     0.227 C 
HETATM    2  O2  UNL     1      -0.304   0.515  -0.632  1.00  0.00    -0.273 OA
HETATM    3  N2  UNL     1       0.958  -0.619   0.890  1.00  0.00    -0.349 N 
ATOM      4  H2  UNL     1       0.994  -1.261   1.682  1.00  0.00     0.163 HD
ENDROOT
BRANCH   3   5
HETATM    5  C9  UNL     1       2.229  -0.097   0.380  1.00  0.00     0.159 C 
BRANCH   5   6
HETATM    6  C10 UNL     1       2.852   0.792   1.454  1.00  0.00     0.035 C 
BRANCH   6   7
HETATM    7  C11 UNL     1       1.891   1.941   1.758  1.00  0.00     0.022 C 
BRANCH   7   8
HETATM    8  C12 UNL     1       2.460   2.848   2.819  1.00  0.00     0.122 C 
BRANCH   8   9
HETATM    9  N3  UNL     1       1.488   3.907   3.044  1.00  0.00    -0.367 N 
HETATM   10  C13 UNL     1       1.807   5.060   3.520  1.00  0.00     0.196 C 
HETATM   11  N4  UNL     1       3.124   5.409   3.868  1.00  0.00    -0.067 NA
HETATM   12  N5  UNL     1       0.721   5.980   3.685  1.00  0.00    -0.067 NA
ATOM     13  H3  UNL     1       0.510   3.728   2.814  1.00  0.00     0.161 HD
ENDBRANCH   8   9
ENDBRANCH   7   8
ENDBRANCH   6   7
ENDBRANCH   5   6
BRANCH   5  14
HETATM   14  C14 UNL     1       3.108  -1.234   0.015  1.00  0.00     0.137 C 
BRANCH  14  15
HETATM   15  O3  UNL     1       2.656  -2.436   0.248  1.00  0.00    -0.348 OA
ATOM     16  H3  UNL     1       3.219  -3.164   0.014  1.00  0.00     0.219 HD
ENDBRANCH  14  15
BRANCH  14  17
HETATM   17  N6  UNL     1       4.384  -1.182  -0.559  1.00  0.00    -0.364 N 
HETATM   18  C15 UNL     1       5.024   0.058  -0.899  1.00  0.00     0.125 C 
HETATM   19  C16 UNL     1       5.964  -0.117  -2.103  1.00  0.00     0.029 C 
HETATM   20  C17 UNL     1       7.042  -1.106  -1.772  1.00  0.00    -0.037 C 
HETATM   21  C18 UNL     1       7.654  -1.798  -2.946  1.00  0.00     0.010 C 
HETATM   22  C21 UNL     1       8.229  -0.299  -1.241  1.00  0.00     0.010 C 
HETATM   23  C22 UNL     1       6.607  -2.090  -0.714  1.00  0.00     0.029 C 
HETATM   24  C19 UNL     1       9.045  -2.218  -2.493  1.00  0.00     0.001 C 
HETATM   25  C20 UNL     1       9.457  -1.088  -1.592  1.00  0.00     0.001 C 
HETATM   26  C23 UNL     1       5.138  -2.406  -0.853  1.00  0.00     0.125 C 
ENDBRANCH  14  17
ENDBRANCH   5  14
ENDBRANCH   3   5
BRANCH   1  27
HETATM   27  C7  UNL     1      -1.562  -0.840   0.900  1.00  0.00     0.205 C 
BRANCH  27  28
HETATM   28  C6  UNL     1      -2.763  -0.253   0.253  1.00  0.00     0.227 C 
HETATM   29  N1  UNL     1      -4.065  -0.779   0.516  1.00  0.00    -0.349 N 
ATOM     30  H1  UNL     1      -4.154  -1.574   1.149  1.00  0.00     0.163 HD
HETATM   31  O1  UNL     1      -2.616   0.709  -0.528  1.00  0.00    -0.273 OA
BRANCH  29  32
HETATM   32  C5  UNL     1      -5.275  -0.221  -0.088  1.00  0.00     0.159 C 
BRANCH  32  33
HETATM   33  C4  UNL     1      -6.356  -0.018   0.883  1.00  0.00     0.033 C 
BRANCH  33  34
HETATM   34  C3  UNL     1      -6.838  -1.304   1.532  1.00  0.00     0.002 C 
BRANCH  34  35
HETATM   35  C2  UNL     1      -7.932  -0.949   2.524  1.00  0.00    -0.004 C 
HETATM   36  C1  UNL     1      -7.456  -0.057   3.631  1.00  0.00     0.005 C 
ENDBRANCH  34  35
ENDBRANCH  33  34
ENDBRANCH  32  33
BRANCH  32  37
HETATM   37  C24 UNL     1      -5.663  -0.959  -1.284  1.00  0.00     0.137 C 
BRANCH  37  38
HETATM   38  O4  UNL     1      -4.724  -1.782  -1.689  1.00  0.00    -0.348 OA
ATOM     39  H4  UNL     1      -4.977  -2.263  -2.468  1.00  0.00     0.219 HD
ENDBRANCH  37  38
BRANCH  37  40
HETATM   40  N7  UNL     1      -6.801  -0.974  -2.073  1.00  0.00    -0.364 N 
HETATM   41  C25 UNL     1      -8.070  -0.362  -1.975  1.00  0.00     0.124 C 
HETATM   42  C26 UNL     1      -8.569  -0.226  -3.437  1.00  0.00     0.021 C 
HETATM   43  C27 UNL     1      -7.362  -0.617  -4.261  1.00  0.00     0.021 C 
HETATM   44  C28 UNL     1      -6.825  -1.737  -3.350  1.00  0.00     0.124 C 
ENDBRANCH  37  40
ENDBRANCH  32  37
ENDBRANCH  29  32
ENDBRANCH  27  28
ENDBRANCH   1  27
TORSDOF 17
