REMARK  7 active torsions:
REMARK  status: ('A' for Active; 'I' for Inactive)
REMARK       I    between atoms: C1_4  and  N3_6 
REMARK    1  A    between atoms: N4_9  and  C4_10 
REMARK    2  A    between atoms: C4_10  and  C5_11 
REMARK    3  A    between atoms: C5_11  and  N8_18 
REMARK    4  A    between atoms: N5_12  and  N6_14 
REMARK    5  A    between atoms: N8_18  and  C7_20 
REMARK    6  A    between atoms: C7_20  and  C8_21 
REMARK       I    between atoms: C8_21  and  N9_23 
REMARK    7  A    between atoms: N9_23  and  N10_25 
ROOT
HETATM    1  C5  UNL     1      -0.086   1.638   0.241  1.00  0.00     0.106 C 
HETATM    2  N5  UNL     1      -0.096   2.908   0.020  1.00  0.00    -0.288 N 
ATOM      3  H5  UNL     1       0.458   3.292  -0.745  1.00  0.00     0.188 HD
ENDROOT
BRANCH   1   4
HETATM    4  C4  UNL     1       0.750   0.809  -0.651  1.00  0.00     0.187 C 
BRANCH   4   5
HETATM    5  N4  UNL     1       1.934   0.267  -0.081  1.00  0.00    -0.225 NA
HETATM    6  C3  UNL     1       1.791  -0.729   0.915  1.00  0.00     0.130 C 
HETATM    7  C2  UNL     1       3.016  -1.543   1.192  1.00  0.00     0.143 C 
HETATM    8  N3  UNL     1       4.141  -1.240   0.355  1.00  0.00    -0.340 N 
HETATM    9  C1  UNL     1       5.301  -2.041   0.464  1.00  0.00     0.185 C 
HETATM   10  C10 UNL     1       4.123  -0.148  -0.590  1.00  0.00     0.255 C 
HETATM   11  N1  UNL     1       5.502  -2.744   1.511  1.00  0.00    -0.374 N 
HETATM   12  N2  UNL     1       6.285  -2.102  -0.571  1.00  0.00    -0.064 NA
ATOM     13  H12 UNL     1       6.339  -3.322   1.590  1.00  0.00     0.158 HD
ATOM     14  H11 UNL     1       4.800  -2.700   2.250  1.00  0.00     0.158 HD
HETATM   15  N13 UNL     1       2.764  -0.137  -1.133  1.00  0.00    -0.145 NA
ENDBRANCH   4   5
ENDBRANCH   1   4
BRANCH   1  16
HETATM   16  N8  UNL     1      -0.851   1.143   1.309  1.00  0.00    -0.369 N 
ATOM     17  H8  UNL     1      -0.715   1.599   2.211  1.00  0.00     0.161 HD
BRANCH  16  18
HETATM   18  C7  UNL     1      -1.800   0.072   1.278  1.00  0.00     0.225 C 
BRANCH  18  19
HETATM   19  C8  UNL     1      -3.034   0.336   0.508  1.00  0.00     0.253 C 
HETATM   20  O1  UNL     1      -3.288   1.401  -0.096  1.00  0.00    -0.270 OA
HETATM   21  N9  UNL     1      -3.998  -0.705   0.456  1.00  0.00    -0.267 N 
ATOM     22  H9  UNL     1      -3.835  -1.592   0.933  1.00  0.00     0.190 HD
BRANCH  21  23
HETATM   23  N10 UNL     1      -5.176  -0.485  -0.265  1.00  0.00    -0.273 N 
HETATM   24  C9  UNL     1      -5.629  -1.459  -0.984  1.00  0.00     0.215 C 
HETATM   25  N11 UNL     1      -4.985  -2.712  -1.061  1.00  0.00    -0.065 NA
HETATM   26  N12 UNL     1      -6.823  -1.227  -1.713  1.00  0.00    -0.065 NA
ATOM     27  H10 UNL     1      -5.660   0.412  -0.225  1.00  0.00     0.189 HD
ENDBRANCH  21  23
ENDBRANCH  18  19
ENDBRANCH  16  18
ENDBRANCH   1  16
BRANCH   2  28
HETATM   28  N6  UNL     1      -0.844   3.747   0.803  1.00  0.00    -0.297 N 
HETATM   29  C6  UNL     1      -1.331   4.840   0.384  1.00  0.00     0.206 C 
HETATM   30  N7  UNL     1      -1.184   5.348  -0.916  1.00  0.00    -0.095 NA
ATOM     31  H6  UNL     1      -1.018   3.479   1.772  1.00  0.00     0.187 HD
ENDBRANCH   2  28
TORSDOF 7
