REMARK  8 active torsions:
REMARK  status: ('A' for Active; 'I' for Inactive)
REMARK       I    between atoms: C1_4  and  N3_6 
REMARK    1  A    between atoms: N3_6  and  C2_8 
REMARK    2  A    between atoms: C3_11  and  N5_12 
REMARK    3  A    between atoms: N5_12  and  C4_14 
REMARK    4  A    between atoms: C4_14  and  C5_15 
REMARK    5  A    between atoms: C5_15  and  N6_16 
REMARK    6  A    between atoms: N10_24  and  C8_26 
REMARK    7  A    between atoms: C8_26  and  C9_27 
REMARK    8  A    between atoms: C9_27  and  N11_28 
ROOT
HETATM    1  C2  UNL     1       0.705   2.365   0.357  1.00  0.00     0.713 A 
HETATM    2  N4  UNL     1       1.834   1.687   0.035  1.00  0.00    -0.021 N 
ATOM      3  H4  UNL     1       2.750   2.090   0.232  1.00  0.00     0.203 HD
HETATM    4  C3  UNL     1       1.737   0.499  -0.537  1.00  0.00     0.707 A 
HETATM    5  N9  UNL     1       0.500  -0.039  -0.802  1.00  0.00    -0.022 N 
ATOM      6  H9  UNL     1       0.449  -0.957  -1.245  1.00  0.00     0.203 HD
HETATM    7  C7  UNL     1      -0.637   0.594  -0.502  1.00  0.00     0.707 A 
HETATM    8  N10 UNL     1      -1.797   0.135  -0.729  1.00  0.00    -0.223 N 
ATOM      9  H10 UNL     1      -2.565   0.741  -0.440  1.00  0.00     0.177 HD
HETATM   10  N13 UNL     1      -0.480   1.821   0.089  1.00  0.00    -0.021 N 
ATOM     11  H13 UNL     1      -1.318   2.347   0.337  1.00  0.00     0.203 HD
ENDROOT
BRANCH   8  12
HETATM   12  C8  UNL     1      -2.192  -1.093  -1.323  1.00  0.00     0.168 C 
BRANCH  12  13
HETATM   13  C9  UNL     1      -2.942  -2.026  -0.400  1.00  0.00     0.294 C 
BRANCH  13  14
HETATM   14  N11 UNL     1      -4.154  -1.566   0.127  1.00  0.00     0.117 N 
HETATM   15  C10 UNL     1      -5.254  -1.392  -0.762  1.00  0.00     0.302 C 
HETATM   16  C11 UNL     1      -6.277  -0.708   0.145  1.00  0.00     0.264 C 
HETATM   17  N12 UNL     1      -5.582  -0.455   1.414  1.00  0.00    -0.047 N 
HETATM   18  C12 UNL     1      -4.184  -0.393   0.919  1.00  0.00     0.502 C 
ATOM     19 2H12 UNL     1      -5.904   0.352   1.948  1.00  0.00     0.279 HD
ATOM     20 1H12 UNL     1      -5.762  -1.122   2.164  1.00  0.00     0.279 HD
ENDBRANCH  13  14
ENDBRANCH  12  13
ENDBRANCH   8  12
BRANCH   4  21
HETATM   21  N5  UNL     1       2.739  -0.210  -0.872  1.00  0.00    -0.224 N 
ATOM     22  H5  UNL     1       2.599  -1.120  -1.311  1.00  0.00     0.177 HD
BRANCH  21  23
HETATM   23  C4  UNL     1       4.076   0.281  -0.628  1.00  0.00     0.157 C 
BRANCH  23  24
HETATM   24  C5  UNL     1       5.005  -0.908  -0.834  1.00  0.00     0.142 C 
BRANCH  24  25
HETATM   25  N6  UNL     1       4.596  -1.905   0.127  1.00  0.00    -0.365 N 
HETATM   26  C6  UNL     1       5.483  -2.548   0.785  1.00  0.00     0.197 C 
HETATM   27  N7  UNL     1       6.852  -2.268   0.556  1.00  0.00    -0.067 NA
HETATM   28  N8  UNL     1       5.060  -3.523   1.727  1.00  0.00    -0.067 NA
ATOM     29  H6  UNL     1       3.606  -2.095   0.280  1.00  0.00     0.161 HD
ENDBRANCH  24  25
ENDBRANCH  23  24
ENDBRANCH  21  23
ENDBRANCH   4  21
BRANCH   1  30
HETATM   30  N3  UNL     1       0.843   3.503   0.908  1.00  0.00    -0.163 N 
HETATM   31  C1  UNL     1      -0.249   4.312   1.293  1.00  0.00     0.200 C 
HETATM   32  N1  UNL     1      -0.980   3.954   2.287  1.00  0.00    -0.373 N 
HETATM   33  N2  UNL     1      -0.526   5.520   0.573  1.00  0.00    -0.063 NA
ATOM     34  H12 UNL     1      -1.769   4.538   2.565  1.00  0.00     0.158 HD
ATOM     35  H11 UNL     1      -0.783   3.094   2.799  1.00  0.00     0.158 HD
ATOM     36  H3  UNL     1       1.787   3.848   1.080  1.00  0.00     0.187 HD
ENDBRANCH   1  30
TORSDOF 8
