REMARK  7 active torsions:
REMARK  status: ('A' for Active; 'I' for Inactive)
REMARK    1  A    between atoms: N1_1  and  C1_5 
REMARK    2  A    between atoms: C1_5  and  C2_6 
REMARK    3  A    between atoms: C2_6  and  C3_7 
REMARK    4  A    between atoms: C3_7  and  C4_8 
REMARK    5  A    between atoms: N3_15  and  C9_17 
REMARK    6  A    between atoms: C9_17  and  C10_18 
REMARK    7  A    between atoms: C10_18  and  N4_19 
ROOT
HETATM    1  C4  UNL     1      -3.988   0.329  -0.755  1.00  0.00     0.003 C 
HETATM    2  C5  UNL     1      -2.831   0.521  -0.198  1.00  0.00     0.046 A 
HETATM    3  C6  UNL     1      -2.406   1.714   0.512  1.00  0.00     0.047 A 
HETATM    4  C7  UNL     1      -1.203   1.867   1.064  1.00  0.00     0.108 A 
HETATM    5  N2  UNL     1      -0.257   0.819   0.969  1.00  0.00    -0.202 N 
ATOM      6  H2  UNL     1       0.661   0.946   1.395  1.00  0.00     0.183 HD
HETATM    7  C8  UNL     1      -0.539  -0.400   0.304  1.00  0.00     0.678 A 
HETATM    8  N3  UNL     1       0.341  -1.316   0.236  1.00  0.00    -0.224 N 
ATOM      9  H3  UNL     1       0.101  -2.179  -0.251  1.00  0.00     0.177 HD
HETATM   10  N5  UNL     1      -1.829  -0.524  -0.270  1.00  0.00    -0.192 N 
ATOM     11  H5  UNL     1      -2.063  -1.389  -0.757  1.00  0.00     0.184 HD
ENDROOT
BRANCH   8  12
HETATM   12  C9  UNL     1       1.657  -1.201   0.809  1.00  0.00     0.168 C 
BRANCH  12  13
HETATM   13  C10 UNL     1       2.549  -0.423  -0.160  1.00  0.00     0.292 C 
BRANCH  13  14
HETATM   14  N4  UNL     1       3.888  -0.263   0.352  1.00  0.00     0.090 N 
HETATM   15  C11 UNL     1       4.567  -1.519   0.381  1.00  0.00     0.272 C 
HETATM   16  C12 UNL     1       5.725  -1.460  -0.591  1.00  0.00     0.030 C 
HETATM   17  C13 UNL     1       6.758  -0.522   0.039  1.00  0.00     0.003 C 
HETATM   18  C14 UNL     1       6.084   0.815   0.158  1.00  0.00     0.030 C 
HETATM   19  C15 UNL     1       4.639   0.777  -0.250  1.00  0.00     0.272 C 
ENDBRANCH  13  14
ENDBRANCH  12  13
ENDBRANCH   8  12
BRANCH   1  20
HETATM   20  C3  UNL     1      -5.074   1.317  -0.752  1.00  0.00     0.031 C 
BRANCH  20  21
HETATM   21  C2  UNL     1      -6.310   0.816  -0.025  1.00  0.00     0.031 C 
BRANCH  21  22
HETATM   22  C1  UNL     1      -6.805  -0.429  -0.708  1.00  0.00     0.230 C 
BRANCH  22  23
HETATM   23  N1  UNL     1      -7.997  -0.906  -0.008  1.00  0.00    -0.079 N 
ATOM     24  H13 UNL     1      -7.834  -1.047   0.989  1.00  0.00     0.274 HD
ATOM     25  H12 UNL     1      -8.719  -0.189   0.067  1.00  0.00     0.274 HD
ATOM     26  H11 UNL     1      -8.333  -1.750  -0.471  1.00  0.00     0.274 HD
ENDBRANCH  22  23
ENDBRANCH  21  22
ENDBRANCH  20  21
ENDBRANCH   1  20
TORSDOF 7
