REMARK  8 active torsions:
REMARK  status: ('A' for Active; 'I' for Inactive)
REMARK    1  A    between atoms: C5_11  and  C6_12 
REMARK    2  A    between atoms: C6_12  and  C7_13 
REMARK    3  A    between atoms: C10_16  and  C11_17 
REMARK    4  A    between atoms: C11_17  and  C12_18 
REMARK    5  A    between atoms: C12_18  and  C13_19 
REMARK    6  A    between atoms: C13_19  and  C14_20 
REMARK    7  A    between atoms: C14_20  and  C15_21 
REMARK    8  A    between atoms: C15_21  and  N3_22 
ROOT
HETATM    1  C7  UNL     1      -2.082  -0.239   0.574  1.00  0.00    -0.034 A 
HETATM    2  C8  UNL     1      -1.387   0.686   1.364  1.00  0.00     0.012 A 
HETATM    3  C9  UNL     1      -0.022   0.655   1.507  1.00  0.00     0.008 A 
HETATM    4  C10 UNL     1       0.735  -0.300   0.872  1.00  0.00    -0.058 A 
HETATM    5  C16 UNL     1       0.073  -1.233   0.077  1.00  0.00     0.008 A 
HETATM    6  C17 UNL     1      -1.280  -1.206  -0.068  1.00  0.00     0.012 A 
ENDROOT
BRANCH   1   7
HETATM    7  C6  UNL     1      -3.507  -0.334   0.512  1.00  0.00     0.043 C 
BRANCH   7   8
HETATM    8  C5  UNL     1      -4.623  -0.230  -0.029  1.00  0.00     0.062 A 
HETATM    9  C2  UNL     1      -4.693   0.371  -1.644  1.00  0.00     0.052 A 
HETATM   10  C1  UNL     1      -3.547   0.746  -1.519  1.00  0.00     0.045 C 
HETATM   11  N1  UNL     1      -5.884  -0.018  -1.773  1.00  0.00    -0.318 N 
HETATM   12  C3  UNL     1      -6.946  -0.573  -1.341  1.00  0.00     0.314 A 
ATOM     13  H1  UNL     1      -6.125   0.256  -2.726  1.00  0.00     0.169 HD
HETATM   14  O1  UNL     1      -8.011  -0.727  -1.972  1.00  0.00    -0.262 OA
HETATM   15  C4  UNL     1      -6.866  -1.042  -0.021  1.00  0.00     0.314 A 
HETATM   16  O2  UNL     1      -7.827  -1.583   0.495  1.00  0.00    -0.262 OA
HETATM   17  N2  UNL     1      -5.663  -0.801   0.492  1.00  0.00    -0.317 N 
ATOM     18  H2  UNL     1      -5.538  -1.118   1.454  1.00  0.00     0.169 HD
ENDBRANCH   7   8
ENDBRANCH   1   7
BRANCH   4  19
HETATM   19  C11 UNL     1       2.190  -0.371   1.057  1.00  0.00     0.038 C 
BRANCH  19  20
HETATM   20  C12 UNL     1       2.894   0.468   0.036  1.00  0.00     0.005 C 
BRANCH  20  21
HETATM   21  C13 UNL     1       4.408   0.368   0.208  1.00  0.00     0.002 C 
BRANCH  21  22
HETATM   22  C14 UNL     1       5.175   1.179  -0.778  1.00  0.00     0.027 C 
BRANCH  22  23
HETATM   23  C15 UNL     1       6.655   0.940  -0.477  1.00  0.00     0.229 C 
BRANCH  23  24
HETATM   24  N3  UNL     1       7.011  -0.447  -0.609  1.00  0.00    -0.079 N 
ATOM     25  H33 UNL     1       6.415  -1.040  -0.032  1.00  0.00     0.274 HD
ATOM     26  H32 UNL     1       6.756  -0.810  -1.528  1.00  0.00     0.274 HD
ATOM     27  H31 UNL     1       7.998  -0.606  -0.408  1.00  0.00     0.274 HD
ENDBRANCH  23  24
ENDBRANCH  22  23
ENDBRANCH  21  22
ENDBRANCH  20  21
ENDBRANCH  19  20
ENDBRANCH   4  19
TORSDOF 8
