REMARK  6 active torsions:
REMARK  status: ('A' for Active; 'I' for Inactive)
REMARK    1  A    between atoms: N3_4  and  C2_6 
REMARK    2  A    between atoms: C2_6  and  C3_7 
REMARK    3  A    between atoms: C3_7  and  C4_8 
REMARK    4  A    between atoms: C7_16  and  C8_17 
REMARK    5  A    between atoms: C8_17  and  C9_18 
REMARK    6  A    between atoms: C9_18  and  C10_19 
ROOT
HETATM    1  C4  UNL     1       0.432  -1.010  -0.525  1.00  0.00    -0.018 A 
HETATM    2  C5  UNL     1       0.724  -1.569  -1.785  1.00  0.00     0.102 A 
HETATM    3  N4  UNL     1       0.608  -2.879  -1.946  1.00  0.00    -0.318 N 
ATOM      4  H4  UNL     1       0.814  -3.307  -2.849  1.00  0.00     0.170 HD
HETATM    5  C6  UNL     1       0.216  -3.638  -0.909  1.00  0.00     0.324 A 
HETATM    6  O1  UNL     1       0.118  -4.890  -1.100  1.00  0.00    -0.247 OA
HETATM    7  N5  UNL     1      -0.069  -3.131   0.292  1.00  0.00    -0.312 N 
ATOM      8  H5  UNL     1      -0.363  -3.752   1.046  1.00  0.00     0.170 HD
HETATM    9  C7  UNL     1       0.030  -1.776   0.524  1.00  0.00     0.021 A 
ENDROOT
BRANCH   9  10
HETATM   10  C8  UNL     1      -0.435  -1.249   1.827  1.00  0.00     0.062 C 
BRANCH  10  11
HETATM   11  C9  UNL     1      -1.915  -1.146   1.879  1.00  0.00     0.044 C 
BRANCH  11  12
HETATM   12  C10 UNL     1      -2.600  -0.329   0.903  1.00  0.00    -0.058 A 
HETATM   13  C11 UNL     1      -2.980  -0.860  -0.338  1.00  0.00     0.007 A 
HETATM   14  C12 UNL     1      -3.650  -0.066  -1.226  1.00  0.00     0.001 A 
HETATM   15  C13 UNL     1      -3.961   1.235  -0.939  1.00  0.00     0.000 A 
HETATM   16  C14 UNL     1      -3.587   1.752   0.277  1.00  0.00     0.001 A 
HETATM   17  C15 UNL     1      -2.912   0.976   1.188  1.00  0.00     0.007 A 
ENDBRANCH  11  12
ENDBRANCH  10  11
ENDBRANCH   9  10
BRANCH   1  18
HETATM   18  C3  UNL     1       0.716   0.433  -0.325  1.00  0.00     0.061 C 
BRANCH  18  19
HETATM   19  C2  UNL     1       2.129   0.575   0.259  1.00  0.00     0.126 C 
BRANCH  19  20
HETATM   20  N3  UNL     1       2.346   1.970   0.445  1.00  0.00    -0.367 N 
HETATM   21  C1  UNL     1       3.520   2.454   0.584  1.00  0.00     0.196 C 
HETATM   22  N1  UNL     1       4.632   1.591   0.553  1.00  0.00    -0.067 NA
HETATM   23  N2  UNL     1       3.683   3.869   0.772  1.00  0.00    -0.067 NA
ATOM     24  H3  UNL     1       1.543   2.599   0.468  1.00  0.00     0.161 HD
ENDBRANCH  19  20
ENDBRANCH  18  19
ENDBRANCH   1  18
TORSDOF 6
