REMARK  8 active torsions:
REMARK  status: ('A' for Active; 'I' for Inactive)
REMARK    1  A    between atoms: C3_3  and  O1_4 
REMARK    2  A    between atoms: O1_4  and  C4_5 
REMARK    3  A    between atoms: C4_5  and  N1_6 
REMARK    4  A    between atoms: C7_9  and  C8_10 
REMARK    5  A    between atoms: C8_10  and  N2_11 
REMARK    6  A    between atoms: C8_10  and  N3_15 
REMARK    7  A    between atoms: C8_10  and  C9_19 
REMARK    8  A    between atoms: C9_19  and  C10_20 
ROOT
HETATM    1  C1  UNL     1       6.722  -1.257  -1.220  1.00  0.00     0.014 C 
HETATM    2  C2  UNL     1       6.156  -1.305  -0.174  1.00  0.00    -0.091 C 
HETATM    3  C3  UNL     1       5.435  -1.387   1.113  1.00  0.00     0.262 C 
ENDROOT
BRANCH   3   4
HETATM    4  O1  UNL     1       4.208  -0.736   1.028  1.00  0.00    -0.360 OA
BRANCH   4   5
HETATM    5  C4  UNL     1       3.435  -1.318   0.013  1.00  0.00     0.298 C 
BRANCH   5   6
HETATM    6  N1  UNL     1       2.172  -0.587  -0.072  1.00  0.00    -0.345 N 
HETATM    7  C5  UNL     1       1.068  -0.885   0.598  1.00  0.00     0.093 A 
HETATM    8  C6  UNL     1      -0.084  -0.107   0.500  1.00  0.00     0.028 A 
HETATM    9  C7  UNL     1      -0.147   1.012  -0.295  1.00  0.00     0.008 A 
HETATM   10  C16 UNL     1       1.039   1.301  -0.996  1.00  0.00     0.028 A 
HETATM   11  C17 UNL     1       2.147   0.497  -0.859  1.00  0.00     0.093 A 
BRANCH   9  12
HETATM   12  C8  UNL     1      -1.325   1.861  -0.388  1.00  0.00     0.313 C 
BRANCH  12  13
HETATM   13  N2  UNL     1      -1.601   2.506   0.920  1.00  0.00    -0.040 N 
ATOM     14  H23 UNL     1      -1.684   1.821   1.671  1.00  0.00     0.277 HD
ATOM     15  H22 UNL     1      -0.791   3.017   1.270  1.00  0.00     0.277 HD
ATOM     16  H21 UNL     1      -2.427   3.101   0.855  1.00  0.00     0.277 HD
ENDBRANCH  12  13
BRANCH  12  17
HETATM   17  N3  UNL     1      -0.953   3.043  -1.202  1.00  0.00    -0.040 N 
ATOM     18  H33 UNL     1      -0.135   3.534  -0.842  1.00  0.00     0.277 HD
ATOM     19  H32 UNL     1      -0.567   2.795  -2.113  1.00  0.00     0.277 HD
ATOM     20  H31 UNL     1      -1.779   3.638  -1.267  1.00  0.00     0.277 HD
ENDBRANCH  12  17
BRANCH  12  21
HETATM   21  C9  UNL     1      -2.568   1.338  -0.985  1.00  0.00     0.113 C 
BRANCH  21  22
HETATM   22  C10 UNL     1      -3.252   0.216  -0.416  1.00  0.00    -0.054 A 
HETATM   23  C11 UNL     1      -4.101   0.410   0.660  1.00  0.00     0.007 A 
HETATM   24  C12 UNL     1      -4.820  -0.621   1.234  1.00  0.00     0.001 A 
HETATM   25  C13 UNL     1      -4.705  -1.901   0.734  1.00  0.00     0.000 A 
HETATM   26  C14 UNL     1      -3.868  -2.115  -0.332  1.00  0.00     0.001 A 
HETATM   27  C15 UNL     1      -3.151  -1.063  -0.898  1.00  0.00     0.007 A 
ENDBRANCH  21  22
ENDBRANCH  12  21
ENDBRANCH   9  12
ENDBRANCH   5   6
ENDBRANCH   4   5
ENDBRANCH   3   4
TORSDOF 8
