REMARK  7 active torsions:
REMARK  status: ('A' for Active; 'I' for Inactive)
REMARK    1  A    between atoms: C1_4  and  C2_6 
REMARK    2  A    between atoms: N3_9  and  C5_10 
REMARK    3  A    between atoms: C5_10  and  C6_11 
REMARK    4  A    between atoms: C6_11  and  C7_12 
REMARK    5  A    between atoms: C7_12  and  N4_13 
REMARK    6  A    between atoms: C10_16  and  C11_17 
REMARK    7  A    between atoms: N5_18  and  O1_20 
ROOT
HETATM    1  C6  UNL     1       0.248   1.693  -0.058  1.00  0.00     0.040 C 
ENDROOT
BRANCH   1   2
HETATM    2  C5  UNL     1      -1.059   2.156  -0.576  1.00  0.00     0.129 C 
BRANCH   2   3
HETATM    3  N3  UNL     1      -2.106   1.218  -0.340  1.00  0.00    -0.366 N 
HETATM    4  C4  UNL     1      -2.400   0.283  -1.258  1.00  0.00     0.091 A 
HETATM    5  C3  UNL     1      -3.393  -0.661  -1.115  1.00  0.00     0.032 A 
HETATM    6  C2  UNL     1      -4.149  -0.670   0.033  1.00  0.00     0.007 A 
HETATM    7  C15 UNL     1      -3.846   0.289   0.972  1.00  0.00     0.032 A 
HETATM    8  C14 UNL     1      -2.850   1.219   0.804  1.00  0.00     0.091 A 
BRANCH   6   9
HETATM    9  C1  UNL     1      -5.226  -1.639   0.269  1.00  0.00     0.120 C 
HETATM   10  N1  UNL     1      -5.541  -2.551  -0.583  1.00  0.00    -0.387 N 
ATOM     11  H12 UNL     1      -6.289  -3.224  -0.419  1.00  0.00     0.157 HD
ATOM     12  H11 UNL     1      -5.001  -2.575  -1.448  1.00  0.00     0.157 HD
HETATM   13  N2  UNL     1      -5.973  -1.606   1.467  1.00  0.00    -0.082 NA
ENDBRANCH   6   9
ENDBRANCH   2   3
ENDBRANCH   1   2
BRANCH   1  14
HETATM   14  C7  UNL     1       0.685   0.405  -0.694  1.00  0.00     0.129 C 
BRANCH  14  15
HETATM   15  N4  UNL     1       1.994   0.065  -0.121  1.00  0.00    -0.366 N 
HETATM   16  C8  UNL     1       2.132  -0.682   0.979  1.00  0.00     0.091 A 
HETATM   17  C9  UNL     1       3.348  -1.005   1.526  1.00  0.00     0.030 A 
HETATM   18  C10 UNL     1       4.515  -0.526   0.900  1.00  0.00    -0.016 A 
HETATM   19  C12 UNL     1       4.331   0.236  -0.227  1.00  0.00     0.030 A 
HETATM   20  C13 UNL     1       3.078   0.539  -0.747  1.00  0.00     0.091 A 
BRANCH  18  21
HETATM   21  C11 UNL     1       5.806  -0.843   1.443  1.00  0.00     0.125 C 
HETATM   22  N5  UNL     1       6.966  -0.538   1.068  1.00  0.00    -0.280 N 
ATOM     23  H5  UNL     1       7.722  -0.903   1.647  1.00  0.00     0.193 HD
BRANCH  22  24
HETATM   24  O1  UNL     1       7.351   0.192   0.025  1.00  0.00    -0.290 OA
ATOM     25  H1  UNL     1       8.228   0.423  -0.258  1.00  0.00     0.244 HD
ENDBRANCH  22  24
ENDBRANCH  18  21
ENDBRANCH  14  15
ENDBRANCH   1  14
TORSDOF 7
