REMARK  7 active torsions:
REMARK  status: ('A' for Active; 'I' for Inactive)
REMARK    1  A    between atoms: C5_6  and  C6_7 
REMARK    2  A    between atoms: C6_7  and  C7_8 
REMARK    3  A    between atoms: C7_8  and  C8_9 
REMARK    4  A    between atoms: C8_9  and  C9_10 
REMARK    5  A    between atoms: C9_10  and  C10_11 
REMARK    6  A    between atoms: C10_11  and  N2_12 
REMARK    7  A    between atoms: C13_16  and  N4_17 
ROOT
HETATM    1  N2  UNL     1      -3.030  -0.219  -0.487  1.00  0.00    -0.287 N 
HETATM    2  C11 UNL     1      -4.215   0.243  -0.067  1.00  0.00     0.126 A 
HETATM    3  N3  UNL     1      -4.272   1.301   0.857  1.00  0.00    -0.082 NA
HETATM    4  C12 UNL     1      -5.384  -0.339  -0.559  1.00  0.00     0.093 A 
HETATM    5  C13 UNL     1      -5.303  -1.375  -1.464  1.00  0.00     0.105 A 
HETATM    6  N5  UNL     1      -4.082  -1.790  -1.843  1.00  0.00    -0.295 N 
ATOM      7  H5  UNL     1      -4.010  -2.556  -2.512  1.00  0.00     0.172 HD
HETATM    8  C14 UNL     1      -2.940  -1.228  -1.369  1.00  0.00     0.329 A 
HETATM    9  O1  UNL     1      -1.801  -1.630  -1.736  1.00  0.00    -0.246 OA
ENDROOT
BRANCH   1  10
HETATM   10  C10 UNL     1      -1.805   0.429   0.061  1.00  0.00     0.135 C 
BRANCH  10  11
HETATM   11  C9  UNL     1      -1.388  -0.287   1.305  1.00  0.00     0.020 C 
BRANCH  11  12
HETATM   12  C8  UNL     1      -0.235   0.187   2.066  1.00  0.00     0.002 C 
BRANCH  12  13
HETATM   13  C7  UNL     1       1.124   0.232   1.530  1.00  0.00     0.005 C 
BRANCH  13  14
HETATM   14  C6  UNL     1       1.462   1.073   0.362  1.00  0.00     0.040 C 
BRANCH  14  15
HETATM   15  C5  UNL     1       2.967   0.889   0.162  1.00  0.00    -0.043 A 
HETATM   16  C4  UNL     1       3.842   1.734   0.801  1.00  0.00     0.010 A 
HETATM   17  C3  UNL     1       5.206   1.539   0.597  1.00  0.00     0.018 A 
HETATM   18  C2  UNL     1       5.657   0.525  -0.225  1.00  0.00     0.090 A 
HETATM   19  N1  UNL     1       4.782  -0.287  -0.837  1.00  0.00    -0.370 N 
HETATM   20  C1  UNL     1       5.269  -1.362  -1.709  1.00  0.00     0.154 C 
HETATM   21  C15 UNL     1       3.466  -0.097  -0.639  1.00  0.00     0.097 A 
ENDBRANCH  14  15
ENDBRANCH  13  14
ENDBRANCH  12  13
ENDBRANCH  11  12
ENDBRANCH  10  11
ENDBRANCH   1  10
BRANCH   5  22
HETATM   22  N4  UNL     1      -6.379  -1.946  -1.946  1.00  0.00    -0.385 N 
ATOM     23  H42 UNL     1      -7.306  -1.631  -1.658  1.00  0.00     0.157 HD
ATOM     24  H41 UNL     1      -6.319  -2.713  -2.616  1.00  0.00     0.157 HD
ENDBRANCH   5  22
TORSDOF 7
