REMARK  7 active torsions:
REMARK  status: ('A' for Active; 'I' for Inactive)
REMARK    1  A    between atoms: C3_11  and  C4_12 
REMARK    2  A    between atoms: C4_12  and  C5_13 
REMARK    3  A    between atoms: C5_13  and  C6_14 
REMARK    4  A    between atoms: C6_14  and  C7_15 
REMARK    5  A    between atoms: C7_15  and  C8_16 
REMARK    6  A    between atoms: C8_16  and  C9_17 
REMARK    7  A    between atoms: N4_22  and  O2_23 
ROOT
HETATM    1  C4  UNL     1      -1.994   0.412  -0.063  1.00  0.00     0.035 C 
ENDROOT
BRANCH   1   2
HETATM    2  C3  UNL     1      -3.253   0.811   0.709  1.00  0.00     0.177 C 
HETATM    3  C1  UNL     1      -3.595  -0.296   1.616  1.00  0.00     0.259 C 
HETATM    4  O1  UNL     1      -3.406  -0.180   2.853  1.00  0.00    -0.269 OA
HETATM    5  N1  UNL     1      -4.139  -1.489   1.073  1.00  0.00    -0.266 N 
HETATM    6  N2  UNL     1      -4.814  -1.420  -0.145  1.00  0.00    -0.274 N 
ATOM      7  H1  UNL     1      -4.038  -2.378   1.563  1.00  0.00     0.190 HD
HETATM    8  C2  UNL     1      -4.927  -0.163  -0.784  1.00  0.00     0.187 C 
ATOM      9  H2  UNL     1      -5.217  -2.257  -0.566  1.00  0.00     0.189 HD
HETATM   10  S1  UNL     1      -5.716  -0.024  -2.225  1.00  0.00    -0.040 SA
HETATM   11  N3  UNL     1      -4.360   1.011  -0.193  1.00  0.00    -0.353 N 
ATOM     12  H3  UNL     1      -4.721   1.942  -0.400  1.00  0.00     0.162 HD
ENDBRANCH   1   2
BRANCH   1  13
HETATM   13  C5  UNL     1      -0.876   0.167   0.928  1.00  0.00     0.002 C 
BRANCH  13  14
HETATM   14  C6  UNL     1       0.406  -0.236   0.225  1.00  0.00     0.000 C 
BRANCH  14  15
HETATM   15  C7  UNL     1       0.882   0.835  -0.734  1.00  0.00     0.006 C 
BRANCH  15  16
HETATM   16  C8  UNL     1       2.140   0.378  -1.397  1.00  0.00     0.059 C 
BRANCH  16  17
HETATM   17  C9  UNL     1       3.263   0.096  -0.492  1.00  0.00     0.039 A 
HETATM   18  C10 UNL     1       3.486  -1.153   0.048  1.00  0.00     0.027 A 
HETATM   19  C11 UNL     1       4.545  -1.413   0.901  1.00  0.00     0.003 A 
HETATM   20  C12 UNL     1       5.423  -0.402   1.237  1.00  0.00     0.020 A 
HETATM   21  C13 UNL     1       5.177   0.840   0.682  1.00  0.00     0.123 A 
HETATM   22  N4  UNL     1       4.142   1.064  -0.142  1.00  0.00    -0.240 N 
BRANCH  22  23
HETATM   23  O2  UNL     1       3.989   2.338  -0.639  1.00  0.00    -0.283 OA
ATOM     24  H2  UNL     1       4.606   3.017  -0.393  1.00  0.00     0.245 HD
ENDBRANCH  22  23
ENDBRANCH  16  17
ENDBRANCH  15  16
ENDBRANCH  14  15
ENDBRANCH  13  14
ENDBRANCH   1  13
TORSDOF 7
