REMARK  12 active torsions:
REMARK  status: ('A' for Active; 'I' for Inactive)
REMARK    1  A    between atoms: C2_2  and  N1_3 
REMARK       I    between atoms: C3_5  and  N3_7 
REMARK    2  A    between atoms: N3_7  and  C4_9 
REMARK    3  A    between atoms: C6_13  and  C7_14 
REMARK    4  A    between atoms: C7_14  and  C8_15 
REMARK    5  A    between atoms: C8_15  and  C9_16 
REMARK    6  A    between atoms: C9_16  and  C10_17 
REMARK    7  A    between atoms: C10_17  and  C11_18 
REMARK    8  A    between atoms: C11_18  and  C12_19 
REMARK    9  A    between atoms: C17_25  and  C18_26 
REMARK   10  A    between atoms: C18_26  and  C19_27 
REMARK   11  A    between atoms: C20_28  and  C21_29 
REMARK   12  A    between atoms: C22_30  and  C23_31 
ROOT
HETATM    1  C12 UNL     1      -1.654  -1.598  -0.904  1.00  0.00    -0.048 A 
HETATM    2  C13 UNL     1      -1.728  -2.604  -1.847  1.00  0.00     0.025 A 
HETATM    3  C14 UNL     1      -2.187  -3.879  -1.553  1.00  0.00     0.090 A 
HETATM    4  N5  UNL     1      -2.584  -4.177  -0.311  1.00  0.00    -0.370 N 
HETATM    5  C15 UNL     1      -3.060  -5.503   0.027  1.00  0.00     0.154 C 
HETATM    6  C16 UNL     1      -2.520  -3.211   0.615  1.00  0.00     0.098 A 
HETATM    7  C17 UNL     1      -2.070  -1.926   0.366  1.00  0.00    -0.025 A 
ENDROOT
BRANCH   1   8
HETATM    8  C11 UNL     1      -1.163  -0.242  -1.157  1.00  0.00     0.039 C 
BRANCH   8   9
HETATM    9  C10 UNL     1      -0.337  -0.034  -2.370  1.00  0.00     0.005 C 
BRANCH   9  10
HETATM   10  C9  UNL     1       0.909  -0.824  -2.367  1.00  0.00     0.001 C 
BRANCH  10  11
HETATM   11  C8  UNL     1       1.866  -0.498  -1.208  1.00  0.00     0.005 C 
BRANCH  11  12
HETATM   12  C7  UNL     1       3.043  -1.427  -1.423  1.00  0.00     0.048 C 
BRANCH  12  13
HETATM   13  C6  UNL     1       4.059  -1.203  -0.357  1.00  0.00     0.001 A 
HETATM   14  C5  UNL     1       4.177  -1.783   0.871  1.00  0.00     0.104 A 
HETATM   15  N4  UNL     1       5.175  -1.437   1.635  1.00  0.00    -0.345 N 
HETATM   16  C4  UNL     1       6.036  -0.525   1.172  1.00  0.00     0.151 A 
ATOM     17  H4  UNL     1       5.296  -1.850   2.560  1.00  0.00     0.167 HD
HETATM   18  S1  UNL     1       5.415  -0.156  -0.373  1.00  0.00    -0.057 SA
BRANCH  16  19
HETATM   19  N3  UNL     1       7.095  -0.048   1.792  1.00  0.00    -0.311 N 
HETATM   20  C3  UNL     1       7.853   0.916   1.079  1.00  0.00     0.190 C 
HETATM   21  N1  UNL     1       7.285   2.026   0.765  1.00  0.00    -0.365 N 
HETATM   22  N2  UNL     1       9.220   0.640   0.724  1.00  0.00    -0.063 NA
ATOM     23  H1  UNL     1       6.314   2.151   1.052  1.00  0.00     0.162 HD
ATOM     24  H3  UNL     1       7.355  -0.354   2.730  1.00  0.00     0.170 HD
BRANCH  21  25
HETATM   25  C2  UNL     1       7.896   3.096   0.051  1.00  0.00     0.118 C 
HETATM   26  C1  UNL     1       8.998   3.691   0.880  1.00  0.00     0.026 C 
ENDBRANCH  21  25
ENDBRANCH  16  19
ENDBRANCH  12  13
ENDBRANCH  11  12
ENDBRANCH  10  11
ENDBRANCH   9  10
ENDBRANCH   8   9
ENDBRANCH   1   8
BRANCH   7  27
HETATM   27  C18 UNL     1      -2.108  -0.964   1.497  1.00  0.00     0.135 C 
BRANCH  27  28
HETATM   28  C19 UNL     1      -3.325  -0.120   1.333  1.00  0.00    -0.088 C 
HETATM   29  C20 UNL     1      -4.327   0.538   1.205  1.00  0.00    -0.014 C 
BRANCH  29  30
HETATM   30  C21 UNL     1      -5.529   1.288   1.055  1.00  0.00    -0.008 C 
HETATM   31  C22 UNL     1      -6.570   1.916   0.911  1.00  0.00    -0.034 C 
BRANCH  31  32
HETATM   32  C23 UNL     1      -7.793   2.646   0.725  1.00  0.00     0.097 A 
HETATM   33  C24 UNL     1      -7.788   3.950   0.250  1.00  0.00     0.113 A 
HETATM   34  C25 UNL     1      -8.971   4.634   0.076  1.00  0.00     0.252 A 
HETATM   35  O1  UNL     1      -8.903   5.799  -0.353  1.00  0.00    -0.268 OA
HETATM   36  N6  UNL     1     -10.116   3.987   0.385  1.00  0.00    -0.275 N 
HETATM   37  C26 UNL     1     -10.140   2.725   0.847  1.00  0.00     0.328 A 
ATOM     38  H6  UNL     1     -11.002   4.478   0.262  1.00  0.00     0.173 HD
HETATM   39  O2  UNL     1     -11.251   2.179   1.118  1.00  0.00    -0.247 OA
HETATM   40  N7  UNL     1      -8.966   2.060   1.014  1.00  0.00    -0.301 N 
ATOM     41  H7  UNL     1      -8.976   1.102   1.364  1.00  0.00     0.171 HD
ENDBRANCH  31  32
ENDBRANCH  29  30
ENDBRANCH  27  28
ENDBRANCH   7  27
TORSDOF 12
