REMARK  10 active torsions:
REMARK  status: ('A' for Active; 'I' for Inactive)
REMARK    1  A    between atoms: C2_2  and  C3_3 
REMARK    2  A    between atoms: C3_3  and  C4_4 
REMARK    3  A    between atoms: C4_4  and  C5_5 
REMARK    4  A    between atoms: N1_9  and  C9_10 
REMARK    5  A    between atoms: C9_10  and  C10_11 
REMARK    6  A    between atoms: C10_11  and  C11_12 
REMARK    7  A    between atoms: C11_12  and  O1_13 
REMARK    8  A    between atoms: O1_13  and  C12_14 
REMARK    9  A    between atoms: C15_17  and  C16_18 
REMARK   10  A    between atoms: C16_18  and  C17_19 
ROOT
HETATM    1  C12 UNL     1       2.483  -3.580   0.402  1.00  0.00     0.142 A 
HETATM    2  C13 UNL     1       1.947  -3.555   1.670  1.00  0.00     0.058 A 
HETATM    3  C14 UNL     1       2.821  -2.818   2.443  1.00  0.00     0.034 A 
HETATM    4  C15 UNL     1       3.881  -2.392   1.676  1.00  0.00     0.035 A 
HETATM    5  N5  UNL     1       3.646  -2.867   0.454  1.00  0.00    -0.337 N 
ATOM      6  H5  UNL     1       4.261  -2.716  -0.346  1.00  0.00     0.168 HD
ENDROOT
BRANCH   1   7
HETATM    7  O1  UNL     1       2.000  -4.182  -0.744  1.00  0.00    -0.336 OA
BRANCH   7   8
HETATM    8  C11 UNL     1       0.831  -4.909  -0.904  1.00  0.00     0.179 C 
BRANCH   8   9
HETATM    9  C10 UNL     1      -0.447  -4.177  -0.668  1.00  0.00     0.048 C 
BRANCH   9  10
HETATM   10  C9  UNL     1      -0.620  -2.995  -1.602  1.00  0.00     0.150 C 
BRANCH  10  11
HETATM   11  N1  UNL     1      -1.863  -2.307  -1.349  1.00  0.00    -0.302 N 
HETATM   12  C8  UNL     1      -1.978  -1.288  -0.473  1.00  0.00     0.124 A 
HETATM   13  C7  UNL     1      -3.299  -0.861  -0.475  1.00  0.00     0.012 A 
HETATM   14  C6  UNL     1      -3.995   0.133   0.211  1.00  0.00     0.040 A 
HETATM   15  C25 UNL     1      -3.968  -1.655  -1.378  1.00  0.00     0.075 A 
HETATM   16  C5  UNL     1      -5.350   0.358   0.019  1.00  0.00     0.011 A 
HETATM   17  N7  UNL     1      -5.972  -0.436  -0.870  1.00  0.00    -0.362 N 
HETATM   18  C26 UNL     1      -5.311  -1.417  -1.554  1.00  0.00     0.122 A 
HETATM   19  C27 UNL     1      -7.384  -0.249  -1.103  1.00  0.00     0.155 C 
HETATM   20  N6  UNL     1      -3.058  -2.512  -1.879  1.00  0.00    -0.297 N 
ATOM     21  H6  UNL     1      -3.263  -3.227  -2.577  1.00  0.00     0.187 HD
BRANCH  16  22
HETATM   22  C4  UNL     1      -6.076   1.408   0.738  1.00  0.00     0.057 C 
BRANCH  22  23
HETATM   23  C3  UNL     1      -6.138   2.733   0.062  1.00  0.00     0.006 C 
BRANCH  23  24
HETATM   24  C2  UNL     1      -4.841   3.410  -0.201  1.00  0.00    -0.004 C 
HETATM   25  C1  UNL     1      -4.083   3.710   1.074  1.00  0.00     0.005 C 
ENDBRANCH  23  24
ENDBRANCH  22  23
ENDBRANCH  16  22
ENDBRANCH  10  11
ENDBRANCH   9  10
ENDBRANCH   8   9
ENDBRANCH   7   8
ENDBRANCH   1   7
BRANCH   4  26
HETATM   26  C16 UNL     1       5.015  -1.590   2.122  1.00  0.00     0.048 C 
BRANCH  26  27
HETATM   27  C17 UNL     1       5.325  -0.419   1.612  1.00  0.00     0.050 A 
HETATM   28  C18 UNL     1       4.625   0.201   0.598  1.00  0.00     0.106 A 
HETATM   29  N2  UNL     1       5.031   1.403   0.149  1.00  0.00    -0.350 N 
HETATM   30  C19 UNL     1       6.110   2.058   0.643  1.00  0.00     0.123 A 
ATOM     31  H2  UNL     1       4.499   1.844  -0.602  1.00  0.00     0.166 HD
HETATM   32  C20 UNL     1       6.405   3.228   0.120  1.00  0.00     0.077 A 
HETATM   33  N4  UNL     1       6.798   1.491   1.612  1.00  0.00    -0.308 N 
HETATM   34  C21 UNL     1       5.657   3.900  -0.972  1.00  0.00     0.038 A 
HETATM   35  C23 UNL     1       7.476   4.157   0.427  1.00  0.00     0.259 A 
HETATM   36  C22 UNL     1       6.204   5.052  -1.266  1.00  0.00     0.092 A 
HETATM   37  N3  UNL     1       7.333   5.295  -0.453  1.00  0.00    -0.333 N 
ATOM     38  H3  UNL     1       7.934   6.118  -0.481  1.00  0.00     0.168 HD
HETATM   39  O2  UNL     1       8.382   4.043   1.284  1.00  0.00    -0.267 OA
HETATM   40  C24 UNL     1       6.416   0.267   2.096  1.00  0.00     0.258 A 
ATOM     41  H4  UNL     1       7.614   1.962   2.002  1.00  0.00     0.170 HD
HETATM   42  O3  UNL     1       7.109  -0.237   3.029  1.00  0.00    -0.267 OA
ENDBRANCH  26  27
ENDBRANCH   4  26
TORSDOF 10
