REMARK  13 active torsions:
REMARK  status: ('A' for Active; 'I' for Inactive)
REMARK    1  A    between atoms: C2_2  and  C3_3 
REMARK    2  A    between atoms: C3_3  and  O1_4 
REMARK    3  A    between atoms: O1_4  and  C4_5 
REMARK    4  A    between atoms: C4_5  and  C5_6 
REMARK    5  A    between atoms: C9_10  and  C10_11 
REMARK    6  A    between atoms: C10_11  and  C11_12 
REMARK    7  A    between atoms: C11_12  and  N1_13 
REMARK    8  A    between atoms: C17_21  and  N3_22 
REMARK    9  A    between atoms: N3_22  and  C18_24 
REMARK   10  A    between atoms: C18_24  and  C19_25 
REMARK   11  A    between atoms: C19_25  and  C20_26 
REMARK   12  A    between atoms: C22_30  and  N5_31 
REMARK   13  A    between atoms: N6_34  and  O2_35 
REMARK       I    between atoms: N7_38  and  C25_40 
ROOT
HETATM    1  N3  UNL     1      -0.983   0.934   0.861  1.00  0.00    -0.331 N 
ATOM      2  H3  UNL     1      -0.432   0.336   1.477  1.00  0.00     0.168 HD
ENDROOT
BRANCH   1   3
HETATM    3  C17 UNL     1      -0.206   1.642   0.242  1.00  0.00     0.117 A 
HETATM    4  N1  UNL     1       1.134   1.442   0.540  1.00  0.00    -0.328 N 
HETATM    5  C12 UNL     1       2.033   2.196  -0.093  1.00  0.00     0.184 A 
HETATM    6  N2  UNL     1       1.681   3.122  -0.989  1.00  0.00    -0.355 N 
HETATM    7  C13 UNL     1       0.401   3.354  -1.313  1.00  0.00     0.015 A 
ATOM      8  H2  UNL     1       2.411   3.671  -1.442  1.00  0.00     0.166 HD
HETATM    9  C14 UNL     1      -0.010   4.382  -2.294  1.00  0.00     0.069 C 
HETATM   10  C15 UNL     1      -0.588   2.587  -0.678  1.00  0.00     0.004 A 
HETATM   11  C16 UNL     1      -2.003   2.836  -1.074  1.00  0.00     0.054 C 
BRANCH   4  12
HETATM   12  C11 UNL     1       1.494   0.436   1.521  1.00  0.00     0.136 C 
BRANCH  12  13
HETATM   13  C10 UNL     1       1.684  -0.934   0.917  1.00  0.00     0.058 C 
BRANCH  13  14
HETATM   14  C9  UNL     1       2.732  -1.023  -0.100  1.00  0.00    -0.056 A 
HETATM   15  C8  UNL     1       2.442  -0.772  -1.429  1.00  0.00     0.007 A 
HETATM   16  C7  UNL     1       3.390  -0.863  -2.406  1.00  0.00     0.001 A 
HETATM   17  C6  UNL     1       4.674  -1.207  -2.098  1.00  0.00     0.009 A 
HETATM   18  C5  UNL     1       4.988  -1.461  -0.780  1.00  0.00    -0.034 A 
HETATM   19  C26 UNL     1       4.036  -1.372   0.213  1.00  0.00     0.016 A 
BRANCH  18  20
HETATM   20  C4  UNL     1       6.393  -1.848  -0.409  1.00  0.00     0.206 C 
BRANCH  20  21
HETATM   21  O1  UNL     1       6.344  -2.448   0.824  1.00  0.00    -0.383 OA
BRANCH  21  22
HETATM   22  C3  UNL     1       7.587  -2.865   1.292  1.00  0.00     0.194 C 
BRANCH  22  23
HETATM   23  C2  UNL     1       8.562  -1.776   1.445  1.00  0.00    -0.011 C 
HETATM   24  C1  UNL     1       9.699  -1.801   0.765  1.00  0.00     0.009 C 
ENDBRANCH  22  23
ENDBRANCH  21  22
ENDBRANCH  20  21
ENDBRANCH  18  20
ENDBRANCH  13  14
ENDBRANCH  12  13
ENDBRANCH   4  12
ENDBRANCH   1   3
BRANCH   1  25
HETATM   25  C18 UNL     1      -2.330   0.619   1.059  1.00  0.00     0.089 C 
HETATM   26  N7  UNL     1      -3.061   1.419   1.646  1.00  0.00    -0.320 N 
HETATM   27  C25 UNL     1      -4.329   1.643   2.095  1.00  0.00     0.187 C 
ATOM     28  H7  UNL     1      -2.496   2.232   1.893  1.00  0.00     0.169 HD
HETATM   29  N8  UNL     1      -5.286   2.216   1.444  1.00  0.00    -0.373 N 
HETATM   30  N9  UNL     1      -4.673   1.235   3.431  1.00  0.00    -0.064 NA
ATOM     31  H82 UNL     1      -5.042   2.505   0.497  1.00  0.00     0.158 HD
ATOM     32  H81 UNL     1      -6.234   2.384   1.780  1.00  0.00     0.158 HD
BRANCH  25  33
HETATM   33  C19 UNL     1      -2.753  -0.701   0.551  1.00  0.00     0.118 C 
BRANCH  33  34
HETATM   34  C20 UNL     1      -4.145  -0.889   0.153  1.00  0.00    -0.017 A 
HETATM   35  C21 UNL     1      -5.066  -1.509   0.981  1.00  0.00     0.115 A 
HETATM   36  N4  UNL     1      -6.310  -1.679   0.554  1.00  0.00    -0.199 N 
HETATM   37  C22 UNL     1      -6.766  -1.290  -0.647  1.00  0.00     0.703 A 
ATOM     38  H4  UNL     1      -6.968  -2.139   1.184  1.00  0.00     0.183 HD
HETATM   39  N6  UNL     1      -5.856  -0.677  -1.466  1.00  0.00    -0.064 N 
HETATM   40  C24 UNL     1      -4.595  -0.474  -1.106  1.00  0.00     0.151 A 
BRANCH  37  41
HETATM   41  N5  UNL     1      -7.938  -1.449  -1.088  1.00  0.00    -0.228 N 
HETATM   42  C23 UNL     1      -9.079  -2.047  -0.498  1.00  0.00     0.165 C 
ATOM     43  H5  UNL     1      -8.089  -1.085  -2.029  1.00  0.00     0.177 HD
ENDBRANCH  37  41
BRANCH  39  44
HETATM   44  O2  UNL     1      -6.313  -0.265  -2.727  1.00  0.00    -0.270 OA
ATOM     45  H2  UNL     1      -5.682   0.160  -3.295  1.00  0.00     0.245 HD
ENDBRANCH  39  44
ENDBRANCH  33  34
ENDBRANCH  25  33
ENDBRANCH   1  25
TORSDOF 13
