REMARK  8 active torsions:
REMARK  status: ('A' for Active; 'I' for Inactive)
REMARK    1  A    between atoms: C3_4  and  C4_5 
REMARK    2  A    between atoms: C5_12  and  C6_13 
REMARK    3  A    between atoms: N5_15  and  C8_16 
REMARK    4  A    between atoms: C8_16  and  O1_17 
REMARK    5  A    between atoms: O1_17  and  C9_18 
REMARK    6  A    between atoms: C9_18  and  O2_19 
REMARK    7  A    between atoms: C9_18  and  C10_21 
REMARK    8  A    between atoms: C10_21  and  N6_22 
ROOT
HETATM    1  C8  UNL     1       0.439   0.632   0.255  1.00  0.00     0.320 C 
ENDROOT
BRANCH   1   2
HETATM    2  N5  UNL     1       1.777   0.122  -0.074  1.00  0.00    -0.263 N 
HETATM    3  C7  UNL     1       2.397  -0.947   0.428  1.00  0.00     0.147 A 
HETATM    4  C6  UNL     1       3.639  -1.075  -0.147  1.00  0.00     0.097 A 
HETATM    5  N12 UNL     1       3.731  -0.043  -1.007  1.00  0.00    -0.282 N 
HETATM    6  N11 UNL     1       2.622   0.656  -0.952  1.00  0.00    -0.238 N 
ATOM      7  H12 UNL     1       4.532   0.162  -1.604  1.00  0.00     0.188 HD
ATOM      8  H11 UNL     1       2.434   1.492  -1.505  1.00  0.00     0.208 HD
BRANCH   4   9
HETATM    9  C5  UNL     1       4.628  -2.107   0.127  1.00  0.00     0.108 A 
HETATM   10  C4  UNL     1       5.886  -1.898   0.635  1.00  0.00     0.093 A 
HETATM   11  N2  UNL     1       6.484  -3.112   0.740  1.00  0.00    -0.283 N 
HETATM   12  N3  UNL     1       5.643  -4.035   0.320  1.00  0.00    -0.242 N 
ATOM     13  H2  UNL     1       7.428  -3.282   1.087  1.00  0.00     0.188 HD
HETATM   14  N4  UNL     1       4.513  -3.432  -0.055  1.00  0.00    -0.282 N 
ATOM     15  H3  UNL     1       5.824  -5.038   0.287  1.00  0.00     0.208 HD
ATOM     16  H4  UNL     1       3.688  -3.906  -0.424  1.00  0.00     0.188 HD
BRANCH  10  17
HETATM   17  C3  UNL     1       6.533  -0.660   1.011  1.00  0.00     0.028 A 
HETATM   18  C2  UNL     1       6.881   0.421   0.229  1.00  0.00     0.124 A 
HETATM   19  N1  UNL     1       7.466   1.363   1.005  1.00  0.00    -0.307 N 
HETATM   20  C1  UNL     1       7.953   2.637   0.489  1.00  0.00     0.177 C 
HETATM   21  N13 UNL     1       7.486   0.891   2.235  1.00  0.00    -0.310 N 
HETATM   22  C17 UNL     1       6.936  -0.325   2.296  1.00  0.00     0.122 A 
ATOM     23  H13 UNL     1       7.872   1.390   3.037  1.00  0.00     0.186 HD
ENDBRANCH  10  17
ENDBRANCH   4   9
ENDBRANCH   1   2
BRANCH   1  24
HETATM   24  O1  UNL     1      -0.445   0.020  -0.612  1.00  0.00    -0.339 OA
BRANCH  24  25
HETATM   25  C9  UNL     1      -1.760   0.402  -0.423  1.00  0.00     0.277 C 
BRANCH  25  26
HETATM   26  O2  UNL     1      -2.303   1.056  -1.506  1.00  0.00    -0.369 OA
ATOM     27  H2  UNL     1      -3.207   1.319  -1.376  1.00  0.00     0.212 HD
ENDBRANCH  25  26
BRANCH  25  28
HETATM   28  C10 UNL     1      -2.654  -0.731  -0.009  1.00  0.00     0.196 C 
BRANCH  28  29
HETATM   29  N6  UNL     1      -4.000  -0.218   0.159  1.00  0.00    -0.278 N 
HETATM   30  C11 UNL     1      -4.500   0.279   1.314  1.00  0.00     0.331 A 
HETATM   31  O3  UNL     1      -3.839   0.350   2.382  1.00  0.00    -0.246 OA
HETATM   32  N7  UNL     1      -5.777   0.668   1.129  1.00  0.00    -0.296 N 
HETATM   33  C12 UNL     1      -6.617   1.240   2.131  1.00  0.00     0.161 C 
HETATM   34  C13 UNL     1      -6.085   0.420  -0.137  1.00  0.00     0.152 A 
HETATM   35  C14 UNL     1      -7.224   0.600  -0.895  1.00  0.00     0.290 A 
HETATM   36  C16 UNL     1      -4.989  -0.136  -0.768  1.00  0.00     0.160 A 
HETATM   37  O4  UNL     1      -8.240   1.099  -0.369  1.00  0.00    -0.265 OA
HETATM   38  N8  UNL     1      -7.253   0.250  -2.179  1.00  0.00    -0.154 N 
HETATM   39  C15 UNL     1      -6.180  -0.290  -2.781  1.00  0.00     0.680 A 
ATOM     40  H8  UNL     1      -8.107   0.395  -2.717  1.00  0.00     0.187 HD
HETATM   41  N9  UNL     1      -6.206  -0.626  -4.011  1.00  0.00    -0.234 N 
HETATM   42  N10 UNL     1      -5.039  -0.485  -2.072  1.00  0.00    -0.174 N 
ATOM     43  H92 UNL     1      -7.063  -0.479  -4.544  1.00  0.00     0.174 HD
ATOM     44  H91 UNL     1      -5.391  -1.036  -4.468  1.00  0.00     0.174 HD
ATOM     45  H10 UNL     1      -4.221  -0.894  -2.523  1.00  0.00     0.186 HD
ENDBRANCH  28  29
ENDBRANCH  25  28
ENDBRANCH  24  25
ENDBRANCH   1  24
TORSDOF 8
