REMARK  8 active torsions:
REMARK  status: ('A' for Active; 'I' for Inactive)
REMARK    1  A    between atoms: C2_3  and  N2_4 
REMARK    2  A    between atoms: C3_7  and  C4_8 
REMARK    3  A    between atoms: C4_8  and  O3_9 
REMARK    4  A    between atoms: C4_8  and  N3_11 
REMARK    5  A    between atoms: N3_11  and  C5_12 
REMARK    6  A    between atoms: C5_12  and  C6_13 
REMARK    7  A    between atoms: C6_13  and  N4_14 
REMARK    8  A    between atoms: N6_22  and  C11_23 
ROOT
HETATM    1  N1  UNL     1       2.861  -2.119  -1.183  1.00  0.00    -0.077 NA
HETATM    2  C1  UNL     1       1.967  -0.986  -1.153  1.00  0.00     0.191 A 
HETATM    3  C2  UNL     1       0.705  -0.943  -1.662  1.00  0.00     0.179 A 
HETATM    4  C3  UNL     1       0.244   0.377  -1.402  1.00  0.00     0.150 A 
HETATM    5  N5  UNL     1       1.199   1.004  -0.783  1.00  0.00    -0.271 N 
ATOM      6  H5  UNL     1       1.132   1.973  -0.472  1.00  0.00     0.188 HD
HETATM    7  N6  UNL     1       2.264   0.249  -0.601  1.00  0.00    -0.066 N 
ENDROOT
BRANCH   7   8
HETATM    8  C11 UNL     1       3.553   0.433  -0.029  1.00  0.00     0.734 C 
HETATM    9  N7  UNL     1       3.764  -0.148   1.098  1.00  0.00    -0.127 N 
HETATM   10  N8  UNL     1       4.915  -0.179   1.918  1.00  0.00    -0.269 N 
ATOM     11  H7  UNL     1       2.969  -0.674   1.461  1.00  0.00     0.206 HD
HETATM   12  C12 UNL     1       6.097   0.306   1.656  1.00  0.00     0.157 A 
ATOM     13  H8  UNL     1       4.808  -0.636   2.824  1.00  0.00     0.189 HD
HETATM   14  N9  UNL     1       6.925   0.054   2.693  1.00  0.00    -0.316 N 
HETATM   15  C15 UNL     1       6.554   0.939   0.540  1.00  0.00     0.162 A 
HETATM   16  C13 UNL     1       8.242   0.451   2.598  1.00  0.00     0.180 A 
ATOM     17  H9  UNL     1       6.583  -0.420   3.529  1.00  0.00     0.170 HD
HETATM   18  S1  UNL     1       9.187   0.098   3.896  1.00  0.00    -0.040 SA
HETATM   19  N10 UNL     1       8.706   1.067   1.516  1.00  0.00    -0.298 N 
HETATM   20  C14 UNL     1       7.884   1.312   0.494  1.00  0.00     0.279 A 
ATOM     21  H10 UNL     1       9.684   1.351   1.467  1.00  0.00     0.171 HD
HETATM   22  O5  UNL     1       8.358   1.898  -0.513  1.00  0.00    -0.265 OA
HETATM   23  N11 UNL     1       5.918   1.344  -0.506  1.00  0.00    -0.278 N 
HETATM   24  N12 UNL     1       4.511   1.215  -0.741  1.00  0.00    -0.128 N 
ATOM     25  H11 UNL     1       6.468   1.799  -1.234  1.00  0.00     0.188 HD
ATOM     26  H12 UNL     1       4.144   1.756  -1.524  1.00  0.00     0.205 HD
ENDBRANCH   7   8
BRANCH   3  27
HETATM   27  N2  UNL     1      -0.006  -1.988  -2.294  1.00  0.00    -0.110 N 
HETATM   28  O1  UNL     1       0.283  -2.274  -3.457  1.00  0.00    -0.532 OA
HETATM   29  O2  UNL     1      -1.003  -2.659  -1.657  1.00  0.00    -0.532 OA
ENDBRANCH   3  27
BRANCH   4  30
HETATM   30  C4  UNL     1      -1.114   0.716  -1.955  1.00  0.00     0.240 C 
BRANCH  30  31
HETATM   31  O3  UNL     1      -1.105   0.646  -3.271  1.00  0.00    -0.334 OA
ATOM     32  H3  UNL     1      -1.962   0.860  -3.620  1.00  0.00     0.220 HD
ENDBRANCH  30  31
BRANCH  30  33
HETATM   33  N3  UNL     1      -2.213   1.035  -1.267  1.00  0.00    -0.421 NA
BRANCH  33  34
HETATM   34  C5  UNL     1      -3.376   1.373  -0.541  1.00  0.00     0.251 C 
BRANCH  34  35
HETATM   35  C6  UNL     1      -4.463   0.286  -0.837  1.00  0.00     0.305 C 
BRANCH  35  36
HETATM   36  N4  UNL     1      -5.672   0.509  -0.094  1.00  0.00     0.095 N 
HETATM   37  C7  UNL     1      -5.417   0.284   1.308  1.00  0.00     0.298 C 
HETATM   38  C8  UNL     1      -6.556  -0.166   2.134  1.00  0.00     0.198 C 
HETATM   39  O4  UNL     1      -7.497  -0.928   1.458  1.00  0.00    -0.388 OA
HETATM   40  C9  UNL     1      -6.898  -1.509   0.345  1.00  0.00     0.198 C 
HETATM   41  C10 UNL     1      -6.658  -0.405  -0.642  1.00  0.00     0.298 C 
ENDBRANCH  35  36
ENDBRANCH  34  35
ENDBRANCH  33  34
ENDBRANCH  30  33
ENDBRANCH   4  30
TORSDOF 8
