REMARK  8 active torsions:
REMARK  status: ('A' for Active; 'I' for Inactive)
REMARK    1  A    between atoms: C4_4  and  N1_5 
REMARK    2  A    between atoms: N1_5  and  C5_7 
REMARK    3  A    between atoms: C6_10  and  N3_11 
REMARK    4  A    between atoms: C7_14  and  C8_15 
REMARK    5  A    between atoms: C8_15  and  C9_17 
REMARK    6  A    between atoms: C9_17  and  O2_18 
REMARK    7  A    between atoms: N5_22  and  C10_23 
REMARK    8  A    between atoms: C11_26  and  N7_27 
ROOT
HETATM    1  C5  UNL     1      -2.183   0.349  -0.711  1.00  0.00     0.720 A 
HETATM    2  N2  UNL     1      -3.434   0.773  -0.618  1.00  0.00    -0.172 N 
ATOM      3  H2  UNL     1      -4.169   0.069  -0.546  1.00  0.00     0.186 HD
HETATM    4  C6  UNL     1      -3.813   2.093  -0.611  1.00  0.00     0.147 A 
HETATM    5  C7  UNL     1      -2.801   3.015  -0.709  1.00  0.00     0.142 A 
HETATM    6  N4  UNL     1      -1.522   2.533  -0.804  1.00  0.00    -0.258 N 
ATOM      7  H4  UNL     1      -0.772   3.221  -0.877  1.00  0.00     0.189 HD
HETATM    8  N5  UNL     1      -1.177   1.287  -0.810  1.00  0.00     0.091 N 
ENDROOT
BRANCH   8   9
HETATM    9  C10 UNL     1       0.164   0.823  -0.910  1.00  0.00     0.737 A 
HETATM   10  N6  UNL     1       0.986   0.764   0.154  1.00  0.00    -0.019 N 
HETATM   11  C11 UNL     1       2.261   0.317   0.029  1.00  0.00     0.699 A 
ATOM     12  H6  UNL     1       0.645   1.060   1.069  1.00  0.00     0.203 HD
HETATM   13  N9  UNL     1       2.748  -0.082  -1.164  1.00  0.00    -0.140 N 
HETATM   14  C17 UNL     1       1.934  -0.025  -2.227  1.00  0.00     0.352 A 
ATOM     15  H9  UNL     1       3.707  -0.417  -1.254  1.00  0.00     0.189 HD
HETATM   16  O3  UNL     1       2.390  -0.401  -3.349  1.00  0.00    -0.246 OA
HETATM   17  N10 UNL     1       0.667   0.421  -2.092  1.00  0.00    -0.138 N 
ATOM     18  H10 UNL     1       0.068   0.455  -2.917  1.00  0.00     0.189 HD
BRANCH  11  19
HETATM   19  N7  UNL     1       3.151   0.247   1.148  1.00  0.00    -0.214 N 
HETATM   20  C12 UNL     1       4.007   1.361   1.516  1.00  0.00     0.171 C 
HETATM   21  C13 UNL     1       5.307   0.775   2.026  1.00  0.00     0.292 C 
HETATM   22  N8  UNL     1       5.507  -0.504   1.402  1.00  0.00     0.087 N 
HETATM   23  C14 UNL     1       6.888  -0.921   1.403  1.00  0.00     0.310 C 
HETATM   24  C15 UNL     1       4.648  -1.459   2.084  1.00  0.00     0.292 C 
HETATM   25  C16 UNL     1       3.222  -0.966   1.963  1.00  0.00     0.171 C 
ENDBRANCH  11  19
ENDBRANCH   8   9
BRANCH   1  26
HETATM   26  N1  UNL     1      -1.805  -1.020  -0.718  1.00  0.00    -0.189 N 
ATOM     27  H1  UNL     1      -0.814  -1.259  -0.757  1.00  0.00     0.184 HD
BRANCH  26  28
HETATM   28  C4  UNL     1      -2.751  -2.054  -0.673  1.00  0.00     0.056 A 
HETATM   29  C3  UNL     1      -4.047  -2.036  -1.100  1.00  0.00     0.054 A 
HETATM   30  C2  UNL     1      -4.890  -3.146  -0.958  1.00  0.00     0.010 A 
HETATM   31  C1  UNL     1      -6.296  -3.106  -1.428  1.00  0.00     0.068 C 
HETATM   32  N11 UNL     1      -4.447  -4.276  -0.392  1.00  0.00    -0.328 N 
HETATM   33  C19 UNL     1      -3.179  -4.294   0.025  1.00  0.00     0.247 A 
ATOM     34  H11 UNL     1      -5.053  -5.089  -0.284  1.00  0.00     0.169 HD
HETATM   35  C18 UNL     1      -2.311  -3.250  -0.084  1.00  0.00     0.104 A 
HETATM   36  O4  UNL     1      -2.770  -5.370   0.559  1.00  0.00    -0.268 OA
ENDBRANCH  26  28
ENDBRANCH   1  26
BRANCH   5  37
HETATM   37  C8  UNL     1      -3.023   4.455  -0.717  1.00  0.00     0.204 C 
HETATM   38  O1  UNL     1      -4.182   4.904  -0.631  1.00  0.00    -0.288 OA
BRANCH  37  39
HETATM   39  C9  UNL     1      -1.885   5.419  -0.827  1.00  0.00     0.249 C 
BRANCH  39  40
HETATM   40  O2  UNL     1      -0.650   4.809  -0.918  1.00  0.00    -0.393 OA
ATOM     41  H2  UNL     1       0.073   5.421  -0.988  1.00  0.00     0.209 HD
ENDBRANCH  39  40
ENDBRANCH  37  39
ENDBRANCH   5  37
BRANCH   4  42
HETATM   42  N3  UNL     1      -5.042   2.383  -0.516  1.00  0.00    -0.383 N 
ATOM     43  H32 UNL     1      -5.794   1.698  -0.443  1.00  0.00     0.157 HD
ATOM     44  H31 UNL     1      -5.323   3.363  -0.511  1.00  0.00     0.157 HD
ENDBRANCH   4  42
TORSDOF 8
