REMARK  10 active torsions:
REMARK  status: ('A' for Active; 'I' for Inactive)
REMARK    1  A    between atoms: C2_2  and  O1_3 
REMARK    2  A    between atoms: O1_3  and  C3_4 
REMARK    3  A    between atoms: C3_4  and  C4_6 
REMARK    4  A    between atoms: C6_8  and  C7_9 
REMARK    5  A    between atoms: C7_9  and  C8_11 
REMARK    6  A    between atoms: C9_12  and  C10_13 
REMARK    7  A    between atoms: C12_15  and  O4_16 
REMARK    8  A    between atoms: C13_18  and  O5_19 
REMARK    9  A    between atoms: C14_21  and  O6_22 
REMARK   10  A    between atoms: C15_24  and  O7_25 
ROOT
HETATM    1  C4  UNL     1       3.131   0.366  -0.725  1.00  0.00     0.182 C 
HETATM    2  C5  UNL     1       2.099   0.809   0.322  1.00  0.00     0.060 C 
HETATM    3  C6  UNL     1       0.793   0.024  -0.007  1.00  0.00     0.187 C 
HETATM    4  N1  UNL     1       1.009  -1.344   0.356  1.00  0.00    -0.227 N 
HETATM    5  C16 UNL     1       0.280  -2.076   1.148  1.00  0.00     0.331 A 
HETATM    6  O8  UNL     1      -0.720  -1.647   1.728  1.00  0.00    -0.260 OA
HETATM    7  C17 UNL     1       0.581  -3.433   1.412  1.00  0.00     0.319 A 
HETATM    8  O9  UNL     1      -0.152  -4.097   2.181  1.00  0.00    -0.262 OA
HETATM    9  N2  UNL     1       1.659  -3.942   0.809  1.00  0.00    -0.269 N 
ATOM     10  H2  UNL     1       1.915  -4.916   0.968  1.00  0.00     0.174 HD
HETATM   11  C18 UNL     1       2.406  -3.181  -0.003  1.00  0.00     0.351 A 
HETATM   12  O10 UNL     1       3.421  -3.688  -0.561  1.00  0.00    -0.244 OA
HETATM   13  N3  UNL     1       2.086  -1.903  -0.224  1.00  0.00    -0.165 N 
HETATM   14  C19 UNL     1       2.914  -1.069  -1.045  1.00  0.00     0.261 C 
HETATM   15  O11 UNL     1       3.450  -1.590  -2.041  1.00  0.00    -0.270 OA
ENDROOT
BRANCH   3  16
HETATM   16  C7  UNL     1      -0.333   0.752   0.479  1.00  0.00     0.174 C 
HETATM   17  O3  UNL     1      -0.147   1.712   1.310  1.00  0.00    -0.291 OA
BRANCH  16  18
HETATM   18  C8  UNL     1      -1.717   0.437   0.056  1.00  0.00     0.053 C 
HETATM   19  C9  UNL     1      -2.742   1.110   0.504  1.00  0.00     0.018 C 
BRANCH  19  20
HETATM   20  C10 UNL     1      -4.087   0.782   0.075  1.00  0.00     0.003 A 
HETATM   21  C11 UNL     1      -4.378  -0.216  -0.797  1.00  0.00     0.053 A 
HETATM   22  C12 UNL     1      -5.677  -0.534  -1.213  1.00  0.00     0.102 A 
HETATM   23  C13 UNL     1      -6.711   0.211  -0.706  1.00  0.00     0.135 A 
HETATM   24  C14 UNL     1      -6.431   1.242   0.193  1.00  0.00     0.136 A 
HETATM   25  C15 UNL     1      -5.132   1.538   0.590  1.00  0.00     0.112 A 
BRANCH  22  26
HETATM   26  O4  UNL     1      -5.939  -1.560  -2.106  1.00  0.00    -0.358 OA
ATOM     27  H4  UNL     1      -6.820  -1.776  -2.388  1.00  0.00     0.217 HD
ENDBRANCH  22  26
BRANCH  23  28
HETATM   28  O5  UNL     1      -8.029  -0.046  -1.073  1.00  0.00    -0.356 OA
ATOM     29  H5  UNL     1      -8.745   0.470  -0.722  1.00  0.00     0.218 HD
ENDBRANCH  23  28
BRANCH  24  30
HETATM   30  O6  UNL     1      -7.479   1.989   0.700  1.00  0.00    -0.356 OA
ATOM     31  H6  UNL     1      -7.288   2.690   1.312  1.00  0.00     0.218 HD
ENDBRANCH  24  30
BRANCH  25  32
HETATM   32  O7  UNL     1      -4.960   2.579   1.484  1.00  0.00    -0.357 OA
ATOM     33  H7  UNL     1      -5.675   3.096   1.836  1.00  0.00     0.217 HD
ENDBRANCH  25  32
ENDBRANCH  19  20
ENDBRANCH  16  18
ENDBRANCH   3  16
BRANCH   1  34
HETATM   34  C3  UNL     1       4.461   0.592  -0.107  1.00  0.00     0.272 C 
HETATM   35  O2  UNL     1       5.213  -0.401   0.036  1.00  0.00    -0.264 OA
BRANCH  34  36
HETATM   36  O1  UNL     1       4.930   1.817   0.323  1.00  0.00    -0.321 OA
BRANCH  36  37
HETATM   37  C2  UNL     1       6.199   2.013   0.910  1.00  0.00     0.174 C 
HETATM   38  C1  UNL     1       7.319   1.609  -0.023  1.00  0.00     0.034 C 
ENDBRANCH  36  37
ENDBRANCH  34  36
ENDBRANCH   1  34
TORSDOF 10
