REMARK  8 active torsions:
REMARK  status: ('A' for Active; 'I' for Inactive)
REMARK    1  A    between atoms: N1_1  and  C1_4 
REMARK    2  A    between atoms: C3_9  and  C4_10 
REMARK    3  A    between atoms: C4_10  and  C5_11 
REMARK    4  A    between atoms: C6_12  and  N4_13 
REMARK    5  A    between atoms: N5_16  and  N6_17 
REMARK    6  A    between atoms: C8_19  and  C9_20 
REMARK    7  A    between atoms: C9_20  and  N7_21 
REMARK    8  A    between atoms: C17_35  and  N9_36 
ROOT
HETATM    1  C5  UNL     1       2.596  -1.060  -1.202  1.00  0.00     0.085 A 
HETATM    2  C6  UNL     1       1.307  -0.711  -0.790  1.00  0.00     0.215 A 
HETATM    3  N5  UNL     1       0.380  -1.652  -0.454  1.00  0.00    -0.177 N 
HETATM    4  C15 UNL     1       0.711  -2.969  -0.520  1.00  0.00     0.350 A 
HETATM    5  O5  UNL     1      -0.116  -3.865  -0.218  1.00  0.00    -0.244 OA
HETATM    6  N8  UNL     1       1.934  -3.346  -0.909  1.00  0.00    -0.273 N 
ATOM      7  H8  UNL     1       2.164  -4.339  -0.951  1.00  0.00     0.173 HD
HETATM    8  C16 UNL     1       2.858  -2.444  -1.243  1.00  0.00     0.263 A 
HETATM    9  O6  UNL     1       3.985  -2.864  -1.599  1.00  0.00    -0.267 OA
ENDROOT
BRANCH   1  10
HETATM   10  C4  UNL     1       3.669  -0.189  -1.571  1.00  0.00     0.040 C 
BRANCH  10  11
HETATM   11  C3  UNL     1       4.513   0.479  -0.596  1.00  0.00     0.051 A 
HETATM   12  C2  UNL     1       4.532   0.227   0.732  1.00  0.00     0.145 A 
HETATM   13  N2  UNL     1       5.394   0.939   1.521  1.00  0.00    -0.178 N 
HETATM   14  N3  UNL     1       3.710  -0.746   1.407  1.00  0.00    -0.081 NA
HETATM   15  C1  UNL     1       6.209   1.865   1.016  1.00  0.00     0.678 A 
ATOM     16  H2  UNL     1       5.413   0.756   2.524  1.00  0.00     0.185 HD
HETATM   17  N10 UNL     1       6.194   2.118  -0.304  1.00  0.00    -0.176 N 
HETATM   18  C17 UNL     1       5.379   1.456  -1.107  1.00  0.00     0.128 A 
ATOM     19  H10 UNL     1       6.817   2.827  -0.690  1.00  0.00     0.186 HD
BRANCH  15  20
HETATM   20  N1  UNL     1       7.010   2.518   1.785  1.00  0.00    -0.234 N 
ATOM     21  H12 UNL     1       7.021   2.326   2.787  1.00  0.00     0.174 HD
ATOM     22  H11 UNL     1       7.634   3.227   1.399  1.00  0.00     0.174 HD
ENDBRANCH  15  20
BRANCH  18  23
HETATM   23  N9  UNL     1       5.392   1.724  -2.376  1.00  0.00    -0.384 N 
ATOM     24  H92 UNL     1       4.763   1.213  -2.996  1.00  0.00     0.157 HD
ATOM     25  H91 UNL     1       6.022   2.435  -2.748  1.00  0.00     0.157 HD
ENDBRANCH  18  23
ENDBRANCH  10  11
ENDBRANCH   1  10
BRANCH   2  26
HETATM   26  N4  UNL     1       0.975   0.656  -0.764  1.00  0.00    -0.095 N 
HETATM   27  O1  UNL     1      -0.147   1.016  -0.383  1.00  0.00    -0.530 OA
HETATM   28  O2  UNL     1       1.814   1.644  -1.131  1.00  0.00    -0.530 OA
ENDBRANCH   2  26
BRANCH   3  29
HETATM   29  N6  UNL     1      -0.919  -1.352  -0.042  1.00  0.00    -0.247 N 
HETATM   30  C7  UNL     1      -2.196  -1.260  -0.701  1.00  0.00     0.168 C 
HETATM   31  C8  UNL     1      -2.835  -1.138   0.637  1.00  0.00     0.117 C 
HETATM   32  C14 UNL     1      -1.501  -1.070   1.210  1.00  0.00     0.246 C 
HETATM   33  O4  UNL     1      -1.073  -0.844   2.381  1.00  0.00    -0.271 OA
BRANCH  31  34
HETATM   34  C9  UNL     1      -3.563   0.186   0.871  1.00  0.00     0.132 C 
BRANCH  34  35
HETATM   35  N7  UNL     1      -4.605   0.388  -0.081  1.00  0.00    -0.408 N 
HETATM   36  C10 UNL     1      -5.726  -0.473   0.007  1.00  0.00     0.143 C 
HETATM   37  C11 UNL     1      -6.902   0.065   0.777  1.00  0.00     0.187 C 
HETATM   38  O3  UNL     1      -6.784   1.406   1.091  1.00  0.00    -0.388 OA
HETATM   39  C12 UNL     1      -6.342   2.083  -0.048  1.00  0.00     0.187 C 
HETATM   40  C13 UNL     1      -4.914   1.745  -0.356  1.00  0.00     0.143 C 
ENDBRANCH  34  35
ENDBRANCH  31  34
ENDBRANCH   3  29
TORSDOF 8
