REMARK  10 active torsions:
REMARK  status: ('A' for Active; 'I' for Inactive)
REMARK    1  A    between atoms: C3_4  and  O2_5 
REMARK    2  A    between atoms: O2_5  and  C4_6 
REMARK    3  A    between atoms: C7_11  and  C8_12 
REMARK    4  A    between atoms: C8_12  and  O5_13 
REMARK    5  A    between atoms: C9_15  and  O6_16 
REMARK    6  A    between atoms: C9_15  and  C10_18 
REMARK    7  A    between atoms: C13_23  and  O9_24 
REMARK    8  A    between atoms: O9_24  and  C14_25 
REMARK    9  A    between atoms: C17_28  and  N1_29 
REMARK   10  A    between atoms: C19_36  and  O12_37 
ROOT
HETATM    1  C1  UNL     1       1.340  -5.814  -0.558  1.00  0.00     0.044 C 
HETATM    2  C2  UNL     1       1.207  -4.358  -0.191  1.00  0.00     0.175 C 
HETATM    3  O1  UNL     1       0.836  -3.604  -1.277  1.00  0.00    -0.346 OA
HETATM    4  C3  UNL     1       0.695  -2.270  -0.905  1.00  0.00     0.316 C 
HETATM    5  C13 UNL     1       1.979  -1.700  -0.353  1.00  0.00     0.321 C 
HETATM    6  O11 UNL     1       2.948  -2.672  -0.155  1.00  0.00    -0.324 OA
HETATM    7  C19 UNL     1       2.509  -3.865   0.336  1.00  0.00     0.288 C 
ENDROOT
BRANCH   4   8
HETATM    8  O2  UNL     1      -0.268  -2.218   0.084  1.00  0.00    -0.348 OA
BRANCH   8   9
HETATM    9  C4  UNL     1      -1.389  -1.479  -0.328  1.00  0.00     0.157 C 
HETATM   10  C5  UNL     1      -2.609  -2.329  -0.259  1.00  0.00     0.203 C 
HETATM   11  O3  UNL     1      -3.442  -1.880   0.724  1.00  0.00    -0.358 OA
HETATM   12  C6  UNL     1      -2.951  -0.725   1.285  1.00  0.00     0.267 C 
HETATM   13  O4  UNL     1      -3.967   0.208   1.305  1.00  0.00    -0.350 OA
HETATM   14  C12 UNL     1      -1.702  -0.343   0.621  1.00  0.00     0.075 C 
HETATM   15  C7  UNL     1      -3.505   1.499   1.330  1.00  0.00     0.193 C 
HETATM   16  C9  UNL     1      -2.930   1.754  -0.071  1.00  0.00     0.174 C 
HETATM   17  C11 UNL     1      -1.674   0.922  -0.136  1.00  0.00     0.064 C 
BRANCH  15  18
HETATM   18  C8  UNL     1      -4.532   2.508   1.701  1.00  0.00     0.199 C 
BRANCH  18  19
HETATM   19  O5  UNL     1      -5.005   2.207   2.968  1.00  0.00    -0.398 OA
ATOM     20  H5  UNL     1      -5.661   2.852   3.205  1.00  0.00     0.209 HD
ENDBRANCH  18  19
ENDBRANCH  15  18
BRANCH  16  21
HETATM   21  O6  UNL     1      -3.838   1.219  -0.971  1.00  0.00    -0.376 OA
ATOM     22  H6  UNL     1      -3.482   1.377  -1.838  1.00  0.00     0.211 HD
ENDBRANCH  16  21
BRANCH  16  23
HETATM   23  C10 UNL     1      -2.656   3.170  -0.307  1.00  0.00     0.211 C 
HETATM   24  O7  UNL     1      -3.230   3.763  -1.253  1.00  0.00    -0.646 OA
HETATM   25  O8  UNL     1      -1.779   3.891   0.482  1.00  0.00    -0.646 OA
ENDBRANCH  16  23
ENDBRANCH   8   9
ENDBRANCH   4   8
BRANCH   5  26
HETATM   26  O9  UNL     1       2.487  -0.842  -1.339  1.00  0.00    -0.326 OA
BRANCH  26  27
HETATM   27  C14 UNL     1       2.583   0.486  -0.867  1.00  0.00     0.263 C 
HETATM   28  C15 UNL     1       4.046   0.945  -0.929  1.00  0.00     0.063 C 
HETATM   29  C16 UNL     1       4.100   2.456  -1.009  1.00  0.00     0.040 C 
HETATM   30  C17 UNL     1       2.801   2.975  -0.400  1.00  0.00     0.207 C 
HETATM   31  C18 UNL     1       1.703   2.570  -1.387  1.00  0.00     0.203 C 
HETATM   32  O10 UNL     1       1.811   1.249  -1.741  1.00  0.00    -0.359 OA
BRANCH  30  33
HETATM   33  N1  UNL     1       2.881   4.410  -0.282  1.00  0.00    -0.073 N 
ATOM     34  H13 UNL     1       3.703   4.712   0.240  1.00  0.00     0.274 HD
ATOM     35  H12 UNL     1       3.102   4.862  -1.169  1.00  0.00     0.274 HD
ATOM     36  H11 UNL     1       2.013   4.757   0.125  1.00  0.00     0.274 HD
ENDBRANCH  30  33
ENDBRANCH  26  27
ENDBRANCH   5  26
BRANCH   7  37
HETATM   37  O12 UNL     1       2.480  -3.840   1.736  1.00  0.00    -0.369 OA
ATOM     38  H12 UNL     1       3.311  -3.525   2.072  1.00  0.00     0.212 HD
ENDBRANCH   7  37
TORSDOF 10
