REMARK  11 active torsions:
REMARK  status: ('A' for Active; 'I' for Inactive)
REMARK    1  A    between atoms: O1_2  and  N1_3 
REMARK    2  A    between atoms: N1_3  and  C2_5 
REMARK    3  A    between atoms: C3_6  and  N2_7 
REMARK    4  A    between atoms: C5_13  and  N4_14 
REMARK    5  A    between atoms: C12_26  and  N8_27 
REMARK    6  A    between atoms: N10_33  and  C14_34 
REMARK    7  A    between atoms: C14_34  and  C15_35 
REMARK    8  A    between atoms: C15_35  and  C16_36 
REMARK    9  A    between atoms: C15_35  and  O4_40 
REMARK   10  A    between atoms: C16_36  and  C17_37 
REMARK   11  A    between atoms: C17_37  and  O3_38 
ROOT
HETATM    1  N4  UNL     1       3.062   0.347   0.034  1.00  0.00    -0.353 N 
HETATM    2  C6  UNL     1       3.281   1.193  -1.117  1.00  0.00     0.227 C 
HETATM    3  C7  UNL     1       4.541   1.998  -0.908  1.00  0.00     0.238 C 
HETATM    4  O2  UNL     1       4.623   3.092  -1.487  1.00  0.00    -0.272 OA
HETATM    5  N5  UNL     1       5.587   1.537  -0.093  1.00  0.00    -0.336 N 
HETATM    6  C8  UNL     1       6.958   2.045  -0.236  1.00  0.00     0.154 C 
HETATM    7  C9  UNL     1       5.340   0.546   0.913  1.00  0.00     0.212 C 
HETATM    8  C10 UNL     1       5.104   1.126   2.241  1.00  0.00     0.086 C 
HETATM    9  N6  UNL     1       4.919   1.561   3.288  1.00  0.00    -0.195 NA
HETATM   10  C11 UNL     1       4.220  -0.375   0.527  1.00  0.00     0.165 C 
ENDROOT
BRANCH   1  11
HETATM   11  C5  UNL     1       1.770   0.276   0.611  1.00  0.00     0.150 A 
HETATM   12  C4  UNL     1       0.691  -0.321   0.007  1.00  0.00     0.124 A 
HETATM   13  N3  UNL     1       0.868  -0.941  -1.169  1.00  0.00    -0.334 N 
HETATM   14  C13 UNL     1      -0.573  -0.320   0.634  1.00  0.00     0.155 A 
HETATM   15  C3  UNL     1      -0.174  -1.570  -1.754  1.00  0.00     0.146 A 
ATOM     16  H3  UNL     1       1.784  -0.937  -1.619  1.00  0.00     0.168 HD
HETATM   17  C2  UNL     1      -1.410  -1.587  -1.173  1.00  0.00     0.173 A 
HETATM   18  N10 UNL     1      -1.584  -0.946   0.030  1.00  0.00    -0.310 N 
HETATM   19  N9  UNL     1      -0.702   0.266   1.831  1.00  0.00    -0.174 N 
HETATM   20  C12 UNL     1       0.348   0.846   2.423  1.00  0.00     0.679 A 
ATOM     21  H9  UNL     1      -1.610   0.270   2.296  1.00  0.00     0.186 HD
HETATM   22  N7  UNL     1       1.542   0.848   1.825  1.00  0.00    -0.175 N 
ATOM     23  H7  UNL     1       2.322   1.301   2.302  1.00  0.00     0.186 HD
BRANCH  15  24
HETATM   24  N2  UNL     1       0.032  -2.164  -2.894  1.00  0.00    -0.382 N 
ATOM     25  H22 UNL     1      -0.755  -2.639  -3.336  1.00  0.00     0.157 HD
ATOM     26  H21 UNL     1       0.955  -2.151  -3.328  1.00  0.00     0.157 HD
ENDBRANCH  15  24
BRANCH  17  27
HETATM   27  N1  UNL     1      -2.402  -2.204  -1.714  1.00  0.00    -0.248 N 
ATOM     28  H1  UNL     1      -3.310  -2.194  -1.250  1.00  0.00     0.196 HD
BRANCH  27  29
HETATM   29  O1  UNL     1      -2.260  -2.875  -2.903  1.00  0.00    -0.284 OA
HETATM   30  C1  UNL     1      -2.495  -4.268  -3.026  1.00  0.00     0.237 C 
ENDBRANCH  27  29
ENDBRANCH  17  27
BRANCH  18  31
HETATM   31  C14 UNL     1      -2.929  -1.031   0.564  1.00  0.00     0.164 C 
BRANCH  31  32
HETATM   32  C15 UNL     1      -3.927  -0.107  -0.034  1.00  0.00     0.141 C 
BRANCH  32  33
HETATM   33  C16 UNL     1      -3.840   1.352   0.042  1.00  0.00     0.059 C 
BRANCH  33  34
HETATM   34  C17 UNL     1      -3.944   2.056   1.335  1.00  0.00     0.166 C 
BRANCH  34  35
HETATM   35  O3  UNL     1      -3.826   3.447   1.041  1.00  0.00    -0.401 OA
ATOM     36  H3  UNL     1      -3.893   3.900   1.873  1.00  0.00     0.209 HD
ENDBRANCH  34  35
ENDBRANCH  33  34
ENDBRANCH  32  33
BRANCH  32  37
HETATM   37  O4  UNL     1      -5.245  -0.543   0.295  1.00  0.00    -0.389 OA
HETATM   38  C18 UNL     1      -5.952  -1.025  -0.761  1.00  0.00     0.202 C 
ENDBRANCH  32  37
ENDBRANCH  31  32
ENDBRANCH  18  31
BRANCH  20  39
HETATM   39  N8  UNL     1       0.223   1.423   3.598  1.00  0.00    -0.234 N 
ATOM     40  H82 UNL     1       1.024   1.865   4.049  1.00  0.00     0.174 HD
ATOM     41  H81 UNL     1      -0.689   1.421   4.055  1.00  0.00     0.174 HD
ENDBRANCH  20  39
ENDBRANCH   1  11
TORSDOF 11
