REMARK  9 active torsions:
REMARK  status: ('A' for Active; 'I' for Inactive)
REMARK    1  A    between atoms: N2_5  and  C4_6 
REMARK    2  A    between atoms: C4_6  and  C5_7 
REMARK    3  A    between atoms: C5_7  and  C6_8 
REMARK    4  A    between atoms: C6_8  and  N3_9 
REMARK    5  A    between atoms: N3_9  and  C8_11 
REMARK    6  A    between atoms: C9_14  and  N5_15 
REMARK    7  A    between atoms: N5_15  and  N6_17 
REMARK    8  A    between atoms: C11_23  and  C12_24 
REMARK    9  A    between atoms: N8_25  and  N9_27 
REMARK       I    between atoms: C13_29  and  N11_31 
REMARK       I    between atoms: N11_31  and  C14_33 
ROOT
HETATM    1  C8  UNL     1      -0.040  -0.200   0.707  1.00  0.00     0.717 A 
HETATM    2  N4  UNL     1      -0.677  -1.048   1.523  1.00  0.00    -0.019 N 
ATOM      3  H4  UNL     1      -1.688  -1.138   1.422  1.00  0.00     0.203 HD
HETATM    4  C9  UNL     1      -0.076  -1.782   2.459  1.00  0.00     0.712 A 
HETATM    5  N7  UNL     1       1.268  -1.672   2.604  1.00  0.00    -0.171 N 
ATOM      6  H7  UNL     1       1.755  -2.222   3.312  1.00  0.00     0.186 HD
HETATM    7  C10 UNL     1       1.944  -0.847   1.821  1.00  0.00     0.173 A 
HETATM    8  C11 UNL     1       3.313  -0.547   1.793  1.00  0.00     0.045 A 
HETATM    9  C15 UNL     1       3.463   0.389   0.800  1.00  0.00     0.125 A 
HETATM   10  N13 UNL     1       2.216   0.605   0.290  1.00  0.00    -0.288 N 
ATOM     11  H13 UNL     1       2.010   1.256  -0.468  1.00  0.00     0.187 HD
HETATM   12  N14 UNL     1       1.330  -0.118   0.887  1.00  0.00    -0.068 N 
ENDROOT
BRANCH   1  13
HETATM   13  N3  UNL     1      -0.647   0.629  -0.265  1.00  0.00    -0.220 N 
HETATM   14  C7  UNL     1      -0.605   2.069   0.030  1.00  0.00     0.168 C 
BRANCH  13  15
HETATM   15  C6  UNL     1      -1.208   0.122  -1.477  1.00  0.00     0.142 C 
BRANCH  15  16
HETATM   16  C5  UNL     1      -2.692   0.356  -1.637  1.00  0.00     0.041 C 
BRANCH  16  17
HETATM   17  C4  UNL     1      -3.458  -0.295  -0.558  1.00  0.00     0.129 C 
BRANCH  17  18
HETATM   18  N2  UNL     1      -4.871  -0.116  -0.600  1.00  0.00    -0.368 N 
HETATM   19  C3  UNL     1      -5.375   1.155  -0.336  1.00  0.00     0.078 C 
HETATM   20  C2  UNL     1      -6.431   1.732  -1.181  1.00  0.00     0.139 C 
HETATM   21  N1  UNL     1      -6.614   1.142  -2.467  1.00  0.00    -0.291 NA
HETATM   22  C1  UNL     1      -6.128   2.024  -3.542  1.00  0.00     0.116 C 
HETATM   23  C17 UNL     1      -6.072  -0.144  -2.658  1.00  0.00     0.076 C 
HETATM   24  C16 UNL     1      -5.632  -0.910  -1.467  1.00  0.00     0.101 C 
ENDBRANCH  17  18
ENDBRANCH  16  17
ENDBRANCH  15  16
ENDBRANCH  13  15
ENDBRANCH   1  13
BRANCH   4  25
HETATM   25  N5  UNL     1      -0.708  -2.569   3.254  1.00  0.00    -0.138 N 
ATOM     26  H5  UNL     1      -1.722  -2.654   3.188  1.00  0.00     0.205 HD
BRANCH  25  27
HETATM   27  N6  UNL     1      -0.011  -3.303   4.202  1.00  0.00    -0.331 N 
ATOM     28  H62 UNL     1       1.003  -3.207   4.255  1.00  0.00     0.177 HD
ATOM     29  H61 UNL     1      -0.513  -3.928   4.833  1.00  0.00     0.177 HD
ENDBRANCH  25  27
ENDBRANCH   4  25
BRANCH   8  30
HETATM   30  C12 UNL     1       4.312  -1.156   2.680  1.00  0.00     0.124 C 
HETATM   31  N8  UNL     1       5.519  -0.865   2.649  1.00  0.00    -0.309 N 
ATOM     32  H8  UNL     1       6.093  -1.371   3.324  1.00  0.00     0.186 HD
BRANCH  31  33
HETATM   33  N9  UNL     1       6.197  -0.002   1.882  1.00  0.00    -0.274 N 
HETATM   34  C13 UNL     1       7.124  -0.406   1.057  1.00  0.00     0.210 C 
HETATM   35  N10 UNL     1       7.392  -1.793   0.995  1.00  0.00    -0.062 NA
HETATM   36  N11 UNL     1       7.823   0.556   0.263  1.00  0.00    -0.284 N 
HETATM   37  C14 UNL     1       8.823   0.143  -0.633  1.00  0.00     0.335 C 
ATOM     38  H11 UNL     1       7.595   1.546   0.348  1.00  0.00     0.172 HD
HETATM   39  N12 UNL     1       9.521   1.078  -1.424  1.00  0.00    -0.040 NA
HETATM   40  O1  UNL     1       9.101  -1.073  -0.732  1.00  0.00    -0.251 OA
ATOM     41  H9  UNL     1       5.984   0.994   1.944  1.00  0.00     0.189 HD
ENDBRANCH  31  33
ENDBRANCH   8  30
TORSDOF 9
