REMARK  12 active torsions:
REMARK  status: ('A' for Active; 'I' for Inactive)
REMARK    1  A    between atoms: N1_2  and  C3_4 
REMARK    2  A    between atoms: C4_7  and  N3_8 
REMARK    3  A    between atoms: N3_8  and  C5_10 
REMARK    4  A    between atoms: C5_10  and  C6_11 
REMARK    5  A    between atoms: C7_16  and  O1_17 
REMARK    6  A    between atoms: O1_17  and  C8_18 
REMARK    7  A    between atoms: C8_18  and  C9_19 
REMARK    8  A    between atoms: C9_19  and  N6_20 
REMARK    9  A    between atoms: N7_24  and  N8_25 
REMARK   10  A    between atoms: C10_28  and  N9_29 
REMARK   11  A    between atoms: C11_34  and  N11_35 
REMARK   12  A    between atoms: N11_35  and  C12_37 
ROOT
HETATM    1  N3  UNL     1       0.170   1.179  -1.371  1.00  0.00    -0.219 N 
ATOM      2  H3  UNL     1       0.060   2.116  -0.983  1.00  0.00     0.178 HD
ENDROOT
BRANCH   1   3
HETATM    3  C4  UNL     1      -0.768   0.335  -1.177  1.00  0.00     0.707 A 
HETATM    4  N2  UNL     1      -0.627  -0.911  -1.690  1.00  0.00    -0.021 N 
HETATM    5  C3  UNL     1      -1.596  -1.819  -1.502  1.00  0.00     0.708 A 
ATOM      6  H2  UNL     1       0.211  -1.157  -2.216  1.00  0.00     0.203 HD
HETATM    7  N12 UNL     1      -2.676  -1.466  -0.813  1.00  0.00    -0.021 N 
HETATM    8  C11 UNL     1      -2.838  -0.238  -0.297  1.00  0.00     0.707 A 
ATOM      9  H12 UNL     1      -3.412  -2.157  -0.670  1.00  0.00     0.203 HD
HETATM   10  N10 UNL     1      -1.863   0.664  -0.489  1.00  0.00    -0.021 N 
ATOM     11  H10 UNL     1      -1.959   1.605  -0.107  1.00  0.00     0.203 HD
BRANCH   5  12
HETATM   12  N1  UNL     1      -1.501  -3.149  -2.020  1.00  0.00    -0.225 N 
HETATM   13  C1  UNL     1      -0.319  -3.496  -2.762  1.00  0.00     0.168 C 
HETATM   14  C2  UNL     1      -2.539  -4.112  -1.817  1.00  0.00     0.168 C 
ENDBRANCH   5  12
BRANCH   8  15
HETATM   15  N11 UNL     1      -3.892   0.029   0.349  1.00  0.00    -0.220 N 
ATOM     16  H11 UNL     1      -4.583  -0.714   0.450  1.00  0.00     0.178 HD
BRANCH  15  17
HETATM   17  C12 UNL     1      -4.193   1.310   0.957  1.00  0.00     0.114 C 
HETATM   18  C13 UNL     1      -4.875   2.163  -0.050  1.00  0.00     0.041 C 
HETATM   19  C14 UNL     1      -5.574   3.300   0.613  1.00  0.00     0.142 C 
HETATM   20  S1  UNL     1      -5.888   2.674   2.269  1.00  0.00     0.146 S 
HETATM   21  O2  UNL     1      -5.061   3.475   3.209  1.00  0.00    -0.228 OA
HETATM   22  O3  UNL     1      -7.331   2.649   2.593  1.00  0.00    -0.228 OA
HETATM   23  C15 UNL     1      -5.212   1.021   2.064  1.00  0.00     0.165 C 
ENDBRANCH  15  17
ENDBRANCH   8  15
ENDBRANCH   1   3
BRANCH   1  24
HETATM   24  C5  UNL     1       1.369   0.889  -2.101  1.00  0.00     0.200 C 
BRANCH  24  25
HETATM   25  C6  UNL     1       2.508   0.551  -1.225  1.00  0.00     0.089 A 
HETATM   26  N4  UNL     1       2.379   0.533   0.106  1.00  0.00    -0.296 N 
HETATM   27  N5  UNL     1       3.417   0.226   0.885  1.00  0.00    -0.263 N 
ATOM     28  H4  UNL     1       1.478   0.756   0.529  1.00  0.00     0.187 HD
HETATM   29  C7  UNL     1       4.608  -0.070   0.378  1.00  0.00     0.261 A 
ATOM     30  H5  UNL     1       3.293   0.218   1.897  1.00  0.00     0.190 HD
HETATM   31  N7  UNL     1       4.753  -0.055  -0.958  1.00  0.00    -0.206 N 
HETATM   32  C10 UNL     1       3.728   0.250  -1.782  1.00  0.00     0.150 A 
BRANCH  29  33
HETATM   33  O1  UNL     1       5.670  -0.384   1.164  1.00  0.00    -0.318 OA
BRANCH  33  34
HETATM   34  C8  UNL     1       5.680  -0.437   2.543  1.00  0.00     0.206 C 
BRANCH  34  35
HETATM   35  C9  UNL     1       5.358   0.860   3.213  1.00  0.00     0.256 C 
BRANCH  35  36
HETATM   36  N6  UNL     1       5.416   0.621   4.656  1.00  0.00    -0.077 N 
ATOM     37  H63 UNL     1       4.817  -0.147   4.960  1.00  0.00     0.274 HD
ATOM     38  H62 UNL     1       6.304   0.222   4.961  1.00  0.00     0.274 HD
ATOM     39  H61 UNL     1       5.196   1.506   5.113  1.00  0.00     0.274 HD
ENDBRANCH  35  36
ENDBRANCH  34  35
ENDBRANCH  33  34
ENDBRANCH  29  33
BRANCH  31  40
HETATM   40  N8  UNL     1       5.983  -0.360  -1.502  1.00  0.00    -0.334 N 
ATOM     41  H82 UNL     1       6.757  -0.590  -0.879  1.00  0.00     0.177 HD
ATOM     42  H81 UNL     1       6.093  -0.349  -2.516  1.00  0.00     0.177 HD
ENDBRANCH  31  40
BRANCH  32  43
HETATM   43  N9  UNL     1       3.853   0.267  -3.056  1.00  0.00    -0.382 N 
ATOM     44  H92 UNL     1       3.079   0.497  -3.679  1.00  0.00     0.157 HD
ATOM     45  H91 UNL     1       4.758   0.044  -3.469  1.00  0.00     0.157 HD
ENDBRANCH  32  43
ENDBRANCH  24  25
ENDBRANCH   1  24
TORSDOF 12
