REMARK  3 active torsions:
REMARK  status: ('A' for Active; 'I' for Inactive)
REMARK    1  A    between atoms: N1_1  and  C1_4 
REMARK    2  A    between atoms: C3_13  and  C4_14 
REMARK    3  A    between atoms: C4_14  and  C5_15 
ROOT
HETATM    1  C1  UNL     1      -1.383   0.693   0.362  1.00  0.00     0.127 A 
HETATM    2  N2  UNL     1      -2.610   0.253   0.710  1.00  0.00    -0.292 N 
ATOM      3  H2  UNL     1      -3.044   0.609   1.561  1.00  0.00     0.172 HD
HETATM    4  C2  UNL     1      -3.265  -0.632  -0.029  1.00  0.00     0.340 A 
HETATM    5  O1  UNL     1      -4.421  -1.062   0.278  1.00  0.00    -0.245 OA
HETATM    6  N3  UNL     1      -2.666  -1.087  -1.151  1.00  0.00    -0.251 N 
ATOM      7  H3  UNL     1      -3.151  -1.769  -1.734  1.00  0.00     0.191 HD
HETATM    8  N4  UNL     1      -1.464  -0.667  -1.510  1.00  0.00    -0.297 N 
ATOM      9  H4  UNL     1      -1.052  -1.038  -2.366  1.00  0.00     0.187 HD
HETATM   10  C3  UNL     1      -0.763   0.227  -0.794  1.00  0.00     0.076 A 
ENDROOT
BRANCH  10  11
HETATM   11  C4  UNL     1       0.580   0.699  -1.186  1.00  0.00     0.140 C 
BRANCH  11  12
HETATM   12  C5  UNL     1       1.692   0.116  -0.432  1.00  0.00     0.105 A 
HETATM   13  N5  UNL     1       2.292  -1.069  -0.713  1.00  0.00    -0.295 N 
HETATM   14  C6  UNL     1       3.280  -1.307   0.160  1.00  0.00     0.340 A 
ATOM     15  H5  UNL     1       2.028  -1.689  -1.479  1.00  0.00     0.172 HD
HETATM   16  O2  UNL     1       4.038  -2.302   0.197  1.00  0.00    -0.245 OA
HETATM   17  N6  UNL     1       3.306  -0.272   0.996  1.00  0.00    -0.250 N 
HETATM   18  N7  UNL     1       2.346   0.592   0.640  1.00  0.00    -0.285 N 
ATOM     19  H6  UNL     1       3.950  -0.156   1.778  1.00  0.00     0.192 HD
ATOM     20  H7  UNL     1       2.143   1.474   1.110  1.00  0.00     0.188 HD
ENDBRANCH  11  12
ENDBRANCH  10  11
BRANCH   1  21
HETATM   21  N1  UNL     1      -0.828   1.551   1.131  1.00  0.00    -0.384 N 
ATOM     22  H12 UNL     1      -1.282   1.892   1.978  1.00  0.00     0.157 HD
ATOM     23  H11 UNL     1       0.100   1.884   0.868  1.00  0.00     0.157 HD
ENDBRANCH   1  21
TORSDOF 3
