REMARK  16 active torsions:
REMARK  status: ('A' for Active; 'I' for Inactive)
REMARK    1  A    between atoms: C2_2  and  C3_4 
REMARK    2  A    between atoms: C3_4  and  C4_5 
REMARK    3  A    between atoms: C4_5  and  O3_7 
REMARK    4  A    between atoms: O3_7  and  C5_8 
REMARK    5  A    between atoms: C6_9  and  O4_10 
REMARK    6  A    between atoms: O4_10  and  C7_11 
REMARK    7  A    between atoms: C12_18  and  O7_19 
REMARK    8  A    between atoms: C16_24  and  O8_26 
REMARK    9  A    between atoms: C18_28  and  O9_29 
REMARK   10  A    between atoms: C18_28  and  C19_31 
REMARK   11  A    between atoms: C19_31  and  O10_32 
REMARK   12  A    between atoms: C19_31  and  C20_34 
REMARK   13  A    between atoms: C20_34  and  O11_35 
REMARK   14  A    between atoms: C23_39  and  O12_40 
REMARK   15  A    between atoms: C24_42  and  C25_43 
REMARK   16  A    between atoms: C25_43  and  O13_44 
ROOT
HETATM    1  C5  UNL     1      -0.977   0.066   0.026  1.00  0.00     0.179 C 
HETATM    2  C6  UNL     1      -1.474  -1.287   0.450  1.00  0.00     0.161 C 
HETATM    3  C11 UNL     1      -0.543  -2.319   0.896  1.00  0.00     0.067 C 
HETATM    4  C12 UNL     1       0.932  -2.075   0.722  1.00  0.00     0.134 C 
HETATM    5  C13 UNL     1       1.195  -0.971  -0.269  1.00  0.00     0.041 C 
HETATM    6  C14 UNL     1       2.468  -0.631  -0.811  1.00  0.00     0.041 C 
HETATM    7  C15 UNL     1       2.451  -1.921  -1.591  1.00  0.00     0.047 C 
HETATM    8  C16 UNL     1       0.927  -1.593  -1.587  1.00  0.00     0.066 C 
HETATM    9  C17 UNL     1       0.610  -1.011  -2.865  1.00  0.00     0.047 C 
HETATM   10  C18 UNL     1       3.675  -0.126  -0.234  1.00  0.00     0.093 C 
HETATM   11  C21 UNL     1       3.454   1.316   0.171  1.00  0.00     0.070 C 
HETATM   12  C22 UNL     1       2.296   1.987  -0.420  1.00  0.00     0.009 C 
HETATM   13  C23 UNL     1       0.932   1.547  -0.405  1.00  0.00     0.054 C 
HETATM   14  C24 UNL     1       0.503   0.244   0.216  1.00  0.00     0.071 C 
ENDROOT
BRANCH  10  15
HETATM   15  O9  UNL     1       4.558  -0.105  -1.374  1.00  0.00    -0.386 OA
ATOM     16  H9  UNL     1       5.360   0.230  -0.991  1.00  0.00     0.210 HD
ENDBRANCH  10  15
BRANCH  10  17
HETATM   17  C19 UNL     1       4.478  -0.842   0.775  1.00  0.00     0.176 C 
BRANCH  17  18
HETATM   18  O10 UNL     1       4.826  -2.118   0.410  1.00  0.00    -0.390 OA
ATOM     19  H10 UNL     1       5.343  -2.579   1.060  1.00  0.00     0.210 HD
ENDBRANCH  17  18
BRANCH  17  20
HETATM   20  C20 UNL     1       5.820  -0.098   0.935  1.00  0.00     0.198 C 
BRANCH  20  21
HETATM   21  O11 UNL     1       6.566  -0.103  -0.233  1.00  0.00    -0.398 OA
ATOM     22  H11 UNL     1       7.392   0.355  -0.134  1.00  0.00     0.209 HD
ENDBRANCH  20  21
ENDBRANCH  17  20
ENDBRANCH  10  17
BRANCH   4  23
HETATM   23  O7  UNL     1       1.581  -2.060   1.907  1.00  0.00    -0.395 OA
ATOM     24  H7  UNL     1       2.512  -1.906   1.797  1.00  0.00     0.210 HD
ENDBRANCH   4  23
BRANCH   8  25
HETATM   25  O8  UNL     1       0.327  -2.894  -1.555  1.00  0.00    -0.389 OA
ATOM     26  H8  UNL     1       0.155  -3.293  -2.400  1.00  0.00     0.210 HD
ENDBRANCH   8  25
BRANCH  14  27
HETATM   27  C25 UNL     1       0.652   0.481   1.699  1.00  0.00     0.184 C 
BRANCH  27  28
HETATM   28  O13 UNL     1      -0.016   1.664   2.117  1.00  0.00    -0.400 OA
ATOM     29  H13 UNL     1       0.078   1.813   3.051  1.00  0.00     0.209 HD
ENDBRANCH  27  28
ENDBRANCH  14  27
BRANCH  13  30
HETATM   30  O12 UNL     1       0.363   1.774  -1.676  1.00  0.00    -0.364 OA
ATOM     31  H12 UNL     1      -0.541   1.482  -1.666  1.00  0.00     0.217 HD
ENDBRANCH  13  30
BRANCH   1  32
HETATM   32  O3  UNL     1      -1.666   1.081   0.723  1.00  0.00    -0.312 OA
BRANCH  32  33
HETATM   33  C4  UNL     1      -2.570   1.973   0.213  1.00  0.00     0.266 C 
HETATM   34  O2  UNL     1      -2.861   1.921  -1.000  1.00  0.00    -0.265 OA
BRANCH  33  35
HETATM   35  C3  UNL     1      -3.225   3.004   1.045  1.00  0.00     0.188 C 
BRANCH  35  36
HETATM   36  C2  UNL     1      -4.160   3.840   0.252  1.00  0.00     0.132 C 
HETATM   37  C1  UNL     1      -4.931   4.952   0.910  1.00  0.00     0.091 C 
HETATM   38  O1  UNL     1      -4.380   3.712  -0.940  1.00  0.00    -0.298 OA
ENDBRANCH  35  36
ENDBRANCH  33  35
ENDBRANCH  32  33
ENDBRANCH   1  32
BRANCH   2  39
HETATM   39  O4  UNL     1      -2.479  -1.069   1.407  1.00  0.00    -0.322 OA
BRANCH  39  40
HETATM   40  C7  UNL     1      -3.726  -1.398   1.002  1.00  0.00     0.319 A 
HETATM   41  O5  UNL     1      -4.783  -1.214   1.890  1.00  0.00    -0.327 OA
HETATM   42  C8  UNL     1      -5.641  -1.268   0.793  1.00  0.00     0.220 C 
HETATM   43  C9  UNL     1      -4.442  -1.776  -0.018  1.00  0.00     0.168 A 
HETATM   44  C10 UNL     1      -4.553  -1.545  -1.473  1.00  0.00     0.057 C 
HETATM   45  O6  UNL     1      -3.728  -2.811   0.527  1.00  0.00    -0.309 OA
ENDBRANCH  39  40
ENDBRANCH   2  39
TORSDOF 16
