REMARK  13 active torsions:
REMARK  status: ('A' for Active; 'I' for Inactive)
REMARK    1  A    between atoms: O1_2  and  C2_3 
REMARK    2  A    between atoms: C4_5  and  C5_6 
REMARK    3  A    between atoms: N1_10  and  C8_11 
REMARK    4  A    between atoms: C8_11  and  C9_12 
REMARK    5  A    between atoms: C9_12  and  N2_13 
REMARK    6  A    between atoms: N2_13  and  C10_15 
REMARK    7  A    between atoms: C11_18  and  N4_19 
REMARK    8  A    between atoms: C12_24  and  N6_25 
REMARK    9  A    between atoms: C17_34  and  N8_35 
REMARK   10  A    between atoms: N8_35  and  N9_37 
REMARK   11  A    between atoms: N10_42  and  N11_43 
REMARK   12  A    between atoms: C20_47  and  O4_48 
REMARK   13  A    between atoms: C22_50  and  O5_51 
ROOT
HETATM    1  C5  UNL     1      -1.217  -0.508   0.629  1.00  0.00    -0.006 A 
HETATM    2  C6  UNL     1      -0.312  -1.486   0.953  1.00  0.00     0.088 A 
HETATM    3  C7  UNL     1       0.979  -1.153   1.218  1.00  0.00     0.254 A 
HETATM    4  O2  UNL     1       1.812  -2.089   1.522  1.00  0.00    -0.268 OA
HETATM    5  N1  UNL     1       1.486   0.139   1.188  1.00  0.00    -0.271 N 
HETATM    6  C13 UNL     1       0.584   1.060   0.876  1.00  0.00     0.150 A 
HETATM    7  C14 UNL     1      -0.758   0.781   0.590  1.00  0.00     0.022 A 
HETATM    8  C15 UNL     1      -1.777   1.638   0.231  1.00  0.00     0.018 C 
HETATM    9  C16 UNL     1      -1.927   2.950   0.653  1.00  0.00     0.038 C 
HETATM   10  C17 UNL     1      -0.920   3.744   1.242  1.00  0.00     0.117 C 
HETATM   11  C18 UNL     1       0.408   3.441   1.413  1.00  0.00     0.295 C 
HETATM   12  O3  UNL     1       1.106   4.298   2.027  1.00  0.00    -0.264 OA
HETATM   13  N10 UNL     1       1.058   2.305   0.988  1.00  0.00    -0.207 N 
ENDROOT
BRANCH   5  14
HETATM   14  C8  UNL     1       2.811   0.380   1.556  1.00  0.00     0.119 C 
BRANCH  14  15
HETATM   15  C9  UNL     1       3.945  -0.217   0.780  1.00  0.00     0.124 C 
BRANCH  15  16
HETATM   16  N2  UNL     1       4.131  -0.044  -0.579  1.00  0.00    -0.199 N 
ATOM     17  H2  UNL     1       3.432   0.491  -1.094  1.00  0.00     0.183 HD
BRANCH  16  18
HETATM   18  C10 UNL     1       5.115  -0.509  -1.223  1.00  0.00     0.711 A 
HETATM   19  N3  UNL     1       6.053  -1.219  -0.572  1.00  0.00    -0.021 N 
HETATM   20  C11 UNL     1       7.134  -1.742  -1.222  1.00  0.00     0.705 A 
ATOM     21  H3  UNL     1       5.955  -1.371   0.432  1.00  0.00     0.203 HD
HETATM   22  N5  UNL     1       7.226  -1.516  -2.551  1.00  0.00    -0.022 N 
HETATM   23  C12 UNL     1       6.294  -0.808  -3.207  1.00  0.00     0.705 A 
ATOM     24  H5  UNL     1       8.022  -1.892  -3.067  1.00  0.00     0.203 HD
HETATM   25  N7  UNL     1       5.251  -0.309  -2.558  1.00  0.00    -0.021 N 
ATOM     26  H7  UNL     1       4.547   0.228  -3.065  1.00  0.00     0.203 HD
BRANCH  20  27
HETATM   27  N4  UNL     1       8.040  -2.425  -0.608  1.00  0.00    -0.234 N 
ATOM     28  H42 UNL     1       7.971  -2.596   0.395  1.00  0.00     0.174 HD
ATOM     29  H41 UNL     1       8.847  -2.816  -1.094  1.00  0.00     0.174 HD
ENDBRANCH  20  27
BRANCH  23  30
HETATM   30  N6  UNL     1       6.404  -0.604  -4.487  1.00  0.00    -0.234 N 
ATOM     31  H62 UNL     1       7.206  -0.988  -4.986  1.00  0.00     0.174 HD
ATOM     32  H61 UNL     1       5.695  -0.066  -4.986  1.00  0.00     0.174 HD
ENDBRANCH  23  30
ENDBRANCH  16  18
ENDBRANCH  15  16
ENDBRANCH  14  15
ENDBRANCH   5  14
BRANCH  13  33
HETATM   33  N11 UNL     1       2.348   2.536   0.641  1.00  0.00    -0.334 N 
ATOM     34 2H11 UNL     1       2.830   1.694   0.326  1.00  0.00     0.177 HD
ATOM     35 1H11 UNL     1       2.710   3.486   0.726  1.00  0.00     0.177 HD
ENDBRANCH  13  33
BRANCH   1  36
HETATM   36  C4  UNL     1      -2.608  -0.887   0.388  1.00  0.00    -0.019 A 
HETATM   37  C3  UNL     1      -3.685  -0.381   1.070  1.00  0.00     0.052 A 
HETATM   38  C2  UNL     1      -4.959  -0.796   0.776  1.00  0.00     0.105 A 
HETATM   39  C22 UNL     1      -5.154  -1.733  -0.216  1.00  0.00     0.135 A 
HETATM   40  C20 UNL     1      -4.092  -2.267  -0.927  1.00  0.00     0.105 A 
HETATM   41  C19 UNL     1      -2.827  -1.821  -0.598  1.00  0.00     0.052 A 
BRANCH  38  42
HETATM   42  O1  UNL     1      -6.081  -0.313   1.438  1.00  0.00    -0.353 OA
HETATM   43  C1  UNL     1      -5.869   0.651   2.458  1.00  0.00     0.210 C 
ENDBRANCH  38  42
BRANCH  39  44
HETATM   44  O5  UNL     1      -6.433  -2.188  -0.552  1.00  0.00    -0.351 OA
HETATM   45  C23 UNL     1      -7.167  -1.503  -1.555  1.00  0.00     0.210 C 
ENDBRANCH  39  44
BRANCH  40  46
HETATM   46  O4  UNL     1      -4.321  -3.218  -1.930  1.00  0.00    -0.353 OA
HETATM   47  C21 UNL     1      -3.178  -3.710  -2.605  1.00  0.00     0.210 C 
ENDBRANCH  40  46
ENDBRANCH   1  36
BRANCH  10  48
HETATM   48  N8  UNL     1      -1.324   4.880   1.658  1.00  0.00    -0.302 N 
ATOM     49  H8  UNL     1      -2.307   5.128   1.542  1.00  0.00     0.186 HD
BRANCH  48  50
HETATM   50  N9  UNL     1      -0.473   5.785   2.260  1.00  0.00    -0.345 N 
ATOM     51  H92 UNL     1       0.506   5.521   2.368  1.00  0.00     0.176 HD
ATOM     52  H91 UNL     1      -0.796   6.693   2.593  1.00  0.00     0.176 HD
ENDBRANCH  48  50
ENDBRANCH  10  48
TORSDOF 13
