REMARK  14 active torsions:
REMARK  status: ('A' for Active; 'I' for Inactive)
REMARK       I    between atoms: C2_2  and  N1_4 
REMARK    1  A    between atoms: N1_4  and  C3_6 
REMARK    2  A    between atoms: C4_7  and  O2_8 
REMARK    3  A    between atoms: C5_10  and  C6_11 
REMARK    4  A    between atoms: C6_11  and  N2_12 
REMARK    5  A    between atoms: N2_12  and  C7_14 
REMARK    6  A    between atoms: C8_15  and  O3_16 
REMARK    7  A    between atoms: C9_18  and  N3_19 
REMARK    8  A    between atoms: C11_25  and  C12_26 
REMARK    9  A    between atoms: C12_26  and  N4_27 
REMARK   10  A    between atoms: N4_27  and  N5_29 
REMARK   11  A    between atoms: C15_38  and  O7_39 
REMARK   12  A    between atoms: O7_39  and  C16_40 
REMARK   13  A    between atoms: C21_45  and  N7_46 
REMARK   14  A    between atoms: C22_50  and  O8_51 
ROOT
HETATM    1  C3  UNL     1      -1.464   1.091  -2.347  1.00  0.00     0.149 C 
HETATM    2  C4  UNL     1      -0.133   1.076  -1.609  1.00  0.00     0.174 C 
HETATM    3  C5  UNL     1      -0.389   0.765  -0.177  1.00  0.00     0.172 C 
HETATM    4  O6  UNL     1      -1.750   0.693   0.062  1.00  0.00    -0.349 OA
HETATM    5  C15 UNL     1      -2.422  -0.295  -0.616  1.00  0.00     0.291 C 
HETATM    6  C22 UNL     1      -2.085  -0.266  -2.088  1.00  0.00     0.198 C 
ENDROOT
BRANCH   3   7
HETATM    7  C6  UNL     1       0.348  -0.492   0.296  1.00  0.00     0.149 C 
BRANCH   7   8
HETATM    8  N2  UNL     1       1.727  -0.458   0.084  1.00  0.00    -0.410 N 
ATOM      9  H2  UNL     1       2.137  -1.089  -0.604  1.00  0.00     0.153 HD
BRANCH   8  10
HETATM   10  C7  UNL     1       2.553   0.405   0.779  1.00  0.00     0.139 C 
HETATM   11  C8  UNL     1       2.659   0.277   2.258  1.00  0.00     0.176 C 
HETATM   12  C9  UNL     1       3.759  -0.709   2.561  1.00  0.00     0.245 C 
HETATM   13  C10 UNL     1       4.532  -0.844   1.269  1.00  0.00     0.186 C 
HETATM   14  O4  UNL     1       5.882  -0.865   1.427  1.00  0.00    -0.372 OA
HETATM   15  C14 UNL     1       3.996   0.180   0.335  1.00  0.00     0.177 C 
HETATM   16  C11 UNL     1       6.590   0.237   1.060  1.00  0.00     0.165 C 
HETATM   17  C13 UNL     1       5.999   1.079  -0.018  1.00  0.00     0.201 C 
HETATM   18  O5  UNL     1       4.687   1.374   0.339  1.00  0.00    -0.379 OA
BRANCH  11  19
HETATM   19  O3  UNL     1       3.087   1.515   2.755  1.00  0.00    -0.391 OA
ATOM     20  H3  UNL     1       3.155   1.433   3.699  1.00  0.00     0.210 HD
ENDBRANCH  11  19
BRANCH  12  21
HETATM   21  N3  UNL     1       3.263  -1.969   3.051  1.00  0.00    -0.070 N 
ATOM     22  H33 UNL     1       2.661  -1.833   3.863  1.00  0.00     0.274 HD
ATOM     23  H32 UNL     1       2.582  -2.369   2.405  1.00  0.00     0.274 HD
ATOM     24  H31 UNL     1       4.007  -2.636   3.256  1.00  0.00     0.274 HD
ENDBRANCH  12  21
BRANCH  16  25
HETATM   25  C12 UNL     1       6.952   1.145   2.226  1.00  0.00     0.174 C 
BRANCH  25  26
HETATM   26  N4  UNL     1       7.698   2.270   1.707  1.00  0.00    -0.320 N 
ATOM     27  H4  UNL     1       7.425   2.687   0.817  1.00  0.00     0.181 HD
BRANCH  26  28
HETATM   28  N5  UNL     1       8.665   2.734   2.329  1.00  0.00    -0.254 N 
HETATM   29  N6  UNL     1       9.812   3.118   2.519  1.00  0.00    -0.331 N 
ATOM     30  H62 UNL     1      10.182   2.940   1.585  1.00  0.00     0.178 HD
ATOM     31  H61 UNL     1      10.608   3.500   3.031  1.00  0.00     0.178 HD
ATOM     32  H5  UNL     1       8.250   2.895   3.247  1.00  0.00     0.207 HD
ENDBRANCH  26  28
ENDBRANCH  25  26
ENDBRANCH  16  25
ENDBRANCH   8  10
ENDBRANCH   7   8
ENDBRANCH   3   7
BRANCH   2  33
HETATM   33  O2  UNL     1       0.405   2.363  -1.819  1.00  0.00    -0.391 OA
ATOM     34  H2  UNL     1       1.236   2.354  -1.358  1.00  0.00     0.210 HD
ENDBRANCH   2  33
BRANCH   1  35
HETATM   35  N1  UNL     1      -1.328   1.419  -3.724  1.00  0.00    -0.352 N 
HETATM   36  C2  UNL     1      -1.941   2.598  -4.224  1.00  0.00     0.214 C 
HETATM   37  C1  UNL     1      -1.860   3.033  -5.645  1.00  0.00     0.117 C 
HETATM   38  O1  UNL     1      -2.613   3.371  -3.462  1.00  0.00    -0.274 OA
ATOM     39  H1  UNL     1      -0.795   0.813  -4.347  1.00  0.00     0.163 HD
ENDBRANCH   1  35
BRANCH   5  40
HETATM   40  O7  UNL     1      -3.785  -0.285  -0.381  1.00  0.00    -0.351 OA
BRANCH  40  41
HETATM   41  C16 UNL     1      -4.306  -1.390   0.218  1.00  0.00     0.155 C 
HETATM   42  C17 UNL     1      -5.419  -2.018  -0.580  1.00  0.00     0.034 C 
HETATM   43  C18 UNL     1      -6.205  -3.052   0.140  1.00  0.00     0.003 C 
HETATM   44  C19 UNL     1      -6.475  -2.765   1.588  1.00  0.00     0.002 C 
HETATM   45  C20 UNL     1      -5.258  -2.203   2.293  1.00  0.00     0.035 C 
HETATM   46  C21 UNL     1      -4.932  -0.911   1.539  1.00  0.00     0.212 C 
BRANCH  46  47
HETATM   47  N7  UNL     1      -6.173  -0.250   1.175  1.00  0.00    -0.073 N 
ATOM     48  H73 UNL     1      -6.052   0.494   0.488  1.00  0.00     0.274 HD
ATOM     49  H72 UNL     1      -6.796  -0.833   0.616  1.00  0.00     0.274 HD
ATOM     50  H71 UNL     1      -6.588   0.068   2.051  1.00  0.00     0.274 HD
ENDBRANCH  46  47
ENDBRANCH  40  41
ENDBRANCH   5  40
BRANCH   6  51
HETATM   51  O8  UNL     1      -3.195  -0.502  -2.890  1.00  0.00    -0.388 OA
ATOM     52  H8  UNL     1      -3.584  -1.353  -2.728  1.00  0.00     0.210 HD
ENDBRANCH   6  51
TORSDOF 14
