REMARK  12 active torsions:
REMARK  status: ('A' for Active; 'I' for Inactive)
REMARK    1  A    between atoms: C1_4  and  C2_5 
REMARK    2  A    between atoms: C1_4  and  S3_43 
REMARK    3  A    between atoms: C2_5  and  C3_6 
REMARK    4  A    between atoms: C3_6  and  N2_7 
REMARK    5  A    between atoms: C3_6  and  C4_11 
REMARK       I    between atoms: C4_11  and  N3_13 
REMARK    6  A    between atoms: N3_13  and  C5_15 
REMARK    7  A    between atoms: C7_19  and  C8_20 
REMARK    8  A    between atoms: C9_21  and  O2_22 
REMARK    9  A    between atoms: C10_24  and  C11_25 
REMARK   10  A    between atoms: C11_25  and  C12_26 
REMARK   11  A    between atoms: C11_25  and  S1_29 
REMARK   12  A    between atoms: S1_29  and  N5_30 
ROOT
HETATM    1  C5  UNL     1      -1.943   1.265   0.195  1.00  0.00     0.110 A 
HETATM    2  N4  UNL     1      -0.967   1.415   1.057  1.00  0.00    -0.325 N 
ATOM      3  H4  UNL     1      -1.087   1.579   2.056  1.00  0.00     0.169 HD
HETATM    4  C6  UNL     1       0.300   1.313   0.382  1.00  0.00     0.144 A 
HETATM    5  C7  UNL     1       1.481   1.413   0.964  1.00  0.00     0.073 C 
HETATM    6  O7  UNL     1      -0.009   1.094  -0.942  1.00  0.00    -0.328 OA
HETATM    7  C15 UNL     1      -1.397   1.035  -1.160  1.00  0.00     0.254 A 
ENDROOT
BRANCH   5   8
HETATM    8  C8  UNL     1       2.752   1.309   0.256  1.00  0.00     0.035 A 
HETATM    9  C9  UNL     1       3.675   0.383   0.711  1.00  0.00     0.087 A 
HETATM   10  C10 UNL     1       4.920   0.140   0.220  1.00  0.00     0.013 A 
HETATM   11  C13 UNL     1       5.491   0.805  -0.858  1.00  0.00     0.063 A 
HETATM   12  S2  UNL     1       4.488   2.002  -1.561  1.00  0.00    -0.083 SA
HETATM   13  C14 UNL     1       2.969   2.157  -0.805  1.00  0.00     0.080 A 
HETATM   14  N6  UNL     1       2.087   3.042  -1.196  1.00  0.00    -0.393 N 
ATOM     15  H62 UNL     1       1.178   3.135  -0.743  1.00  0.00     0.156 HD
ATOM     16  H61 UNL     1       2.248   3.671  -1.983  1.00  0.00     0.156 HD
BRANCH   9  17
HETATM   17  O2  UNL     1       3.271  -0.396   1.811  1.00  0.00    -0.359 OA
ATOM     18  H2  UNL     1       3.904  -1.031   2.123  1.00  0.00     0.217 HD
ENDBRANCH   9  17
BRANCH  10  19
HETATM   19  C11 UNL     1       5.748  -0.940   0.862  1.00  0.00     0.265 C 
BRANCH  19  20
HETATM   20  C12 UNL     1       7.121  -0.570   1.166  1.00  0.00     0.198 C 
HETATM   21  O3  UNL     1       7.506  -0.549   2.396  1.00  0.00    -0.647 OA
HETATM   22  O4  UNL     1       8.108  -0.224   0.269  1.00  0.00    -0.647 OA
ENDBRANCH  19  20
BRANCH  19  23
HETATM   23  S1  UNL     1       5.778  -2.380  -0.195  1.00  0.00     0.243 S 
HETATM   24  O5  UNL     1       4.380  -2.858  -0.481  1.00  0.00    -0.205 OA
HETATM   25  O6  UNL     1       6.444  -2.103  -1.500  1.00  0.00    -0.205 OA
BRANCH  23  26
HETATM   26  N5  UNL     1       6.629  -3.661   0.584  1.00  0.00    -0.327 N 
ATOM     27  H52 UNL     1       7.048  -3.591   1.511  1.00  0.00     0.168 HD
ATOM     28  H51 UNL     1       6.646  -4.483  -0.019  1.00  0.00     0.168 HD
ENDBRANCH  23  26
ENDBRANCH  19  23
ENDBRANCH  10  19
ENDBRANCH   5   8
BRANCH   1  29
HETATM   29  N3  UNL     1      -3.312   1.309   0.528  1.00  0.00    -0.313 N 
HETATM   30  C4  UNL     1      -4.300   1.139  -0.473  1.00  0.00     0.254 C 
HETATM   31  O1  UNL     1      -3.949   0.951  -1.651  1.00  0.00    -0.271 OA
ATOM     32  H3  UNL     1      -3.593   1.464   1.496  1.00  0.00     0.170 HD
BRANCH  30  33
HETATM   33  C3  UNL     1      -5.761   1.185  -0.098  1.00  0.00     0.281 C 
BRANCH  33  34
HETATM   34  C2  UNL     1      -6.279  -0.216  -0.133  1.00  0.00     0.114 C 
BRANCH  34  35
HETATM   35  C1  UNL     1      -6.311  -0.781  -1.475  1.00  0.00     0.123 C 
HETATM   36  N1  UNL     1      -6.476  -0.178  -2.577  1.00  0.00    -0.391 N 
ATOM     37  H12 UNL     1      -6.557   0.836  -2.501  1.00  0.00     0.156 HD
ATOM     38  H11 UNL     1      -6.498  -0.574  -3.517  1.00  0.00     0.156 HD
BRANCH  35  39
HETATM   39  S3  UNL     1      -6.169  -2.549  -1.608  1.00  0.00     0.149 S 
HETATM   40  O8  UNL     1      -5.391  -3.050  -0.408  1.00  0.00    -0.590 OA
HETATM   41  O9  UNL     1      -5.456  -2.903  -2.863  1.00  0.00    -0.590 OA
HETATM   42  O10 UNL     1      -7.704  -3.200  -1.582  1.00  0.00    -0.590 OA
ENDBRANCH  35  39
ENDBRANCH  34  35
ENDBRANCH  33  34
BRANCH  33  43
HETATM   43  N2  UNL     1      -5.834   1.641   1.311  1.00  0.00    -0.066 N 
ATOM     44  H23 UNL     1      -6.767   1.549   1.714  1.00  0.00     0.275 HD
ATOM     45  H22 UNL     1      -5.350   1.019   1.959  1.00  0.00     0.275 HD
ATOM     46  H21 UNL     1      -5.480   2.597   1.335  1.00  0.00     0.275 HD
ENDBRANCH  33  43
ENDBRANCH  30  33
ENDBRANCH   1  29
TORSDOF 12
