REMARK  2 active torsions:
REMARK  status: ('A' for Active; 'I' for Inactive)
REMARK    1  A    between atoms: N1_1  and  C1_4 
REMARK    2  A    between atoms: N4_12  and  N5_14 
ROOT
HETATM    1  C1  UNL     1      -3.211   0.844  -0.220  1.00  0.00     0.682 C 
HETATM    2  N2  UNL     1      -3.041  -0.465  -0.479  1.00  0.00    -0.141 N 
ATOM      3  H2  UNL     1      -3.898  -0.984  -0.671  1.00  0.00     0.189 HD
HETATM    4  C2  UNL     1      -1.895  -1.202  -0.523  1.00  0.00     0.340 C 
HETATM    5  O1  UNL     1      -2.013  -2.382  -0.968  1.00  0.00    -0.246 OA
HETATM    6  N3  UNL     1      -0.650  -0.866  -0.163  1.00  0.00    -0.288 N 
ATOM      7  H3  UNL     1       0.009  -1.629  -0.006  1.00  0.00     0.172 HD
HETATM    8  C3  UNL     1      -0.187   0.389   0.011  1.00  0.00     0.194 C 
HETATM    9  N4  UNL     1       1.068   0.465   0.302  1.00  0.00    -0.279 N 
ATOM     10  H4  UNL     1       1.467   1.393   0.443  1.00  0.00     0.189 HD
HETATM   11  C5  UNL     1      -0.889   1.572  -0.085  1.00  0.00     0.305 C 
HETATM   12  O2  UNL     1      -0.192   2.621  -0.078  1.00  0.00    -0.263 OA
HETATM   13  N8  UNL     1      -2.232   1.767  -0.186  1.00  0.00    -0.153 N 
ATOM     14  H8  UNL     1      -2.536   2.739  -0.243  1.00  0.00     0.187 HD
ENDROOT
BRANCH   9  15
HETATM   15  N5  UNL     1       1.904  -0.618   0.435  1.00  0.00    -0.274 N 
HETATM   16  C4  UNL     1       3.163  -0.603   0.126  1.00  0.00     0.215 C 
HETATM   17  N6  UNL     1       3.782   0.590  -0.390  1.00  0.00    -0.065 NA
HETATM   18  N7  UNL     1       3.950  -1.759   0.293  1.00  0.00    -0.065 NA
ATOM     19  H5  UNL     1       1.510  -1.486   0.799  1.00  0.00     0.189 HD
ENDBRANCH   9  15
BRANCH   1  20
HETATM   20  N1  UNL     1      -4.426   1.266   0.021  1.00  0.00    -0.234 N 
ATOM     21  H12 UNL     1      -5.168   0.567  -0.005  1.00  0.00     0.174 HD
ATOM     22  H11 UNL     1      -4.555   2.259   0.217  1.00  0.00     0.174 HD
ENDBRANCH   1  20
TORSDOF 2
