REMARK  4 active torsions:
REMARK  status: ('A' for Active; 'I' for Inactive)
REMARK    1  A    between atoms: C2_2  and  C3_5 
REMARK    2  A    between atoms: C3_5  and  N2_10 
REMARK    3  A    between atoms: N1_6  and  O1_8 
REMARK    4  A    between atoms: N2_10  and  C4_12 
ROOT
HETATM    1  C3  UNL     1       1.323  -0.032   0.899  1.00  0.00     0.170 C 
HETATM    2  N1  UNL     1       1.009  -1.086   1.559  1.00  0.00    -0.252 N 
ATOM      3  H1  UNL     1       0.044  -1.143   1.885  1.00  0.00     0.195 HD
ENDROOT
BRANCH   1   4
HETATM    4  C2  UNL     1       2.716   0.091   0.407  1.00  0.00     0.298 C 
HETATM    5  C1  UNL     1       2.716   0.201  -1.101  1.00  0.00     0.099 C 
HETATM    6  F1  UNL     1       3.539  -0.928   0.757  1.00  0.00    -0.198 F 
HETATM    7  F2  UNL     1       3.208   1.285   0.941  1.00  0.00    -0.198 F 
ENDBRANCH   1   4
BRANCH   1   8
HETATM    8  N2  UNL     1       0.404   0.994   0.632  1.00  0.00    -0.369 N 
ATOM      9  H2  UNL     1       0.707   1.945   0.841  1.00  0.00     0.161 HD
BRANCH   8  10
HETATM   10  C4  UNL     1      -0.902   0.846   0.102  1.00  0.00     0.083 C 
HETATM   11  C5  UNL     1      -1.839   0.002   0.937  1.00  0.00     0.025 C 
HETATM   12  C6  UNL     1      -3.058  -0.035   0.000  1.00  0.00     0.002 C 
HETATM   13  C7  UNL     1      -2.415  -0.282  -1.326  1.00  0.00     0.002 C 
HETATM   14  C8  UNL     1      -0.962   0.125  -1.226  1.00  0.00     0.025 C 
ENDBRANCH   8  10
ENDBRANCH   1   8
BRANCH   2  15
HETATM   15  O1  UNL     1       1.808  -2.128   1.872  1.00  0.00    -0.288 OA
ATOM     16  H1  UNL     1       1.575  -2.909   2.361  1.00  0.00     0.244 HD
ENDBRANCH   2  15
TORSDOF 4
