REMARK  3 active torsions:
REMARK  status: ('A' for Active; 'I' for Inactive)
REMARK    1  A    between atoms: C2_2  and  C3_3 
REMARK    2  A    between atoms: C3_3  and  N1_4 
REMARK    3  A    between atoms: C7_14  and  C9_16 
ROOT
HETATM    1  C1  UNL     1       1.103  -1.231  -1.303  1.00  0.00     0.017 C 
HETATM    2  C2  UNL     1       1.106  -0.283  -0.168  1.00  0.00    -0.015 C 
HETATM    3  C4  UNL     1       0.849  -1.048   1.134  1.00  0.00     0.062 C 
HETATM    4  C5  UNL     1      -0.567  -1.541   1.027  1.00  0.00    -0.019 C 
HETATM    5  N2  UNL     1      -0.815  -2.774   1.254  1.00  0.00    -0.406 N 
ATOM      6  H21 UNL     1      -1.776  -3.109   1.181  1.00  0.00     0.155 HD
ATOM      7  H22 UNL     1      -0.054  -3.405   1.503  1.00  0.00     0.155 HD
HETATM    8  C6  UNL     1      -1.663  -0.632   0.668  1.00  0.00     0.070 C 
HETATM    9  C7  UNL     1      -1.286   0.525  -0.178  1.00  0.00     0.060 C 
HETATM   10  C8  UNL     1      -1.918   0.453  -1.575  1.00  0.00     0.025 C 
HETATM   11  C10 UNL     1       0.159   0.844  -0.241  1.00  0.00     0.029 C 
ENDROOT
BRANCH   2  12
HETATM   12  C3  UNL     1       2.516   0.328  -0.103  1.00  0.00     0.239 C 
BRANCH  12  13
HETATM   13  N1  UNL     1       2.631   1.268   0.968  1.00  0.00    -0.079 N 
ATOM     14  H13 UNL     1       1.914   1.991   0.909  1.00  0.00     0.274 HD
ATOM     15  H12 UNL     1       2.363   0.852   1.860  1.00  0.00     0.274 HD
ATOM     16  H11 UNL     1       3.566   1.673   1.011  1.00  0.00     0.274 HD
ENDBRANCH  12  13
ENDBRANCH   2  12
BRANCH   9  17
HETATM   17  C9  UNL     1      -1.963   1.764   0.442  1.00  0.00     0.395 C 
HETATM   18  F1  UNL     1      -1.527   1.949   1.736  1.00  0.00    -0.170 F 
HETATM   19  F2  UNL     1      -1.551   2.825  -0.342  1.00  0.00    -0.170 F 
HETATM   20  F3  UNL     1      -3.320   1.653   0.339  1.00  0.00    -0.170 F 
ENDBRANCH   9  17
TORSDOF 3
