REMARK  2 active torsions:
REMARK  status: ('A' for Active; 'I' for Inactive)
REMARK    1  A    between atoms: C1_2  and  C2_4 
REMARK    2  A    between atoms: C4_8  and  C5_9 
ROOT
HETATM    1  C2  UNL     1       2.175   0.186   0.142  1.00  0.00     0.088 C 
HETATM    2  C3  UNL     1       3.131  -0.844  -0.485  1.00  0.00     0.142 C 
HETATM    3  N1  UNL     1       2.350  -2.088  -0.429  1.00  0.00    -0.148 NA
HETATM    4  N2  UNL     1       1.020  -1.643  -0.650  1.00  0.00    -0.143 NA
HETATM    5  C4  UNL     1       0.956  -0.563   0.352  1.00  0.00     0.110 C 
ENDROOT
BRANCH   5   6
HETATM    6  C5  UNL     1      -0.372   0.072   0.366  1.00  0.00     0.007 C 
HETATM    7  C6  UNL     1      -0.845   0.511  -0.967  1.00  0.00     0.006 C 
HETATM    8  C7  UNL     1      -1.991   1.498  -0.651  1.00  0.00     0.000 C 
HETATM    9  C8  UNL     1      -3.119   0.639  -0.169  1.00  0.00     0.000 C 
HETATM   10  C9  UNL     1      -2.807  -0.347   0.877  1.00  0.00     0.000 C 
HETATM   11  C10 UNL     1      -1.410  -0.833   0.985  1.00  0.00     0.006 C 
ENDBRANCH   5   6
BRANCH   1  12
HETATM   12  C1  UNL     1       2.216   1.477  -0.569  1.00  0.00     0.360 C 
HETATM   13  F1  UNL     1       3.548   1.993  -0.502  1.00  0.00    -0.214 F 
HETATM   14  F2  UNL     1       1.471   2.445   0.073  1.00  0.00    -0.214 F 
ENDBRANCH   1  12
TORSDOF 2
