REMARK  3 active torsions:
REMARK  status: ('A' for Active; 'I' for Inactive)
REMARK    1  A    between atoms: C3_3  and  O1_4 
REMARK    2  A    between atoms: C5_7  and  C16_22 
REMARK    3  A    between atoms: C11_15  and  O4_16 
ROOT
HETATM    1  C1  UNL     1       2.687  -2.002  -0.151  1.00  0.00     0.014 C 
HETATM    2  C2  UNL     1       1.722  -0.856  -0.500  1.00  0.00     0.030 C 
HETATM    3  C3  UNL     1       2.296   0.360   0.172  1.00  0.00     0.126 C 
HETATM    4  C4  UNL     1       1.678   1.680   0.079  1.00  0.00     0.071 C 
HETATM    5  C5  UNL     1       0.317   1.891   0.710  1.00  0.00     0.079 C 
HETATM    6  C6  UNL     1       0.259   3.102   1.616  1.00  0.00     0.047 C 
HETATM    7  O2  UNL     1       0.079   0.792   1.577  1.00  0.00    -0.309 OA
HETATM    8  C7  UNL     1       0.254  -0.507   1.235  1.00  0.00     0.270 C 
HETATM    9  O3  UNL     1       0.340  -1.297   2.210  1.00  0.00    -0.264 OA
HETATM   10  C8  UNL     1       0.357  -1.112  -0.100  1.00  0.00     0.067 C 
HETATM   11  C9  UNL     1      -0.400  -2.345   0.017  1.00  0.00     0.030 C 
HETATM   12  C10 UNL     1      -0.161  -3.397   0.975  1.00  0.00     0.014 C 
HETATM   13  C11 UNL     1      -1.816  -1.696   0.189  1.00  0.00     0.131 C 
HETATM   14  C12 UNL     1      -1.823  -0.425  -0.540  1.00  0.00     0.064 C 
HETATM   15  C13 UNL     1      -0.474  -0.563  -1.221  1.00  0.00     0.037 C 
HETATM   16  C14 UNL     1      -0.060   0.503  -2.047  1.00  0.00    -0.024 C 
HETATM   17  C15 UNL     1      -0.206   1.753  -1.624  1.00  0.00    -0.019 C 
HETATM   18  C16 UNL     1      -0.808   1.895  -0.278  1.00  0.00     0.083 C 
HETATM   19  C17 UNL     1      -1.947   0.914  -0.017  1.00  0.00     0.116 C 
HETATM   20  C18 UNL     1      -3.141   1.607  -0.757  1.00  0.00     0.053 C 
HETATM   21  F1  UNL     1      -2.370   1.117   1.281  1.00  0.00    -0.242 F 
ENDROOT
BRANCH   3  22
HETATM   22  O1  UNL     1       3.607   0.493  -0.356  1.00  0.00    -0.395 OA
ATOM     23  H1  UNL     1       3.970   1.261   0.069  1.00  0.00     0.210 HD
ENDBRANCH   3  22
BRANCH  13  24
HETATM   24  O4  UNL     1      -2.345  -1.851   1.391  1.00  0.00    -0.395 OA
ATOM     25  H4  UNL     1      -3.203  -1.458   1.495  1.00  0.00     0.210 HD
ENDBRANCH  13  24
TORSDOF 3
