REMARK  17 active torsions:
REMARK  status: ('A' for Active; 'I' for Inactive)
REMARK    1  A    between atoms: C2_2  and  C3_3 
REMARK    2  A    between atoms: C3_3  and  C4_4 
REMARK    3  A    between atoms: C4_4  and  C5_5 
REMARK    4  A    between atoms: C5_5  and  C6_6 
REMARK    5  A    between atoms: C6_6  and  O1_7 
REMARK    6  A    between atoms: C6_6  and  C7_9 
REMARK    7  A    between atoms: C8_10  and  C9_11 
REMARK    8  A    between atoms: C12_15  and  O3_16 
REMARK    9  A    between atoms: O3_16  and  C13_17 
REMARK   10  A    between atoms: C13_17  and  C14_18 
REMARK   11  A    between atoms: C15_19  and  C16_20 
REMARK   12  A    between atoms: C16_20  and  C17_21 
REMARK   13  A    between atoms: C17_21  and  C18_22 
REMARK   14  A    between atoms: C20_24  and  C21_25 
REMARK   15  A    between atoms: C27_35  and  C28_36 
REMARK   16  A    between atoms: C28_36  and  O7_37 
REMARK   17  A    between atoms: C29_39  and  O8_40 
ROOT
HETATM    1  C17 UNL     1      -2.991   0.470   0.179  1.00  0.00     0.019 C 
ENDROOT
BRANCH   1   2
HETATM    2  C16 UNL     1      -1.762   0.995  -0.480  1.00  0.00     0.094 C 
BRANCH   2   3
HETATM    3  C15 UNL     1      -0.625   0.255   0.130  1.00  0.00    -0.104 C 
HETATM    4  C14 UNL     1       0.299  -0.329   0.639  1.00  0.00    -0.081 C 
BRANCH   4   5
HETATM    5  C13 UNL     1       1.433  -1.019   1.270  1.00  0.00     0.261 C 
BRANCH   5   6
HETATM    6  O3  UNL     1       2.546  -0.184   1.358  1.00  0.00    -0.371 OA
BRANCH   6   7
HETATM    7  C12 UNL     1       2.987   0.258   0.137  1.00  0.00     0.157 C 
HETATM    8  C9  UNL     1       4.428  -0.109  -0.163  1.00  0.00     0.173 C 
HETATM    9  O2  UNL     1       5.027   0.984  -0.735  1.00  0.00    -0.379 OA
HETATM   10  C10 UNL     1       4.084   1.921  -1.073  1.00  0.00     0.171 C 
HETATM   11  C11 UNL     1       3.073   1.783   0.074  1.00  0.00     0.061 C 
BRANCH   8  12
HETATM   12  C8  UNL     1       5.182  -0.435   1.084  1.00  0.00     0.010 C 
HETATM   13  C7  UNL     1       6.259  -1.172   1.137  1.00  0.00     0.035 C 
BRANCH  13  14
HETATM   14  C6  UNL     1       6.926  -1.811   0.005  1.00  0.00     0.065 C 
BRANCH  14  15
HETATM   15  C5  UNL     1       8.202  -2.502   0.272  1.00  0.00     0.036 C 
BRANCH  15  16
HETATM   16  C4  UNL     1       9.502  -1.840   0.273  1.00  0.00    -0.001 C 
BRANCH  16  17
HETATM   17  C3  UNL     1       9.894  -0.723   1.114  1.00  0.00    -0.027 C 
BRANCH  17  18
HETATM   18  C2  UNL     1       9.304   0.619   0.957  1.00  0.00     0.022 C 
HETATM   19  C1  UNL     1       9.969   1.585   1.992  1.00  0.00     0.009 C 
ENDBRANCH  17  18
ENDBRANCH  16  17
ENDBRANCH  15  16
ENDBRANCH  14  15
BRANCH  14  20
HETATM   20  O1  UNL     1       6.909  -1.148  -1.197  1.00  0.00    -0.361 OA
ATOM     21  H1  UNL     1       6.087  -0.703  -1.369  1.00  0.00     0.217 HD
ENDBRANCH  14  20
ENDBRANCH  13  14
ENDBRANCH   8  12
ENDBRANCH   6   7
ENDBRANCH   5   6
ENDBRANCH   4   5
ENDBRANCH   2   3
ENDBRANCH   1   2
BRANCH   1  22
HETATM   22  C18 UNL     1      -4.276   1.128  -0.308  1.00  0.00     0.020 C 
HETATM   23  C19 UNL     1      -5.443   0.519   0.423  1.00  0.00     0.013 C 
HETATM   24  C20 UNL     1      -6.020  -0.707  -0.138  1.00  0.00     0.006 C 
HETATM   25  C24 UNL     1      -7.459  -0.412  -0.640  1.00  0.00     0.040 C 
HETATM   26  C25 UNL     1      -7.500   0.163  -2.000  1.00  0.00     0.156 C 
HETATM   27  O5  UNL     1      -6.212   0.068  -2.593  1.00  0.00    -0.351 OA
HETATM   28  C27 UNL     1      -7.734   1.614  -2.150  1.00  0.00     0.177 C 
HETATM   29  C26 UNL     1      -5.628   1.299  -2.441  1.00  0.00     0.289 C 
HETATM   30  O6  UNL     1      -6.503   2.153  -1.787  1.00  0.00    -0.349 OA
HETATM   31  C29 UNL     1      -4.309   1.137  -1.772  1.00  0.00     0.177 C 
BRANCH  24  32
HETATM   32  C21 UNL     1      -6.139  -1.913   0.719  1.00  0.00     0.099 C 
HETATM   33  C22 UNL     1      -6.978  -1.970   1.899  1.00  0.00     0.162 C 
HETATM   34  C23 UNL     1      -6.314  -3.237   2.353  1.00  0.00     0.126 C 
HETATM   35  O4  UNL     1      -6.150  -1.247   2.663  1.00  0.00    -0.324 OA
HETATM   36  S1  UNL     1      -4.912  -2.159   1.982  1.00  0.00    -0.079 SA
ENDBRANCH  24  32
BRANCH  31  37
HETATM   37  O8  UNL     1      -3.539   2.253  -2.207  1.00  0.00    -0.390 OA
ATOM     38  H8  UNL     1      -3.560   2.259  -3.157  1.00  0.00     0.210 HD
ENDBRANCH  31  37
BRANCH  28  39
HETATM   39  C28 UNL     1      -8.922   2.223  -1.537  1.00  0.00     0.198 C 
BRANCH  39  40
HETATM   40  O7  UNL     1      -9.024   2.225  -0.177  1.00  0.00    -0.398 OA
ATOM     41  H7  UNL     1      -9.792   2.619   0.219  1.00  0.00     0.209 HD
ENDBRANCH  39  40
ENDBRANCH  28  39
ENDBRANCH   1  22
TORSDOF 17
