REMARK  12 active torsions:
REMARK  status: ('A' for Active; 'I' for Inactive)
REMARK    1  A    between atoms: C4_7  and  C5_8 
REMARK    2  A    between atoms: C5_8  and  N3_9 
REMARK    3  A    between atoms: N5_21  and  C15_22 
REMARK    4  A    between atoms: C15_22  and  C16_23 
REMARK    5  A    between atoms: C15_22  and  C17_26 
REMARK    6  A    between atoms: C16_23  and  O1_24 
REMARK    7  A    between atoms: C17_26  and  C18_27 
REMARK    8  A    between atoms: C18_27  and  N6_28 
REMARK    9  A    between atoms: N7_31  and  C21_32 
REMARK   10  A    between atoms: C21_32  and  C22_33 
REMARK   11  A    between atoms: C22_33  and  O2_34 
REMARK   12  A    between atoms: C22_33  and  C23_36 
ROOT
HETATM    1  C1  UNL     1      -7.245  -3.764  -0.372  1.00  0.00     0.070 C 
HETATM    2  C2  UNL     1      -6.188  -2.737  -0.305  1.00  0.00     0.037 A 
HETATM    3  N1  UNL     1      -4.869  -2.898  -0.233  1.00  0.00    -0.300 N 
ATOM      4  H1  UNL     1      -4.409  -3.808  -0.206  1.00  0.00     0.187 HD
HETATM    5  N2  UNL     1      -4.225  -1.751  -0.200  1.00  0.00    -0.271 N 
HETATM    6  C3  UNL     1      -5.212  -0.792  -0.259  1.00  0.00     0.131 A 
HETATM    7  C4  UNL     1      -6.446  -1.347  -0.317  1.00  0.00     0.043 A 
HETATM    8  N4  UNL     1      -5.094   0.619  -0.401  1.00  0.00    -0.374 N 
ATOM      9  H4  UNL     1      -5.803   0.955  -1.053  1.00  0.00     0.161 HD
HETATM   10  C10 UNL     1      -4.315   1.722   0.064  1.00  0.00     0.121 C 
HETATM   11  C11 UNL     1      -3.680   1.515   1.392  1.00  0.00     0.020 C 
HETATM   12  C12 UNL     1      -3.172   0.105   1.605  1.00  0.00     0.010 C 
HETATM   13  C13 UNL     1      -2.319  -0.385   0.490  1.00  0.00     0.039 C 
HETATM   14  C14 UNL     1      -0.880  -0.583   0.956  1.00  0.00     0.279 C 
HETATM   15  N5  UNL     1      -0.123  -1.297  -0.062  1.00  0.00     0.096 N 
HETATM   16  C28 UNL     1      -0.683  -1.179  -1.349  1.00  0.00     0.275 C 
HETATM   17  C29 UNL     1      -2.044  -1.900  -1.374  1.00  0.00     0.058 C 
HETATM   18  C30 UNL     1      -2.789  -1.725  -0.068  1.00  0.00     0.117 C 
ENDROOT
BRANCH  15  19
HETATM   19  C15 UNL     1       1.288  -0.819   0.055  1.00  0.00     0.251 C 
BRANCH  19  20
HETATM   20  C16 UNL     1       2.055  -2.135  -0.296  1.00  0.00     0.200 C 
BRANCH  20  21
HETATM   21  O1  UNL     1       1.775  -3.136   0.599  1.00  0.00    -0.399 OA
ATOM     22  H1  UNL     1       2.241  -3.936   0.386  1.00  0.00     0.209 HD
ENDBRANCH  20  21
ENDBRANCH  19  20
BRANCH  19  23
HETATM   23  C17 UNL     1       1.611   0.198  -0.940  1.00  0.00     0.082 C 
BRANCH  23  24
HETATM   24  C18 UNL     1       2.873   0.969  -0.869  1.00  0.00     0.065 C 
BRANCH  24  25
HETATM   25  N6  UNL     1       4.124   0.443  -0.641  1.00  0.00    -0.370 N 
HETATM   26  C19 UNL     1       4.451   0.158   0.743  1.00  0.00     0.157 C 
HETATM   27  C20 UNL     1       5.476   1.142   1.278  1.00  0.00     0.293 C 
HETATM   28  N7  UNL     1       6.649   1.182   0.431  1.00  0.00     0.097 N 
HETATM   29  C26 UNL     1       6.279   1.643  -0.860  1.00  0.00     0.317 C 
HETATM   30  C27 UNL     1       5.232   0.737  -1.454  1.00  0.00     0.093 C 
BRANCH  28  31
HETATM   31  C21 UNL     1       7.375  -0.040   0.505  1.00  0.00     0.304 C 
BRANCH  31  32
HETATM   32  C22 UNL     1       8.582  -0.068  -0.364  1.00  0.00     0.149 C 
BRANCH  32  33
HETATM   33  O2  UNL     1       9.208  -1.311  -0.188  1.00  0.00    -0.393 OA
ATOM     34  H2  UNL     1       9.979  -1.329  -0.743  1.00  0.00     0.210 HD
ENDBRANCH  32  33
BRANCH  32  35
HETATM   35  C23 UNL     1       9.562   1.015  -0.056  1.00  0.00     0.008 C 
HETATM   36  C24 UNL     1      10.749   0.903  -0.987  1.00  0.00     0.012 C 
HETATM   37  C25 UNL     1      10.067   0.973   1.355  1.00  0.00     0.012 C 
ENDBRANCH  32  35
ENDBRANCH  31  32
ENDBRANCH  28  31
ENDBRANCH  24  25
ENDBRANCH  23  24
ENDBRANCH  19  23
ENDBRANCH  15  19
BRANCH   7  38
HETATM   38  C5  UNL     1      -7.760  -0.749  -0.414  1.00  0.00     0.076 C 
BRANCH  38  39
HETATM   39  N3  UNL     1      -7.935   0.631  -0.178  1.00  0.00    -0.292 NA
HETATM   40  C6  UNL     1      -7.911   1.003   1.194  1.00  0.00     0.095 C 
HETATM   41  C7  UNL     1      -8.567   2.357   1.260  1.00  0.00     0.016 C 
HETATM   42  C8  UNL     1      -9.358   2.446  -0.011  1.00  0.00     0.016 C 
HETATM   43  C9  UNL     1      -9.122   1.142  -0.738  1.00  0.00     0.095 C 
ENDBRANCH  38  39
ENDBRANCH   7  38
TORSDOF 12
