REMARK  12 active torsions:
REMARK  status: ('A' for Active; 'I' for Inactive)
REMARK    1  A    between atoms: C2_2  and  C3_3 
REMARK    2  A    between atoms: C3_3  and  N1_4 
REMARK    3  A    between atoms: N1_4  and  C4_5 
REMARK    4  A    between atoms: N1_4  and  C7_8 
REMARK    5  A    between atoms: C4_5  and  C5_6 
REMARK    6  A    between atoms: C7_8  and  C8_9 
REMARK    7  A    between atoms: C8_9  and  C9_10 
REMARK    8  A    between atoms: C9_10  and  N2_11 
REMARK    9  A    between atoms: C12_14  and  N3_15 
REMARK   10  A    between atoms: C16_22  and  O1_23 
REMARK   11  A    between atoms: N5_25  and  C17_26 
REMARK   12  A    between atoms: C17_26  and  C18_27 
ROOT
HETATM    1  N3  UNL     1       1.979  -0.329  -0.207  1.00  0.00    -0.323 N 
HETATM    2  C13 UNL     1       2.375  -1.393  -1.060  1.00  0.00     0.174 C 
HETATM    3  C14 UNL     1       3.289  -2.397  -0.335  1.00  0.00     0.046 A 
HETATM    4  C15 UNL     1       4.231  -1.818   0.495  1.00  0.00     0.109 A 
HETATM    5  S1  UNL     1       5.178  -3.218   0.897  1.00  0.00     0.006 SA
HETATM    6  N4  UNL     1       4.354  -4.392   0.027  1.00  0.00    -0.305 N 
ATOM      7  H4  UNL     1       4.559  -5.389  -0.038  1.00  0.00     0.176 HD
HETATM    8  C16 UNL     1       3.366  -3.711  -0.560  1.00  0.00     0.157 A 
HETATM    9  N5  UNL     1       4.158  -0.480   0.953  1.00  0.00    -0.287 N 
HETATM   10  C26 UNL     1       2.986   0.318   0.575  1.00  0.00     0.326 C 
HETATM   11  O3  UNL     1       2.848   1.485   0.902  1.00  0.00    -0.247 OA
ENDROOT
BRANCH   1  12
HETATM   12  C12 UNL     1       0.600   0.024  -0.136  1.00  0.00     0.107 C 
HETATM   13  C11 UNL     1       0.344   1.435  -0.569  1.00  0.00     0.047 C 
HETATM   14  C10 UNL     1      -1.191   1.517  -0.783  1.00  0.00     0.140 C 
HETATM   15  N2  UNL     1      -1.834   0.376  -0.284  1.00  0.00    -0.331 N 
HETATM   16  N8  UNL     1      -1.503   0.038   0.989  1.00  0.00    -0.142 NA
HETATM   17  C27 UNL     1      -0.061  -0.195   1.209  1.00  0.00     0.160 C 
BRANCH  15  18
HETATM   18  C9  UNL     1      -3.226   0.230  -0.505  1.00  0.00     0.143 C 
BRANCH  18  19
HETATM   19  C8  UNL     1      -4.136   1.182   0.187  1.00  0.00     0.065 C 
BRANCH  19  20
HETATM   20  C7  UNL     1      -5.600   0.974  -0.049  1.00  0.00     0.064 C 
BRANCH  20  21
HETATM   21  N1  UNL     1      -6.228  -0.174   0.393  1.00  0.00    -0.374 N 
BRANCH  21  22
HETATM   22  C3  UNL     1      -6.379  -0.364   1.821  1.00  0.00     0.126 C 
BRANCH  22  23
HETATM   23  C2  UNL     1      -7.865  -0.469   2.175  1.00  0.00     0.016 C 
HETATM   24  C1  UNL     1      -8.580   0.782   1.729  1.00  0.00     0.006 C 
ENDBRANCH  22  23
ENDBRANCH  21  22
BRANCH  21  25
HETATM   25  C4  UNL     1      -6.586  -1.274  -0.357  1.00  0.00     0.062 C 
BRANCH  25  26
HETATM   26  C5  UNL     1      -6.630  -1.165  -1.840  1.00  0.00     0.040 C 
HETATM   27  C6  UNL     1      -7.630  -0.216  -2.399  1.00  0.00     0.010 C 
ENDBRANCH  25  26
ENDBRANCH  21  25
ENDBRANCH  20  21
ENDBRANCH  19  20
ENDBRANCH  18  19
ENDBRANCH  15  18
ENDBRANCH   1  12
BRANCH   9  28
HETATM   28  C17 UNL     1       5.210   0.213   1.611  1.00  0.00     0.179 C 
BRANCH  28  29
HETATM   29  C18 UNL     1       6.317   0.629   0.744  1.00  0.00     0.029 A 
HETATM   30  C19 UNL     1       7.313  -0.321   0.428  1.00  0.00     0.029 A 
HETATM   31  C20 UNL     1       8.476   0.105  -0.172  1.00  0.00     0.007 A 
HETATM   32  C21 UNL     1       9.477  -0.831  -0.446  1.00  0.00     0.101 A 
HETATM   33  C24 UNL     1       8.733   1.424  -0.486  1.00  0.00     0.048 A 
HETATM   34  N6  UNL     1      10.646  -0.482  -0.992  1.00  0.00    -0.374 N 
HETATM   35  C22 UNL     1      10.889   0.815  -1.302  1.00  0.00     0.090 A 
ATOM     36  H6  UNL     1      11.355  -1.192  -1.175  1.00  0.00     0.164 HD
HETATM   37  C23 UNL     1       9.950   1.779  -1.060  1.00  0.00     0.047 A 
HETATM   38  N7  UNL     1       7.790   2.309  -0.185  1.00  0.00    -0.322 N 
HETATM   39  C25 UNL     1       6.637   1.920   0.404  1.00  0.00     0.253 A 
ATOM     40  H7  UNL     1       7.937   3.295  -0.401  1.00  0.00     0.169 HD
HETATM   41  O2  UNL     1       5.772   2.829   0.658  1.00  0.00    -0.268 OA
ENDBRANCH  28  29
ENDBRANCH   9  28
BRANCH   8  42
HETATM   42  O1  UNL     1       2.535  -4.393  -1.320  1.00  0.00    -0.345 OA
ATOM     43  H1  UNL     1       2.590  -5.328  -1.480  1.00  0.00     0.219 HD
ENDBRANCH   8  42
TORSDOF 12
