REMARK  13 active torsions:
REMARK  status: ('A' for Active; 'I' for Inactive)
REMARK    1  A    between atoms: C2_2  and  C3_3 
REMARK    2  A    between atoms: C6_8  and  N2_9 
REMARK    3  A    between atoms: N2_9  and  C7_10 
REMARK    4  A    between atoms: C7_10  and  C8_11 
REMARK    5  A    between atoms: C8_11  and  N3_12 
REMARK    6  A    between atoms: C10_17  and  S1_18 
REMARK    7  A    between atoms: C13_21  and  N5_22 
REMARK    8  A    between atoms: N5_22  and  C14_24 
REMARK    9  A    between atoms: C14_24  and  C15_25 
REMARK   10  A    between atoms: C15_25  and  C16_26 
REMARK   11  A    between atoms: C16_26  and  N6_27 
REMARK   12  A    between atoms: C23_37  and  O2_38 
REMARK   13  A    between atoms: C25_40  and  O3_41 
ROOT
HETATM    1  N3  UNL     1      -0.071   0.355  -0.781  1.00  0.00    -0.220 N 
ATOM      2  H3  UNL     1      -0.522  -0.066  -1.593  1.00  0.00     0.178 HD
HETATM    3  C9  UNL     1       1.032  -0.161  -0.450  1.00  0.00     0.680 A 
HETATM    4  N4  UNL     1       1.510  -1.208  -1.187  1.00  0.00    -0.186 N 
ATOM      5  H4  UNL     1       0.975  -1.556  -1.983  1.00  0.00     0.185 HD
HETATM    6  C10 UNL     1       2.683  -1.781  -0.866  1.00  0.00     0.089 A 
HETATM    7  C12 UNL     1       3.370  -1.273   0.223  1.00  0.00     0.086 A 
HETATM    8  C13 UNL     1       2.909  -0.219   0.981  1.00  0.00     0.119 A 
HETATM    9  N7  UNL     1       1.713   0.316   0.601  1.00  0.00    -0.177 N 
ATOM     10  H7  UNL     1       1.328   1.098   1.130  1.00  0.00     0.185 HD
ENDROOT
BRANCH   1  11
HETATM   11  C8  UNL     1      -0.778   1.437  -0.188  1.00  0.00     0.197 C 
BRANCH  11  12
HETATM   12  C7  UNL     1      -1.662   0.969   0.974  1.00  0.00     0.177 C 
BRANCH  12  13
HETATM   13  N2  UNL     1      -2.615   0.074   0.667  1.00  0.00    -0.401 NA
BRANCH  13  14
HETATM   14  C6  UNL     1      -3.676  -0.397   0.378  1.00  0.00     0.189 A 
HETATM   15  N1  UNL     1      -3.758  -1.763   0.222  1.00  0.00    -0.334 N 
HETATM   16  C4  UNL     1      -4.891  -2.391  -0.096  1.00  0.00     0.015 A 
ATOM     17  H1  UNL     1      -2.914  -2.320   0.356  1.00  0.00     0.168 HD
HETATM   18  C3  UNL     1      -6.088  -1.707  -0.296  1.00  0.00    -0.025 A 
HETATM   19  C5  UNL     1      -4.915  -3.885  -0.249  1.00  0.00     0.069 C 
HETATM   20  C28 UNL     1      -6.059  -0.337  -0.152  1.00  0.00    -0.010 A 
HETATM   21  C21 UNL     1      -4.856   0.296   0.182  1.00  0.00     0.036 A 
HETATM   22  C27 UNL     1      -7.204   0.384  -0.342  1.00  0.00     0.052 A 
HETATM   23  C22 UNL     1      -4.880   1.674   0.311  1.00  0.00     0.057 A 
HETATM   24  C23 UNL     1      -6.048   2.391   0.116  1.00  0.00     0.102 A 
HETATM   25  C25 UNL     1      -7.228   1.763  -0.212  1.00  0.00     0.102 A 
BRANCH  18  26
HETATM   26  C2  UNL     1      -7.323  -2.472  -0.660  1.00  0.00     0.037 C 
HETATM   27  C1  UNL     1      -7.257  -2.808  -2.125  1.00  0.00     0.010 C 
ENDBRANCH  18  26
BRANCH  24  28
HETATM   28  O2  UNL     1      -5.997   3.765   0.261  1.00  0.00    -0.353 OA
HETATM   29  C24 UNL     1      -4.792   4.437   0.591  1.00  0.00     0.210 C 
ENDBRANCH  24  28
BRANCH  25  30
HETATM   30  O3  UNL     1      -8.412   2.482  -0.410  1.00  0.00    -0.353 OA
HETATM   31  C26 UNL     1      -9.575   1.750  -0.744  1.00  0.00     0.210 C 
ENDBRANCH  25  30
ENDBRANCH  13  14
ENDBRANCH  12  13
ENDBRANCH  11  12
ENDBRANCH   1  11
BRANCH   6  32
HETATM   32  S1  UNL     1       3.287  -3.147  -1.838  1.00  0.00    -0.116 SA
HETATM   33  C11 UNL     1       4.322  -2.559  -3.202  1.00  0.00     0.097 C 
ENDBRANCH   6  32
BRANCH   8  34
HETATM   34  N5  UNL     1       3.523   0.284   1.991  1.00  0.00    -0.376 N 
ATOM     35  H5  UNL     1       3.112   1.066   2.500  1.00  0.00     0.161 HD
BRANCH  34  36
HETATM   36  C14 UNL     1       4.796  -0.258   2.406  1.00  0.00     0.123 C 
BRANCH  36  37
HETATM   37  C15 UNL     1       5.890   0.389   1.583  1.00  0.00     0.050 C 
BRANCH  37  38
HETATM   38  C16 UNL     1       7.217  -0.162   1.994  1.00  0.00     0.274 C 
BRANCH  38  39
HETATM   39  N6  UNL     1       8.327   0.384   1.276  1.00  0.00     0.092 N 
HETATM   40  C17 UNL     1       8.605   1.759   1.539  1.00  0.00     0.298 C 
HETATM   41  C18 UNL     1       8.744   2.626   0.328  1.00  0.00     0.198 C 
HETATM   42  O1  UNL     1       9.427   2.074  -0.721  1.00  0.00    -0.388 OA
HETATM   43  C19 UNL     1       9.652   0.724  -0.660  1.00  0.00     0.198 C 
HETATM   44  C20 UNL     1       8.384   0.055  -0.114  1.00  0.00     0.298 C 
ENDBRANCH  38  39
ENDBRANCH  37  38
ENDBRANCH  36  37
ENDBRANCH  34  36
ENDBRANCH   8  34
TORSDOF 13
