REMARK  14 active torsions:
REMARK  status: ('A' for Active; 'I' for Inactive)
REMARK    1  A    between atoms: C2_2  and  C3_3 
REMARK    2  A    between atoms: C3_3  and  C4_4 
REMARK    3  A    between atoms: C4_4  and  N1_5 
REMARK    4  A    between atoms: C4_4  and  C5_9 
REMARK    5  A    between atoms: C4_4  and  C6_12 
REMARK    6  A    between atoms: C5_9  and  O1_10 
REMARK    7  A    between atoms: C6_12  and  O2_13 
REMARK    8  A    between atoms: C6_12  and  N2_15 
REMARK    9  A    between atoms: N2_15  and  C7_16 
REMARK   10  A    between atoms: N2_15  and  C27_44 
REMARK   11  A    between atoms: N4_22  and  C11_23 
REMARK   12  A    between atoms: C11_23  and  C12_24 
REMARK   13  A    between atoms: N6_29  and  C16_30 
REMARK   14  A    between atoms: C27_44  and  C28_45 
ROOT
HETATM    1  C12 UNL     1       2.809   2.368   0.002  1.00  0.00     0.159 C 
HETATM    2  C13 UNL     1       2.919   2.388   1.440  1.00  0.00     0.061 C 
HETATM    3  N5  UNL     1       3.025   2.410   2.590  1.00  0.00    -0.197 NA
ENDROOT
BRANCH   1   4
HETATM    4  C11 UNL     1       1.588   1.435  -0.329  1.00  0.00     0.094 C 
HETATM    5  C14 UNL     1       1.616   1.345  -1.802  1.00  0.00     0.066 C 
HETATM    6  C15 UNL     1       2.460   0.087  -2.048  1.00  0.00     0.275 C 
HETATM    7  N6  UNL     1       3.157  -0.145  -0.797  1.00  0.00     0.095 N 
HETATM    8  C23 UNL     1       2.076   0.132   0.173  1.00  0.00     0.306 C 
BRANCH   4   9
HETATM    9  N4  UNL     1       0.451   2.025   0.292  1.00  0.00    -0.277 N 
HETATM   10  C8  UNL     1      -0.834   1.542   0.410  1.00  0.00     0.076 A 
HETATM   11  C7  UNL     1      -1.178   0.227  -0.085  1.00  0.00     0.124 C 
HETATM   12  C9  UNL     1      -1.557   2.475   1.091  1.00  0.00     0.007 A 
HETATM   13  C10 UNL     1      -0.714   3.529   1.394  1.00  0.00     0.124 A 
HETATM   14  C26 UNL     1      -2.972   2.616   1.510  1.00  0.00     0.063 C 
HETATM   15  N3  UNL     1       0.459   3.187   0.886  1.00  0.00    -0.292 N 
HETATM   16  C24 UNL     1      -1.157   4.722   2.142  1.00  0.00     0.270 C 
ATOM     17  H3  UNL     1       1.290   3.775   0.952  1.00  0.00     0.187 HD
HETATM   18  O3  UNL     1      -0.369   5.654   2.400  1.00  0.00    -0.266 OA
HETATM   19  N7  UNL     1      -2.512   4.765   2.556  1.00  0.00    -0.355 N 
HETATM   20  C25 UNL     1      -3.438   4.013   1.752  1.00  0.00     0.128 C 
ATOM     21  H7  UNL     1      -2.812   5.296   3.373  1.00  0.00     0.162 HD
BRANCH  11  22
HETATM   22  N2  UNL     1      -2.423  -0.090  -0.635  1.00  0.00    -0.337 N 
BRANCH  22  23
HETATM   23  C6  UNL     1      -3.497  -0.651   0.060  1.00  0.00     0.156 C 
BRANCH  23  24
HETATM   24  C4  UNL     1      -3.702  -1.159   1.399  1.00  0.00     0.208 C 
BRANCH  24  25
HETATM   25  C3  UNL     1      -3.933  -2.711   1.310  1.00  0.00     0.049 C 
BRANCH  25  26
HETATM   26  C2  UNL     1      -2.697  -3.377   0.798  1.00  0.00    -0.002 C 
HETATM   27  C1  UNL     1      -2.904  -4.875   0.707  1.00  0.00     0.005 C 
ENDBRANCH  25  26
ENDBRANCH  24  25
BRANCH  24  28
HETATM   28  N1  UNL     1      -2.614  -0.996   2.306  1.00  0.00    -0.061 N 
ATOM     29  H13 UNL     1      -2.761  -1.444   3.211  1.00  0.00     0.275 HD
ATOM     30  H12 UNL     1      -1.780  -1.523   2.048  1.00  0.00     0.275 HD
ATOM     31  H11 UNL     1      -2.464   0.011   2.364  1.00  0.00     0.275 HD
ENDBRANCH  24  28
BRANCH  24  32
HETATM   32  C5  UNL     1      -4.973  -0.682   2.070  1.00  0.00     0.211 C 
BRANCH  32  33
HETATM   33  O1  UNL     1      -6.049  -0.830   1.203  1.00  0.00    -0.398 OA
ATOM     34  H1  UNL     1      -6.846  -0.531   1.624  1.00  0.00     0.209 HD
ENDBRANCH  32  33
ENDBRANCH  24  32
ENDBRANCH  23  24
BRANCH  23  35
HETATM   35  O2  UNL     1      -4.589  -0.756  -0.672  1.00  0.00    -0.347 OA
ATOM     36  H2  UNL     1      -4.454  -0.422  -1.551  1.00  0.00     0.219 HD
ENDBRANCH  23  35
ENDBRANCH  22  23
BRANCH  22  37
HETATM   37  C27 UNL     1      -2.606   0.070  -2.074  1.00  0.00     0.135 C 
BRANCH  37  38
HETATM   38  C28 UNL     1      -3.245   1.277  -2.588  1.00  0.00     0.004 A 
HETATM   39  C29 UNL     1      -2.836   2.668  -2.487  1.00  0.00     0.007 A 
HETATM   40  C30 UNL     1      -2.580   1.960  -3.779  1.00  0.00     0.007 A 
ENDBRANCH  37  38
ENDBRANCH  22  37
ENDBRANCH  11  22
ENDBRANCH   4   9
BRANCH   7  41
HETATM   41  C16 UNL     1       3.633  -1.488  -0.662  1.00  0.00     0.223 C 
HETATM   42  C17 UNL     1       4.640  -1.777  -1.754  1.00  0.00     0.036 C 
HETATM   43  C18 UNL     1       5.904  -0.969  -1.566  1.00  0.00     0.002 C 
HETATM   44  C19 UNL     1       6.834  -1.564  -0.566  1.00  0.00     0.000 C 
HETATM   45  C20 UNL     1       6.412  -2.914  -0.070  1.00  0.00     0.000 C 
HETATM   46  C21 UNL     1       5.112  -2.918   0.671  1.00  0.00     0.002 C 
HETATM   47  C22 UNL     1       4.371  -1.624   0.653  1.00  0.00     0.036 C 
ENDBRANCH   7  41
ENDBRANCH   1   4
TORSDOF 14
