REMARK  15 active torsions:
REMARK  status: ('A' for Active; 'I' for Inactive)
REMARK    1  A    between atoms: C2_2  and  C4_4 
REMARK    2  A    between atoms: C4_4  and  C5_5 
REMARK    3  A    between atoms: C6_8  and  O1_9 
REMARK    4  A    between atoms: C7_11  and  C8_12 
REMARK    5  A    between atoms: C8_12  and  C9_13 
REMARK    6  A    between atoms: C17_27  and  C18_28 
REMARK    7  A    between atoms: C18_28  and  C19_29 
REMARK    8  A    between atoms: C23_36  and  C24_37 
REMARK    9  A    between atoms: C24_37  and  C25_38 
REMARK   10  A    between atoms: C25_38  and  C26_39 
REMARK   11  A    between atoms: C26_39  and  C27_40 
REMARK   12  A    between atoms: C27_40  and  N5_41 
REMARK   13  A    between atoms: C30_49  and  C31_50 
REMARK   14  A    between atoms: C31_50  and  C32_51 
REMARK   15  A    between atoms: C35_56  and  O6_57 
ROOT
HETATM    1  C5  UNL     1       2.641   0.878   0.880  1.00  0.00     0.158 C 
HETATM    2  N1  UNL     1       2.611   0.499  -0.521  1.00  0.00    -0.361 N 
ATOM      3  H1  UNL     1       2.917   1.214  -1.181  1.00  0.00     0.162 HD
HETATM    4  C6  UNL     1       2.215  -0.726  -1.086  1.00  0.00     0.135 C 
HETATM    5  C7  UNL     1       2.782  -2.069  -0.868  1.00  0.00     0.159 C 
HETATM    6  N2  UNL     1       2.504  -2.655   0.419  1.00  0.00    -0.347 N 
ATOM      7  H2  UNL     1       3.144  -2.380   1.164  1.00  0.00     0.163 HD
HETATM    8  C12 UNL     1       1.494  -3.542   0.808  1.00  0.00     0.246 C 
HETATM    9  O2  UNL     1       1.891  -4.639   1.352  1.00  0.00    -0.271 OA
HETATM   10  C13 UNL     1       0.030  -3.398   0.685  1.00  0.00     0.106 C 
HETATM   11  C14 UNL     1      -0.649  -4.583   1.393  1.00  0.00     0.048 C 
HETATM   12  C15 UNL     1      -0.412  -2.181   1.459  1.00  0.00     0.048 C 
HETATM   13  N3  UNL     1      -0.420  -3.435  -0.661  1.00  0.00    -0.342 N 
ATOM     14  H3  UNL     1       0.295  -3.708  -1.335  1.00  0.00     0.163 HD
HETATM   15  C16 UNL     1      -1.662  -3.165  -1.224  1.00  0.00     0.241 C 
HETATM   16  O3  UNL     1      -2.087  -3.985  -2.128  1.00  0.00    -0.271 OA
HETATM   17  C17 UNL     1      -2.601  -2.065  -0.955  1.00  0.00     0.177 C 
HETATM   18  N4  UNL     1      -2.436  -1.004  -1.936  1.00  0.00    -0.346 N 
ATOM     19  H4  UNL     1      -2.129  -1.293  -2.865  1.00  0.00     0.163 HD
HETATM   20  C22 UNL     1      -2.651   0.377  -1.752  1.00  0.00     0.241 C 
HETATM   21  O4  UNL     1      -3.564   0.863  -2.524  1.00  0.00    -0.271 OA
HETATM   22  C23 UNL     1      -2.000   1.305  -0.835  1.00  0.00     0.178 C 
HETATM   23  N6  UNL     1      -1.920   2.683  -1.251  1.00  0.00    -0.341 N 
HETATM   24  C28 UNL     1      -2.936   3.268  -2.077  1.00  0.00     0.153 C 
HETATM   25  C29 UNL     1      -0.813   3.528  -0.830  1.00  0.00     0.243 C 
HETATM   26  O5  UNL     1      -1.084   4.736  -0.525  1.00  0.00    -0.271 OA
HETATM   27  C30 UNL     1       0.581   3.094  -0.726  1.00  0.00     0.176 C 
HETATM   28  N7  UNL     1       0.946   2.814   0.678  1.00  0.00    -0.359 N 
ATOM     29  H7  UNL     1       0.808   3.586   1.330  1.00  0.00     0.162 HD
HETATM   30  C35 UNL     1       1.448   1.653   1.230  1.00  0.00     0.135 C 
ENDROOT
BRANCH  22  31
HETATM   31  C24 UNL     1      -2.497   1.275   0.588  1.00  0.00     0.035 C 
BRANCH  31  32
HETATM   32  C25 UNL     1      -3.938   1.574   0.789  1.00  0.00     0.004 C 
BRANCH  32  33
HETATM   33  C26 UNL     1      -4.324   1.480   2.272  1.00  0.00     0.027 C 
BRANCH  33  34
HETATM   34  C27 UNL     1      -5.815   1.808   2.326  1.00  0.00     0.229 C 
BRANCH  34  35
HETATM   35  N5  UNL     1      -6.309   1.752   3.687  1.00  0.00    -0.079 N 
ATOM     36  H53 UNL     1      -6.105   0.854   4.125  1.00  0.00     0.274 HD
ATOM     37  H52 UNL     1      -5.768   2.353   4.309  1.00  0.00     0.274 HD
ATOM     38  H51 UNL     1      -7.305   1.971   3.723  1.00  0.00     0.274 HD
ENDBRANCH  34  35
ENDBRANCH  33  34
ENDBRANCH  32  33
ENDBRANCH  31  32
ENDBRANCH  22  31
BRANCH  17  39
HETATM   39  C18 UNL     1      -4.016  -2.662  -1.096  1.00  0.00     0.038 C 
BRANCH  39  40
HETATM   40  C19 UNL     1      -4.296  -3.767  -0.153  1.00  0.00    -0.020 C 
HETATM   41  C20 UNL     1      -5.733  -4.237  -0.463  1.00  0.00     0.009 C 
HETATM   42  C21 UNL     1      -4.379  -3.286   1.302  1.00  0.00     0.009 C 
ENDBRANCH  39  40
ENDBRANCH  17  39
BRANCH  27  43
HETATM   43  C31 UNL     1       1.576   4.055  -1.260  1.00  0.00     0.038 C 
BRANCH  43  44
HETATM   44  C32 UNL     1       1.591   4.402  -2.676  1.00  0.00    -0.020 C 
HETATM   45  C33 UNL     1       2.785   5.392  -2.898  1.00  0.00     0.009 C 
HETATM   46  C34 UNL     1       0.374   5.074  -3.191  1.00  0.00     0.009 C 
ENDBRANCH  43  44
ENDBRANCH  27  43
BRANCH  30  47
HETATM   47  O6  UNL     1       0.756   1.163   2.221  1.00  0.00    -0.348 OA
ATOM     48  H6  UNL     1      -0.018   1.666   2.448  1.00  0.00     0.219 HD
ENDBRANCH  30  47
BRANCH   1  49
HETATM   49  C4  UNL     1       3.957   1.529   1.117  1.00  0.00     0.037 C 
BRANCH  49  50
HETATM   50  C2  UNL     1       4.301   2.030   2.445  1.00  0.00    -0.020 C 
HETATM   51  C1  UNL     1       4.311   1.047   3.566  1.00  0.00     0.009 C 
HETATM   52  C3  UNL     1       3.548   3.263   2.863  1.00  0.00     0.009 C 
ENDBRANCH  49  50
ENDBRANCH   1  49
BRANCH   4  53
HETATM   53  O1  UNL     1       1.213  -0.617  -1.908  1.00  0.00    -0.348 OA
ATOM     54  H1  UNL     1       0.945  -1.445  -2.290  1.00  0.00     0.219 HD
ENDBRANCH   4  53
BRANCH   5  55
HETATM   55  C8  UNL     1       4.316  -2.043  -1.062  1.00  0.00     0.037 C 
BRANCH  55  56
HETATM   56  C9  UNL     1       4.925  -3.408  -0.861  1.00  0.00    -0.020 C 
HETATM   57  C10 UNL     1       6.433  -3.362  -1.035  1.00  0.00     0.009 C 
HETATM   58  C11 UNL     1       4.321  -4.429  -1.815  1.00  0.00     0.009 C 
ENDBRANCH  55  56
ENDBRANCH   5  55
TORSDOF 15
