REMARK  13 active torsions:
REMARK  status: ('A' for Active; 'I' for Inactive)
REMARK    1  A    between atoms: C2_2  and  C3_3 
REMARK    2  A    between atoms: C3_3  and  C4_4 
REMARK    3  A    between atoms: C4_4  and  N1_5 
REMARK    4  A    between atoms: C6_8  and  C7_9 
REMARK    5  A    between atoms: C11_16  and  C12_17 
REMARK    6  A    between atoms: C12_17  and  C13_18 
REMARK    7  A    between atoms: C16_23  and  O3_24 
REMARK    8  A    between atoms: C17_26  and  C18_27 
REMARK    9  A    between atoms: C22_34  and  C23_35 
REMARK   10  A    between atoms: C27_42  and  C28_43 
REMARK   11  A    between atoms: C28_43  and  C30_45 
REMARK   12  A    between atoms: C33_51  and  C34_52 
REMARK   13  A    between atoms: C34_52  and  N7_54 
ROOT
HETATM    1  N1  UNL     1      -2.682  -0.908  -0.148  1.00  0.00    -0.335 N 
HETATM    2  C5  UNL     1      -1.735  -1.937   0.200  1.00  0.00     0.243 C 
HETATM    3  O1  UNL     1      -1.591  -2.915  -0.565  1.00  0.00    -0.271 OA
HETATM    4  C6  UNL     1      -0.914  -1.927   1.400  1.00  0.00     0.180 C 
HETATM    5  N2  UNL     1       0.169  -2.874   1.455  1.00  0.00    -0.346 N 
ATOM      6  H2  UNL     1       0.570  -2.988   2.386  1.00  0.00     0.163 HD
HETATM    7  C10 UNL     1       0.771  -3.661   0.483  1.00  0.00     0.241 C 
HETATM    8  O2  UNL     1       0.484  -4.925   0.565  1.00  0.00    -0.271 OA
HETATM    9  C11 UNL     1       1.676  -3.335  -0.623  1.00  0.00     0.175 C 
HETATM   10  N3  UNL     1       1.777  -1.966  -1.025  1.00  0.00    -0.359 N 
ATOM     11  H3  UNL     1       1.113  -1.719  -1.759  1.00  0.00     0.162 HD
HETATM   12  C16 UNL     1       2.582  -0.892  -0.637  1.00  0.00     0.135 C 
HETATM   13  C17 UNL     1       2.597  -0.082   0.606  1.00  0.00     0.162 C 
HETATM   14  N4  UNL     1       3.087   1.266   0.448  1.00  0.00    -0.347 N 
ATOM     15  H4  UNL     1       4.007   1.427   0.859  1.00  0.00     0.163 HD
HETATM   16  C21 UNL     1       2.533   2.386  -0.163  1.00  0.00     0.241 C 
HETATM   17  O4  UNL     1       2.435   3.465   0.532  1.00  0.00    -0.271 OA
HETATM   18  C22 UNL     1       2.018   2.552  -1.536  1.00  0.00     0.180 C 
HETATM   19  N5  UNL     1       0.970   3.504  -1.709  1.00  0.00    -0.342 N 
ATOM     20  H5  UNL     1       0.799   3.726  -2.690  1.00  0.00     0.163 HD
HETATM   21  C26 UNL     1       0.129   4.198  -0.849  1.00  0.00     0.265 C 
HETATM   22  O5  UNL     1       0.298   5.476  -0.849  1.00  0.00    -0.266 OA
HETATM   23  C27 UNL     1      -0.917   3.647   0.043  1.00  0.00     0.084 C 
HETATM   24  N6  UNL     1      -1.407   2.521   0.046  1.00  0.00    -0.324 N 
ATOM     25  H6  UNL     1      -2.078   2.567   0.812  1.00  0.00     0.169 HD
HETATM   26  C32 UNL     1      -1.549   1.261  -0.401  1.00  0.00     0.247 C 
HETATM   27  O6  UNL     1      -0.999   0.608  -1.337  1.00  0.00    -0.271 OA
HETATM   28  C33 UNL     1      -2.582   0.412   0.355  1.00  0.00     0.209 C 
ENDROOT
BRANCH  28  29
HETATM   29  C34 UNL     1      -3.806   1.221   0.508  1.00  0.00     0.211 C 
HETATM   30  C35 UNL     1      -4.848   0.652   1.416  1.00  0.00     0.042 C 
BRANCH  29  31
HETATM   31  N7  UNL     1      -4.385   1.736  -0.711  1.00  0.00    -0.073 N 
ATOM     32  H73 UNL     1      -3.684   2.265  -1.230  1.00  0.00     0.274 HD
ATOM     33  H72 UNL     1      -4.557   0.970  -1.362  1.00  0.00     0.274 HD
ATOM     34  H71 UNL     1      -5.231   2.295  -0.605  1.00  0.00     0.274 HD
ENDBRANCH  29  31
ENDBRANCH  28  29
BRANCH   1  35
HETATM   35  C4  UNL     1      -3.749  -1.325  -1.031  1.00  0.00     0.127 C 
BRANCH  35  36
HETATM   36  C3  UNL     1      -3.459  -1.191  -2.490  1.00  0.00     0.020 C 
BRANCH  36  37
HETATM   37  C2  UNL     1      -4.645  -1.680  -3.336  1.00  0.00    -0.003 C 
HETATM   38  C1  UNL     1      -5.880  -0.867  -3.023  1.00  0.00     0.005 C 
ENDBRANCH  36  37
ENDBRANCH  35  36
ENDBRANCH   1  35
BRANCH   4  39
HETATM   39  C7  UNL     1      -1.868  -2.298   2.557  1.00  0.00     0.009 C 
HETATM   40  C8  UNL     1      -1.162  -2.327   3.871  1.00  0.00     0.012 C 
HETATM   41  C9  UNL     1      -2.509  -3.642   2.297  1.00  0.00     0.012 C 
ENDBRANCH   4  39
BRANCH  23  42
HETATM   42  C28 UNL     1      -1.449   4.623   1.075  1.00  0.00     0.037 C 
HETATM   43  C29 UNL     1      -2.027   5.784   0.295  1.00  0.00     0.016 C 
BRANCH  42  44
HETATM   44  C30 UNL     1      -0.412   5.042   2.070  1.00  0.00     0.006 C 
HETATM   45  C31 UNL     1      -1.044   6.023   3.070  1.00  0.00     0.006 C 
ENDBRANCH  42  44
ENDBRANCH  23  42
BRANCH   9  46
HETATM   46  C12 UNL     1       2.974  -4.046  -0.469  1.00  0.00     0.038 C 
BRANCH  46  47
HETATM   47  C13 UNL     1       2.985  -5.526  -0.459  1.00  0.00    -0.020 C 
HETATM   48  C14 UNL     1       4.458  -6.006  -0.316  1.00  0.00     0.009 C 
HETATM   49  C15 UNL     1       2.530  -6.047  -1.805  1.00  0.00     0.009 C 
ENDBRANCH  46  47
ENDBRANCH   9  46
BRANCH  18  50
HETATM   50  C23 UNL     1       3.165   3.019  -2.468  1.00  0.00     0.009 C 
HETATM   51  C24 UNL     1       2.646   3.182  -3.846  1.00  0.00     0.012 C 
HETATM   52  C25 UNL     1       3.798   4.260  -1.893  1.00  0.00     0.012 C 
ENDBRANCH  18  50
BRANCH  12  53
HETATM   53  O3  UNL     1       3.510  -0.456  -1.453  1.00  0.00    -0.348 OA
ATOM     54  H3  UNL     1       4.057   0.274  -1.189  1.00  0.00     0.219 HD
ENDBRANCH  12  53
BRANCH  13  55
HETATM   55  C18 UNL     1       3.512  -0.838   1.578  1.00  0.00     0.008 C 
HETATM   56  C19 UNL     1       3.607  -0.075   2.898  1.00  0.00     0.012 C 
HETATM   57  C20 UNL     1       4.899  -0.979   1.039  1.00  0.00     0.012 C 
ENDBRANCH  13  55
TORSDOF 13
