REMARK  15 active torsions:
REMARK  status: ('A' for Active; 'I' for Inactive)
REMARK    1  A    between atoms: C2_2  and  C4_4 
REMARK    2  A    between atoms: C4_4  and  C5_5 
REMARK    3  A    between atoms: C5_5  and  C6_6 
REMARK    4  A    between atoms: C7_9  and  C8_10 
REMARK    5  A    between atoms: C8_10  and  C9_11 
REMARK    6  A    between atoms: C9_11  and  C10_12 
REMARK    7  A    between atoms: C10_12  and  N2_13 
REMARK    8  A    between atoms: C12_18  and  O1_19 
REMARK    9  A    between atoms: C14_23  and  C15_24 
REMARK   10  A    between atoms: C15_24  and  C16_25 
REMARK   11  A    between atoms: C19_28  and  O2_29 
REMARK   12  A    between atoms: C20_33  and  C21_34 
REMARK   13  A    between atoms: C21_34  and  C22_35 
REMARK   14  A    between atoms: C26_42  and  C27_43 
REMARK   15  A    between atoms: C31_50  and  C32_51 
ROOT
HETATM    1  C6  UNL     1      -1.902   0.896   0.564  1.00  0.00     0.184 C 
HETATM    2  N1  UNL     1      -2.049  -0.214  -0.243  1.00  0.00    -0.368 N 
ATOM      3  H1  UNL     1      -2.305   0.097  -1.180  1.00  0.00     0.161 HD
HETATM    4  C7  UNL     1      -1.982  -1.470  -0.243  1.00  0.00     0.058 C 
HETATM    5  C12 UNL     1      -1.673  -2.355   0.883  1.00  0.00     0.161 C 
HETATM    6  N5  UNL     1      -0.550  -2.490   1.719  1.00  0.00    -0.349 N 
HETATM    7  C13 UNL     1      -0.802  -2.235   3.160  1.00  0.00     0.153 C 
HETATM    8  C14 UNL     1       0.804  -2.870   1.338  1.00  0.00     0.183 C 
HETATM    9  C19 UNL     1       1.236  -2.308   0.018  1.00  0.00     0.139 C 
HETATM   10  N6  UNL     1       1.688  -1.053  -0.305  1.00  0.00    -0.359 N 
ATOM     11  H6  UNL     1       1.003  -0.504  -0.824  1.00  0.00     0.162 HD
HETATM   12  C20 UNL     1       2.930  -0.336  -0.069  1.00  0.00     0.175 C 
HETATM   13  C25 UNL     1       3.356   0.099  -1.448  1.00  0.00     0.241 C 
HETATM   14  O3  UNL     1       3.401  -0.881  -2.277  1.00  0.00    -0.271 OA
HETATM   15  N7  UNL     1       3.674   1.382  -1.856  1.00  0.00    -0.346 N 
ATOM     16  H7  UNL     1       4.500   1.463  -2.448  1.00  0.00     0.163 HD
HETATM   17  C26 UNL     1       2.995   2.627  -1.558  1.00  0.00     0.180 C 
HETATM   18  C30 UNL     1       1.608   2.695  -2.053  1.00  0.00     0.241 C 
HETATM   19  O4  UNL     1       1.444   2.669  -3.319  1.00  0.00    -0.271 OA
HETATM   20  N8  UNL     1       0.427   2.788  -1.303  1.00  0.00    -0.346 N 
ATOM     21  H8  UNL     1      -0.401   2.362  -1.719  1.00  0.00     0.163 HD
HETATM   22  C31 UNL     1       0.239   3.413  -0.013  1.00  0.00     0.180 C 
HETATM   23  C35 UNL     1       0.102   2.419   1.072  1.00  0.00     0.242 C 
HETATM   24  O5  UNL     1       0.784   2.708   2.133  1.00  0.00    -0.271 OA
HETATM   25  N9  UNL     1      -0.634   1.245   1.124  1.00  0.00    -0.338 N 
ATOM     26  H9  UNL     1      -0.191   0.497   1.657  1.00  0.00     0.164 HD
ENDROOT
BRANCH   4  27
HETATM   27  C8  UNL     1      -2.281  -2.195  -1.548  1.00  0.00     0.063 C 
BRANCH  27  28
HETATM   28  C9  UNL     1      -2.677  -1.215  -2.631  1.00  0.00     0.026 C 
BRANCH  28  29
HETATM   29  C10 UNL     1      -2.977  -1.963  -3.908  1.00  0.00     0.122 C 
BRANCH  29  30
HETATM   30  N2  UNL     1      -4.045  -2.879  -3.671  1.00  0.00    -0.367 N 
HETATM   31  C11 UNL     1      -5.177  -2.927  -4.251  1.00  0.00     0.196 C 
HETATM   32  N3  UNL     1      -5.592  -2.027  -5.292  1.00  0.00    -0.067 NA
HETATM   33  N4  UNL     1      -6.087  -3.934  -3.842  1.00  0.00    -0.067 NA
ATOM     34  H2  UNL     1      -3.881  -3.581  -2.949  1.00  0.00     0.161 HD
ENDBRANCH  29  30
ENDBRANCH  28  29
ENDBRANCH  27  28
ENDBRANCH   4  27
BRANCH   5  35
HETATM   35  O1  UNL     1      -2.664  -3.179   1.146  1.00  0.00    -0.345 OA
ATOM     36  H1  UNL     1      -2.464  -3.753   1.876  1.00  0.00     0.219 HD
ENDBRANCH   5  35
BRANCH   1  37
HETATM   37  C5  UNL     1      -2.935   1.013   1.693  1.00  0.00     0.051 C 
BRANCH  37  38
HETATM   38  C4  UNL     1      -4.338   1.094   1.205  1.00  0.00     0.036 C 
BRANCH  38  39
HETATM   39  C2  UNL     1      -5.245   1.213   2.398  1.00  0.00    -0.093 C 
HETATM   40  C1  UNL     1      -4.757   1.239   3.627  1.00  0.00     0.014 C 
HETATM   41  C3  UNL     1      -6.722   1.304   2.227  1.00  0.00     0.042 C 
ENDBRANCH  38  39
ENDBRANCH  37  38
ENDBRANCH   1  37
BRANCH   8  42
HETATM   42  C15 UNL     1       1.114  -4.304   1.299  1.00  0.00     0.008 C 
BRANCH  42  43
HETATM   43  C16 UNL     1       1.047  -5.204   2.435  1.00  0.00    -0.089 C 
HETATM   44  C17 UNL     1       1.947  -4.880   3.605  1.00  0.00     0.042 C 
HETATM   45  C18 UNL     1      -0.334  -5.627   2.887  1.00  0.00     0.042 C 
ENDBRANCH  42  43
ENDBRANCH   8  42
BRANCH   9  46
HETATM   46  O2  UNL     1       1.157  -3.179  -0.957  1.00  0.00    -0.348 OA
ATOM     47  H2  UNL     1       1.431  -2.823  -1.794  1.00  0.00     0.219 HD
ENDBRANCH   9  46
BRANCH  22  48
HETATM   48  C32 UNL     1      -0.848   4.468  -0.009  1.00  0.00     0.009 C 
HETATM   49  C33 UNL     1      -1.011   5.079   1.371  1.00  0.00     0.012 C 
HETATM   50  C34 UNL     1      -0.410   5.648  -0.892  1.00  0.00     0.012 C 
ENDBRANCH  22  48
BRANCH  12  51
HETATM   51  C21 UNL     1       3.943  -1.092   0.682  1.00  0.00     0.038 C 
BRANCH  51  52
HETATM   52  C22 UNL     1       5.218  -0.408   0.973  1.00  0.00    -0.020 C 
HETATM   53  C23 UNL     1       6.061  -1.426   1.792  1.00  0.00     0.009 C 
HETATM   54  C24 UNL     1       6.091   0.007  -0.149  1.00  0.00     0.009 C 
ENDBRANCH  51  52
ENDBRANCH  12  51
BRANCH  17  55
HETATM   55  C27 UNL     1       3.877   3.763  -2.068  1.00  0.00     0.009 C 
HETATM   56  C28 UNL     1       3.302   5.122  -1.853  1.00  0.00     0.012 C 
HETATM   57  C29 UNL     1       4.354   3.568  -3.478  1.00  0.00     0.012 C 
ENDBRANCH  17  55
TORSDOF 15
