REMARK  6 active torsions:
REMARK  status: ('A' for Active; 'I' for Inactive)
REMARK    1  A    between atoms: N1_1  and  C1_5 
REMARK    2  A    between atoms: C1_5  and  C2_6 
REMARK    3  A    between atoms: C1_5  and  C11_16 
REMARK    4  A    between atoms: C2_6  and  O1_7 
REMARK    5  A    between atoms: O1_7  and  C3_8 
REMARK    6  A    between atoms: C3_8  and  C4_9 
ROOT
HETATM    1  C2  UNL     1       1.488  -0.120  -0.445  1.00  0.00     0.200 C 
ENDROOT
BRANCH   1   2
HETATM    2  C1  UNL     1       2.734  -0.795   0.101  1.00  0.00     0.211 C 
BRANCH   2   3
HETATM    3  N1  UNL     1       2.282  -1.803   1.041  1.00  0.00    -0.073 N 
ATOM      4  H13 UNL     1       1.673  -1.430   1.770  1.00  0.00     0.274 HD
ATOM      5  H12 UNL     1       1.612  -2.458   0.638  1.00  0.00     0.274 HD
ATOM      6  H11 UNL     1       3.119  -2.256   1.408  1.00  0.00     0.274 HD
ENDBRANCH   2   3
BRANCH   2   7
HETATM    7  C11 UNL     1       3.600   0.183   0.860  1.00  0.00     0.018 A 
HETATM    8  C12 UNL     1       4.221   1.338   0.181  1.00  0.00     0.007 A 
HETATM    9  C13 UNL     1       5.074   0.112   0.470  1.00  0.00     0.007 A 
ENDBRANCH   2   7
ENDBRANCH   1   2
BRANCH   1  10
HETATM   10  O1  UNL     1       0.829   0.435   0.639  1.00  0.00    -0.389 OA
BRANCH  10  11
HETATM   11  C3  UNL     1      -0.306   1.077   0.230  1.00  0.00     0.172 C 
BRANCH  11  12
HETATM   12  C4  UNL     1      -1.267   0.178  -0.445  1.00  0.00     0.014 C 
HETATM   13  C5  UNL     1      -1.734  -0.972   0.443  1.00  0.00     0.011 C 
HETATM   14  C6  UNL     1      -3.213  -1.103   0.246  1.00  0.00    -0.014 C 
HETATM   15  C7  UNL     1      -3.877  -0.067   1.127  1.00  0.00     0.005 C 
HETATM   16  C10 UNL     1      -3.391  -0.424  -1.124  1.00  0.00     0.010 C 
HETATM   17  C8  UNL     1      -3.347   1.233   0.503  1.00  0.00     0.005 C 
HETATM   18  C9  UNL     1      -2.605   0.846  -0.735  1.00  0.00    -0.008 C 
ENDBRANCH  11  12
ENDBRANCH  10  11
ENDBRANCH   1  10
TORSDOF 6
