REMARK  5 active torsions:
REMARK  status: ('A' for Active; 'I' for Inactive)
REMARK    1  A    between atoms: C2_2  and  C3_3 
REMARK    2  A    between atoms: C3_3  and  N1_4 
REMARK       I    between atoms: N1_4  and  C4_5 
REMARK    3  A    between atoms: N1_4  and  C7_9 
REMARK    4  A    between atoms: C4_5  and  C5_7 
REMARK    5  A    between atoms: C13_15  and  O2_16 
ROOT
HETATM    1  C7  UNL     1      -0.477   0.091  -0.180  1.00  0.00     0.058 C 
HETATM    2  C8  UNL     1      -0.489  -0.051  -1.713  1.00  0.00     0.041 C 
HETATM    3  C9  UNL     1      -1.250   1.389   0.116  1.00  0.00     0.033 C 
HETATM    4  C10 UNL     1      -2.675   1.166   0.492  1.00  0.00     0.003 C 
HETATM    5  C11 UNL     1      -3.351   0.012  -0.153  1.00  0.00     0.003 C 
HETATM    6  C12 UNL     1      -2.514  -1.196  -0.355  1.00  0.00     0.034 C 
HETATM    7  C13 UNL     1      -1.175  -1.063   0.404  1.00  0.00     0.146 C 
ENDROOT
BRANCH   1   8
HETATM    8  N1  UNL     1       0.902   0.241   0.179  1.00  0.00    -0.334 N 
HETATM    9  C4  UNL     1       1.639   1.436  -0.173  1.00  0.00     0.243 C 
HETATM   10  O1  UNL     1       1.119   2.384  -0.805  1.00  0.00    -0.268 OA
BRANCH   8  11
HETATM   11  C3  UNL     1       1.563  -0.810   0.912  1.00  0.00     0.153 C 
BRANCH  11  12
HETATM   12  C2  UNL     1       2.333  -1.754   0.088  1.00  0.00    -0.017 C 
HETATM   13  C1  UNL     1       2.077  -3.037   0.106  1.00  0.00     0.008 C 
ENDBRANCH  11  12
ENDBRANCH   8  11
BRANCH   9  14
HETATM   14  C5  UNL     1       3.037   1.587   0.199  1.00  0.00     0.064 C 
HETATM   15  C6  UNL     1       3.743   2.659  -0.100  1.00  0.00     0.017 C 
ENDBRANCH   9  14
ENDBRANCH   1   8
BRANCH   7  16
HETATM   16  O2  UNL     1      -1.545  -0.897   1.738  1.00  0.00    -0.393 OA
ATOM     17  H2  UNL     1      -1.996  -1.643   2.115  1.00  0.00     0.210 HD
ENDBRANCH   7  16
TORSDOF 5
