REMARK  5 active torsions:
REMARK  status: ('A' for Active; 'I' for Inactive)
REMARK    1  A    between atoms: C3_3  and  C4_4 
REMARK    2  A    between atoms: C3_3  and  C5_7 
REMARK    3  A    between atoms: C5_7  and  C6_8 
REMARK    4  A    between atoms: C5_7  and  C7_10 
REMARK    5  A    between atoms: C7_10  and  C8_11 
ROOT
HETATM    1  C1  UNL     1       3.672   1.905   0.541  1.00  0.00     0.013 C 
HETATM    2  C2  UNL     1       3.222   0.923   0.012  1.00  0.00    -0.101 C 
HETATM    3  C3  UNL     1       2.644  -0.286  -0.638  1.00  0.00     0.175 C 
ENDROOT
BRANCH   3   4
HETATM    4  C4  UNL     1       2.832  -1.420   0.253  1.00  0.00     0.189 C 
HETATM    5  O1  UNL     1       3.301  -1.246   1.408  1.00  0.00    -0.647 OA
HETATM    6  O2  UNL     1       2.482  -2.696  -0.200  1.00  0.00    -0.647 OA
ENDBRANCH   3   4
BRANCH   3   7
HETATM    7  C5  UNL     1       1.205   0.029  -0.998  1.00  0.00     0.073 C 
BRANCH   7   8
HETATM    8  C6  UNL     1       0.654  -1.168  -1.639  1.00  0.00     0.237 C 
HETATM    9  O3  UNL     1       0.546  -1.211  -2.844  1.00  0.00    -0.306 OA
ENDBRANCH   7   8
BRANCH   7  10
HETATM   10  C7  UNL     1       0.391   0.434   0.175  1.00  0.00     0.018 C 
BRANCH  10  11
HETATM   11  C8  UNL     1      -1.035   0.789  -0.087  1.00  0.00    -0.014 C 
HETATM   12  C9  UNL     1      -1.894  -0.289  -0.663  1.00  0.00     0.005 C 
HETATM   13  C10 UNL     1      -3.316   0.075  -0.149  1.00  0.00     0.000 C 
HETATM   14  C11 UNL     1      -2.996   0.371   1.289  1.00  0.00     0.000 C 
HETATM   15  C12 UNL     1      -1.697   1.126   1.256  1.00  0.00     0.005 C 
ENDBRANCH  10  11
ENDBRANCH   7  10
ENDBRANCH   3   7
TORSDOF 5
