REMARK  5 active torsions:
REMARK  status: ('A' for Active; 'I' for Inactive)
REMARK    1  A    between atoms: C1_2  and  C2_4 
REMARK    2  A    between atoms: C2_4  and  C3_5 
REMARK    3  A    between atoms: C2_4  and  C7_9 
REMARK    4  A    between atoms: C3_5  and  C4_6 
REMARK    5  A    between atoms: C7_9  and  C8_11 
ROOT
HETATM    1  C2  UNL     1       0.865  -0.866  -0.521  1.00  0.00     0.145 C 
ENDROOT
BRANCH   1   2
HETATM    2  C1  UNL     1       1.555  -1.406  -1.742  1.00  0.00     0.242 C 
HETATM    3  N1  UNL     1       1.347  -2.730  -2.181  1.00  0.00    -0.061 NA
HETATM    4  O1  UNL     1       2.324  -0.663  -2.375  1.00  0.00    -0.276 OA
ENDBRANCH   1   2
BRANCH   1   5
HETATM    5  C3  UNL     1       1.383   0.480  -0.153  1.00  0.00     0.026 C 
BRANCH   5   6
HETATM    6  C4  UNL     1       2.877   0.456   0.147  1.00  0.00    -0.013 A 
HETATM    7  C5  UNL     1       3.516   1.775   0.527  1.00  0.00     0.005 A 
HETATM    8  C6  UNL     1       3.200   0.811   1.600  1.00  0.00     0.005 A 
ENDBRANCH   5   6
ENDBRANCH   1   5
BRANCH   1   9
HETATM    9  C7  UNL     1      -0.590  -0.847  -0.727  1.00  0.00     0.143 C 
HETATM   10  O2  UNL     1      -0.957  -1.248  -1.858  1.00  0.00    -0.297 OA
BRANCH   9  11
HETATM   11  C8  UNL     1      -1.571  -0.418   0.243  1.00  0.00     0.056 C 
HETATM   12  C9  UNL     1      -1.640   1.003   0.639  1.00  0.00     0.012 C 
HETATM   13  C10 UNL     1      -3.131   1.368   0.753  1.00  0.00     0.001 C 
HETATM   14  C11 UNL     1      -3.817  -0.005   0.756  1.00  0.00     0.001 C 
HETATM   15  C12 UNL     1      -2.985  -0.699  -0.303  1.00  0.00     0.012 C 
ENDBRANCH   9  11
ENDBRANCH   1   9
TORSDOF 5
