REMARK  3 active torsions:
REMARK  status: ('A' for Active; 'I' for Inactive)
REMARK    1  A    between atoms: C7_11  and  C8_12 
REMARK    2  A    between atoms: C8_12  and  C9_13 
REMARK    3  A    between atoms: C9_13  and  O5_14 
ROOT
HETATM    1  O1  UNL     1      -2.271   1.884   1.601  1.00  0.00    -0.260 OA
HETATM    2  C1  UNL     1      -2.118   1.343   0.483  1.00  0.00     0.315 C 
HETATM    3  O2  UNL     1      -2.986   1.621  -0.554  1.00  0.00    -0.316 OA
HETATM    4  C2  UNL     1      -3.078   0.656  -1.586  1.00  0.00     0.205 C 
HETATM    5  C3  UNL     1      -2.617  -0.663  -0.977  1.00  0.00     0.198 C 
HETATM    6  O3  UNL     1      -1.274  -0.610  -0.622  1.00  0.00    -0.350 OA
HETATM    7  C4  UNL     1      -0.994   0.398   0.281  1.00  0.00     0.224 C 
HETATM    8  C5  UNL     1      -0.775  -0.284   1.630  1.00  0.00     0.098 C 
HETATM    9  C6  UNL     1       0.588  -0.907   1.726  1.00  0.00     0.175 C 
HETATM   10  O4  UNL     1       1.531   0.036   1.431  1.00  0.00    -0.367 OA
HETATM   11  C7  UNL     1       1.410   0.599   0.173  1.00  0.00     0.220 C 
HETATM   12  N1  UNL     1       0.152   1.174  -0.116  1.00  0.00    -0.357 N 
ATOM     13  H1  UNL     1       0.062   2.080  -0.576  1.00  0.00     0.159 HD
ENDROOT
BRANCH  11  14
HETATM   14  C8  UNL     1       1.874  -0.410  -0.856  1.00  0.00     0.079 C 
BRANCH  14  15
HETATM   15  C9  UNL     1       3.332  -0.794  -0.614  1.00  0.00     0.168 C 
BRANCH  15  16
HETATM   16  O5  UNL     1       4.181   0.286  -0.688  1.00  0.00    -0.401 OA
ATOM     17  H5  UNL     1       5.088   0.047  -0.537  1.00  0.00     0.209 HD
ENDBRANCH  15  16
ENDBRANCH  14  15
ENDBRANCH  11  14
TORSDOF 3
