REMARK  4 active torsions:
REMARK  status: ('A' for Active; 'I' for Inactive)
REMARK    1  A    between atoms: C3_3  and  N1_4 
REMARK    2  A    between atoms: C5_6  and  O1_7 
REMARK    3  A    between atoms: C6_9  and  O2_10 
REMARK    4  A    between atoms: C7_12  and  N2_13 
ROOT
HETATM    1  C1  UNL     1       4.583   1.950  -0.406  1.00  0.00     0.014 C 
HETATM    2  C2  UNL     1       3.437   1.686  -0.211  1.00  0.00    -0.096 C 
HETATM    3  C3  UNL     1       2.030   1.394   0.024  1.00  0.00     0.242 C 
ENDROOT
BRANCH   3   4
HETATM    4  N1  UNL     1       1.503   0.331  -0.761  1.00  0.00    -0.278 N 
HETATM    5  C4  UNL     1       1.939  -0.981  -0.470  1.00  0.00     0.185 C 
HETATM    6  C5  UNL     1       0.948  -1.857   0.240  1.00  0.00     0.171 C 
HETATM    7  C6  UNL     1      -0.488  -1.397   0.134  1.00  0.00     0.201 C 
HETATM    8  C7  UNL     1      -0.549   0.087   0.073  1.00  0.00     0.303 C 
HETATM    9  O3  UNL     1       0.199   0.463  -1.056  1.00  0.00    -0.251 OA
BRANCH   6  10
HETATM   10  O1  UNL     1       1.071  -3.150  -0.222  1.00  0.00    -0.391 OA
ATOM     11  H1  UNL     1       0.444  -3.704   0.227  1.00  0.00     0.210 HD
ENDBRANCH   6  10
BRANCH   7  12
HETATM   12  O2  UNL     1      -1.148  -1.872   1.275  1.00  0.00    -0.388 OA
ATOM     13  H2  UNL     1      -2.050  -1.583   1.208  1.00  0.00     0.210 HD
ENDBRANCH   7  12
BRANCH   8  14
HETATM   14  N2  UNL     1      -1.879   0.621  -0.054  1.00  0.00    -0.269 N 
HETATM   15  C8  UNL     1      -2.965   0.431   0.717  1.00  0.00     0.114 A 
HETATM   16  C9  UNL     1      -4.044   1.164   0.229  1.00  0.00     0.037 A 
HETATM   17  C10 UNL     1      -3.559   1.808  -0.876  1.00  0.00     0.108 A 
HETATM   18  N3  UNL     1      -2.284   1.466  -1.012  1.00  0.00    -0.308 N 
ATOM     19  H3  UNL     1      -1.681   1.807  -1.760  1.00  0.00     0.186 HD
ENDBRANCH   8  14
ENDBRANCH   3   4
TORSDOF 4
