REMARK  2 active torsions:
REMARK  status: ('A' for Active; 'I' for Inactive)
REMARK    1  A    between atoms: C5_5  and  C6_6 
REMARK    2  A    between atoms: C13_16  and  N2_17 
ROOT
HETATM    1  C1  UNL     1      -2.611  -2.209  -1.189  1.00  0.00     0.045 C 
HETATM    2  C2  UNL     1      -1.676  -1.860  -0.037  1.00  0.00    -0.057 C 
HETATM    3  C3  UNL     1      -0.704  -2.938   0.160  1.00  0.00     0.045 C 
HETATM    4  C4  UNL     1      -1.303  -0.471   0.039  1.00  0.00     0.083 A 
HETATM    5  C5  UNL     1      -0.346   0.206   0.713  1.00  0.00     0.045 A 
HETATM    6  N1  UNL     1      -0.529   1.534   0.458  1.00  0.00    -0.339 N 
ATOM      7  H1  UNL     1       0.043   2.291   0.832  1.00  0.00     0.167 HD
HETATM    8  C12 UNL     1      -1.558   1.684  -0.344  1.00  0.00     0.172 A 
HETATM    9  C13 UNL     1      -2.101   2.847  -0.858  1.00  0.00     0.146 A 
HETATM   10  N3  UNL     1      -3.176   2.719  -1.668  1.00  0.00    -0.335 N 
ATOM     11  H3  UNL     1      -3.604   3.554  -2.067  1.00  0.00     0.168 HD
HETATM   12  C14 UNL     1      -3.694   1.505  -1.959  1.00  0.00     0.199 A 
HETATM   13  N4  UNL     1      -3.105   0.447  -1.419  1.00  0.00    -0.287 N 
ATOM     14  H4  UNL     1      -3.496  -0.469  -1.638  1.00  0.00     0.188 HD
HETATM   15  N5  UNL     1      -2.044   0.483  -0.613  1.00  0.00    -0.234 N 
ENDROOT
BRANCH   5  16
HETATM   16  C6  UNL     1       0.752  -0.347   1.520  1.00  0.00     0.049 C 
HETATM   17  C7  UNL     1       1.187   0.796   2.468  1.00  0.00     0.085 C 
HETATM   18  S1  UNL     1       2.416   1.710   1.513  1.00  0.00    -0.159 SA
HETATM   19  C8  UNL     1       2.922   0.313   0.483  1.00  0.00     0.001 C 
HETATM   20  C9  UNL     1       2.926   0.771  -0.963  1.00  0.00     0.026 C 
HETATM   21  C10 UNL     1       4.327  -0.114   0.839  1.00  0.00     0.026 C 
HETATM   22  C11 UNL     1       1.935  -0.766   0.749  1.00  0.00     0.031 C 
ENDBRANCH   5  16
BRANCH   9  23
HETATM   23  N2  UNL     1      -1.600   3.994  -0.571  1.00  0.00    -0.382 N 
ATOM     24  H22 UNL     1      -0.789   4.091   0.040  1.00  0.00     0.157 HD
ATOM     25  H21 UNL     1      -2.001   4.852  -0.950  1.00  0.00     0.157 HD
ENDBRANCH   9  23
TORSDOF 2
