REMARK  6 active torsions:
REMARK  status: ('A' for Active; 'I' for Inactive)
REMARK    1  A    between atoms: C1_4  and  N2_5 
REMARK    2  A    between atoms: C1_4  and  C11_27 
REMARK    3  A    between atoms: N2_5  and  S1_7 
REMARK    4  A    between atoms: S1_7  and  C2_10 
REMARK    5  A    between atoms: C5_13  and  N3_14 
REMARK       I    between atoms: N3_14  and  C6_16 
REMARK    6  A    between atoms: C6_16  and  C7_18 
ROOT
HETATM    1  C2  UNL     1      -0.387   0.648  -2.049  1.00  0.00     0.095 A 
HETATM    2  C3  UNL     1      -0.122  -0.696  -1.898  1.00  0.00     0.030 A 
HETATM    3  C4  UNL     1       1.062  -1.033  -1.278  1.00  0.00     0.050 A 
HETATM    4  C5  UNL     1       1.961  -0.088  -0.819  1.00  0.00     0.107 A 
HETATM    5  N5  UNL     1       1.673   1.206  -0.981  1.00  0.00    -0.351 N 
ATOM      6  H5  UNL     1       2.325   1.916  -0.648  1.00  0.00     0.166 HD
HETATM    7  C10 UNL     1       0.516   1.582  -1.587  1.00  0.00     0.115 A 
ENDROOT
BRANCH   1   8
HETATM    8  S1  UNL     1      -1.881   1.183  -2.832  1.00  0.00     0.265 S 
HETATM    9  O1  UNL     1      -2.295   0.197  -3.874  1.00  0.00    -0.200 OA
HETATM   10  O2  UNL     1      -1.606   2.480  -3.589  1.00  0.00    -0.200 OA
BRANCH   8  11
HETATM   11  N2  UNL     1      -3.158   1.393  -1.717  1.00  0.00    -0.269 N 
ATOM     12  H2  UNL     1      -3.580   2.315  -1.603  1.00  0.00     0.180 HD
BRANCH  11  13
HETATM   13  C1  UNL     1      -3.636   0.309  -0.953  1.00  0.00     0.093 C 
HETATM   14  N1  UNL     1      -3.943  -0.797  -1.514  1.00  0.00    -0.388 N 
ATOM     15  H12 UNL     1      -3.818  -0.850  -2.525  1.00  0.00     0.157 HD
ATOM     16  H11 UNL     1      -4.289  -1.581  -0.961  1.00  0.00     0.157 HD
BRANCH  13  17
HETATM   17  C11 UNL     1      -3.819   0.386   0.525  1.00  0.00     0.091 C 
HETATM   18  C12 UNL     1      -2.539   0.714   1.161  1.00  0.00    -0.002 C 
HETATM   19  C13 UNL     1      -2.336   0.221   2.366  1.00  0.00     0.106 C 
HETATM   20  S3  UNL     1      -3.769  -0.704   2.778  1.00  0.00     0.166 S 
HETATM   21  O4  UNL     1      -4.763   0.094   3.546  1.00  0.00    -0.223 OA
HETATM   22  O5  UNL     1      -3.445  -2.017   3.385  1.00  0.00    -0.223 OA
HETATM   23  C14 UNL     1      -4.360  -0.910   1.079  1.00  0.00     0.161 C 
ENDBRANCH  13  17
ENDBRANCH  11  13
ENDBRANCH   8  11
ENDBRANCH   1   8
BRANCH   4  24
HETATM   24  N3  UNL     1       3.150  -0.547  -0.195  1.00  0.00    -0.308 N 
HETATM   25  C6  UNL     1       4.100   0.367   0.291  1.00  0.00     0.274 C 
HETATM   26  O3  UNL     1       3.887   1.585   0.169  1.00  0.00    -0.266 OA
ATOM     27  H3  UNL     1       3.316  -1.549  -0.099  1.00  0.00     0.170 HD
BRANCH  25  28
HETATM   28  C7  UNL     1       5.353  -0.080   0.948  1.00  0.00     0.107 A 
HETATM   29  C8  UNL     1       6.282   0.765   1.424  1.00  0.00     0.044 A 
HETATM   30  C9  UNL     1       7.385   0.199   2.004  1.00  0.00     0.070 A 
HETATM   31  S2  UNL     1       7.070  -1.467   1.855  1.00  0.00    -0.026 SA
HETATM   32  N4  UNL     1       5.586  -1.388   1.081  1.00  0.00    -0.322 N 
ATOM     33  H4  UNL     1       4.995  -2.163   0.780  1.00  0.00     0.174 HD
ENDBRANCH  25  28
ENDBRANCH   4  24
TORSDOF 6
