REMARK  12 active torsions:
REMARK  status: ('A' for Active; 'I' for Inactive)
REMARK    1  A    between atoms: C2_2  and  C3_3 
REMARK    2  A    between atoms: C3_3  and  C4_4 
REMARK    3  A    between atoms: C4_4  and  C5_5 
REMARK    4  A    between atoms: C7_10  and  C8_11 
REMARK    5  A    between atoms: C8_11  and  C9_12 
REMARK    6  A    between atoms: C13_19  and  C14_20 
REMARK    7  A    between atoms: C14_20  and  C15_21 
REMARK    8  A    between atoms: C23_37  and  O5_38 
REMARK    9  A    between atoms: C24_40  and  C25_41 
REMARK   10  A    between atoms: C25_41  and  C26_42 
REMARK   11  A    between atoms: C30_49  and  C31_50 
REMARK   12  A    between atoms: C31_50  and  C32_51 
ROOT
HETATM    1  C5  UNL     1      -0.077  -2.424  -0.671  1.00  0.00     0.155 C 
HETATM    2  N1  UNL     1       0.917  -1.379  -0.798  1.00  0.00    -0.348 N 
ATOM      3  H1  UNL     1       0.594  -0.561  -1.315  1.00  0.00     0.163 HD
HETATM    4  C6  UNL     1       2.228  -1.279  -0.349  1.00  0.00     0.241 C 
HETATM    5  O1  UNL     1       3.129  -1.174  -1.275  1.00  0.00    -0.271 OA
HETATM    6  C7  UNL     1       2.806  -1.265   1.020  1.00  0.00     0.177 C 
HETATM    7  N2  UNL     1       4.261  -1.090   0.950  1.00  0.00    -0.346 N 
ATOM      8  H2  UNL     1       4.825  -1.933   0.842  1.00  0.00     0.163 HD
HETATM    9  C12 UNL     1       4.951   0.139   1.019  1.00  0.00     0.241 C 
HETATM   10  O2  UNL     1       6.044   0.238   1.651  1.00  0.00    -0.271 OA
HETATM   11  C13 UNL     1       4.536   1.428   0.405  1.00  0.00     0.177 C 
HETATM   12  N3  UNL     1       4.448   2.498   1.380  1.00  0.00    -0.346 N 
ATOM     13  H3  UNL     1       5.339   2.893   1.680  1.00  0.00     0.163 HD
HETATM   14  C18 UNL     1       3.315   3.061   1.963  1.00  0.00     0.236 C 
HETATM   15  O3  UNL     1       3.288   3.094   3.238  1.00  0.00    -0.272 OA
HETATM   16  C19 UNL     1       2.116   3.639   1.326  1.00  0.00     0.225 C 
HETATM   17  N4  UNL     1       1.304   2.686   0.616  1.00  0.00    -0.351 N 
ATOM     18  H4  UNL     1       1.456   1.704   0.844  1.00  0.00     0.163 HD
HETATM   19  C20 UNL     1       0.331   2.953  -0.350  1.00  0.00     0.240 C 
HETATM   20  O4  UNL     1       0.365   2.345  -1.452  1.00  0.00    -0.271 OA
HETATM   21  C21 UNL     1      -0.788   3.926  -0.199  1.00  0.00     0.171 C 
HETATM   22  C22 UNL     1      -0.246   5.352  -0.164  1.00  0.00     0.042 C 
HETATM   23  N5  UNL     1      -1.710   3.828  -1.281  1.00  0.00    -0.360 N 
ATOM     24  H5  UNL     1      -1.950   4.721  -1.712  1.00  0.00     0.162 HD
HETATM   25  C23 UNL     1      -2.345   2.716  -1.857  1.00  0.00     0.135 C 
HETATM   26  C24 UNL     1      -3.201   1.695  -1.212  1.00  0.00     0.159 C 
HETATM   27  N6  UNL     1      -2.619   0.991  -0.120  1.00  0.00    -0.348 N 
ATOM     28  H6  UNL     1      -2.273   1.575   0.642  1.00  0.00     0.163 HD
HETATM   29  C29 UNL     1      -2.453  -0.392   0.059  1.00  0.00     0.229 C 
HETATM   30  O6  UNL     1      -2.176  -0.779   1.262  1.00  0.00    -0.273 OA
HETATM   31  C30 UNL     1      -2.549  -1.475  -0.915  1.00  0.00     0.150 C 
HETATM   32  C35 UNL     1      -1.329  -2.062  -1.428  1.00  0.00     0.162 C 
HETATM   33  O7  UNL     1      -1.221  -2.335  -2.641  1.00  0.00    -0.295 OA
ENDROOT
BRANCH   1  34
HETATM   34  C4  UNL     1       0.433  -3.771  -1.118  1.00  0.00     0.033 C 
BRANCH  34  35
HETATM   35  C3  UNL     1      -0.652  -4.802  -0.946  1.00  0.00     0.002 C 
BRANCH  35  36
HETATM   36  C2  UNL     1      -0.055  -6.154  -1.395  1.00  0.00    -0.004 C 
HETATM   37  C1  UNL     1      -1.132  -7.226  -1.221  1.00  0.00     0.005 C 
ENDBRANCH  35  36
ENDBRANCH  34  35
ENDBRANCH   1  34
BRANCH  31  38
HETATM   38  C31 UNL     1      -3.555  -2.522  -0.433  1.00  0.00     0.025 C 
BRANCH  38  39
HETATM   39  C32 UNL     1      -4.947  -2.010  -0.275  1.00  0.00    -0.021 C 
HETATM   40  C33 UNL     1      -5.575  -1.501  -1.537  1.00  0.00     0.009 C 
HETATM   41  C34 UNL     1      -5.782  -3.142   0.288  1.00  0.00     0.009 C 
ENDBRANCH  38  39
ENDBRANCH  31  38
BRANCH   6  42
HETATM   42  C8  UNL     1       2.389  -2.405   1.864  1.00  0.00     0.038 C 
BRANCH  42  43
HETATM   43  C9  UNL     1       2.912  -2.459   3.260  1.00  0.00    -0.020 C 
HETATM   44  C10 UNL     1       4.377  -2.556   3.455  1.00  0.00     0.009 C 
HETATM   45  C11 UNL     1       2.147  -3.480   4.101  1.00  0.00     0.009 C 
ENDBRANCH  42  43
ENDBRANCH   6  42
BRANCH  26  46
HETATM   46  C25 UNL     1      -4.558   2.293  -0.935  1.00  0.00     0.037 C 
BRANCH  46  47
HETATM   47  C26 UNL     1      -4.609   3.469  -0.031  1.00  0.00    -0.020 C 
HETATM   48  C27 UNL     1      -6.110   3.876   0.016  1.00  0.00     0.009 C 
HETATM   49  C28 UNL     1      -4.328   3.073   1.427  1.00  0.00     0.009 C 
ENDBRANCH  46  47
ENDBRANCH  26  46
BRANCH  11  50
HETATM   50  C14 UNL     1       5.555   1.739  -0.675  1.00  0.00     0.038 C 
BRANCH  50  51
HETATM   51  C15 UNL     1       5.275   3.024  -1.397  1.00  0.00    -0.020 C 
HETATM   52  C16 UNL     1       6.362   3.217  -2.452  1.00  0.00     0.009 C 
HETATM   53  C17 UNL     1       3.958   3.014  -2.144  1.00  0.00     0.009 C 
ENDBRANCH  50  51
ENDBRANCH  11  50
BRANCH  25  54
HETATM   54  O5  UNL     1      -2.181   2.529  -3.133  1.00  0.00    -0.348 OA
ATOM     55  H5  UNL     1      -2.611   1.777  -3.523  1.00  0.00     0.219 HD
ENDBRANCH  25  54
TORSDOF 12
