REMARK  13 active torsions:
REMARK  status: ('A' for Active; 'I' for Inactive)
REMARK    1  A    between atoms: C2_2  and  C3_3 
REMARK    2  A    between atoms: C3_3  and  C4_4 
REMARK    3  A    between atoms: C4_4  and  N1_5 
REMARK       I    between atoms: N1_5  and  C5_7 
REMARK       I    between atoms: C5_7  and  N2_9 
REMARK    4  A    between atoms: N2_9  and  C6_11 
REMARK    5  A    between atoms: C6_11  and  C8_13 
REMARK    6  A    between atoms: C9_14  and  O2_15 
REMARK    7  A    between atoms: C10_19  and  C11_20 
REMARK    8  A    between atoms: C15_27  and  C16_28 
REMARK    9  A    between atoms: C16_28  and  C17_29 
REMARK   10  A    between atoms: C21_36  and  C22_37 
REMARK   11  A    between atoms: C22_37  and  C23_38 
REMARK   12  A    between atoms: C27_45  and  C28_46 
REMARK   13  A    between atoms: C28_46  and  C29_47 
ROOT
HETATM    1  C8  UNL     1       1.835  -1.003  -0.714  1.00  0.00     0.175 C 
HETATM    2  C9  UNL     1       1.589   0.326  -0.155  1.00  0.00     0.131 C 
HETATM    3  N3  UNL     1       1.744   1.604  -0.648  1.00  0.00    -0.338 N 
ATOM      4  H3  UNL     1       2.484   2.113  -0.164  1.00  0.00     0.167 HD
HETATM    5  C10 UNL     1       1.131   2.393  -1.663  1.00  0.00     0.082 C 
HETATM    6  C14 UNL     1       0.230   3.466  -1.147  1.00  0.00     0.265 C 
HETATM    7  O3  UNL     1       0.818   4.545  -0.744  1.00  0.00    -0.266 OA
HETATM    8  N4  UNL     1      -1.149   3.475  -1.038  1.00  0.00    -0.343 N 
ATOM      9  H4  UNL     1      -1.627   4.206  -1.565  1.00  0.00     0.163 HD
HETATM   10  C15 UNL     1      -2.021   2.575  -0.266  1.00  0.00     0.177 C 
HETATM   11  C20 UNL     1      -3.253   2.310  -1.027  1.00  0.00     0.241 C 
HETATM   12  O4  UNL     1      -3.502   3.165  -1.966  1.00  0.00    -0.271 OA
HETATM   13  N5  UNL     1      -4.180   1.285  -0.886  1.00  0.00    -0.346 N 
ATOM     14  H5  UNL     1      -5.150   1.595  -0.822  1.00  0.00     0.163 HD
HETATM   15  C21 UNL     1      -3.999  -0.147  -0.815  1.00  0.00     0.177 C 
HETATM   16  C26 UNL     1      -3.005  -0.622  -1.750  1.00  0.00     0.241 C 
HETATM   17  O5  UNL     1      -3.183  -0.215  -2.971  1.00  0.00    -0.271 OA
HETATM   18  N6  UNL     1      -1.876  -1.438  -1.622  1.00  0.00    -0.346 N 
ATOM     19  H6  UNL     1      -1.084  -1.194  -2.216  1.00  0.00     0.163 HD
HETATM   20  C27 UNL     1      -1.683  -2.583  -0.758  1.00  0.00     0.177 C 
HETATM   21  C32 UNL     1      -0.418  -3.321  -1.000  1.00  0.00     0.248 C 
HETATM   22  O6  UNL     1      -0.342  -4.068  -2.049  1.00  0.00    -0.271 OA
HETATM   23  N7  UNL     1       0.754  -3.312  -0.198  1.00  0.00    -0.290 N 
HETATM   24  C33 UNL     1       1.325  -4.607   0.268  1.00  0.00     0.162 C 
HETATM   25  C34 UNL     1       1.423  -2.130   0.200  1.00  0.00     0.240 C 
HETATM   26  O7  UNL     1       1.705  -2.001   1.445  1.00  0.00    -0.272 OA
ENDROOT
BRANCH   1  27
HETATM   27  C6  UNL     1       3.291  -1.263  -1.039  1.00  0.00     0.103 C 
HETATM   28  C7  UNL     1       3.432  -2.541  -1.815  1.00  0.00     0.033 C 
BRANCH  27  29
HETATM   29  N2  UNL     1       4.182  -1.174   0.073  1.00  0.00    -0.338 N 
HETATM   30  C5  UNL     1       5.212  -0.207   0.091  1.00  0.00     0.316 C 
HETATM   31  N1  UNL     1       6.088  -0.136   1.209  1.00  0.00    -0.343 N 
HETATM   32  O1  UNL     1       5.332   0.569  -0.881  1.00  0.00    -0.247 OA
ATOM     33  H1  UNL     1       5.987  -0.771   2.001  1.00  0.00     0.164 HD
ATOM     34  H2  UNL     1       4.074  -1.813   0.860  1.00  0.00     0.164 HD
BRANCH  31  35
HETATM   35  C4  UNL     1       7.131   0.872   1.182  1.00  0.00     0.124 C 
BRANCH  35  36
HETATM   36  C3  UNL     1       7.938   0.774   2.444  1.00  0.00     0.019 C 
BRANCH  36  37
HETATM   37  C2  UNL     1       9.013   1.858   2.345  1.00  0.00    -0.003 C 
HETATM   38  C1  UNL     1       9.841   1.780   3.610  1.00  0.00     0.005 C 
ENDBRANCH  36  37
ENDBRANCH  35  36
ENDBRANCH  31  35
ENDBRANCH  27  29
ENDBRANCH   1  27
BRANCH   2  39
HETATM   39  O2  UNL     1       1.128   0.273   1.062  1.00  0.00    -0.349 OA
ATOM     40  H2  UNL     1       0.968   1.136   1.425  1.00  0.00     0.219 HD
ENDBRANCH   2  39
BRANCH   5  41
HETATM   41  C11 UNL     1       0.552   1.681  -2.858  1.00  0.00     0.033 C 
HETATM   42  C12 UNL     1      -0.091   2.723  -3.805  1.00  0.00     0.016 C 
HETATM   43  C13 UNL     1       1.650   1.059  -3.700  1.00  0.00     0.016 C 
ENDBRANCH   5  41
BRANCH  20  44
HETATM   44  C28 UNL     1      -2.766  -3.587  -1.211  1.00  0.00     0.038 C 
BRANCH  44  45
HETATM   45  C29 UNL     1      -2.731  -4.856  -0.429  1.00  0.00    -0.020 C 
HETATM   46  C30 UNL     1      -2.963  -4.569   1.038  1.00  0.00     0.009 C 
HETATM   47  C31 UNL     1      -3.895  -5.710  -0.925  1.00  0.00     0.009 C 
ENDBRANCH  44  45
ENDBRANCH  20  44
BRANCH  10  48
HETATM   48  C16 UNL     1      -2.178   3.037   1.131  1.00  0.00     0.038 C 
BRANCH  48  49
HETATM   49  C17 UNL     1      -2.726   4.364   1.416  1.00  0.00    -0.020 C 
HETATM   50  C18 UNL     1      -4.123   4.584   0.907  1.00  0.00     0.009 C 
HETATM   51  C19 UNL     1      -2.778   4.597   2.938  1.00  0.00     0.009 C 
ENDBRANCH  48  49
ENDBRANCH  10  48
BRANCH  15  52
HETATM   52  C22 UNL     1      -3.838  -0.478   0.633  1.00  0.00     0.038 C 
BRANCH  52  53
HETATM   53  C23 UNL     1      -5.139   0.021   1.316  1.00  0.00    -0.020 C 
HETATM   54  C24 UNL     1      -5.102  -0.257   2.793  1.00  0.00     0.009 C 
HETATM   55  C25 UNL     1      -6.334  -0.719   0.752  1.00  0.00     0.009 C 
ENDBRANCH  52  53
ENDBRANCH  15  52
TORSDOF 13
