REMARK  16 active torsions:
REMARK  status: ('A' for Active; 'I' for Inactive)
REMARK    1  A    between atoms: C2_2  and  C3_3 
REMARK    2  A    between atoms: C3_3  and  C4_4 
REMARK    3  A    between atoms: C4_4  and  C5_5 
REMARK    4  A    between atoms: C6_8  and  O1_9 
REMARK    5  A    between atoms: N2_11  and  C7_12 
REMARK    6  A    between atoms: C7_12  and  C8_13 
REMARK       I    between atoms: C8_13  and  N3_15 
REMARK    7  A    between atoms: C11_20  and  C12_21 
REMARK    8  A    between atoms: C12_21  and  C13_22 
REMARK    9  A    between atoms: C17_29  and  C18_30 
REMARK   10  A    between atoms: C18_30  and  C19_31 
REMARK   11  A    between atoms: C23_38  and  C24_39 
REMARK   12  A    between atoms: C24_39  and  C25_40 
REMARK   13  A    between atoms: C28_45  and  O6_46 
REMARK   14  A    between atoms: C29_48  and  C30_49 
REMARK   15  A    between atoms: C30_49  and  C31_50 
REMARK   16  A    between atoms: C34_55  and  O7_56 
ROOT
HETATM    1  C5  UNL     1       1.911  -1.738  -0.943  1.00  0.00     0.063 C 
HETATM    2  N1  UNL     1       0.907  -1.125  -0.099  1.00  0.00    -0.322 N 
ATOM      3  H1  UNL     1       0.566  -0.238  -0.470  1.00  0.00     0.169 HD
HETATM    4  C6  UNL     1       0.311  -1.471   1.090  1.00  0.00     0.230 C 
HETATM    5  N2  UNL     1      -0.662  -2.420   1.477  1.00  0.00    -0.251 N 
HETATM    6  C10 UNL     1      -1.743  -2.835   0.634  1.00  0.00     0.254 C 
HETATM    7  O3  UNL     1      -2.117  -4.015   0.662  1.00  0.00    -0.270 OA
HETATM    8  C11 UNL     1      -2.424  -1.846  -0.279  1.00  0.00     0.178 C 
HETATM    9  N4  UNL     1      -3.229  -0.947   0.556  1.00  0.00    -0.346 N 
ATOM     10  H4  UNL     1      -4.127  -1.315   0.868  1.00  0.00     0.163 HD
HETATM   11  C16 UNL     1      -2.920   0.354   0.979  1.00  0.00     0.241 C 
HETATM   12  O4  UNL     1      -2.671   0.476   2.246  1.00  0.00    -0.271 OA
HETATM   13  C17 UNL     1      -2.837   1.596   0.207  1.00  0.00     0.177 C 
HETATM   14  N5  UNL     1      -2.299   1.418  -1.141  1.00  0.00    -0.346 N 
ATOM     15  H5  UNL     1      -2.691   0.644  -1.677  1.00  0.00     0.163 HD
HETATM   16  C22 UNL     1      -1.334   2.159  -1.778  1.00  0.00     0.241 C 
HETATM   17  O5  UNL     1      -1.363   2.163  -3.061  1.00  0.00    -0.271 OA
HETATM   18  C23 UNL     1      -0.227   2.982  -1.184  1.00  0.00     0.175 C 
HETATM   19  N6  UNL     1       0.902   2.914  -2.067  1.00  0.00    -0.359 N 
ATOM     20  H6  UNL     1       0.931   3.644  -2.779  1.00  0.00     0.162 HD
HETATM   21  C28 UNL     1       1.966   2.013  -2.111  1.00  0.00     0.135 C 
HETATM   22  C29 UNL     1       3.028   1.709  -1.154  1.00  0.00     0.158 C 
HETATM   23  N7  UNL     1       3.498   0.322  -1.250  1.00  0.00    -0.357 N 
ATOM     24  H7  UNL     1       4.483   0.207  -1.011  1.00  0.00     0.162 HD
HETATM   25  C34 UNL     1       2.871  -0.859  -1.600  1.00  0.00     0.159 C 
ENDROOT
BRANCH   5  26
HETATM   26  C7  UNL     1      -0.621  -2.992   2.803  1.00  0.00     0.177 C 
BRANCH  26  27
HETATM   27  C8  UNL     1       0.088  -4.233   2.996  1.00  0.00     0.257 C 
HETATM   28  O2  UNL     1       0.664  -4.880   2.120  1.00  0.00    -0.267 OA
HETATM   29  N3  UNL     1       0.138  -4.782   4.331  1.00  0.00    -0.361 N 
HETATM   30  C9  UNL     1       0.832  -6.024   4.600  1.00  0.00     0.149 C 
ATOM     31  H3  UNL     1      -0.322  -4.288   5.095  1.00  0.00     0.162 HD
ENDBRANCH  26  27
ENDBRANCH   5  26
BRANCH   4  32
HETATM   32  O1  UNL     1       0.722  -0.766   2.119  1.00  0.00    -0.332 OA
ATOM     33  H1  UNL     1       0.310  -1.005   2.941  1.00  0.00     0.221 HD
ENDBRANCH   4  32
BRANCH   8  34
HETATM   34  C12 UNL     1      -3.355  -2.527  -1.225  1.00  0.00     0.038 C 
BRANCH  34  35
HETATM   35  C13 UNL     1      -2.650  -3.488  -2.129  1.00  0.00    -0.020 C 
HETATM   36  C14 UNL     1      -3.682  -4.167  -3.069  1.00  0.00     0.009 C 
HETATM   37  C15 UNL     1      -1.626  -2.795  -3.008  1.00  0.00     0.009 C 
ENDBRANCH  34  35
ENDBRANCH   8  34
BRANCH   1  38
HETATM   38  C4  UNL     1       2.331  -3.076  -0.470  1.00  0.00     0.062 C 
BRANCH  38  39
HETATM   39  C3  UNL     1       3.402  -3.838  -1.136  1.00  0.00     0.006 C 
BRANCH  39  40
HETATM   40  C2  UNL     1       4.801  -3.383  -1.045  1.00  0.00    -0.004 C 
HETATM   41  C1  UNL     1       5.278  -3.345   0.412  1.00  0.00     0.005 C 
ENDBRANCH  39  40
ENDBRANCH  38  39
ENDBRANCH   1  38
BRANCH  25  42
HETATM   42  O7  UNL     1       3.192  -1.323  -2.796  1.00  0.00    -0.345 OA
ATOM     43  H7  UNL     1       3.817  -0.750  -3.224  1.00  0.00     0.219 HD
ENDBRANCH  25  42
BRANCH  13  44
HETATM   44  C18 UNL     1      -4.100   2.370   0.011  1.00  0.00     0.038 C 
BRANCH  44  45
HETATM   45  C19 UNL     1      -4.831   2.894   1.180  1.00  0.00    -0.020 C 
HETATM   46  C20 UNL     1      -6.073   3.712   0.684  1.00  0.00     0.009 C 
HETATM   47  C21 UNL     1      -5.469   1.766   1.961  1.00  0.00     0.009 C 
ENDBRANCH  44  45
ENDBRANCH  13  44
BRANCH  22  48
HETATM   48  C30 UNL     1       2.784   2.146   0.264  1.00  0.00     0.037 C 
BRANCH  48  49
HETATM   49  C31 UNL     1       3.919   1.894   1.209  1.00  0.00    -0.020 C 
HETATM   50  C32 UNL     1       5.191   2.612   0.781  1.00  0.00     0.009 C 
HETATM   51  C33 UNL     1       4.177   0.500   1.628  1.00  0.00     0.009 C 
ENDBRANCH  48  49
ENDBRANCH  22  48
BRANCH  21  52
HETATM   52  O6  UNL     1       2.069   1.286  -3.198  1.00  0.00    -0.348 OA
ATOM     53  H6  UNL     1       2.794   0.672  -3.228  1.00  0.00     0.219 HD
ENDBRANCH  21  52
BRANCH  18  54
HETATM   54  C24 UNL     1      -0.752   4.350  -0.982  1.00  0.00     0.038 C 
BRANCH  54  55
HETATM   55  C25 UNL     1       0.110   5.399  -0.411  1.00  0.00    -0.020 C 
HETATM   56  C26 UNL     1       1.319   5.708  -1.249  1.00  0.00     0.009 C 
HETATM   57  C27 UNL     1      -0.648   6.742  -0.317  1.00  0.00     0.009 C 
ENDBRANCH  54  55
ENDBRANCH  18  54
TORSDOF 16
