REMARK  12 active torsions:
REMARK  status: ('A' for Active; 'I' for Inactive)
REMARK    1  A    between atoms: C2_2  and  C3_3 
REMARK    2  A    between atoms: C3_3  and  N1_4 
REMARK    3  A    between atoms: C4_5  and  C5_6 
REMARK    4  A    between atoms: C5_6  and  C6_7 
REMARK    5  A    between atoms: C8_9  and  O1_10 
REMARK    6  A    between atoms: C12_18  and  O2_19 
REMARK    7  A    between atoms: C13_21  and  C14_22 
REMARK    8  A    between atoms: C14_22  and  C15_23 
REMARK    9  A    between atoms: C19_30  and  C20_31 
REMARK   10  A    between atoms: C20_31  and  C21_32 
REMARK   11  A    between atoms: C31_51  and  C32_52 
REMARK   12  A    between atoms: C32_52  and  C33_53 
ROOT
HETATM    1  N1  UNL     1      -2.254  -0.702   0.678  1.00  0.00    -0.337 N 
HETATM    2  C4  UNL     1      -2.362   0.310  -0.339  1.00  0.00     0.195 C 
HETATM    3  N3  UNL     1      -1.656   1.513   0.129  1.00  0.00    -0.351 N 
ATOM      4  H3  UNL     1      -2.227   2.111   0.726  1.00  0.00     0.163 HD
HETATM    5  C12 UNL     1      -0.390   1.996  -0.072  1.00  0.00     0.136 C 
HETATM    6  C13 UNL     1       0.967   1.450   0.143  1.00  0.00     0.159 C 
HETATM    7  N4  UNL     1       1.588   1.080  -1.124  1.00  0.00    -0.347 N 
ATOM      8  H4  UNL     1       0.937   0.859  -1.878  1.00  0.00     0.163 HD
HETATM    9  C18 UNL     1       2.923   0.984  -1.455  1.00  0.00     0.241 C 
HETATM   10  O3  UNL     1       3.327   1.536  -2.521  1.00  0.00    -0.271 OA
HETATM   11  C19 UNL     1       4.014   0.276  -0.676  1.00  0.00     0.177 C 
HETATM   12  N5  UNL     1       4.299  -0.989  -1.361  1.00  0.00    -0.346 N 
ATOM     13  H5  UNL     1       4.705  -0.956  -2.296  1.00  0.00     0.163 HD
HETATM   14  C24 UNL     1       4.037  -2.245  -0.786  1.00  0.00     0.240 C 
HETATM   15  O4  UNL     1       4.733  -3.230  -1.129  1.00  0.00    -0.271 OA
HETATM   16  C25 UNL     1       2.971  -2.490   0.220  1.00  0.00     0.172 C 
HETATM   17  C26 UNL     1       3.671  -2.884   1.513  1.00  0.00     0.042 C 
HETATM   18  N6  UNL     1       2.240  -3.644  -0.233  1.00  0.00    -0.346 N 
ATOM     19  H6  UNL     1       2.715  -4.542  -0.144  1.00  0.00     0.163 HD
HETATM   20  C27 UNL     1       0.954  -3.675  -0.781  1.00  0.00     0.240 C 
HETATM   21  O5  UNL     1       0.319  -4.779  -0.770  1.00  0.00    -0.271 OA
HETATM   22  C28 UNL     1       0.240  -2.518  -1.392  1.00  0.00     0.172 C 
HETATM   23  C29 UNL     1       0.896  -2.302  -2.764  1.00  0.00     0.042 C 
HETATM   24  N7  UNL     1      -1.141  -2.856  -1.619  1.00  0.00    -0.343 N 
ATOM     25  H7  UNL     1      -1.287  -3.676  -2.207  1.00  0.00     0.163 HD
HETATM   26  C30 UNL     1      -2.313  -2.246  -1.167  1.00  0.00     0.265 C 
HETATM   27  O6  UNL     1      -3.146  -1.914  -2.098  1.00  0.00    -0.266 OA
HETATM   28  C31 UNL     1      -2.691  -1.951   0.257  1.00  0.00     0.081 C 
ENDROOT
BRANCH   2  29
HETATM   29  C5  UNL     1      -3.778   0.733  -0.592  1.00  0.00     0.104 C 
BRANCH  29  30
HETATM   30  C6  UNL     1      -3.883   1.700  -1.713  1.00  0.00     0.015 A 
HETATM   31  C7  UNL     1      -2.997   2.146  -2.634  1.00  0.00     0.064 A 
HETATM   32  C8  UNL     1      -3.598   3.056  -3.443  1.00  0.00     0.092 A 
HETATM   33  C10 UNL     1      -4.883   3.189  -3.029  1.00  0.00     0.039 A 
HETATM   34  C11 UNL     1      -5.922   4.086  -3.628  1.00  0.00     0.071 C 
HETATM   35  N2  UNL     1      -5.050   2.372  -1.990  1.00  0.00    -0.361 N 
ATOM     36  H2  UNL     1      -5.922   2.261  -1.472  1.00  0.00     0.165 HD
BRANCH  32  37
HETATM   37  O1  UNL     1      -3.022   3.749  -4.518  1.00  0.00    -0.354 OA
HETATM   38  C9  UNL     1      -1.691   3.572  -4.904  1.00  0.00     0.210 C 
ENDBRANCH  32  37
ENDBRANCH  29  30
ENDBRANCH   2  29
BRANCH   1  39
HETATM   39  C3  UNL     1      -2.114  -0.316   1.997  1.00  0.00     0.066 C 
BRANCH  39  40
HETATM   40  C2  UNL     1      -3.222   0.305   2.764  1.00  0.00     0.040 C 
HETATM   41  C1  UNL     1      -2.666   0.535   4.200  1.00  0.00     0.010 C 
ENDBRANCH  39  40
ENDBRANCH   1  39
BRANCH  28  42
HETATM   42  C32 UNL     1      -2.578  -3.183   1.051  1.00  0.00     0.067 C 
BRANCH  42  43
HETATM   43  C33 UNL     1      -3.286  -3.332   2.349  1.00  0.00    -0.017 C 
HETATM   44  C34 UNL     1      -3.004  -4.726   2.953  1.00  0.00     0.010 C 
HETATM   45  C35 UNL     1      -4.812  -3.308   2.168  1.00  0.00     0.010 C 
ENDBRANCH  42  43
ENDBRANCH  28  42
BRANCH   5  46
HETATM   46  O2  UNL     1      -0.322   3.214  -0.565  1.00  0.00    -0.348 OA
ATOM     47  H2  UNL     1       0.556   3.549  -0.704  1.00  0.00     0.219 HD
ENDBRANCH   5  46
BRANCH   6  48
HETATM   48  C14 UNL     1       1.810   2.393   0.922  1.00  0.00     0.037 C 
BRANCH  48  49
HETATM   49  C15 UNL     1       1.400   2.756   2.296  1.00  0.00    -0.020 C 
HETATM   50  C16 UNL     1       1.306   1.584   3.230  1.00  0.00     0.009 C 
HETATM   51  C17 UNL     1       0.247   3.696   2.447  1.00  0.00     0.009 C 
ENDBRANCH  48  49
ENDBRANCH   6  48
BRANCH  11  52
HETATM   52  C20 UNL     1       5.217   1.160  -0.806  1.00  0.00     0.038 C 
BRANCH  52  53
HETATM   53  C21 UNL     1       6.460   0.780  -0.118  1.00  0.00    -0.020 C 
HETATM   54  C22 UNL     1       7.064  -0.521  -0.531  1.00  0.00     0.009 C 
HETATM   55  C23 UNL     1       7.505   1.872  -0.437  1.00  0.00     0.009 C 
ENDBRANCH  52  53
ENDBRANCH  11  52
TORSDOF 12
