REMARK  15 active torsions:
REMARK  status: ('A' for Active; 'I' for Inactive)
REMARK    1  A    between atoms: N1_7  and  C7_8 
REMARK    2  A    between atoms: C7_8  and  C8_9 
REMARK    3  A    between atoms: C8_9  and  C9_10 
REMARK    4  A    between atoms: C9_10  and  C10_11 
REMARK    5  A    between atoms: C10_11  and  C11_12 
REMARK    6  A    between atoms: C11_12  and  C12_13 
REMARK    7  A    between atoms: C12_13  and  C13_14 
REMARK    8  A    between atoms: C15_19  and  C16_20 
REMARK    9  A    between atoms: C16_20  and  C17_21 
REMARK   10  A    between atoms: C17_21  and  C18_22 
REMARK   11  A    between atoms: C18_22  and  C19_23 
REMARK   12  A    between atoms: C20_27  and  O2_28 
REMARK   13  A    between atoms: C21_32  and  O3_33 
REMARK   14  A    between atoms: C22_35  and  C23_36 
REMARK   15  A    between atoms: C30_49  and  C31_50 
ROOT
HETATM    1  C13 UNL     1       0.473  -0.674   1.014  1.00  0.00     0.176 C 
HETATM    2  N2  UNL     1       0.162   0.488   0.228  1.00  0.00    -0.346 N 
ATOM      3  H2  UNL     1       0.603   0.540  -0.690  1.00  0.00     0.163 HD
HETATM    4  C14 UNL     1      -0.679   1.563   0.574  1.00  0.00     0.241 C 
HETATM    5  O1  UNL     1      -0.183   2.755   0.482  1.00  0.00    -0.271 OA
HETATM    6  C15 UNL     1      -2.088   1.475   1.036  1.00  0.00     0.177 C 
HETATM    7  N3  UNL     1      -2.214   1.463   2.486  1.00  0.00    -0.343 N 
ATOM      8  H3  UNL     1      -1.918   2.324   2.947  1.00  0.00     0.164 HD
HETATM    9  C20 UNL     1      -2.669   0.477   3.342  1.00  0.00     0.219 C 
HETATM   10  N4  UNL     1      -3.891  -0.216   3.460  1.00  0.00    -0.305 N 
ATOM     11  H4  UNL     1      -3.839  -0.975   4.139  1.00  0.00     0.171 HD
HETATM   12  C21 UNL     1      -5.139  -0.119   2.882  1.00  0.00     0.142 C 
HETATM   13  C22 UNL     1      -5.663  -0.139   1.518  1.00  0.00     0.162 C 
HETATM   14  N5  UNL     1      -5.723  -1.363   0.819  1.00  0.00    -0.347 N 
ATOM     15  H5  UNL     1      -6.467  -1.398   0.122  1.00  0.00     0.163 HD
HETATM   16  C26 UNL     1      -4.962  -2.546   0.890  1.00  0.00     0.240 C 
HETATM   17  O4  UNL     1      -5.503  -3.679   1.074  1.00  0.00    -0.271 OA
HETATM   18  C27 UNL     1      -3.482  -2.692   0.769  1.00  0.00     0.172 C 
HETATM   19  C28 UNL     1      -3.059  -3.573   1.956  1.00  0.00     0.042 C 
HETATM   20  N6  UNL     1      -3.104  -3.319  -0.478  1.00  0.00    -0.346 N 
ATOM     21  H6  UNL     1      -3.298  -4.318  -0.546  1.00  0.00     0.163 HD
HETATM   22  C29 UNL     1      -2.503  -2.734  -1.613  1.00  0.00     0.241 C 
HETATM   23  O5  UNL     1      -2.971  -2.963  -2.766  1.00  0.00    -0.271 OA
HETATM   24  C30 UNL     1      -1.329  -1.837  -1.619  1.00  0.00     0.180 C 
HETATM   25  N7  UNL     1      -0.194  -2.316  -0.883  1.00  0.00    -0.346 N 
ATOM     26  H7  UNL     1       0.349  -3.033  -1.365  1.00  0.00     0.163 HD
HETATM   27  C34 UNL     1       0.292  -1.974   0.367  1.00  0.00     0.241 C 
HETATM   28  O6  UNL     1       0.656  -2.962   1.112  1.00  0.00    -0.271 OA
ENDROOT
BRANCH   1  29
HETATM   29  C12 UNL     1       1.910  -0.562   1.570  1.00  0.00     0.035 C 
BRANCH  29  30
HETATM   30  C11 UNL     1       2.890  -0.451   0.424  1.00  0.00     0.002 C 
BRANCH  30  31
HETATM   31  C10 UNL     1       4.279  -0.328   1.038  1.00  0.00     0.000 C 
BRANCH  31  32
HETATM   32  C9  UNL     1       5.247  -0.208  -0.125  1.00  0.00     0.002 C 
BRANCH  32  33
HETATM   33  C8  UNL     1       6.665  -0.063   0.348  1.00  0.00     0.020 C 
BRANCH  33  34
HETATM   34  C7  UNL     1       7.551   0.051  -0.879  1.00  0.00     0.128 C 
BRANCH  34  35
HETATM   35  N1  UNL     1       8.918   0.198  -0.448  1.00  0.00    -0.360 N 
HETATM   36  C2  UNL     1       9.713  -0.868  -0.262  1.00  0.00     0.007 A 
HETATM   37  C1  UNL     1       9.161  -2.239  -0.520  1.00  0.00     0.068 C 
HETATM   38  C3  UNL     1      11.042  -0.734   0.160  1.00  0.00     0.025 A 
HETATM   39  C4  UNL     1      11.560   0.503   0.395  1.00  0.00     0.003 A 
HETATM   40  C5  UNL     1      10.741   1.595   0.204  1.00  0.00     0.017 A 
HETATM   41  C6  UNL     1       9.438   1.432  -0.212  1.00  0.00     0.091 A 
ENDBRANCH  34  35
ENDBRANCH  33  34
ENDBRANCH  32  33
ENDBRANCH  31  32
ENDBRANCH  30  31
ENDBRANCH  29  30
ENDBRANCH   1  29
BRANCH   6  42
HETATM   42  C16 UNL     1      -2.799   2.775   0.623  1.00  0.00     0.035 C 
BRANCH  42  43
HETATM   43  C17 UNL     1      -2.802   2.998  -0.852  1.00  0.00     0.003 C 
BRANCH  43  44
HETATM   44  C18 UNL     1      -3.533   4.325  -1.096  1.00  0.00     0.011 C 
BRANCH  44  45
HETATM   45  C19 UNL     1      -3.618   4.686  -2.541  1.00  0.00     0.086 C 
HETATM   46  S1  UNL     1      -4.506   6.274  -2.686  1.00  0.00    -0.098 SA
ENDBRANCH  44  45
ENDBRANCH  43  44
ENDBRANCH  42  43
ENDBRANCH   6  42
BRANCH  24  47
HETATM   47  C31 UNL     1      -0.871  -1.494  -3.031  1.00  0.00     0.009 C 
HETATM   48  C32 UNL     1      -0.488  -2.789  -3.767  1.00  0.00     0.012 C 
HETATM   49  C33 UNL     1      -1.883  -0.805  -3.862  1.00  0.00     0.012 C 
ENDBRANCH  24  47
BRANCH   9  50
HETATM   50  O2  UNL     1      -1.745   0.140   4.213  1.00  0.00    -0.332 OA
ATOM     51  H2  UNL     1      -2.058  -0.537   4.801  1.00  0.00     0.220 HD
ENDBRANCH   9  50
BRANCH  12  52
HETATM   52  O3  UNL     1      -6.139   0.027   3.707  1.00  0.00    -0.348 OA
ATOM     53  H3  UNL     1      -6.999   0.094   3.309  1.00  0.00     0.219 HD
ENDBRANCH  12  52
BRANCH  13  54
HETATM   54  C23 UNL     1      -7.011   0.609   1.401  1.00  0.00     0.008 C 
HETATM   55  C24 UNL     1      -7.485   0.556  -0.032  1.00  0.00     0.012 C 
HETATM   56  C25 UNL     1      -6.887   2.054   1.786  1.00  0.00     0.012 C 
ENDBRANCH  13  54
TORSDOF 15
