REMARK  13 active torsions:
REMARK  status: ('A' for Active; 'I' for Inactive)
REMARK    1  A    between atoms: C2_2  and  C4_4 
REMARK    2  A    between atoms: C4_4  and  C5_5 
REMARK    3  A    between atoms: C7_10  and  C8_11 
REMARK    4  A    between atoms: C12_18  and  C13_19 
REMARK    5  A    between atoms: C13_19  and  C14_20 
REMARK    6  A    between atoms: C14_20  and  C15_21 
REMARK    7  A    between atoms: C15_21  and  C16_22 
REMARK    8  A    between atoms: C18_27  and  O3_28 
REMARK    9  A    between atoms: C19_30  and  C20_31 
REMARK   10  A    between atoms: C20_31  and  C21_32 
REMARK   11  A    between atoms: C30_46  and  C31_47 
REMARK   12  A    between atoms: C31_47  and  C32_48 
REMARK   13  A    between atoms: C32_48  and  N7_49 
ROOT
HETATM    1  C16 UNL     1       5.371  -4.730   2.826  1.00  0.00     0.124 C 
HETATM    2  C17 UNL     1       6.506  -3.874   3.100  1.00  0.00     0.059 C 
HETATM    3  N3  UNL     1       7.410  -3.199   3.333  1.00  0.00    -0.197 NA
ENDROOT
BRANCH   1   4
HETATM    4  C15 UNL     1       4.108  -3.897   2.869  1.00  0.00     0.014 C 
BRANCH   4   5
HETATM    5  C14 UNL     1       4.172  -2.789   1.805  1.00  0.00     0.004 C 
BRANCH   5   6
HETATM    6  C13 UNL     1       2.902  -2.033   1.917  1.00  0.00     0.035 C 
BRANCH   6   7
HETATM    7  C12 UNL     1       2.774  -0.859   0.929  1.00  0.00     0.175 C 
HETATM    8  C11 UNL     1       2.853  -1.409  -0.424  1.00  0.00     0.241 C 
HETATM    9  N2  UNL     1       1.856  -1.811  -1.317  1.00  0.00    -0.346 N 
HETATM   10  O2  UNL     1       4.060  -1.543  -0.872  1.00  0.00    -0.271 OA
HETATM   11  C7  UNL     1       0.632  -2.530  -1.058  1.00  0.00     0.180 C 
ATOM     12  H2  UNL     1       2.017  -1.560  -2.292  1.00  0.00     0.163 HD
HETATM   13  C6  UNL     1      -0.314  -2.258  -2.174  1.00  0.00     0.241 C 
HETATM   14  N1  UNL     1      -1.502  -1.553  -2.139  1.00  0.00    -0.346 N 
HETATM   15  O1  UNL     1       0.042  -2.752  -3.305  1.00  0.00    -0.271 OA
HETATM   16  C5  UNL     1      -2.585  -1.759  -1.133  1.00  0.00     0.177 C 
ATOM     17  H1  UNL     1      -1.650  -0.840  -2.853  1.00  0.00     0.163 HD
HETATM   18  C36 UNL     1      -3.335  -0.461  -1.052  1.00  0.00     0.241 C 
HETATM   19  N8  UNL     1      -2.750   0.817  -1.094  1.00  0.00    -0.346 N 
HETATM   20  O5  UNL     1      -4.583  -0.524  -0.938  1.00  0.00    -0.271 OA
HETATM   21  C30 UNL     1      -1.587   1.283  -0.372  1.00  0.00     0.178 C 
ATOM     22  H8  UNL     1      -3.200   1.497  -1.707  1.00  0.00     0.163 HD
HETATM   23  C29 UNL     1      -0.510   1.718  -1.303  1.00  0.00     0.241 C 
HETATM   24  N6  UNL     1       0.867   1.694  -1.066  1.00  0.00    -0.347 N 
HETATM   25  O4  UNL     1      -0.949   2.153  -2.430  1.00  0.00    -0.271 OA
HETATM   26  C19 UNL     1       1.539   2.153   0.150  1.00  0.00     0.163 C 
ATOM     27  H6  UNL     1       1.458   1.322  -1.809  1.00  0.00     0.163 HD
HETATM   28  C18 UNL     1       1.333   1.238   1.300  1.00  0.00     0.135 C 
HETATM   29  N4  UNL     1       1.574  -0.151   1.276  1.00  0.00    -0.359 N 
ATOM     30  H4  UNL     1       0.783  -0.737   1.543  1.00  0.00     0.162 HD
BRANCH  11  31
HETATM   31  C8  UNL     1       0.977  -4.009  -0.953  1.00  0.00     0.009 C 
HETATM   32  C9  UNL     1       1.618  -4.567  -2.183  1.00  0.00     0.012 C 
HETATM   33  C10 UNL     1      -0.143  -4.865  -0.476  1.00  0.00     0.012 C 
ENDBRANCH  11  31
BRANCH  16  34
HETATM   34  C4  UNL     1      -3.417  -2.859  -1.727  1.00  0.00     0.038 C 
BRANCH  34  35
HETATM   35  C2  UNL     1      -4.550  -3.331  -0.903  1.00  0.00    -0.020 C 
HETATM   36  C1  UNL     1      -5.291  -4.470  -1.661  1.00  0.00     0.009 C 
HETATM   37  C3  UNL     1      -4.077  -3.973   0.408  1.00  0.00     0.009 C 
ENDBRANCH  34  35
ENDBRANCH  16  34
BRANCH  21  38
HETATM   38  C31 UNL     1      -2.029   2.553   0.378  1.00  0.00     0.063 C 
BRANCH  38  39
HETATM   39  C32 UNL     1      -3.134   2.218   1.357  1.00  0.00     0.238 C 
BRANCH  39  40
HETATM   40  N7  UNL     1      -3.591   3.363   2.086  1.00  0.00    -0.079 N 
HETATM   41  C33 UNL     1      -4.338   2.880   3.260  1.00  0.00     0.271 C 
HETATM   42  C34 UNL     1      -4.494   4.211   1.364  1.00  0.00     0.271 C 
HETATM   43  C35 UNL     1      -2.500   4.165   2.634  1.00  0.00     0.271 C 
ENDBRANCH  39  40
ENDBRANCH  38  39
ENDBRANCH  21  38
BRANCH  26  44
HETATM   44  C20 UNL     1       3.003   2.452  -0.117  1.00  0.00     0.074 C 
BRANCH  44  45
HETATM   45  C21 UNL     1       3.028   3.385  -1.303  1.00  0.00    -0.028 A 
HETATM   46  C22 UNL     1       3.330   3.055  -2.606  1.00  0.00     0.096 A 
HETATM   47  N5  UNL     1       3.220   4.177  -3.321  1.00  0.00    -0.365 N 
HETATM   48  C23 UNL     1       2.862   5.196  -2.524  1.00  0.00     0.042 A 
ATOM     49  H5  UNL     1       3.384   4.249  -4.325  1.00  0.00     0.165 HD
HETATM   50  C24 UNL     1       2.617   6.553  -2.762  1.00  0.00     0.030 A 
HETATM   51  C28 UNL     1       2.731   4.728  -1.233  1.00  0.00    -0.002 A 
HETATM   52  C25 UNL     1       2.259   7.361  -1.704  1.00  0.00     0.002 A 
HETATM   53  C26 UNL     1       2.127   6.905  -0.421  1.00  0.00     0.001 A 
HETATM   54  C27 UNL     1       2.370   5.557  -0.186  1.00  0.00     0.014 A 
ENDBRANCH  44  45
ENDBRANCH  26  44
BRANCH  28  55
HETATM   55  O3  UNL     1       0.896   1.786   2.396  1.00  0.00    -0.348 OA
ATOM     56  H3  UNL     1       0.734   2.722   2.412  1.00  0.00     0.219 HD
ENDBRANCH  28  55
ENDBRANCH   6   7
ENDBRANCH   5   6
ENDBRANCH   4   5
ENDBRANCH   1   4
TORSDOF 13
