REMARK  14 active torsions:
REMARK  status: ('A' for Active; 'I' for Inactive)
REMARK    1  A    between atoms: C2_2  and  C3_3 
REMARK    2  A    between atoms: C3_3  and  C4_4 
REMARK    3  A    between atoms: C4_4  and  C5_5 
REMARK    4  A    between atoms: C6_6  and  O1_7 
REMARK    5  A    between atoms: C11_18  and  C12_19 
REMARK    6  A    between atoms: C12_19  and  C13_20 
REMARK    7  A    between atoms: C16_23  and  O3_24 
REMARK    8  A    between atoms: C17_28  and  C18_29 
REMARK    9  A    between atoms: C18_29  and  C19_30 
REMARK   10  A    between atoms: C21_37  and  C22_38 
REMARK   11  A    between atoms: C22_38  and  C23_39 
REMARK   12  A    between atoms: C27_46  and  C28_47 
REMARK   13  A    between atoms: C28_47  and  C29_48 
REMARK   14  A    between atoms: C29_48  and  N6_49 
ROOT
HETATM    1  C5  UNL     1       1.886  -1.965  -0.300  1.00  0.00    -0.007 C 
HETATM    2  C6  UNL     1       0.691  -2.076  -1.175  1.00  0.00     0.141 C 
HETATM    3  N1  UNL     1      -0.448  -2.820  -1.189  1.00  0.00    -0.353 N 
ATOM      4  H1  UNL     1      -0.406  -3.578  -1.871  1.00  0.00     0.163 HD
HETATM    5  C7  UNL     1      -1.707  -2.797  -0.470  1.00  0.00     0.105 C 
HETATM    6  C8  UNL     1      -1.695  -2.213   0.885  1.00  0.00     0.048 C 
HETATM    7  C9  UNL     1      -2.128  -4.269  -0.293  1.00  0.00     0.048 C 
HETATM    8  C10 UNL     1      -2.755  -2.229  -1.362  1.00  0.00     0.245 C 
HETATM    9  O2  UNL     1      -2.728  -2.746  -2.543  1.00  0.00    -0.271 OA
HETATM   10  N2  UNL     1      -3.718  -1.256  -1.113  1.00  0.00    -0.347 N 
ATOM     11  H2  UNL     1      -3.615  -0.399  -1.657  1.00  0.00     0.163 HD
HETATM   12  C11 UNL     1      -4.845  -1.270  -0.200  1.00  0.00     0.159 C 
HETATM   13  C16 UNL     1      -4.950  -0.089   0.681  1.00  0.00     0.135 C 
HETATM   14  N3  UNL     1      -4.516   1.213   0.518  1.00  0.00    -0.359 N 
ATOM     15  H3  UNL     1      -5.265   1.904   0.478  1.00  0.00     0.162 HD
HETATM   16  C17 UNL     1      -3.188   1.765   0.395  1.00  0.00     0.185 C 
HETATM   17  C20 UNL     1      -2.363   1.561   1.623  1.00  0.00     0.241 C 
HETATM   18  O6  UNL     1      -2.926   0.813   2.503  1.00  0.00    -0.271 OA
HETATM   19  N4  UNL     1      -1.119   2.053   1.926  1.00  0.00    -0.346 N 
ATOM     20  H4  UNL     1      -1.041   2.519   2.830  1.00  0.00     0.163 HD
HETATM   21  C21 UNL     1       0.116   2.004   1.133  1.00  0.00     0.177 C 
HETATM   22  C26 UNL     1       1.112   1.103   1.804  1.00  0.00     0.241 C 
HETATM   23  O7  UNL     1       1.643   1.578   2.874  1.00  0.00    -0.271 OA
HETATM   24  N5  UNL     1       1.494  -0.168   1.374  1.00  0.00    -0.351 N 
ATOM     25  H5  UNL     1       1.340  -0.929   2.036  1.00  0.00     0.163 HD
HETATM   26  C27 UNL     1       2.081  -0.541   0.107  1.00  0.00     0.119 C 
ENDROOT
BRANCH  26  27
HETATM   27  C28 UNL     1       3.488  -0.021  -0.083  1.00  0.00     0.050 C 
BRANCH  27  28
HETATM   28  C29 UNL     1       3.977  -0.038  -1.495  1.00  0.00     0.130 C 
BRANCH  28  29
HETATM   29  N6  UNL     1       5.344   0.497  -1.588  1.00  0.00    -0.366 N 
HETATM   30  C30 UNL     1       6.431  -0.280  -1.478  1.00  0.00     0.090 A 
HETATM   31  C31 UNL     1       7.716   0.233  -1.562  1.00  0.00     0.018 A 
HETATM   32  C32 UNL     1       7.891   1.584  -1.766  1.00  0.00     0.009 A 
HETATM   33  C33 UNL     1       6.778   2.384  -1.881  1.00  0.00    -0.046 A 
HETATM   34  C34 UNL     1       6.966   3.824  -2.101  1.00  0.00     0.049 C 
HETATM   35  C35 UNL     1       5.533   1.809  -1.787  1.00  0.00     0.097 A 
ENDBRANCH  28  29
ENDBRANCH  27  28
ENDBRANCH  26  27
BRANCH   1  36
HETATM   36  C4  UNL     1       2.044  -3.017   0.716  1.00  0.00     0.041 C 
BRANCH  36  37
HETATM   37  C3  UNL     1       3.284  -2.895   1.566  1.00  0.00     0.004 C 
BRANCH  37  38
HETATM   38  C2  UNL     1       3.259  -4.092   2.541  1.00  0.00    -0.004 C 
HETATM   39  C1  UNL     1       4.456  -4.074   3.447  1.00  0.00     0.005 C 
ENDBRANCH  37  38
ENDBRANCH  36  37
ENDBRANCH   1  36
BRANCH   2  40
HETATM   40  O1  UNL     1       0.837  -1.223  -2.154  1.00  0.00    -0.346 OA
ATOM     41  H1  UNL     1       0.073  -1.294  -2.714  1.00  0.00     0.219 HD
ENDBRANCH   2  40
BRANCH  21  42
HETATM   42  C22 UNL     1       0.624   3.446   1.192  1.00  0.00     0.038 C 
BRANCH  42  43
HETATM   43  C23 UNL     1       1.894   3.671   0.448  1.00  0.00    -0.020 C 
HETATM   44  C24 UNL     1       2.228   5.163   0.627  1.00  0.00     0.009 C 
HETATM   45  C25 UNL     1       1.794   3.436  -1.019  1.00  0.00     0.009 C 
ENDBRANCH  42  43
ENDBRANCH  21  42
BRANCH  16  46
HETATM   46  C18 UNL     1      -3.281   3.255   0.077  1.00  0.00     0.147 C 
BRANCH  46  47
HETATM   47  C19 UNL     1      -4.019   3.406  -1.192  1.00  0.00     0.175 C 
HETATM   48  O4  UNL     1      -4.451   2.387  -1.785  1.00  0.00    -0.648 OA
HETATM   49  O5  UNL     1      -4.260   4.658  -1.767  1.00  0.00    -0.648 OA
ENDBRANCH  46  47
ENDBRANCH  16  46
BRANCH  12  50
HETATM   50  C12 UNL     1      -6.138  -1.280  -1.033  1.00  0.00     0.037 C 
BRANCH  50  51
HETATM   51  C13 UNL     1      -7.390  -1.295  -0.263  1.00  0.00    -0.020 C 
HETATM   52  C14 UNL     1      -7.495  -2.513   0.605  1.00  0.00     0.009 C 
HETATM   53  C15 UNL     1      -8.573  -1.280  -1.229  1.00  0.00     0.009 C 
ENDBRANCH  50  51
ENDBRANCH  12  50
BRANCH  13  54
HETATM   54  O3  UNL     1      -5.566  -0.362   1.794  1.00  0.00    -0.348 OA
ATOM     55  H3  UNL     1      -5.634   0.398   2.361  1.00  0.00     0.219 HD
ENDBRANCH  13  54
TORSDOF 14
