REMARK  12 active torsions:
REMARK  status: ('A' for Active; 'I' for Inactive)
REMARK    1  A    between atoms: C2_2  and  C4_4 
REMARK    2  A    between atoms: C4_4  and  C5_5 
REMARK    3  A    between atoms: C7_10  and  C8_11 
REMARK    4  A    between atoms: C12_18  and  C13_19 
REMARK    5  A    between atoms: C13_19  and  C14_20 
REMARK    6  A    between atoms: C23_34  and  C24_35 
REMARK    7  A    between atoms: C24_35  and  C25_36 
REMARK    8  A    between atoms: C30_43  and  C31_44 
REMARK    9  A    between atoms: C31_44  and  C32_45 
REMARK   10  A    between atoms: C32_45  and  C33_46 
REMARK   11  A    between atoms: C33_46  and  C34_47 
REMARK   12  A    between atoms: C34_47  and  N6_48 
ROOT
HETATM    1  C5  UNL     1      -2.408  -1.772  -0.550  1.00  0.00     0.177 C 
HETATM    2  N1  UNL     1      -1.932  -2.708   0.446  1.00  0.00    -0.346 N 
ATOM      3  H1  UNL     1      -2.615  -3.399   0.757  1.00  0.00     0.163 HD
HETATM    4  C6  UNL     1      -0.682  -2.802   1.039  1.00  0.00     0.241 C 
HETATM    5  O1  UNL     1      -0.671  -2.898   2.324  1.00  0.00    -0.271 OA
HETATM    6  C7  UNL     1       0.651  -2.809   0.401  1.00  0.00     0.180 C 
HETATM    7  N2  UNL     1       0.696  -2.357  -0.948  1.00  0.00    -0.346 N 
ATOM      8  H2  UNL     1       0.072  -2.838  -1.596  1.00  0.00     0.163 HD
HETATM    9  C11 UNL     1       1.481  -1.342  -1.503  1.00  0.00     0.241 C 
HETATM   10  O2  UNL     1       1.581  -1.235  -2.755  1.00  0.00    -0.271 OA
HETATM   11  C12 UNL     1       2.257  -0.314  -0.730  1.00  0.00     0.181 C 
HETATM   12  N4  UNL     1       2.457   0.902  -1.480  1.00  0.00    -0.346 N 
ATOM     13  H4  UNL     1       3.204   0.884  -2.175  1.00  0.00     0.163 HD
HETATM   14  C22 UNL     1       1.743   2.112  -1.367  1.00  0.00     0.241 C 
HETATM   15  O3  UNL     1       2.397   3.198  -1.168  1.00  0.00    -0.271 OA
HETATM   16  C23 UNL     1       0.278   2.286  -1.456  1.00  0.00     0.179 C 
HETATM   17  N5  UNL     1      -0.254   2.923  -0.269  1.00  0.00    -0.341 N 
HETATM   18  C28 UNL     1       0.416   4.098   0.297  1.00  0.00     0.153 C 
HETATM   19  C29 UNL     1      -1.447   2.452   0.378  1.00  0.00     0.243 C 
HETATM   20  O4  UNL     1      -2.336   3.334   0.636  1.00  0.00    -0.271 OA
HETATM   21  C30 UNL     1      -1.719   1.052   0.760  1.00  0.00     0.176 C 
HETATM   22  N7  UNL     1      -3.009   0.604   0.241  1.00  0.00    -0.346 N 
ATOM     23  H7  UNL     1      -3.708   1.312   0.017  1.00  0.00     0.163 HD
HETATM   24  C35 UNL     1      -3.347  -0.754   0.031  1.00  0.00     0.241 C 
HETATM   25  O5  UNL     1      -4.502  -1.192   0.335  1.00  0.00    -0.271 OA
ENDROOT
BRANCH  11  26
HETATM   26  C13 UNL     1       3.632  -0.976  -0.551  1.00  0.00     0.075 C 
BRANCH  26  27
HETATM   27  C14 UNL     1       4.583  -0.157   0.183  1.00  0.00    -0.028 A 
HETATM   28  C15 UNL     1       5.635   0.560  -0.339  1.00  0.00     0.096 A 
HETATM   29  N3  UNL     1       6.292   1.197   0.663  1.00  0.00    -0.365 N 
HETATM   30  C16 UNL     1       5.689   0.909   1.836  1.00  0.00     0.042 A 
ATOM     31  H3  UNL     1       7.109   1.796   0.548  1.00  0.00     0.165 HD
HETATM   32  C17 UNL     1       5.990   1.316   3.113  1.00  0.00     0.030 A 
HETATM   33  C21 UNL     1       4.615   0.060   1.539  1.00  0.00    -0.002 A 
HETATM   34  C18 UNL     1       5.200   0.868   4.148  1.00  0.00     0.002 A 
HETATM   35  C19 UNL     1       4.129   0.031   3.923  1.00  0.00     0.001 A 
HETATM   36  C20 UNL     1       3.864  -0.353   2.623  1.00  0.00     0.014 A 
ENDBRANCH  26  27
ENDBRANCH  11  26
BRANCH   6  37
HETATM   37  C8  UNL     1       1.314  -4.191   0.553  1.00  0.00     0.009 C 
HETATM   38  C9  UNL     1       1.462  -4.496   2.010  1.00  0.00     0.012 C 
HETATM   39  C10 UNL     1       0.499  -5.258  -0.127  1.00  0.00     0.012 C 
ENDBRANCH   6  37
BRANCH  16  40
HETATM   40  C24 UNL     1       0.054   3.305  -2.581  1.00  0.00     0.039 C 
BRANCH  40  41
HETATM   41  C25 UNL     1       0.594   2.849  -3.900  1.00  0.00    -0.020 C 
HETATM   42  C26 UNL     1      -0.009   1.588  -4.411  1.00  0.00     0.009 C 
HETATM   43  C27 UNL     1       0.406   3.919  -4.959  1.00  0.00     0.009 C 
ENDBRANCH  40  41
ENDBRANCH  16  40
BRANCH   1  44
HETATM   44  C4  UNL     1      -3.256  -2.609  -1.519  1.00  0.00     0.038 C 
BRANCH  44  45
HETATM   45  C2  UNL     1      -3.844  -1.809  -2.629  1.00  0.00    -0.020 C 
HETATM   46  C1  UNL     1      -2.746  -1.166  -3.439  1.00  0.00     0.009 C 
HETATM   47  C3  UNL     1      -4.518  -2.811  -3.574  1.00  0.00     0.009 C 
ENDBRANCH  44  45
ENDBRANCH   1  44
BRANCH  21  48
HETATM   48  C31 UNL     1      -1.698   0.822   2.245  1.00  0.00     0.035 C 
BRANCH  48  49
HETATM   49  C32 UNL     1      -2.720   1.640   3.005  1.00  0.00     0.004 C 
BRANCH  49  50
HETATM   50  C33 UNL     1      -2.609   1.296   4.497  1.00  0.00     0.027 C 
BRANCH  50  51
HETATM   51  C34 UNL     1      -3.622   2.101   5.291  1.00  0.00     0.229 C 
BRANCH  51  52
HETATM   52  N6  UNL     1      -4.941   1.760   4.796  1.00  0.00    -0.079 N 
ATOM     53  H63 UNL     1      -5.032   1.891   3.789  1.00  0.00     0.274 HD
ATOM     54  H62 UNL     1      -5.126   0.757   4.819  1.00  0.00     0.274 HD
ATOM     55  H61 UNL     1      -5.622   2.301   5.329  1.00  0.00     0.274 HD
ENDBRANCH  51  52
ENDBRANCH  50  51
ENDBRANCH  49  50
ENDBRANCH  48  49
ENDBRANCH  21  48
TORSDOF 12
