REMARK  13 active torsions:
REMARK  status: ('A' for Active; 'I' for Inactive)
REMARK    1  A    between atoms: C2_2  and  C3_3 
REMARK    2  A    between atoms: C3_3  and  N1_6 
REMARK    3  A    between atoms: N1_6  and  C6_9 
REMARK    4  A    between atoms: C6_9  and  C7_10 
REMARK    5  A    between atoms: C11_17  and  O2_18 
REMARK    6  A    between atoms: C14_22  and  C15_23 
REMARK    7  A    between atoms: C15_23  and  O4_25 
REMARK    8  A    between atoms: C18_31  and  C19_32 
REMARK    9  A    between atoms: C18_31  and  C23_36 
REMARK   10  A    between atoms: C19_32  and  C20_33 
REMARK   11  A    between atoms: C20_33  and  C21_34 
REMARK   12  A    between atoms: C23_36  and  C24_37 
REMARK   13  A    between atoms: C24_37  and  S1_38 
ROOT
HETATM    1  C7  UNL     1       1.833  -0.657   0.078  1.00  0.00     0.115 C 
HETATM    2  C8  UNL     1       1.832  -1.821  -0.830  1.00  0.00     0.159 C 
HETATM    3  O1  UNL     1       2.325  -1.649  -1.934  1.00  0.00    -0.295 OA
HETATM    4  C9  UNL     1       1.281  -3.174  -0.498  1.00  0.00     0.149 C 
HETATM    5  C10 UNL     1       1.227  -3.466   0.960  1.00  0.00     0.040 C 
HETATM    6  N2  UNL     1       0.103  -3.525  -1.257  1.00  0.00    -0.363 N 
ATOM      7  H2  UNL     1       0.217  -3.368  -2.258  1.00  0.00     0.162 HD
HETATM    8  C11 UNL     1      -1.139  -4.024  -0.933  1.00  0.00     0.118 C 
HETATM    9  C12 UNL     1      -2.309  -3.448  -0.229  1.00  0.00     0.088 C 
HETATM   10  C13 UNL     1      -2.447  -3.901   1.200  1.00  0.00     0.021 C 
HETATM   11  C14 UNL     1      -2.515  -1.960  -0.400  1.00  0.00     0.195 C 
HETATM   12  N3  UNL     1      -2.435  -1.244   0.854  1.00  0.00    -0.345 N 
ATOM     13  H3  UNL     1      -3.172  -1.508   1.508  1.00  0.00     0.163 HD
HETATM   14  C17 UNL     1      -1.597  -0.296   1.359  1.00  0.00     0.234 C 
HETATM   15  O5  UNL     1      -0.961  -0.620   2.443  1.00  0.00    -0.272 OA
HETATM   16  C18 UNL     1      -1.226   1.089   0.943  1.00  0.00     0.106 C 
HETATM   17  C26 UNL     1       0.212   1.090   0.652  1.00  0.00     0.170 C 
HETATM   18  O6  UNL     1       0.929   1.700   1.508  1.00  0.00    -0.292 OA
HETATM   19  C27 UNL     1       1.030   0.543  -0.411  1.00  0.00    -0.024 C 
HETATM   20  C28 UNL     1       0.499   0.369  -1.773  1.00  0.00     0.048 C 
ENDROOT
BRANCH   1  21
HETATM   21  C6  UNL     1       3.277  -0.253   0.432  1.00  0.00     0.250 C 
BRANCH  21  22
HETATM   22  N1  UNL     1       4.025   0.094  -0.727  1.00  0.00    -0.063 N 
ATOM     23  H12 UNL     1       3.556   0.821  -1.267  1.00  0.00     0.278 HD
ATOM     24  H11 UNL     1       4.007  -0.656  -1.418  1.00  0.00     0.278 HD
BRANCH  22  25
HETATM   25  C3  UNL     1       5.362   0.469  -0.405  1.00  0.00     0.135 C 
HETATM   26  C4  UNL     1       6.179   0.823  -1.642  1.00  0.00     0.050 C 
HETATM   27  C5  UNL     1       5.468   1.621   0.543  1.00  0.00     0.050 C 
BRANCH  25  28
HETATM   28  C2  UNL     1       6.043  -0.712   0.215  1.00  0.00     0.001 C 
HETATM   29  C1  UNL     1       6.833  -0.606   1.253  1.00  0.00     0.009 C 
ENDBRANCH  25  28
ENDBRANCH  22  25
ENDBRANCH  21  22
ENDBRANCH   1  21
BRANCH  16  30
HETATM   30  C19 UNL     1      -2.133   1.703  -0.035  1.00  0.00     0.027 C 
BRANCH  30  31
HETATM   31  C20 UNL     1      -1.754   3.105  -0.375  1.00  0.00     0.001 C 
BRANCH  31  32
HETATM   32  C21 UNL     1      -2.696   3.761  -1.368  1.00  0.00    -0.005 C 
HETATM   33  C22 UNL     1      -2.677   2.959  -2.641  1.00  0.00     0.005 C 
ENDBRANCH  31  32
ENDBRANCH  30  31
ENDBRANCH  16  30
BRANCH  16  34
HETATM   34  C23 UNL     1      -1.429   1.895   2.243  1.00  0.00     0.037 C 
BRANCH  34  35
HETATM   35  C24 UNL     1      -2.822   1.849   2.770  1.00  0.00     0.075 C 
BRANCH  35  36
HETATM   36  S1  UNL     1      -2.927   2.816   4.340  1.00  0.00    -0.173 SA
HETATM   37  C25 UNL     1      -2.643   4.577   4.001  1.00  0.00     0.089 C 
ENDBRANCH  35  36
ENDBRANCH  34  35
ENDBRANCH  16  34
BRANCH   8  38
HETATM   38  O2  UNL     1      -1.349  -5.256  -1.316  1.00  0.00    -0.349 OA
ATOM     39  H2  UNL     1      -2.206  -5.600  -1.092  1.00  0.00     0.219 HD
ENDBRANCH   8  38
BRANCH  11  40
HETATM   40  C15 UNL     1      -3.914  -1.669  -0.905  1.00  0.00     0.282 C 
HETATM   41  O3  UNL     1      -4.734  -0.954  -0.285  1.00  0.00    -0.263 OA
BRANCH  40  42
HETATM   42  O4  UNL     1      -4.362  -2.196  -2.106  1.00  0.00    -0.325 OA
HETATM   43  C16 UNL     1      -5.661  -1.955  -2.622  1.00  0.00     0.213 C 
ENDBRANCH  40  42
ENDBRANCH  11  40
TORSDOF 13
