REMARK  11 active torsions:
REMARK  status: ('A' for Active; 'I' for Inactive)
REMARK    1  A    between atoms: C3_3  and  C4_4 
REMARK    2  A    between atoms: C5_5  and  C6_6 
REMARK    3  A    between atoms: C7_7  and  C8_8 
REMARK    4  A    between atoms: C10_10  and  C11_11 
REMARK    5  A    between atoms: C16_19  and  O2_20 
REMARK    6  A    between atoms: C18_22  and  O3_23 
REMARK    7  A    between atoms: N2_30  and  C22_31 
REMARK    8  A    between atoms: C22_31  and  C23_32 
REMARK    9  A    between atoms: C22_31  and  C26_37 
REMARK   10  A    between atoms: C23_32  and  C24_33 
REMARK   11  A    between atoms: C24_33  and  C25_34 
ROOT
HETATM    1  C11 UNL     1       0.117   0.149   0.500  1.00  0.00     0.196 C 
HETATM    2  C12 UNL     1      -0.289   1.498   0.954  1.00  0.00     0.171 C 
HETATM    3  O1  UNL     1      -0.616   1.530   2.149  1.00  0.00    -0.294 OA
HETATM    4  C13 UNL     1      -0.443   2.896   0.427  1.00  0.00     0.200 C 
HETATM    5  N1  UNL     1      -1.869   3.139   0.278  1.00  0.00    -0.382 N 
ATOM      6  H1  UNL     1      -2.117   4.126   0.351  1.00  0.00     0.160 HD
HETATM    7  C14 UNL     1      -3.007   2.283   0.049  1.00  0.00     0.054 A 
HETATM    8  C15 UNL     1      -4.104   2.996   0.485  1.00  0.00     0.070 A 
HETATM    9  C16 UNL     1      -5.350   2.429   0.398  1.00  0.00     0.103 A 
HETATM   10  C18 UNL     1      -5.493   1.160  -0.122  1.00  0.00     0.103 A 
HETATM   11  C20 UNL     1      -4.376   0.477  -0.548  1.00  0.00     0.067 A 
HETATM   12  C21 UNL     1      -3.108   1.016  -0.476  1.00  0.00     0.109 A 
HETATM   13  S1  UNL     1      -1.975  -0.143  -1.123  1.00  0.00     0.268 S 
HETATM   14  O4  UNL     1      -2.767  -1.230  -1.782  1.00  0.00    -0.200 OA
HETATM   15  O5  UNL     1      -1.186   0.495  -2.265  1.00  0.00    -0.200 OA
HETATM   16  N2  UNL     1      -0.937  -0.662   0.049  1.00  0.00    -0.253 N 
ENDROOT
BRANCH   1  17
HETATM   17  C10 UNL     1       1.265   0.287  -0.430  1.00  0.00     0.014 C 
HETATM   18  C8  UNL     1       2.522   0.264  -0.002  1.00  0.00    -0.063 C 
HETATM   19  C9  UNL     1       2.814   0.095   1.435  1.00  0.00     0.048 C 
BRANCH  18  20
HETATM   20  C7  UNL     1       3.619   0.401  -0.941  1.00  0.00     0.006 C 
HETATM   21  C6  UNL     1       4.901   0.395  -0.640  1.00  0.00     0.001 C 
BRANCH  21  22
HETATM   22  C5  UNL     1       5.912   0.544  -1.688  1.00  0.00     0.000 C 
HETATM   23  C4  UNL     1       7.203   0.553  -1.503  1.00  0.00    -0.000 C 
BRANCH  23  24
HETATM   24  C3  UNL     1       7.800   0.416  -0.217  1.00  0.00    -0.004 C 
HETATM   25  C2  UNL     1       9.135   0.430  -0.070  1.00  0.00    -0.031 C 
HETATM   26  C1  UNL     1       9.999   0.593  -1.273  1.00  0.00     0.036 C 
ENDBRANCH  23  24
ENDBRANCH  21  22
ENDBRANCH  18  20
ENDBRANCH   1  17
BRANCH  16  27
HETATM   27  C22 UNL     1      -0.826  -2.067   0.339  1.00  0.00     0.100 C 
BRANCH  27  28
HETATM   28  C23 UNL     1      -2.059  -2.530   1.029  1.00  0.00     0.075 C 
BRANCH  28  29
HETATM   29  C24 UNL     1      -2.229  -3.949   1.389  1.00  0.00     0.119 C 
BRANCH  29  30
HETATM   30  C25 UNL     1      -2.441  -4.914   0.305  1.00  0.00     0.172 C 
HETATM   31  O6  UNL     1      -2.800  -4.566  -0.840  1.00  0.00    -0.648 OA
HETATM   32  O7  UNL     1      -2.248  -6.277   0.518  1.00  0.00    -0.648 OA
ENDBRANCH  29  30
ENDBRANCH  28  29
ENDBRANCH  27  28
BRANCH  27  33
HETATM   33  C26 UNL     1      -0.262  -2.903  -0.667  1.00  0.00     0.223 C 
HETATM   34  O8  UNL     1      -0.273  -2.630  -1.920  1.00  0.00    -0.643 OA
HETATM   35  O9  UNL     1       0.384  -4.129  -0.396  1.00  0.00    -0.643 OA
ENDBRANCH  27  33
ENDBRANCH  16  27
BRANCH  10  36
HETATM   36  O3  UNL     1      -6.742   0.574  -0.216  1.00  0.00    -0.353 OA
HETATM   37  C19 UNL     1      -6.923  -0.717  -0.739  1.00  0.00     0.210 C 
ENDBRANCH  10  36
BRANCH   9  38
HETATM   38  O2  UNL     1      -6.500   3.116   0.830  1.00  0.00    -0.353 OA
HETATM   39  C17 UNL     1      -6.345   4.426   1.367  1.00  0.00     0.210 C 
ENDBRANCH   9  38
TORSDOF 11
