REMARK  13 active torsions:
REMARK  status: ('A' for Active; 'I' for Inactive)
REMARK    1  A    between atoms: O1_2  and  C2_3 
REMARK    2  A    between atoms: C4_5  and  C5_6 
REMARK    3  A    between atoms: C5_6  and  C6_7 
REMARK    4  A    between atoms: C6_7  and  N1_8 
REMARK    5  A    between atoms: C8_13  and  N3_14 
REMARK    6  A    between atoms: N3_14  and  C9_16 
REMARK    7  A    between atoms: C9_16  and  C10_17 
REMARK    8  A    between atoms: C10_17  and  N4_18 
REMARK    9  A    between atoms: C13_23  and  N6_24 
REMARK   10  A    between atoms: N6_24  and  C14_26 
REMARK   11  A    between atoms: C14_26  and  C15_27 
REMARK   12  A    between atoms: C22_36  and  C23_37 
REMARK   13  A    between atoms: C28_43  and  O3_44 
ROOT
HETATM    1  N1  UNL     1      -0.322  -1.355  -0.354  1.00  0.00    -0.204 N 
ATOM      2  H1  UNL     1      -0.135  -2.357  -0.312  1.00  0.00     0.183 HD
HETATM    3  C7  UNL     1      -1.515  -1.124  -0.666  1.00  0.00     0.710 A 
HETATM    4  N2  UNL     1      -2.303  -2.228  -0.882  1.00  0.00    -0.021 N 
ATOM      5  H2  UNL     1      -1.898  -3.159  -0.785  1.00  0.00     0.203 HD
HETATM    6  C8  UNL     1      -3.589  -2.106  -1.217  1.00  0.00     0.707 A 
HETATM    7  N5  UNL     1      -4.125  -0.859  -1.346  1.00  0.00    -0.022 N 
ATOM      8  H5  UNL     1      -5.108  -0.765  -1.602  1.00  0.00     0.203 HD
HETATM    9  C13 UNL     1      -3.390   0.252  -1.144  1.00  0.00     0.707 A 
HETATM   10  N7  UNL     1      -2.104   0.082  -0.810  1.00  0.00    -0.021 N 
ATOM     11  H7  UNL     1      -1.535   0.914  -0.655  1.00  0.00     0.203 HD
ENDROOT
BRANCH   1  12
HETATM   12  C6  UNL     1       0.816  -0.611  -0.049  1.00  0.00     0.083 C 
BRANCH  12  13
HETATM   13  C5  UNL     1       1.695  -0.286  -1.236  1.00  0.00     0.083 C 
BRANCH  13  14
HETATM   14  C4  UNL     1       2.904   0.453  -0.718  1.00  0.00    -0.050 A 
HETATM   15  C3  UNL     1       2.961   1.814  -0.592  1.00  0.00     0.047 A 
HETATM   16  C2  UNL     1       4.096   2.432  -0.123  1.00  0.00     0.102 A 
HETATM   17  C28 UNL     1       5.217   1.649   0.234  1.00  0.00     0.108 A 
HETATM   18  C22 UNL     1       5.197   0.296   0.124  1.00  0.00    -0.017 A 
HETATM   19  C21 UNL     1       4.033  -0.279  -0.354  1.00  0.00     0.018 A 
BRANCH  16  20
HETATM   20  O1  UNL     1       4.178   3.810   0.011  1.00  0.00    -0.353 OA
HETATM   21  C1  UNL     1       3.055   4.584  -0.352  1.00  0.00     0.210 C 
ENDBRANCH  16  20
BRANCH  17  22
HETATM   22  O3  UNL     1       6.316   2.328   0.683  1.00  0.00    -0.353 OA
HETATM   23  C29 UNL     1       6.464   2.678   2.026  1.00  0.00     0.210 C 
ENDBRANCH  17  22
BRANCH  18  24
HETATM   24  C23 UNL     1       6.316  -0.551   0.496  1.00  0.00     0.025 C 
HETATM   25  C24 UNL     1       6.126  -1.934  -0.206  1.00  0.00     0.036 C 
HETATM   26  C25 UNL     1       7.422  -2.664   0.003  1.00  0.00     0.168 C 
HETATM   27  O2  UNL     1       8.282  -1.991   0.860  1.00  0.00    -0.391 OA
HETATM   28  C26 UNL     1       7.706  -1.716   2.094  1.00  0.00     0.168 C 
HETATM   29  C27 UNL     1       6.372  -0.967   1.954  1.00  0.00     0.036 C 
ENDBRANCH  18  24
ENDBRANCH  13  14
ENDBRANCH  12  13
ENDBRANCH   1  12
BRANCH   6  30
HETATM   30  N3  UNL     1      -4.339  -3.133  -1.418  1.00  0.00    -0.223 N 
ATOM     31  H3  UNL     1      -5.308  -2.937  -1.669  1.00  0.00     0.177 HD
BRANCH  30  32
HETATM   32  C9  UNL     1      -3.982  -4.504  -1.333  1.00  0.00     0.168 C 
BRANCH  32  33
HETATM   33  C10 UNL     1      -5.060  -5.338  -0.663  1.00  0.00     0.291 C 
BRANCH  33  34
HETATM   34  N4  UNL     1      -4.680  -6.735  -0.575  1.00  0.00     0.081 N 
HETATM   35  C11 UNL     1      -3.590  -6.951   0.337  1.00  0.00     0.309 C 
HETATM   36  C12 UNL     1      -5.854  -7.419  -0.008  1.00  0.00     0.309 C 
ENDBRANCH  33  34
ENDBRANCH  32  33
ENDBRANCH  30  32
ENDBRANCH   6  30
BRANCH   9  37
HETATM   37  N6  UNL     1      -3.904   1.422  -1.267  1.00  0.00    -0.225 N 
ATOM     38  H6  UNL     1      -4.890   1.462  -1.524  1.00  0.00     0.177 HD
BRANCH  37  39
HETATM   39  C14 UNL     1      -3.239   2.676  -1.082  1.00  0.00     0.142 C 
BRANCH  39  40
HETATM   40  C15 UNL     1      -4.237   3.812  -0.953  1.00  0.00     0.004 C 
HETATM   41  C16 UNL     1      -3.532   5.122  -0.766  1.00  0.00     0.006 C 
HETATM   42  C17 UNL     1      -4.547   6.174  -0.278  1.00  0.00     0.000 C 
HETATM   43  C18 UNL     1      -4.765   5.873   1.178  1.00  0.00     0.000 C 
HETATM   44  C19 UNL     1      -4.753   4.376   1.424  1.00  0.00     0.000 C 
HETATM   45  C20 UNL     1      -5.169   3.578   0.222  1.00  0.00     0.006 C 
ENDBRANCH  39  40
ENDBRANCH  37  39
ENDBRANCH   9  37
TORSDOF 13
