REMARK  3 active torsions:
REMARK  status: ('A' for Active; 'I' for Inactive)
REMARK    1  A    between atoms: N1_1  and  C1_4 
REMARK    2  A    between atoms: C3_8  and  N3_9 
REMARK    3  A    between atoms: N4_11  and  N5_13 
ROOT
HETATM    1  C1  UNL     1      -2.233   1.292  -0.018  1.00  0.00     0.692 A 
HETATM    2  N2  UNL     1      -0.935   1.273  -0.370  1.00  0.00    -0.171 N 
ATOM      3  H2  UNL     1      -0.405   2.049  -0.767  1.00  0.00     0.186 HD
HETATM    4  C2  UNL     1      -0.461   0.033  -0.100  1.00  0.00     0.181 A 
HETATM    5  C3  UNL     1       0.787  -0.506  -0.269  1.00  0.00     0.164 A 
HETATM    6  C4  UNL     1       0.977  -1.830   0.105  1.00  0.00     0.281 A 
HETATM    7  O1  UNL     1       2.108  -2.354  -0.037  1.00  0.00    -0.265 OA
HETATM    8  N6  UNL     1      -0.015  -2.579   0.620  1.00  0.00    -0.272 N 
ATOM      9  H6  UNL     1       0.150  -3.549   0.888  1.00  0.00     0.174 HD
HETATM   10  C5  UNL     1      -1.229  -2.021   0.774  1.00  0.00     0.350 A 
HETATM   11  O2  UNL     1      -2.208  -2.652   1.247  1.00  0.00    -0.244 OA
HETATM   12  N7  UNL     1      -1.447  -0.722   0.415  1.00  0.00    -0.171 N 
HETATM   13  N8  UNL     1      -2.510   0.064   0.454  1.00  0.00    -0.120 N 
ATOM     14  H8  UNL     1      -3.425  -0.225   0.799  1.00  0.00     0.206 HD
ENDROOT
BRANCH   5  15
HETATM   15  N3  UNL     1       1.876   0.211  -0.801  1.00  0.00    -0.278 N 
HETATM   16  N4  UNL     1       2.704   0.861  -0.091  1.00  0.00    -0.249 N 
ATOM     17  H4  UNL     1       2.577   0.866   0.921  1.00  0.00     0.207 HD
ATOM     18  H3  UNL     1       2.007   0.208  -1.813  1.00  0.00     0.189 HD
BRANCH  16  19
HETATM   19  N5  UNL     1       3.765   1.560  -0.622  1.00  0.00    -0.331 N 
ATOM     20  H52 UNL     1       3.877   1.545  -1.636  1.00  0.00     0.178 HD
ATOM     21  H51 UNL     1       4.430   2.082  -0.052  1.00  0.00     0.178 HD
ENDBRANCH  16  19
ENDBRANCH   5  15
BRANCH   1  22
HETATM   22  N1  UNL     1      -3.070   2.298  -0.112  1.00  0.00    -0.233 N 
ATOM     23  H12 UNL     1      -2.860   3.230  -0.470  1.00  0.00     0.174 HD
ATOM     24  H11 UNL     1      -4.054   2.312   0.155  1.00  0.00     0.174 HD
ENDBRANCH   1  22
TORSDOF 3
