REMARK  3 active torsions:
REMARK  status: ('A' for Active; 'I' for Inactive)
REMARK    1  A    between atoms: C2_3  and  C3_4 
REMARK    2  A    between atoms: C3_4  and  O1_5 
REMARK    3  A    between atoms: C3_4  and  N2_7 
REMARK       I    between atoms: N2_7  and  C4_8 
ROOT
HETATM    1  C3  UNL     1       0.137   0.014  -0.937  1.00  0.00     0.249 C 
ENDROOT
BRANCH   1   2
HETATM    2  C2  UNL     1      -1.179   0.183  -0.345  1.00  0.00     0.153 A 
HETATM    3  N1  UNL     1      -1.570   0.136   0.922  1.00  0.00    -0.289 N 
HETATM    4  C1  UNL     1      -0.780  -0.101   2.115  1.00  0.00     0.162 C 
HETATM    5  C6  UNL     1      -2.924   0.336   0.922  1.00  0.00     0.373 A 
HETATM    6  O2  UNL     1      -3.340   0.497  -0.312  1.00  0.00    -0.243 OA
HETATM    7  O3  UNL     1      -3.613   0.351   1.976  1.00  0.00    -0.237 OA
HETATM    8  C5  UNL     1      -2.330   0.417  -1.137  1.00  0.00     0.195 A 
HETATM    9  N5  UNL     1      -2.350   0.537  -2.556  1.00  0.00    -0.072 NA
ENDBRANCH   1   2
BRANCH   1  10
HETATM   10  O1  UNL     1       0.126   0.019  -2.247  1.00  0.00    -0.334 OA
ATOM     11  H1  UNL     1       0.986  -0.092  -2.634  1.00  0.00     0.220 HD
ENDBRANCH   1  10
BRANCH   1  12
HETATM   12  N2  UNL     1       1.340  -0.140  -0.304  1.00  0.00    -0.346 NA
HETATM   13  C4  UNL     1       2.523  -0.292   0.318  1.00  0.00     0.263 C 
HETATM   14  N3  UNL     1       2.707  -0.294   1.615  1.00  0.00    -0.362 N 
HETATM   15  N4  UNL     1       3.785  -0.478  -0.394  1.00  0.00    -0.049 NA
ATOM     16  H32 UNL     1       1.826  -0.164   2.112  1.00  0.00     0.159 HD
ATOM     17  H31 UNL     1       3.604  -0.409   2.087  1.00  0.00     0.159 HD
ENDBRANCH   1  12
TORSDOF 3
