REMARK  3 active torsions:
REMARK  status: ('A' for Active; 'I' for Inactive)
REMARK    1  A    between atoms: C2_7  and  C3_8 
REMARK    2  A    between atoms: N3_9  and  N4_11 
REMARK    3  A    between atoms: N4_11  and  C4_13 
ROOT
HETATM    1  C3  UNL     1       1.421  -1.738   0.405  1.00  0.00     0.157 C 
HETATM    2  N3  UNL     1       0.251  -1.551   0.912  1.00  0.00    -0.306 N 
ATOM      3  H3  UNL     1      -0.291  -2.371   1.185  1.00  0.00     0.186 HD
ENDROOT
BRANCH   2   4
HETATM    4  N4  UNL     1      -0.318  -0.291   1.110  1.00  0.00    -0.272 N 
ATOM      5  H4  UNL     1       0.131   0.358   1.756  1.00  0.00     0.190 HD
BRANCH   4   6
HETATM    6  C4  UNL     1      -1.509   0.118   0.436  1.00  0.00     0.190 C 
HETATM    7  N5  UNL     1      -1.585   0.679  -0.706  1.00  0.00    -0.360 N 
HETATM    8  C5  UNL     1      -2.954   0.942  -1.054  1.00  0.00     0.142 C 
ATOM      9  H5  UNL     1      -0.783   0.910  -1.293  1.00  0.00     0.162 HD
HETATM   10  C6  UNL     1      -3.727   0.059  -0.103  1.00  0.00     0.142 C 
HETATM   11  N6  UNL     1      -2.800  -0.070   0.997  1.00  0.00    -0.360 N 
ATOM     12  H6  UNL     1      -3.026  -0.257   1.974  1.00  0.00     0.162 HD
ENDBRANCH   4   6
ENDBRANCH   2   4
BRANCH   1  13
HETATM   13  C2  UNL     1       2.288  -0.657  -0.022  1.00  0.00     0.141 A 
HETATM   14  N2  UNL     1       2.040   0.660   0.032  1.00  0.00    -0.280 N 
HETATM   15  N1  UNL     1       3.081   1.302  -0.453  1.00  0.00    -0.250 N 
ATOM     16  H2  UNL     1       1.188   1.091   0.389  1.00  0.00     0.188 HD
HETATM   17  C1  UNL     1       4.012   0.411  -0.826  1.00  0.00     0.340 A 
ATOM     18  H1  UNL     1       3.167   2.315  -0.533  1.00  0.00     0.192 HD
HETATM   19  O1  UNL     1       5.150   0.670  -1.338  1.00  0.00    -0.245 OA
HETATM   20  N7  UNL     1       3.508  -0.804  -0.554  1.00  0.00    -0.291 N 
ATOM     21  H7  UNL     1       3.978  -1.693  -0.725  1.00  0.00     0.172 HD
ENDBRANCH   1  13
TORSDOF 3
