REMARK  9 active torsions:
REMARK  status: ('A' for Active; 'I' for Inactive)
REMARK    1  A    between atoms: C1_2  and  C2_4 
REMARK    2  A    between atoms: C2_4  and  C3_5 
REMARK    3  A    between atoms: C2_4  and  N4_12 
REMARK    4  A    between atoms: C3_5  and  C4_6 
REMARK    5  A    between atoms: C4_6  and  N2_7 
REMARK    6  A    between atoms: N2_7  and  N3_9 
REMARK    7  A    between atoms: N3_9  and  C5_10 
REMARK       I    between atoms: N4_12  and  C6_14 
REMARK    8  A    between atoms: C6_14  and  C7_16 
REMARK    9  A    between atoms: C8_17  and  C9_18 
ROOT
HETATM    1  N4  UNL     1      -0.555  -0.177  -1.499  1.00  0.00    -0.323 N 
ATOM      2  H4  UNL     1      -0.335  -1.129  -1.207  1.00  0.00     0.169 HD
HETATM    3  C6  UNL     1       0.521   0.646  -1.302  1.00  0.00     0.245 C 
HETATM    4  O3  UNL     1       0.652   1.827  -1.616  1.00  0.00    -0.268 OA
ENDROOT
BRANCH   1   5
HETATM    5  C2  UNL     1      -1.880  -0.103  -1.986  1.00  0.00     0.079 C 
BRANCH   5   6
HETATM    6  C1  UNL     1      -2.283   0.567  -3.163  1.00  0.00     0.277 C 
HETATM    7  N1  UNL     1      -2.771  -0.322  -4.268  1.00  0.00    -0.056 NA
HETATM    8  O1  UNL     1      -2.305   1.802  -3.430  1.00  0.00    -0.270 OA
ENDBRANCH   5   6
BRANCH   5   9
HETATM    9  C3  UNL     1      -2.750  -0.653  -0.876  1.00  0.00     0.084 C 
BRANCH   9  10
HETATM   10  C4  UNL     1      -3.335   0.343   0.094  1.00  0.00     0.160 C 
BRANCH  10  11
HETATM   11  N2  UNL     1      -4.103  -0.448   1.077  1.00  0.00    -0.269 N 
ATOM     12  H2  UNL     1      -4.499  -1.356   0.834  1.00  0.00     0.195 HD
BRANCH  11  13
HETATM   13  N3  UNL     1      -4.256   0.068   2.282  1.00  0.00    -0.302 NA
BRANCH  13  14
HETATM   14  C5  UNL     1      -4.427   0.607   3.563  1.00  0.00     0.466 C 
HETATM   15  O2  UNL     1      -5.171   0.140   4.517  1.00  0.00    -0.266 OA
ENDBRANCH  13  14
ENDBRANCH  11  13
ENDBRANCH  10  11
ENDBRANCH   9  10
ENDBRANCH   5   9
ENDBRANCH   1   5
BRANCH   3  16
HETATM   16  C7  UNL     1       1.672  -0.021  -0.552  1.00  0.00     0.075 C 
HETATM   17  C8  UNL     1       2.729   0.681  -0.354  1.00  0.00     0.017 C 
BRANCH  17  18
HETATM   18  C9  UNL     1       3.915   0.217   0.378  1.00  0.00    -0.036 A 
HETATM   19  C10 UNL     1       3.748  -0.309   1.620  1.00  0.00     0.011 A 
HETATM   20  C11 UNL     1       4.786  -0.754   2.413  1.00  0.00     0.001 A 
HETATM   21  C12 UNL     1       6.098  -0.688   1.946  1.00  0.00     0.000 A 
HETATM   22  C13 UNL     1       6.286  -0.162   0.699  1.00  0.00     0.001 A 
HETATM   23  C14 UNL     1       5.211   0.282  -0.065  1.00  0.00     0.011 A 
ENDBRANCH  17  18
ENDBRANCH   3  16
TORSDOF 9
