REMARK  10 active torsions:
REMARK  status: ('A' for Active; 'I' for Inactive)
REMARK    1  A    between atoms: C2_2  and  C3_4 
REMARK    2  A    between atoms: C3_4  and  N1_5 
REMARK    3  A    between atoms: C3_4  and  C10_22 
REMARK       I    between atoms: N1_5  and  C4_7 
REMARK    4  A    between atoms: C4_7  and  C5_9 
REMARK    5  A    between atoms: C5_9  and  C6_10 
REMARK    6  A    between atoms: C5_9  and  N3_14 
REMARK    7  A    between atoms: C6_10  and  C7_11 
REMARK    8  A    between atoms: N3_14  and  C8_16 
REMARK    9  A    between atoms: C8_16  and  C9_17 
REMARK   10  A    between atoms: C9_17  and  N4_18 
ROOT
HETATM    1  N1  UNL     1       0.537  -0.705   0.225  1.00  0.00    -0.348 N 
ATOM      2  H1  UNL     1       0.470  -1.389   0.979  1.00  0.00     0.163 HD
HETATM    3  C4  UNL     1      -0.488   0.247   0.036  1.00  0.00     0.241 C 
HETATM    4  O2  UNL     1      -0.381   1.091  -0.920  1.00  0.00    -0.271 OA
ENDROOT
BRANCH   3   5
HETATM    5  C5  UNL     1      -1.690   0.333   0.881  1.00  0.00     0.177 C 
BRANCH   5   6
HETATM    6  C6  UNL     1      -2.275  -1.040   1.156  1.00  0.00     0.134 C 
BRANCH   6   7
HETATM    7  C7  UNL     1      -3.467  -0.941   1.998  1.00  0.00     0.233 C 
HETATM    8  N2  UNL     1      -4.167  -2.106   2.405  1.00  0.00    -0.062 NA
HETATM    9  O3  UNL     1      -3.896   0.172   2.379  1.00  0.00    -0.277 OA
ENDBRANCH   6   7
ENDBRANCH   5   6
BRANCH   5  10
HETATM   10  N3  UNL     1      -2.635   1.297   0.436  1.00  0.00    -0.407 N 
ATOM     11  H3  UNL     1      -2.854   2.123   0.992  1.00  0.00     0.154 HD
BRANCH  10  12
HETATM   12  C8  UNL     1      -3.264   1.059  -0.823  1.00  0.00     0.142 C 
BRANCH  12  13
HETATM   13  C9  UNL     1      -4.226   2.185  -1.187  1.00  0.00     0.248 C 
BRANCH  13  14
HETATM   14  N4  UNL     1      -5.228   2.260  -0.158  1.00  0.00    -0.078 N 
ATOM     15  H43 UNL     1      -5.702   1.370  -0.002  1.00  0.00     0.274 HD
ATOM     16  H42 UNL     1      -4.829   2.367   0.775  1.00  0.00     0.274 HD
ATOM     17  H41 UNL     1      -5.871   3.013  -0.401  1.00  0.00     0.274 HD
ENDBRANCH  13  14
ENDBRANCH  12  13
ENDBRANCH  10  12
ENDBRANCH   5  10
ENDBRANCH   3   5
BRANCH   1  18
HETATM   18  C3  UNL     1       1.685  -0.704  -0.659  1.00  0.00     0.158 C 
BRANCH  18  19
HETATM   19  C2  UNL     1       1.772  -1.992  -1.348  1.00  0.00     0.145 C 
HETATM   20  C1  UNL     1       2.757  -2.308  -2.369  1.00  0.00     0.093 C 
HETATM   21  O1  UNL     1       0.959  -2.873  -1.054  1.00  0.00    -0.296 OA
ENDBRANCH  18  19
BRANCH  18  22
HETATM   22  C10 UNL     1       2.953  -0.439   0.114  1.00  0.00     0.016 C 
HETATM   23  C11 UNL     1       2.840   0.890   0.872  1.00  0.00     0.007 C 
HETATM   24  C12 UNL     1       4.305   1.028   1.310  1.00  0.00     0.000 C 
HETATM   25  C13 UNL     1       4.998   0.840  -0.011  1.00  0.00     0.000 C 
HETATM   26  C14 UNL     1       4.089  -0.096  -0.823  1.00  0.00     0.007 C 
ENDBRANCH  18  22
ENDBRANCH   1  18
TORSDOF 10
