REMARK  4 active torsions:
REMARK  status: ('A' for Active; 'I' for Inactive)
REMARK       I    between atoms: C1_2  and  N3_6 
REMARK    1  A    between atoms: N3_6  and  O1_8 
REMARK    2  A    between atoms: O1_8  and  C2_9 
REMARK    3  A    between atoms: C2_9  and  C3_11 
REMARK    4  A    between atoms: C4_14  and  N5_15 
ROOT
HETATM    1  C3  UNL     1      -0.632   0.215  -0.027  1.00  0.00     0.202 A 
HETATM    2  N4  UNL     1      -1.481  -0.564   0.646  1.00  0.00    -0.170 N 
ATOM      3  H4  UNL     1      -1.137  -1.371   1.167  1.00  0.00     0.186 HD
HETATM    4  C4  UNL     1      -2.790  -0.276   0.630  1.00  0.00     0.681 A 
HETATM    5  N6  UNL     1      -3.271   0.794  -0.059  1.00  0.00    -0.141 N 
ATOM      6  H6  UNL     1      -4.269   1.004  -0.065  1.00  0.00     0.189 HD
HETATM    7  C5  UNL     1      -2.407   1.565  -0.729  1.00  0.00     0.340 A 
HETATM    8  O3  UNL     1      -2.809   2.558  -1.375  1.00  0.00    -0.246 OA
HETATM    9  N7  UNL     1      -1.087   1.270  -0.710  1.00  0.00    -0.288 N 
ATOM     10  H7  UNL     1      -0.431   1.859  -1.223  1.00  0.00     0.172 HD
ENDROOT
BRANCH   1  11
HETATM   11  C2  UNL     1       0.792  -0.073  -0.028  1.00  0.00     0.350 C 
HETATM   12  O2  UNL     1       1.591   0.659  -0.661  1.00  0.00    -0.254 OA
BRANCH  11  13
HETATM   13  O1  UNL     1       1.323  -1.151   0.660  1.00  0.00    -0.190 OA
BRANCH  13  14
HETATM   14  N3  UNL     1       2.663  -1.364   0.619  1.00  0.00    -0.229 N 
HETATM   15  C1  UNL     1       3.641  -0.373   0.866  1.00  0.00     0.206 C 
HETATM   16  N1  UNL     1       3.409   0.718   1.750  1.00  0.00    -0.062 NA
HETATM   17  N2  UNL     1       4.779  -0.464   0.268  1.00  0.00    -0.372 N 
ATOM     18  H22 UNL     1       5.484   0.251   0.446  1.00  0.00     0.158 HD
ATOM     19  H21 UNL     1       4.945  -1.246  -0.366  1.00  0.00     0.158 HD
ATOM     20  H3  UNL     1       2.987  -2.305   0.394  1.00  0.00     0.197 HD
ENDBRANCH  13  14
ENDBRANCH  11  13
ENDBRANCH   1  11
BRANCH   4  21
HETATM   21  N5  UNL     1      -3.667  -1.008   1.273  1.00  0.00    -0.234 N 
ATOM     22  H52 UNL     1      -3.306  -1.810   1.790  1.00  0.00     0.174 HD
ATOM     23  H51 UNL     1      -4.663  -0.789   1.261  1.00  0.00     0.174 HD
ENDBRANCH   4  21
TORSDOF 4
