REMARK  3 active torsions:
REMARK  status: ('A' for Active; 'I' for Inactive)
REMARK    1  A    between atoms: N1_1  and  C1_4 
REMARK    2  A    between atoms: C4_13  and  C5_14 
REMARK       I    between atoms: C5_14  and  N5_16 
REMARK    3  A    between atoms: N5_16  and  N6_18 
ROOT
HETATM    1  C1  UNL     1      -0.302  -1.291  -0.530  1.00  0.00     0.131 A 
HETATM    2  N2  UNL     1      -1.567  -1.708  -0.822  1.00  0.00    -0.282 N 
ATOM      3  H2  UNL     1      -1.701  -2.637  -1.221  1.00  0.00     0.188 HD
HETATM    4  N3  UNL     1      -2.623  -0.948  -0.605  1.00  0.00    -0.263 N 
ATOM      5  H3  UNL     1      -3.552  -1.298  -0.838  1.00  0.00     0.190 HD
HETATM    6  C2  UNL     1      -2.490   0.282  -0.081  1.00  0.00     0.285 A 
HETATM    7  O1  UNL     1      -3.475   1.037   0.140  1.00  0.00    -0.265 OA
HETATM    8  C3  UNL     1      -1.221   0.717   0.219  1.00  0.00     0.135 A 
HETATM    9  N4  UNL     1      -1.060   2.020   0.776  1.00  0.00    -0.095 NA
HETATM   10  C4  UNL     1      -0.068  -0.051   0.008  1.00  0.00     0.108 A 
ENDROOT
BRANCH  10  11
HETATM   11  C5  UNL     1       1.232   0.495   0.358  1.00  0.00     0.275 C 
HETATM   12  O2  UNL     1       1.222   1.684   0.851  1.00  0.00    -0.266 OA
HETATM   13  N5  UNL     1       2.482  -0.091   0.231  1.00  0.00    -0.272 N 
ATOM     14  H5  UNL     1       2.563  -1.032  -0.154  1.00  0.00     0.189 HD
BRANCH  13  15
HETATM   15  N6  UNL     1       3.647   0.607   0.631  1.00  0.00    -0.342 N 
ATOM     16  H62 UNL     1       3.549   1.547   1.014  1.00  0.00     0.176 HD
ATOM     17  H61 UNL     1       4.567   0.176   0.538  1.00  0.00     0.176 HD
ENDBRANCH  13  15
ENDBRANCH  10  11
BRANCH   1  18
HETATM   18  N1  UNL     1       0.667  -2.088  -0.770  1.00  0.00    -0.384 N 
ATOM     19  H12 UNL     1       0.493  -3.010  -1.170  1.00  0.00     0.157 HD
ATOM     20  H11 UNL     1       1.613  -1.776  -0.552  1.00  0.00     0.157 HD
ENDBRANCH   1  18
TORSDOF 3
