REMARK  6 active torsions:
REMARK  status: ('A' for Active; 'I' for Inactive)
REMARK    1  A    between atoms: C2_2  and  N1_5 
REMARK       I    between atoms: N1_5  and  C5_7 
REMARK    2  A    between atoms: C5_7  and  C6_9 
REMARK       I    between atoms: C6_9  and  N2_11 
REMARK    3  A    between atoms: N2_11  and  N3_13 
REMARK    4  A    between atoms: N3_13  and  C7_15 
REMARK    5  A    between atoms: C8_18  and  N5_19 
REMARK    6  A    between atoms: C13_26  and  N7_27 
ROOT
HETATM    1  C7  UNL     1      -1.276   0.181  -1.085  1.00  0.00     0.163 A 
HETATM    2  N4  UNL     1      -2.543   0.485  -0.701  1.00  0.00    -0.173 N 
ATOM      3  H4  UNL     1      -2.807   1.470  -0.692  1.00  0.00     0.186 HD
HETATM    4  C8  UNL     1      -3.468  -0.400  -0.336  1.00  0.00     0.683 A 
HETATM    5  N6  UNL     1      -3.115  -1.696  -0.351  1.00  0.00    -0.175 N 
ATOM      6  H6  UNL     1      -3.805  -2.395  -0.075  1.00  0.00     0.186 HD
HETATM    7  C13 UNL     1      -1.892  -2.107  -0.715  1.00  0.00     0.143 A 
HETATM    8  C14 UNL     1      -0.942  -1.142  -1.095  1.00  0.00     0.136 A 
HETATM    9  N8  UNL     1       0.339  -1.629  -1.515  1.00  0.00    -0.094 NA
ENDROOT
BRANCH   1  10
HETATM   10  N3  UNL     1      -0.368   1.182  -1.447  1.00  0.00    -0.280 N 
ATOM     11  H3  UNL     1      -0.742   2.106  -1.663  1.00  0.00     0.188 HD
BRANCH  10  12
HETATM   12  N2  UNL     1       0.998   1.007  -1.532  1.00  0.00    -0.260 N 
HETATM   13  C6  UNL     1       1.800   0.862  -0.351  1.00  0.00     0.327 C 
HETATM   14  O2  UNL     1       1.197   0.889   0.763  1.00  0.00    -0.261 OA
ATOM     15  H2  UNL     1       1.445   0.980  -2.449  1.00  0.00     0.190 HD
BRANCH  13  16
HETATM   16  C5  UNL     1       3.242   0.690  -0.385  1.00  0.00     0.311 C 
HETATM   17  N1  UNL     1       3.968   0.465   0.847  1.00  0.00    -0.345 N 
ATOM     18  H1  UNL     1       3.460   0.425   1.730  1.00  0.00     0.163 HD
HETATM   19  O1  UNL     1       3.918   0.722  -1.429  1.00  0.00    -0.262 OA
BRANCH  17  20
HETATM   20  C2  UNL     1       5.400   0.297   0.842  1.00  0.00     0.022 C 
HETATM   21  C1  UNL     1       5.815  -0.863  -0.051  1.00  0.00     0.037 C 
HETATM   22  C3  UNL     1       6.121   1.528   0.379  1.00  0.00     0.037 C 
HETATM   23  C4  UNL     1       5.809  -0.089   2.272  1.00  0.00     0.037 C 
ENDBRANCH  17  20
ENDBRANCH  13  16
ENDBRANCH  10  12
ENDBRANCH   1  10
BRANCH   4  24
HETATM   24  N5  UNL     1      -4.773  -0.035   0.070  1.00  0.00    -0.217 N 
HETATM   25  C9  UNL     1      -5.153   0.427   1.396  1.00  0.00     0.141 C 
HETATM   26  C10 UNL     1      -6.436   1.153   1.172  1.00  0.00     0.022 C 
HETATM   27  C11 UNL     1      -6.913   0.928  -0.220  1.00  0.00     0.022 C 
HETATM   28  C12 UNL     1      -5.937  -0.073  -0.784  1.00  0.00     0.141 C 
ENDBRANCH   4  24
BRANCH   7  29
HETATM   29  N7  UNL     1      -1.586  -3.367  -0.712  1.00  0.00    -0.383 N 
ATOM     30  H72 UNL     1      -2.275  -4.067  -0.436  1.00  0.00     0.157 HD
ATOM     31  H71 UNL     1      -0.655  -3.680  -0.989  1.00  0.00     0.157 HD
ENDBRANCH   7  29
TORSDOF 6
