REMARK  4 active torsions:
REMARK  status: ('A' for Active; 'I' for Inactive)
REMARK    1  A    between atoms: C2_2  and  N1_4 
REMARK    2  A    between atoms: N1_4  and  C4_6 
REMARK    3  A    between atoms: C7_14  and  N4_15 
REMARK    4  A    between atoms: N4_15  and  C8_17 
REMARK       I    between atoms: N5_20  and  C11_21 
REMARK       I    between atoms: C11_21  and  N6_22 
REMARK       I    between atoms: C11_21  and  N7_26 
ROOT
HETATM    1  C4  UNL     1       2.832   0.432   0.565  1.00  0.00     0.681 A 
HETATM    2  N2  UNL     1       1.887   1.393   0.402  1.00  0.00    -0.176 N 
ATOM      3  H2  UNL     1       2.082   2.367   0.635  1.00  0.00     0.186 HD
HETATM    4  C5  UNL     1       0.686   1.023  -0.076  1.00  0.00     0.132 A 
HETATM    5  N3  UNL     1      -0.240   1.890  -0.248  1.00  0.00    -0.384 N 
ATOM      6  H31 UNL     1      -1.151   1.609  -0.611  1.00  0.00     0.157 HD
ATOM      7  H32 UNL     1      -0.029   2.859  -0.010  1.00  0.00     0.157 HD
HETATM    8  C6  UNL     1       0.399  -0.294  -0.400  1.00  0.00     0.096 A 
HETATM    9  C7  UNL     1      -0.871  -0.612  -0.894  1.00  0.00     0.122 A 
HETATM   10  N8  UNL     1      -1.076  -1.907  -1.187  1.00  0.00    -0.318 N 
ATOM     11  H8  UNL     1      -1.983  -2.198  -1.551  1.00  0.00     0.170 HD
HETATM   12  C12 UNL     1      -0.112  -2.828  -1.011  1.00  0.00     0.182 A 
HETATM   13 CL1  UNL     1      -0.405  -4.520  -1.402  1.00  0.00    -0.045 Cl
HETATM   14  N9  UNL     1       1.110  -2.509  -0.534  1.00  0.00    -0.317 N 
ATOM     15  H9  UNL     1       1.820  -3.231  -0.412  1.00  0.00     0.170 HD
HETATM   16  C13 UNL     1       1.379  -1.238  -0.223  1.00  0.00     0.141 A 
HETATM   17  N10 UNL     1       2.592  -0.853   0.262  1.00  0.00    -0.175 N 
ATOM     18  H10 UNL     1       3.326  -1.549   0.396  1.00  0.00     0.186 HD
ENDROOT
BRANCH   9  19
HETATM   19  N4  UNL     1      -1.729   0.311  -1.031  1.00  0.00    -0.345 N 
ATOM     20  H4  UNL     1      -1.456   1.259  -0.773  1.00  0.00     0.163 HD
BRANCH  19  21
HETATM   21  C8  UNL     1      -3.044   0.108  -1.521  1.00  0.00     0.329 C 
HETATM   22  C9  UNL     1      -3.776   1.340  -2.003  1.00  0.00     0.088 C 
HETATM   23  C10 UNL     1      -4.994   0.583  -1.513  1.00  0.00     0.284 C 
HETATM   24  N5  UNL     1      -4.110  -0.143  -0.618  1.00  0.00     0.169 N 
HETATM   25  C11 UNL     1      -4.095   0.446   0.675  1.00  0.00     0.614 C 
HETATM   26  N6  UNL     1      -2.948   0.062   1.484  1.00  0.00    -0.024 N 
HETATM   27  N7  UNL     1      -5.259  -0.069   1.408  1.00  0.00    -0.024 N 
ATOM     28  H63 UNL     1      -2.880  -0.954   1.552  1.00  0.00     0.279 HD
ATOM     29  H62 UNL     1      -2.078   0.260   0.990  1.00  0.00     0.279 HD
ATOM     30  H61 UNL     1      -2.937   0.485   2.412  1.00  0.00     0.279 HD
ATOM     31  H73 UNL     1      -6.138   0.080   0.913  1.00  0.00     0.279 HD
ATOM     32  H72 UNL     1      -5.293  -1.088   1.436  1.00  0.00     0.279 HD
ATOM     33  H71 UNL     1      -5.248   0.354   2.336  1.00  0.00     0.279 HD
ENDBRANCH  19  21
ENDBRANCH   9  19
BRANCH   1  34
HETATM   34  N1  UNL     1       3.963   0.829   1.023  1.00  0.00    -0.222 N 
ATOM     35  H1  UNL     1       4.115   1.813   1.243  1.00  0.00     0.178 HD
BRANCH  34  36
HETATM   36  C2  UNL     1       5.015  -0.136   1.222  1.00  0.00     0.091 C 
HETATM   37  C1  UNL     1       6.108   0.499   2.076  1.00  0.00     0.032 C 
HETATM   38  C3  UNL     1       5.630  -0.422  -0.146  1.00  0.00     0.032 C 
ENDBRANCH  34  36
ENDBRANCH   1  34
TORSDOF 4
