REMARK  7 active torsions:
REMARK  status: ('A' for Active; 'I' for Inactive)
REMARK    1  A    between atoms: C2_2  and  N1_3 
REMARK    2  A    between atoms: N1_3  and  C4_5 
REMARK    3  A    between atoms: N2_8  and  C7_9 
REMARK    4  A    between atoms: C9_15  and  N5_16 
REMARK    5  A    between atoms: C10_21  and  N7_22 
REMARK    6  A    between atoms: N7_22  and  O1_24 
REMARK    7  A    between atoms: C12_27  and  N8_28 
ROOT
HETATM    1  C7  UNL     1       0.814  -0.325  -0.273  1.00  0.00     0.683 A 
HETATM    2  N3  UNL     1       1.685  -1.113   0.393  1.00  0.00    -0.175 N 
ATOM      3  H3  UNL     1       1.308  -1.915   0.897  1.00  0.00     0.186 HD
HETATM    4  C8  UNL     1       3.010  -0.916   0.439  1.00  0.00     0.154 A 
HETATM    5  N4  UNL     1       3.840  -1.736   1.120  1.00  0.00    -0.175 N 
ATOM      6  H4  UNL     1       3.434  -2.530   1.614  1.00  0.00     0.186 HD
HETATM    7  C9  UNL     1       5.171  -1.563   1.182  1.00  0.00     0.679 A 
HETATM    8  N6  UNL     1       5.682  -0.510   0.524  1.00  0.00    -0.174 N 
ATOM      9  H6  UNL     1       6.689  -0.347   0.549  1.00  0.00     0.186 HD
HETATM   10  C10 UNL     1       4.896   0.336  -0.168  1.00  0.00     0.158 A 
HETATM   11  C11 UNL     1       3.525   0.151  -0.227  1.00  0.00     0.099 A 
HETATM   12  C12 UNL     1       2.666   0.975  -0.916  1.00  0.00     0.132 A 
HETATM   13  N9  UNL     1       1.332   0.735  -0.935  1.00  0.00    -0.176 N 
ATOM     14  H9  UNL     1       0.713   1.359  -1.453  1.00  0.00     0.186 HD
ENDROOT
BRANCH   1  15
HETATM   15  N2  UNL     1      -0.582  -0.589  -0.279  1.00  0.00    -0.215 N 
HETATM   16  C6  UNL     1      -1.227  -1.691   0.403  1.00  0.00     0.143 C 
HETATM   17  C5  UNL     1      -2.559  -1.005   0.763  1.00  0.00     0.047 C 
HETATM   18  C4  UNL     1      -2.892  -0.419  -0.567  1.00  0.00     0.098 C 
HETATM   19  C13 UNL     1      -1.568   0.211  -0.972  1.00  0.00     0.166 C 
BRANCH  18  20
HETATM   20  N1  UNL     1      -3.997   0.400  -0.667  1.00  0.00    -0.411 N 
HETATM   21  C3  UNL     1      -5.177  -0.230  -1.136  1.00  0.00     0.143 C 
BRANCH  20  22
HETATM   22  C2  UNL     1      -4.128   1.605   0.017  1.00  0.00     0.112 C 
HETATM   23  C1  UNL     1      -4.811   1.493   1.388  1.00  0.00     0.026 C 
ENDBRANCH  20  22
ENDBRANCH  18  20
ENDBRANCH   1  15
BRANCH  12  24
HETATM   24  N8  UNL     1       3.189   1.974  -1.534  1.00  0.00    -0.384 N 
ATOM     25  H82 UNL     1       4.193   2.155  -1.520  1.00  0.00     0.157 HD
ATOM     26  H81 UNL     1       2.552   2.585  -2.045  1.00  0.00     0.157 HD
ENDBRANCH  12  24
BRANCH   7  27
HETATM   27  N5  UNL     1       5.946  -2.363   1.843  1.00  0.00    -0.234 N 
ATOM     28  H52 UNL     1       5.558  -3.163   2.343  1.00  0.00     0.174 HD
ATOM     29  H51 UNL     1       6.956  -2.232   1.890  1.00  0.00     0.174 HD
ENDBRANCH   7  27
BRANCH  10  30
HETATM   30  N7  UNL     1       5.395   1.350  -0.800  1.00  0.00    -0.252 N 
ATOM     31  H7  UNL     1       4.794   1.988  -1.323  1.00  0.00     0.196 HD
BRANCH  30  32
HETATM   32  O1  UNL     1       6.756   1.546  -0.749  1.00  0.00    -0.288 OA
ATOM     33  H1  UNL     1       7.122   2.290  -1.213  1.00  0.00     0.244 HD
ENDBRANCH  30  32
ENDBRANCH  10  30
TORSDOF 7
