REMARK  5 active torsions:
REMARK  status: ('A' for Active; 'I' for Inactive)
REMARK    1  A    between atoms: O1_2  and  C2_3 
REMARK    2  A    between atoms: C4_6  and  C5_7 
REMARK       I    between atoms: C5_7  and  N2_9 
REMARK    3  A    between atoms: N2_9  and  N3_11 
REMARK       I    between atoms: N3_11  and  C6_13 
REMARK    4  A    between atoms: C10_18  and  N4_19 
REMARK       I    between atoms: N4_19  and  C11_21 
REMARK    5  A    between atoms: N7_26  and  O4_27 
ROOT
HETATM    1  C2  UNL     1      -1.739  -1.423  -0.286  1.00  0.00     0.254 A 
HETATM    2  N1  UNL     1      -0.400  -1.534  -0.189  1.00  0.00    -0.310 N 
HETATM    3  C3  UNL     1       0.203  -2.873  -0.362  1.00  0.00     0.160 C 
HETATM    4  C4  UNL     1       0.369  -0.445   0.083  1.00  0.00     0.117 A 
HETATM    5  C8  UNL     1      -0.266   0.772   0.253  1.00  0.00     0.017 A 
HETATM    6  C9  UNL     1       0.544   1.993   0.464  1.00  0.00     0.055 C 
HETATM    7  C10 UNL     1      -1.656   0.900   0.157  1.00  0.00     0.147 A 
HETATM    8  N7  UNL     1      -2.346  -0.214  -0.113  1.00  0.00    -0.168 N 
ENDROOT
BRANCH   4   9
HETATM    9  C5  UNL     1       1.806  -0.640   0.130  1.00  0.00     0.287 C 
HETATM   10  O2  UNL     1       2.257  -1.495  -0.731  1.00  0.00    -0.264 OA
HETATM   11  N2  UNL     1       2.726  -0.015   0.999  1.00  0.00    -0.262 N 
ATOM     12  H2  UNL     1       2.400   0.656   1.695  1.00  0.00     0.190 HD
BRANCH  11  13
HETATM   13  N3  UNL     1       4.076  -0.319   0.900  1.00  0.00    -0.268 N 
HETATM   14  C6  UNL     1       5.072   0.541   0.364  1.00  0.00     0.232 C 
HETATM   15  C7  UNL     1       6.494   0.168   0.278  1.00  0.00     0.119 C 
HETATM   16  O3  UNL     1       4.717   1.674  -0.054  1.00  0.00    -0.272 OA
ATOM     17  H3  UNL     1       4.378  -1.233   1.239  1.00  0.00     0.190 HD
ENDBRANCH  11  13
ENDBRANCH   4   9
BRANCH   1  18
HETATM   18  O1  UNL     1      -2.470  -2.551  -0.562  1.00  0.00    -0.325 OA
HETATM   19  C1  UNL     1      -3.833  -2.676  -0.701  1.00  0.00     0.213 C 
ENDBRANCH   1  18
BRANCH   7  20
HETATM   20  N4  UNL     1      -2.284   2.142   0.384  1.00  0.00    -0.315 N 
HETATM   21  C11 UNL     1      -3.672   2.396   0.266  1.00  0.00     0.187 C 
HETATM   22  N5  UNL     1      -4.083   2.897  -0.875  1.00  0.00    -0.373 N 
HETATM   23  N6  UNL     1      -4.617   2.165   1.283  1.00  0.00    -0.064 NA
ATOM     24  H52 UNL     1      -3.398   3.064  -1.612  1.00  0.00     0.158 HD
ATOM     25  H51 UNL     1      -5.083   3.080  -0.960  1.00  0.00     0.158 HD
ATOM     26  H4  UNL     1      -1.688   2.924   0.656  1.00  0.00     0.170 HD
ENDBRANCH   7  20
BRANCH   8  27
HETATM   27  O4  UNL     1      -3.727  -0.159  -0.235  1.00  0.00    -0.278 OA
ATOM     28  H4  UNL     1      -4.150   0.683  -0.114  1.00  0.00     0.245 HD
ENDBRANCH   8  27
TORSDOF 5
