REMARK  6 active torsions:
REMARK  status: ('A' for Active; 'I' for Inactive)
REMARK       I    between atoms: C2_2  and  N1_4 
REMARK    1  A    between atoms: N1_4  and  C3_6 
REMARK    2  A    between atoms: C3_6  and  C4_7 
REMARK    3  A    between atoms: C3_6  and  C6_10 
REMARK       I    between atoms: C6_10  and  N2_12 
REMARK    4  A    between atoms: N2_12  and  C7_14 
REMARK    5  A    between atoms: C9_18  and  O4_19 
REMARK    6  A    between atoms: C9_18  and  N4_21 
ROOT
HETATM    1  N4  UNL     1      -5.517   0.915  -0.744  1.00  0.00    -0.266 N 
HETATM    2  C10 UNL     1      -5.925   0.173   0.429  1.00  0.00     0.171 C 
HETATM    3  C11 UNL     1      -6.598   1.549  -1.471  1.00  0.00     0.186 C 
HETATM    4  N5  UNL     1      -7.486   2.026  -2.041  1.00  0.00    -0.172 NA
ENDROOT
BRANCH   1   5
HETATM    5  C9  UNL     1      -4.234   1.061  -1.202  1.00  0.00     0.198 C 
HETATM    6  C8  UNL     1      -3.046   0.467  -0.641  1.00  0.00     0.188 A 
HETATM    7  N3  UNL     1      -1.756   0.835  -1.083  1.00  0.00    -0.169 N 
HETATM    8  N6  UNL     1      -2.873  -0.378   0.348  1.00  0.00    -0.267 N 
HETATM    9  C7  UNL     1      -0.871   0.186  -0.314  1.00  0.00     0.701 A 
ATOM     10  H3  UNL     1      -1.538   1.476  -1.846  1.00  0.00     0.186 HD
HETATM   11  N7  UNL     1      -1.576  -0.549   0.548  1.00  0.00    -0.130 N 
ATOM     12  H7  UNL     1      -1.172  -1.157   1.261  1.00  0.00     0.205 HD
ATOM     13  H6  UNL     1      -3.618  -0.830   0.877  1.00  0.00     0.189 HD
BRANCH   9  14
HETATM   14  N2  UNL     1       0.412   0.259  -0.415  1.00  0.00    -0.156 N 
HETATM   15  C6  UNL     1       1.368  -0.404   0.403  1.00  0.00     0.266 C 
HETATM   16  O3  UNL     1       0.984  -0.500   1.603  1.00  0.00    -0.270 OA
ATOM     17  H2  UNL     1       0.779   0.853  -1.158  1.00  0.00     0.187 HD
BRANCH  15  18
HETATM   18  C3  UNL     1       2.681  -0.903  -0.046  1.00  0.00     0.247 C 
BRANCH  18  19
HETATM   19  N1  UNL     1       3.557   0.256  -0.415  1.00  0.00    -0.342 N 
HETATM   20  C2  UNL     1       4.627   0.214  -1.270  1.00  0.00     0.214 C 
HETATM   21  C1  UNL     1       5.484   1.410  -1.588  1.00  0.00     0.117 C 
HETATM   22  O1  UNL     1       4.971  -0.866  -1.865  1.00  0.00    -0.274 OA
ATOM     23  H1  UNL     1       3.337   1.157   0.009  1.00  0.00     0.163 HD
ENDBRANCH  18  19
BRANCH  18  24
HETATM   24  C4  UNL     1       3.474  -1.408   1.151  1.00  0.00     0.154 C 
HETATM   25  C5  UNL     1       2.932  -1.775   2.436  1.00  0.00     0.093 C 
HETATM   26  O2  UNL     1       4.699  -1.504   0.990  1.00  0.00    -0.296 OA
ENDBRANCH  18  24
ENDBRANCH  15  18
ENDBRANCH   9  14
BRANCH   5  27
HETATM   27  O4  UNL     1      -4.027   1.818  -2.247  1.00  0.00    -0.343 OA
ATOM     28  H4  UNL     1      -4.810   2.209  -2.617  1.00  0.00     0.219 HD
ENDBRANCH   5  27
ENDBRANCH   1   5
TORSDOF 6
