REMARK  4 active torsions:
REMARK  status: ('A' for Active; 'I' for Inactive)
REMARK    1  A    between atoms: O1_2  and  C2_3 
REMARK    2  A    between atoms: C2_3  and  C3_4 
REMARK       I    between atoms: N2_6  and  C4_8 
REMARK    3  A    between atoms: C4_8  and  C5_10 
REMARK    4  A    between atoms: C5_10  and  N4_16 
REMARK       I    between atoms: N3_11  and  C6_13 
ROOT
HETATM    1  N4  UNL     1       3.802  -2.668  -0.398  1.00  0.00    -0.275 N 
ATOM      2  H4  UNL     1       4.209  -2.820  -1.321  1.00  0.00     0.180 HD
HETATM    3  C8  UNL     1       4.051  -3.561   0.645  1.00  0.00     0.183 C 
HETATM    4  N5  UNL     1       4.264  -4.317   1.511  1.00  0.00    -0.172 NA
ENDROOT
BRANCH   1   5
HETATM    5  C5  UNL     1       2.952  -1.519  -0.144  1.00  0.00     0.186 C 
HETATM    6  N3  UNL     1       3.490  -0.598   0.532  1.00  0.00    -0.308 N 
HETATM    7  C6  UNL     1       2.854   0.591   0.890  1.00  0.00     0.219 C 
ATOM      8  H3  UNL     1       4.454  -0.732   0.837  1.00  0.00     0.170 HD
HETATM    9  C7  UNL     1       2.979   1.799   0.033  1.00  0.00     0.117 C 
HETATM   10  O3  UNL     1       2.173   0.651   1.935  1.00  0.00    -0.274 OA
BRANCH   5  11
HETATM   11  C4  UNL     1       1.615  -1.497  -0.650  1.00  0.00     0.291 C 
HETATM   12  N2  UNL     1       0.731  -0.428  -0.448  1.00  0.00    -0.307 N 
HETATM   13  C3  UNL     1      -0.502  -0.627  -0.172  1.00  0.00     0.171 C 
ATOM     14  H2  UNL     1       1.078   0.528  -0.523  1.00  0.00     0.170 HD
HETATM   15  N1  UNL     1      -0.988  -1.985  -0.044  1.00  0.00    -0.080 NA
HETATM   16  O2  UNL     1       1.166  -2.486  -1.325  1.00  0.00    -0.264 OA
BRANCH  13  17
HETATM   17  C2  UNL     1      -1.491   0.447   0.054  1.00  0.00     0.284 C 
HETATM   18  N6  UNL     1      -1.766   0.435   1.476  1.00  0.00    -0.362 N 
HETATM   19  C9  UNL     1      -3.093   0.709   1.868  1.00  0.00     0.223 C 
ATOM     20  H6  UNL     1      -1.036   0.238   2.160  1.00  0.00     0.158 HD
HETATM   21  C10 UNL     1      -3.937   1.364   0.853  1.00  0.00     0.250 C 
HETATM   22  O4  UNL     1      -4.771   2.265   1.120  1.00  0.00    -0.270 OA
HETATM   23  N7  UNL     1      -3.746   0.899  -0.501  1.00  0.00    -0.268 N 
HETATM   24  N8  UNL     1      -2.665   0.052  -0.684  1.00  0.00    -0.070 NA
ATOM     25  H7  UNL     1      -4.362   1.174  -1.266  1.00  0.00     0.185 HD
BRANCH  17  26
HETATM   26  O1  UNL     1      -0.980   1.651  -0.261  1.00  0.00    -0.345 OA
HETATM   27  C1  UNL     1      -0.594   1.956  -1.510  1.00  0.00     0.206 C 
ENDBRANCH  17  26
ENDBRANCH  13  17
ENDBRANCH   5  11
ENDBRANCH   1   5
TORSDOF 4
