REMARK  4 active torsions:
REMARK  status: ('A' for Active; 'I' for Inactive)
REMARK    1  A    between atoms: C3_4  and  S1_5 
REMARK    2  A    between atoms: S1_5  and  O3_8 
REMARK    3  A    between atoms: O3_8  and  N2_9 
REMARK    4  A    between atoms: C6_17  and  C7_18 
REMARK       I    between atoms: C7_18  and  N6_20 
REMARK       I    between atoms: N6_20  and  C8_22 
ROOT
HETATM    1  C1  UNL     1      -2.002  -0.779  -1.950  1.00  0.00     0.157 C 
HETATM    2  N1  UNL     1      -1.319  -0.690  -0.680  1.00  0.00    -0.342 N 
HETATM    3  C2  UNL     1      -0.019  -1.103  -0.617  1.00  0.00     0.119 A 
HETATM    4  C3  UNL     1       0.682  -1.040   0.565  1.00  0.00     0.119 A 
HETATM    5  C5  UNL     1      -0.008  -0.543   1.650  1.00  0.00     0.117 A 
HETATM    6  N5  UNL     1      -1.282  -0.147   1.555  1.00  0.00    -0.346 N 
ATOM      7  H5  UNL     1      -1.749   0.213   2.387  1.00  0.00     0.167 HD
HETATM    8  C6  UNL     1      -1.980  -0.208   0.383  1.00  0.00     0.176 A 
ENDROOT
BRANCH   4   9
HETATM    9  S1  UNL     1       2.343  -1.552   0.712  1.00  0.00     0.321 S 
HETATM   10  O1  UNL     1       2.642  -2.730  -0.202  1.00  0.00    -0.191 OA
HETATM   11  O2  UNL     1       2.645  -2.027   2.120  1.00  0.00    -0.191 OA
BRANCH   9  12
HETATM   12  O3  UNL     1       3.425  -0.261   0.399  1.00  0.00    -0.145 OA
BRANCH  12  13
HETATM   13  N2  UNL     1       4.555  -0.487  -0.334  1.00  0.00    -0.223 N 
HETATM   14  C4  UNL     1       5.302   0.501  -0.657  1.00  0.00     0.222 C 
HETATM   15  N3  UNL     1       4.964   1.815  -0.261  1.00  0.00    -0.065 NA
HETATM   16  N4  UNL     1       6.469   0.261  -1.414  1.00  0.00    -0.065 NA
ATOM     17  H2  UNL     1       4.801  -1.434  -0.621  1.00  0.00     0.198 HD
ENDBRANCH  12  13
ENDBRANCH   9  12
ENDBRANCH   4   9
BRANCH   8  18
HETATM   18  C7  UNL     1      -3.371   0.242   0.350  1.00  0.00     0.293 C 
HETATM   19  O4  UNL     1      -4.102   0.231  -0.663  1.00  0.00    -0.264 OA
HETATM   20  N6  UNL     1      -3.942   0.731   1.556  1.00  0.00    -0.275 N 
HETATM   21  C8  UNL     1      -5.283   1.192   1.634  1.00  0.00     0.335 C 
ATOM     22  H6  UNL     1      -3.367   0.752   2.398  1.00  0.00     0.173 HD
HETATM   23  N7  UNL     1      -6.078   1.164   0.468  1.00  0.00    -0.040 NA
HETATM   24  O5  UNL     1      -5.703   1.607   2.742  1.00  0.00    -0.251 OA
ENDBRANCH   8  18
TORSDOF 4
