REMARK  5 active torsions:
REMARK  status: ('A' for Active; 'I' for Inactive)
REMARK    1  A    between atoms: C1_2  and  C2_4 
REMARK    2  A    between atoms: C6_8  and  C7_9 
REMARK    3  A    between atoms: C7_9  and  O3_10 
REMARK    4  A    between atoms: O3_10  and  C8_11 
REMARK    5  A    between atoms: C8_11  and  C9_12 
ROOT
HETATM    1  C2  UNL     1      -2.955  -0.031  -0.766  1.00  0.00     0.096 A 
HETATM    2  C3  UNL     1      -2.722  -0.557   0.631  1.00  0.00     0.005 A 
HETATM    3  C4  UNL     1      -1.623  -1.539   0.898  1.00  0.00     0.006 C 
HETATM    4  C5  UNL     1      -0.460  -0.635   1.242  1.00  0.00     0.007 C 
HETATM    5  C6  UNL     1      -0.551   0.412   0.154  1.00  0.00     0.015 C 
HETATM    6  C12 UNL     1      -2.020   0.708   0.095  1.00  0.00     0.011 A 
ENDROOT
BRANCH   5   7
HETATM    7  C7  UNL     1       0.007  -0.133  -1.115  1.00  0.00     0.172 C 
BRANCH   7   8
HETATM    8  O3  UNL     1       1.318  -0.495  -0.965  1.00  0.00    -0.390 OA
BRANCH   8   9
HETATM    9  C8  UNL     1       2.195   0.490  -0.604  1.00  0.00     0.172 C 
BRANCH   9  10
HETATM   10  C9  UNL     1       3.570  -0.152  -0.519  1.00  0.00     0.009 A 
HETATM   11  C10 UNL     1       4.739   0.677  -0.144  1.00  0.00     0.007 A 
HETATM   12  C11 UNL     1       4.193  -0.272   0.875  1.00  0.00     0.007 A 
ENDBRANCH   9  10
ENDBRANCH   8   9
ENDBRANCH   7   8
ENDBRANCH   5   7
BRANCH   1  13
HETATM   13  C1  UNL     1      -4.291   0.589  -0.937  1.00  0.00     0.177 C 
HETATM   14  O1  UNL     1      -4.951   0.392  -1.978  1.00  0.00    -0.648 OA
HETATM   15  O2  UNL     1      -4.862   1.403   0.037  1.00  0.00    -0.648 OA
ENDBRANCH   1  13
TORSDOF 5
