REMARK  19 active torsions:
REMARK  status: ('A' for Active; 'I' for Inactive)
REMARK    1  A    between atoms: C3_3  and  C5_5 
REMARK    2  A    between atoms: C5_5  and  O2_7 
REMARK    3  A    between atoms: O2_7  and  C6_8 
REMARK    4  A    between atoms: C6_8  and  C7_9 
REMARK    5  A    between atoms: C6_8  and  C10_14 
REMARK    6  A    between atoms: C7_9  and  C8_10 
REMARK    7  A    between atoms: C8_10  and  O4_12 
REMARK    8  A    between atoms: C10_14  and  C11_15 
REMARK    9  A    between atoms: C10_14  and  C14_24 
REMARK   10  A    between atoms: C13_18  and  N1_19 
REMARK   11  A    between atoms: C14_24  and  N3_26 
REMARK   12  A    between atoms: N3_26  and  C16_29 
REMARK   13  A    between atoms: C19_35  and  S2_36 
REMARK   14  A    between atoms: S2_36  and  C20_37 
REMARK   15  A    between atoms: C21_38  and  C22_39 
REMARK   16  A    between atoms: C22_39  and  O6_41 
REMARK   17  A    between atoms: C24_43  and  O7_44 
REMARK   18  A    between atoms: C25_46  and  O8_47 
REMARK   19  A    between atoms: C25_46  and  O9_49 
ROOT
HETATM    1  N3  UNL     1       0.771   0.043   0.160  1.00  0.00    -0.063 N 
ATOM      2  H31 UNL     1       1.544  -0.334   0.708  1.00  0.00     0.278 HD
ATOM      3  H32 UNL     1       0.835   1.023   0.435  1.00  0.00     0.278 HD
ENDROOT
BRANCH   1   4
HETATM    4  C14 UNL     1      -0.492  -0.532   0.580  1.00  0.00     0.194 C 
HETATM    5  C15 UNL     1      -0.480  -0.588   2.080  1.00  0.00     0.041 C 
BRANCH   4   6
HETATM    6  C10 UNL     1      -1.673   0.151  -0.029  1.00  0.00     0.096 C 
BRANCH   6   7
HETATM    7  C6  UNL     1      -2.987  -0.511   0.318  1.00  0.00     0.153 C 
BRANCH   7   8
HETATM    8  O2  UNL     1      -4.065   0.080  -0.385  1.00  0.00    -0.311 OA
BRANCH   8   9
HETATM    9  C5  UNL     1      -5.171   0.618   0.233  1.00  0.00     0.289 C 
HETATM   10  O1  UNL     1      -5.268   0.600   1.485  1.00  0.00    -0.260 OA
BRANCH   9  11
HETATM   11  C3  UNL     1      -6.232   1.209  -0.571  1.00  0.00     0.009 C 
HETATM   12  C2  UNL     1      -7.286   1.721   0.015  1.00  0.00    -0.018 C 
HETATM   13  C1  UNL     1      -8.378   2.331  -0.802  1.00  0.00     0.036 C 
HETATM   14  C4  UNL     1      -6.124   1.235  -2.059  1.00  0.00     0.054 C 
ENDBRANCH   9  11
ENDBRANCH   8   9
ENDBRANCH   7   8
BRANCH   7  15
HETATM   15  C7  UNL     1      -3.002  -1.974  -0.024  1.00  0.00     0.144 C 
BRANCH  15  16
HETATM   16  C8  UNL     1      -4.311  -2.532   0.407  1.00  0.00     0.260 C 
HETATM   17  O3  UNL     1      -5.365  -2.417  -0.307  1.00  0.00    -0.265 OA
BRANCH  16  18
HETATM   18  O4  UNL     1      -4.483  -3.211   1.603  1.00  0.00    -0.326 OA
HETATM   19  C9  UNL     1      -5.766  -3.735   1.982  1.00  0.00     0.213 C 
ENDBRANCH  16  18
ENDBRANCH  15  16
ENDBRANCH   7  15
ENDBRANCH   6   7
BRANCH   6  20
HETATM   20  C11 UNL     1      -1.734   1.627   0.337  1.00  0.00     0.026 A 
HETATM   21  C12 UNL     1      -1.469   2.596  -0.600  1.00  0.00     0.078 A 
HETATM   22  S1  UNL     1      -1.674   4.038   0.289  1.00  0.00    -0.064 SA
HETATM   23  C13 UNL     1      -2.082   3.341   1.788  1.00  0.00     0.142 A 
HETATM   24  N2  UNL     1      -2.043   2.036   1.540  1.00  0.00    -0.340 N 
ATOM     25  H2  UNL     1      -2.251   1.363   2.278  1.00  0.00     0.168 HD
BRANCH  23  26
HETATM   26  N1  UNL     1      -2.372   3.927   2.932  1.00  0.00    -0.380 N 
ATOM     27  H12 UNL     1      -2.402   4.929   3.122  1.00  0.00     0.158 HD
ATOM     28  H11 UNL     1      -2.616   3.509   3.830  1.00  0.00     0.158 HD
ENDBRANCH  23  26
ENDBRANCH   6  20
ENDBRANCH   4   6
ENDBRANCH   1   4
BRANCH   1  29
HETATM   29  C16 UNL     1       1.015  -0.113  -1.247  1.00  0.00     0.227 C 
HETATM   30  C17 UNL     1       1.129  -1.562  -1.661  1.00  0.00     0.266 C 
HETATM   31  N4  UNL     1       2.237  -1.646  -2.594  1.00  0.00    -0.072 N 
HETATM   32  C18 UNL     1       2.569  -0.275  -2.940  1.00  0.00     0.249 C 
ATOM     33  H42 UNL     1       3.030  -2.180  -2.239  1.00  0.00     0.277 HD
ATOM     34  H41 UNL     1       2.045  -2.236  -3.404  1.00  0.00     0.277 HD
HETATM   35  C19 UNL     1       2.456   0.370  -1.532  1.00  0.00     0.110 C 
BRANCH  35  36
HETATM   36  S2  UNL     1       3.600  -0.460  -0.448  1.00  0.00    -0.118 SA
BRANCH  36  37
HETATM   37  C20 UNL     1       5.240   0.174  -0.408  1.00  0.00     0.043 C 
HETATM   38  C21 UNL     1       6.229  -0.485   0.248  1.00  0.00     0.070 C 
HETATM   39  C24 UNL     1       7.480   0.301   0.107  1.00  0.00     0.227 C 
HETATM   40  C25 UNL     1       7.010   1.715  -0.189  1.00  0.00     0.236 C 
HETATM   41  C26 UNL     1       5.773   1.386  -1.019  1.00  0.00     0.086 C 
HETATM   42  N5  UNL     1       5.401   2.100  -2.003  1.00  0.00    -0.397 N 
ATOM     43  H52 UNL     1       4.574   1.880  -2.558  1.00  0.00     0.156 HD
ATOM     44  H51 UNL     1       5.774   2.948  -2.430  1.00  0.00     0.156 HD
BRANCH  38  45
HETATM   45  C22 UNL     1       6.140  -1.736   0.984  1.00  0.00     0.293 C 
HETATM   46  O5  UNL     1       5.022  -2.307   1.041  1.00  0.00    -0.259 OA
BRANCH  45  47
HETATM   47  O6  UNL     1       7.211  -2.310   1.610  1.00  0.00    -0.323 OA
HETATM   48  C23 UNL     1       7.182  -3.509   2.330  1.00  0.00     0.213 C 
ENDBRANCH  45  47
ENDBRANCH  38  45
BRANCH  39  49
HETATM   49  O7  UNL     1       8.194  -0.167  -0.967  1.00  0.00    -0.385 OA
ATOM     50  H7  UNL     1       8.995   0.336  -1.057  1.00  0.00     0.210 HD
ENDBRANCH  39  49
BRANCH  40  51
HETATM   51  O8  UNL     1       6.675   2.419   0.953  1.00  0.00    -0.358 OA
ATOM     52  H8  UNL     1       6.381   3.303   0.768  1.00  0.00     0.213 HD
ENDBRANCH  40  51
BRANCH  40  53
HETATM   53  O9  UNL     1       7.916   2.446  -0.933  1.00  0.00    -0.358 OA
ATOM     54  H9  UNL     1       7.622   3.330  -1.118  1.00  0.00     0.213 HD
ENDBRANCH  40  53
ENDBRANCH  36  37
ENDBRANCH  35  36
ENDBRANCH   1  29
TORSDOF 19
