REMARK  17 active torsions:
REMARK  status: ('A' for Active; 'I' for Inactive)
REMARK    1  A    between atoms: C2_2  and  C3_4 
REMARK    2  A    between atoms: C3_4  and  N1_5 
REMARK    3  A    between atoms: C3_4  and  C4_9 
REMARK       I    between atoms: C4_9  and  N2_11 
REMARK    4  A    between atoms: N2_11  and  C5_13 
REMARK    5  A    between atoms: C7_15  and  C8_16 
REMARK    6  A    between atoms: C11_19  and  O3_20 
REMARK    7  A    between atoms: C12_22  and  C13_23 
REMARK    8  A    between atoms: C13_23  and  C14_24 
REMARK    9  A    between atoms: C13_23  and  N5_38 
REMARK   10  A    between atoms: C14_24  and  C15_25 
REMARK   11  A    between atoms: C16_26  and  O4_27 
REMARK   12  A    between atoms: C18_35  and  O6_36 
REMARK   13  A    between atoms: N5_38  and  C19_40 
REMARK   14  A    between atoms: C20_41  and  N6_42 
REMARK   15  A    between atoms: C22_46  and  N7_47 
REMARK   16  A    between atoms: C24_51  and  N8_52 
REMARK   17  A    between atoms: C25_55  and  O13_56 
ROOT
HETATM    1  C13 UNL     1      -1.020  -0.232  -0.043  1.00  0.00     0.049 C 
ENDROOT
BRANCH   1   2
HETATM    2  C12 UNL     1       0.355  -0.310  -0.689  1.00  0.00     0.060 A 
HETATM    3  C11 UNL     1       0.527  -0.363  -2.035  1.00  0.00     0.087 A 
HETATM    4  C7  UNL     1       1.802  -0.225  -2.661  1.00  0.00    -0.018 A 
HETATM    5  C6  UNL     1       2.898  -0.034  -1.866  1.00  0.00     0.043 A 
HETATM    6  C5  UNL     1       2.782   0.024  -0.508  1.00  0.00     0.070 A 
HETATM    7  C25 UNL     1       1.501  -0.115   0.096  1.00  0.00     0.107 A 
BRANCH   3   8
HETATM    8  O3  UNL     1      -0.526  -0.565  -2.891  1.00  0.00    -0.359 OA
ATOM      9  H3  UNL     1      -1.375  -0.657  -2.474  1.00  0.00     0.217 HD
ENDBRANCH   3   8
BRANCH   4  10
HETATM   10  C8  UNL     1       1.856  -0.366  -4.124  1.00  0.00     0.013 C 
HETATM   11  C9  UNL     1       3.060   0.121  -4.814  1.00  0.00     0.015 C 
HETATM   12  C10 UNL     1       1.781  -1.899  -4.397  1.00  0.00     0.015 C 
ENDBRANCH   4  10
BRANCH   6  13
HETATM   13  N2  UNL     1       3.901   0.313   0.318  1.00  0.00    -0.323 N 
HETATM   14  C4  UNL     1       5.249   0.214  -0.001  1.00  0.00     0.260 C 
HETATM   15  O2  UNL     1       5.705  -0.174  -1.067  1.00  0.00    -0.270 OA
ATOM     16  H2  UNL     1       3.688   0.633   1.263  1.00  0.00     0.169 HD
BRANCH  14  17
HETATM   17  C3  UNL     1       6.296   0.608   1.036  1.00  0.00     0.343 C 
BRANCH  17  18
HETATM   18  C2  UNL     1       6.622  -0.575   1.859  1.00  0.00     0.162 C 
HETATM   19  C1  UNL     1       6.373  -0.551   3.327  1.00  0.00     0.093 C 
HETATM   20  O1  UNL     1       7.091  -1.572   1.362  1.00  0.00    -0.296 OA
ENDBRANCH  17  18
BRANCH  17  21
HETATM   21  N1  UNL     1       5.652   1.641   1.839  1.00  0.00    -0.060 N 
ATOM     22  H13 UNL     1       4.830   1.282   2.325  1.00  0.00     0.275 HD
ATOM     23  H12 UNL     1       6.215   1.892   2.652  1.00  0.00     0.275 HD
ATOM     24  H11 UNL     1       5.427   2.458   1.271  1.00  0.00     0.275 HD
ENDBRANCH  17  21
ENDBRANCH  14  17
ENDBRANCH   6  13
BRANCH   7  25
HETATM   25  O13 UNL     1       1.481  -0.046   1.449  1.00  0.00    -0.357 OA
ATOM     26  H13 UNL     1       0.626  -0.139   1.852  1.00  0.00     0.217 HD
ENDBRANCH   7  25
ENDBRANCH   1   2
BRANCH   1  27
HETATM   27  C14 UNL     1      -1.336  -1.502   0.634  1.00  0.00     0.050 C 
BRANCH  27  28
HETATM   28  C15 UNL     1      -2.583  -1.724   1.353  1.00  0.00     0.068 A 
HETATM   29  C16 UNL     1      -2.826  -1.072   2.558  1.00  0.00     0.158 A 
HETATM   30  N3  UNL     1      -4.006  -1.336   3.161  1.00  0.00    -0.288 N 
HETATM   31  C17 UNL     1      -4.929  -2.171   2.679  1.00  0.00     0.328 A 
ATOM     32  H3  UNL     1      -4.205  -0.866   4.044  1.00  0.00     0.172 HD
HETATM   33  O5  UNL     1      -6.028  -2.389   3.278  1.00  0.00    -0.247 OA
HETATM   34  N4  UNL     1      -4.705  -2.818   1.507  1.00  0.00    -0.288 N 
HETATM   35  C18 UNL     1      -3.566  -2.599   0.871  1.00  0.00     0.158 A 
ATOM     36  H4  UNL     1      -5.400  -3.459   1.125  1.00  0.00     0.172 HD
BRANCH  29  37
HETATM   37  O4  UNL     1      -1.933  -0.206   3.130  1.00  0.00    -0.345 OA
ATOM     38  H4  UNL     1      -2.099   0.239   3.953  1.00  0.00     0.219 HD
ENDBRANCH  29  37
BRANCH  35  39
HETATM   39  O6  UNL     1      -3.304  -3.267  -0.338  1.00  0.00    -0.345 OA
ATOM     40  H6  UNL     1      -3.970  -3.860  -0.665  1.00  0.00     0.219 HD
ENDBRANCH  35  39
ENDBRANCH  27  28
ENDBRANCH   1  27
BRANCH   1  41
HETATM   41  N5  UNL     1      -1.836   0.737  -0.626  1.00  0.00    -0.351 N 
ATOM     42  H5  UNL     1      -1.545   1.038  -1.556  1.00  0.00     0.166 HD
BRANCH  41  43
HETATM   43  C19 UNL     1      -3.006   1.372  -0.133  1.00  0.00     0.099 A 
HETATM   44  C20 UNL     1      -4.278   1.041  -0.483  1.00  0.00     0.134 A 
HETATM   45  C21 UNL     1      -5.388   1.619   0.185  1.00  0.00     0.074 A 
HETATM   46  C22 UNL     1      -5.215   2.525   1.189  1.00  0.00     0.107 A 
HETATM   47  C23 UNL     1      -3.947   2.877   1.546  1.00  0.00     0.074 A 
HETATM   48  C24 UNL     1      -2.856   2.304   0.885  1.00  0.00     0.134 A 
BRANCH  44  49
HETATM   49  N6  UNL     1      -4.658   0.256  -1.601  1.00  0.00    -0.113 N 
HETATM   50  O7  UNL     1      -5.738   0.605  -2.216  1.00  0.00    -0.532 OA
HETATM   51  O8  UNL     1      -4.044  -0.796  -2.159  1.00  0.00    -0.532 OA
ENDBRANCH  44  49
BRANCH  46  52
HETATM   52  N7  UNL     1      -6.346   3.098   1.879  1.00  0.00    -0.116 N 
HETATM   53  O9  UNL     1      -6.132   3.919   2.792  1.00  0.00    -0.532 OA
HETATM   54  O10 UNL     1      -7.617   2.736   1.514  1.00  0.00    -0.532 OA
ENDBRANCH  46  52
BRANCH  48  55
HETATM   55  N8  UNL     1      -1.560   2.764   1.224  1.00  0.00    -0.113 N 
HETATM   56  O11 UNL     1      -0.614   2.958   0.447  1.00  0.00    -0.532 OA
HETATM   57  O12 UNL     1      -1.338   3.112   2.552  1.00  0.00    -0.532 OA
ENDBRANCH  48  55
ENDBRANCH  41  43
ENDBRANCH   1  41
TORSDOF 17
