REMARK  17 active torsions:
REMARK  status: ('A' for Active; 'I' for Inactive)
REMARK    1  A    between atoms: O1_2  and  C2_3 
REMARK    2  A    between atoms: N1_5  and  C4_6 
REMARK    3  A    between atoms: C9_13  and  S1_14 
REMARK    4  A    between atoms: S1_14  and  C10_15 
REMARK    5  A    between atoms: C10_15  and  C11_16 
REMARK    6  A    between atoms: C11_16  and  C12_17 
REMARK    7  A    between atoms: C12_17  and  C13_18 
REMARK    8  A    between atoms: C13_18  and  C14_19 
REMARK    9  A    between atoms: C14_19  and  S2_20 
REMARK   10  A    between atoms: S2_20  and  N4_21 
REMARK   11  A    between atoms: S2_20  and  N5_24 
REMARK       I    between atoms: N5_24  and  C15_26 
REMARK   12  A    between atoms: N7_29  and  C16_30 
REMARK   13  A    between atoms: C17_32  and  S3_33 
REMARK   14  A    between atoms: C18_35  and  O4_36 
REMARK   15  A    between atoms: C19_38  and  O5_39 
REMARK   16  A    between atoms: C21_42  and  O6_43 
REMARK   17  A    between atoms: C23_46  and  N8_47 
ROOT
HETATM    1  C4  UNL     1      -2.602  -0.904   1.233  1.00  0.00     0.068 A 
HETATM    2  C5  UNL     1      -1.783  -1.795   1.906  1.00  0.00     0.059 A 
HETATM    3  C6  UNL     1      -0.490  -1.452   2.164  1.00  0.00     0.063 A 
HETATM    4  N2  UNL     1       0.329  -2.381   2.855  1.00  0.00    -0.101 NA
HETATM    5  C7  UNL     1       0.013  -0.223   1.759  1.00  0.00     0.045 A 
HETATM    6  C8  UNL     1       1.248   0.376   1.891  1.00  0.00     0.095 A 
HETATM    7  N3  UNL     1       2.323  -0.276   2.562  1.00  0.00    -0.098 NA
HETATM    8  C9  UNL     1       1.208   1.626   1.307  1.00  0.00     0.104 A 
HETATM    9  N7  UNL     1      -0.066   1.809   0.805  1.00  0.00    -0.282 N 
HETATM   10  C20 UNL     1      -0.769   0.705   1.080  1.00  0.00     0.091 A 
HETATM   11  C21 UNL     1      -2.088   0.294   0.848  1.00  0.00     0.120 A 
ENDROOT
BRANCH   8  12
HETATM   12  S1  UNL     1       2.540   2.749   1.266  1.00  0.00    -0.110 SA
BRANCH  12  13
HETATM   13  C10 UNL     1       3.666   2.885  -0.021  1.00  0.00     0.081 C 
BRANCH  13  14
HETATM   14  C11 UNL     1       4.617   1.837  -0.422  1.00  0.00     0.010 C 
BRANCH  14  15
HETATM   15  C12 UNL     1       3.973   0.611  -0.942  1.00  0.00     0.002 C 
BRANCH  15  16
HETATM   16  C13 UNL     1       5.021  -0.422  -1.367  1.00  0.00     0.013 C 
BRANCH  16  17
HETATM   17  C14 UNL     1       4.257  -1.630  -1.881  1.00  0.00     0.107 C 
BRANCH  17  18
HETATM   18  S2  UNL     1       5.437  -2.883  -2.405  1.00  0.00    -0.033 SA
BRANCH  18  19
HETATM   19  N4  UNL     1       6.287  -2.346  -3.593  1.00  0.00    -0.367 NA
ATOM     20  H42 UNL     1       5.716  -2.089  -4.398  1.00  0.00     0.165 HD
ATOM     21  H41 UNL     1       6.956  -3.056  -3.890  1.00  0.00     0.165 HD
ENDBRANCH  18  19
BRANCH  18  22
HETATM   22  N5  UNL     1       6.412  -3.321  -1.031  1.00  0.00    -0.278 N 
HETATM   23  C15 UNL     1       5.835  -3.785   0.159  1.00  0.00     0.339 C 
HETATM   24  N6  UNL     1       6.686  -4.129   1.252  1.00  0.00    -0.039 NA
HETATM   25  O2  UNL     1       4.590  -3.890   0.240  1.00  0.00    -0.250 OA
ATOM     26  H5  UNL     1       7.427  -3.238  -1.093  1.00  0.00     0.179 HD
ENDBRANCH  18  22
ENDBRANCH  17  18
ENDBRANCH  16  17
ENDBRANCH  15  16
ENDBRANCH  14  15
ENDBRANCH  13  14
ENDBRANCH  12  13
ENDBRANCH   8  12
BRANCH   9  27
HETATM   27  C16 UNL     1      -0.506   2.981   0.128  1.00  0.00     0.159 C 
HETATM   28  O3  UNL     1      -1.559   3.641   0.711  1.00  0.00    -0.317 OA
HETATM   29  C17 UNL     1      -1.876   4.655  -0.170  1.00  0.00     0.235 C 
HETATM   30  C18 UNL     1      -1.233   4.394  -1.500  1.00  0.00     0.195 C 
HETATM   31  C19 UNL     1      -0.671   2.964  -1.334  1.00  0.00     0.225 C 
BRANCH  29  32
HETATM   32  S3  UNL     1      -1.359   6.223   0.583  1.00  0.00    -0.050 SA
HETATM   33  S4  UNL     1       0.729   6.373   0.779  1.00  0.00    -0.011 SA
ENDBRANCH  29  32
BRANCH  30  34
HETATM   34  O4  UNL     1      -2.089   4.466  -2.570  1.00  0.00    -0.389 OA
ATOM     35  H4  UNL     1      -1.682   4.301  -3.412  1.00  0.00     0.210 HD
ENDBRANCH  30  34
BRANCH  31  36
HETATM   36  O5  UNL     1       0.509   2.985  -2.086  1.00  0.00    -0.385 OA
ATOM     37  H5  UNL     1       0.402   2.974  -3.030  1.00  0.00     0.210 HD
ENDBRANCH  31  36
ENDBRANCH   9  27
BRANCH  11  38
HETATM   38  O6  UNL     1      -2.889   1.184   0.193  1.00  0.00    -0.356 OA
ATOM     39  H6  UNL     1      -2.530   2.021  -0.076  1.00  0.00     0.218 HD
ENDBRANCH  11  38
BRANCH   1  40
HETATM   40  N1  UNL     1      -3.944  -1.260   0.917  1.00  0.00    -0.374 N 
HETATM   41  C3  UNL     1      -4.390  -1.661  -0.394  1.00  0.00     0.157 C 
HETATM   42  C2  UNL     1      -5.624  -2.514  -0.142  1.00  0.00     0.170 C 
HETATM   43  C23 UNL     1      -6.221  -1.877   1.073  1.00  0.00     0.231 C 
HETATM   44  C22 UNL     1      -5.076  -1.288   1.815  1.00  0.00     0.158 C 
BRANCH  42  45
HETATM   45  O1  UNL     1      -6.531  -2.355  -1.187  1.00  0.00    -0.387 OA
HETATM   46  C1  UNL     1      -6.847  -3.581  -1.764  1.00  0.00     0.202 C 
ENDBRANCH  42  45
BRANCH  43  47
HETATM   47  N8  UNL     1      -7.219  -0.904   0.682  1.00  0.00    -0.071 N 
ATOM     48  H83 UNL     1      -6.845  -0.212   0.032  1.00  0.00     0.274 HD
ATOM     49  H82 UNL     1      -7.931  -1.309   0.074  1.00  0.00     0.274 HD
ATOM     50  H81 UNL     1      -7.626  -0.470   1.510  1.00  0.00     0.274 HD
ENDBRANCH  43  47
ENDBRANCH   1  40
TORSDOF 17
