REMARK  10 active torsions:
REMARK  status: ('A' for Active; 'I' for Inactive)
REMARK    1  A    between atoms: C3_3  and  C4_4 
REMARK    2  A    between atoms: C4_4  and  N1_7 
REMARK       I    between atoms: N1_7  and  C7_9 
REMARK    3  A    between atoms: C7_9  and  C8_11 
REMARK    4  A    between atoms: N2_14  and  C11_15 
REMARK    5  A    between atoms: C11_15  and  N3_17 
REMARK    6  A    between atoms: N3_17  and  C12_19 
REMARK    7  A    between atoms: C12_19  and  C13_20 
REMARK    8  A    between atoms: C13_20  and  C14_21 
REMARK    9  A    between atoms: C14_21  and  C15_22 
REMARK   10  A    between atoms: C15_22  and  C16_23 
ROOT
HETATM    1  C1  UNL     1       8.731   0.521   2.068  1.00  0.00     0.112 C 
HETATM    2  C2  UNL     1       7.739   0.420   0.988  1.00  0.00    -0.108 C 
HETATM    3  C3  UNL     1       6.930   0.334   0.088  1.00  0.00    -0.076 C 
ENDROOT
BRANCH   3   4
HETATM    4  C4  UNL     1       5.956   0.239  -1.016  1.00  0.00     0.089 C 
HETATM    5  C5  UNL     1       6.200   1.389  -1.933  1.00  0.00     0.053 C 
HETATM    6  C6  UNL     1       6.233  -1.064  -1.776  1.00  0.00     0.053 C 
BRANCH   4   7
HETATM    7  N1  UNL     1       4.628   0.271  -0.489  1.00  0.00    -0.341 N 
HETATM    8  C7  UNL     1       3.484   0.195  -1.322  1.00  0.00     0.223 C 
HETATM    9  O1  UNL     1       3.634   0.097  -2.565  1.00  0.00    -0.273 OA
ATOM     10  H1  UNL     1       4.499   0.351   0.520  1.00  0.00     0.164 HD
BRANCH   8  11
HETATM   11  C8  UNL     1       2.113   0.227  -0.779  1.00  0.00     0.081 C 
HETATM   12  C9  UNL     1       1.058   0.101  -1.820  1.00  0.00     0.034 C 
HETATM   13  C10 UNL     1      -0.298   0.270  -1.214  1.00  0.00     0.126 C 
HETATM   14  N2  UNL     1      -0.451  -0.216   0.119  1.00  0.00    -0.358 N 
HETATM   15  C18 UNL     1       0.664  -0.525   1.002  1.00  0.00     0.126 C 
HETATM   16  C19 UNL     1       1.894  -0.924   0.215  1.00  0.00     0.034 C 
BRANCH  14  17
HETATM   17  C11 UNL     1      -1.771  -0.417   0.644  1.00  0.00     0.169 C 
HETATM   18  S1  UNL     1      -1.976  -1.001   2.153  1.00  0.00    -0.041 SA
BRANCH  17  19
HETATM   19  N3  UNL     1      -2.919  -0.142  -0.132  1.00  0.00    -0.367 N 
ATOM     20  H3  UNL     1      -2.792   0.198  -1.085  1.00  0.00     0.161 HD
BRANCH  19  21
HETATM   21  C12 UNL     1      -4.278  -0.322   0.369  1.00  0.00     0.122 C 
BRANCH  21  22
HETATM   22  C13 UNL     1      -4.662   0.674   1.385  1.00  0.00     0.020 C 
BRANCH  22  23
HETATM   23  C14 UNL     1      -5.973   0.618   2.039  1.00  0.00     0.002 C 
BRANCH  23  24
HETATM   24  C15 UNL     1      -7.248   0.808   1.346  1.00  0.00    -0.000 C 
BRANCH  24  25
HETATM   25  C16 UNL     1      -7.613  -0.119   0.254  1.00  0.00    -0.005 C 
HETATM   26  C17 UNL     1      -9.040   0.240  -0.224  1.00  0.00     0.005 C 
ENDBRANCH  24  25
ENDBRANCH  23  24
ENDBRANCH  22  23
ENDBRANCH  21  22
ENDBRANCH  19  21
ENDBRANCH  17  19
ENDBRANCH  14  17
ENDBRANCH   8  11
ENDBRANCH   4   7
ENDBRANCH   3   4
TORSDOF 10
