REMARK  6 active torsions:
REMARK  status: ('A' for Active; 'I' for Inactive)
REMARK       I    between atoms: C1_2  and  N1_3 
REMARK       I    between atoms: C1_2  and  N3_15 
REMARK    1  A    between atoms: N1_3  and  C2_5 
REMARK    2  A    between atoms: C2_5  and  C3_6 
REMARK    3  A    between atoms: N2_10  and  C7_11 
REMARK    4  A    between atoms: C7_11  and  C8_12 
REMARK    5  A    between atoms: N3_15  and  C11_17 
REMARK    6  A    between atoms: C11_17  and  C12_18 
ROOT
HETATM    1  O1  UNL     1       0.246   0.464   0.747  1.00  0.00    -0.247 OA
HETATM    2  C1  UNL     1       0.294  -0.669   0.220  1.00  0.00     0.319 C 
HETATM    3  N1  UNL     1       1.381  -1.489   0.690  1.00  0.00    -0.341 N 
ATOM      4  H1  UNL     1       1.468  -2.427   0.298  1.00  0.00     0.164 HD
HETATM    5  N3  UNL     1      -0.619  -1.112  -0.740  1.00  0.00    -0.322 N 
ATOM      6  H3  UNL     1      -0.408  -2.045  -1.094  1.00  0.00     0.169 HD
ENDROOT
BRANCH   3   7
HETATM    7  C2  UNL     1       2.341  -1.090   1.658  1.00  0.00     0.160 C 
BRANCH   7   8
HETATM    8  C3  UNL     1       3.180   0.092   1.318  1.00  0.00     0.240 C 
HETATM    9  C4  UNL     1       4.170   0.432   2.410  1.00  0.00     0.039 C 
HETATM   10  C5  UNL     1       5.356  -0.437   2.121  1.00  0.00     0.032 C 
HETATM   11  C6  UNL     1       5.213  -0.825   0.679  1.00  0.00     0.273 C 
HETATM   12  N2  UNL     1       4.050  -0.161   0.165  1.00  0.00     0.095 N 
BRANCH  12  13
HETATM   13  C7  UNL     1       4.339   1.142  -0.406  1.00  0.00     0.277 C 
BRANCH  13  14
HETATM   14  C8  UNL     1       5.221   1.078  -1.601  1.00  0.00     0.014 A 
HETATM   15  C9  UNL     1       4.869   0.350  -2.822  1.00  0.00     0.007 A 
HETATM   16  C10 UNL     1       4.713   1.868  -2.814  1.00  0.00     0.007 A 
ENDBRANCH  13  14
ENDBRANCH  12  13
ENDBRANCH   7   8
ENDBRANCH   3   7
BRANCH   5  17
HETATM   17  C11 UNL     1      -1.761  -0.549  -1.320  1.00  0.00     0.075 C 
BRANCH  17  18
HETATM   18  C12 UNL     1      -3.008  -0.302  -0.565  1.00  0.00    -0.007 C 
HETATM   19  C13 UNL     1      -2.864   0.598   0.589  1.00  0.00     0.019 C 
HETATM   20  C14 UNL     1      -4.242   0.933   1.206  1.00  0.00    -0.013 C 
HETATM   21  C15 UNL     1      -4.792  -0.406   1.656  1.00  0.00     0.009 C 
HETATM   22  C19 UNL     1      -5.094   1.612   0.203  1.00  0.00     0.009 C 
HETATM   23  C16 UNL     1      -5.046  -1.235   0.431  1.00  0.00    -0.013 C 
HETATM   24  C17 UNL     1      -5.970  -0.536  -0.546  1.00  0.00     0.009 C 
HETATM   25  C21 UNL     1      -3.738  -1.595  -0.211  1.00  0.00     0.019 C 
HETATM   26  C18 UNL     1      -5.271   0.705  -1.017  1.00  0.00    -0.013 C 
HETATM   27  C20 UNL     1      -3.937   0.397  -1.598  1.00  0.00     0.019 C 
ENDBRANCH  17  18
ENDBRANCH   5  17
TORSDOF 6
