REMARK  8 active torsions:
REMARK  status: ('A' for Active; 'I' for Inactive)
REMARK    1  A    between atoms: C10_10  and  O1_11 
REMARK    2  A    between atoms: C11_13  and  C12_14 
REMARK    3  A    between atoms: C12_14  and  C13_15 
REMARK    4  A    between atoms: C13_15  and  C14_16 
REMARK    5  A    between atoms: C14_16  and  C15_17 
REMARK    6  A    between atoms: C15_17  and  C16_18 
REMARK    7  A    between atoms: C18_20  and  C19_21 
REMARK    8  A    between atoms: C19_21  and  O2_22 
ROOT
HETATM    1  C1  UNL     1       5.133  -0.295  -3.114  1.00  0.00     0.013 C 
HETATM    2  C2  UNL     1       5.330   0.036  -1.973  1.00  0.00    -0.106 C 
HETATM    3  C3  UNL     1       5.578   0.455  -0.610  1.00  0.00     0.033 C 
HETATM    4  C4  UNL     1       6.761   1.344  -0.453  1.00  0.00     0.030 C 
HETATM    5  C5  UNL     1       4.321   1.082   0.023  1.00  0.00     0.013 C 
HETATM    6  C6  UNL     1       4.778   1.219   1.445  1.00  0.00     0.007 C 
HETATM    7  C7  UNL     1       5.621  -0.045   1.674  1.00  0.00     0.014 C 
HETATM    8  C8  UNL     1       5.620  -0.752   0.338  1.00  0.00     0.001 C 
HETATM    9  C9  UNL     1       6.743  -1.660   0.101  1.00  0.00     0.019 C 
HETATM   10  C10 UNL     1       4.248  -1.319   0.130  1.00  0.00     0.132 C 
HETATM   11  C11 UNL     1       3.370  -0.085  -0.113  1.00  0.00     0.021 C 
ENDROOT
BRANCH  11  12
HETATM   12  C12 UNL     1       2.246  -0.031   0.880  1.00  0.00     0.007 C 
BRANCH  12  13
HETATM   13  C13 UNL     1       1.480   1.251   0.641  1.00  0.00     0.001 C 
BRANCH  13  14
HETATM   14  C14 UNL     1       0.318   1.393   1.602  1.00  0.00     0.001 C 
BRANCH  14  15
HETATM   15  C15 UNL     1      -0.671   0.271   1.482  1.00  0.00     0.012 C 
BRANCH  15  16
HETATM   16  C16 UNL     1      -1.276   0.179   0.098  1.00  0.00     0.059 C 
HETATM   17  C17 UNL     1      -1.977   1.442  -0.215  1.00  0.00     0.024 C 
HETATM   18  C18 UNL     1      -3.379   1.295  -0.711  1.00  0.00    -0.015 C 
HETATM   19  C21 UNL     1      -3.412   0.850  -2.146  1.00  0.00     0.014 C 
HETATM   20  C28 UNL     1      -4.160   0.287   0.137  1.00  0.00     0.060 C 
HETATM   21  C22 UNL     1      -4.380  -0.324  -2.343  1.00  0.00     0.036 C 
HETATM   22  C23 UNL     1      -3.817  -1.488  -1.593  1.00  0.00     0.167 A 
HETATM   23  O3  UNL     1      -4.636  -2.578  -1.517  1.00  0.00    -0.347 OA
HETATM   24  C27 UNL     1      -3.568  -1.065  -0.167  1.00  0.00     0.151 A 
HETATM   25  C24 UNL     1      -4.772  -2.949  -0.203  1.00  0.00     0.159 A 
HETATM   26  C25 UNL     1      -6.267  -2.958   0.129  1.00  0.00     0.078 C 
HETATM   27  C26 UNL     1      -4.164  -4.310   0.096  1.00  0.00     0.078 C 
HETATM   28  O4  UNL     1      -4.167  -2.028   0.600  1.00  0.00    -0.335 OA
HETATM   29  C29 UNL     1      -2.121  -1.031   0.061  1.00  0.00     0.168 C 
HETATM   30  O5  UNL     1      -1.548  -2.106   0.239  1.00  0.00    -0.294 OA
BRANCH  18  31
HETATM   31  C19 UNL     1      -4.090   2.627  -0.540  1.00  0.00     0.176 C 
BRANCH  31  32
HETATM   32  O2  UNL     1      -4.076   2.946   0.810  1.00  0.00    -0.395 OA
HETATM   33  C20 UNL     1      -4.708   4.148   1.043  1.00  0.00     0.201 C 
ENDBRANCH  31  32
ENDBRANCH  18  31
ENDBRANCH  15  16
ENDBRANCH  14  15
ENDBRANCH  13  14
ENDBRANCH  12  13
ENDBRANCH  11  12
BRANCH  10  34
HETATM   34  O1  UNL     1       4.164  -2.231  -0.894  1.00  0.00    -0.394 OA
ATOM     35  H1  UNL     1       3.295  -2.590  -1.026  1.00  0.00     0.210 HD
ENDBRANCH  10  34
TORSDOF 8
