REMARK  8 active torsions:
REMARK  status: ('A' for Active; 'I' for Inactive)
REMARK    1  A    between atoms: C2_2  and  C3_3 
REMARK    2  A    between atoms: C2_2  and  O4_27 
REMARK    3  A    between atoms: C3_3  and  C4_4 
REMARK    4  A    between atoms: C4_4  and  C5_5 
REMARK    5  A    between atoms: C21_22  and  O2_23 
REMARK    6  A    between atoms: O4_27  and  C22_28 
REMARK       I    between atoms: C22_28  and  N1_30 
REMARK    7  A    between atoms: N1_30  and  C23_32 
REMARK    8  A    between atoms: C23_32  and  C24_33 
ROOT
HETATM    1  C5  UNL     1       0.715  -0.783   0.826  1.00  0.00     0.086 C 
HETATM    2  C6  UNL     1      -0.520  -1.425   1.481  1.00  0.00     0.030 C 
HETATM    3  C7  UNL     1      -0.820  -2.641   0.675  1.00  0.00     0.009 C 
HETATM    4  C8  UNL     1      -1.449  -2.418  -0.642  1.00  0.00     0.018 C 
HETATM    5  C9  UNL     1      -1.434  -1.039  -1.181  1.00  0.00     0.084 C 
HETATM    6  C10 UNL     1      -2.716  -0.258  -0.990  1.00  0.00     0.007 C 
HETATM    7  C11 UNL     1      -3.524  -0.223  -2.287  1.00  0.00     0.007 C 
HETATM    8  C12 UNL     1      -4.979  -0.290  -2.102  1.00  0.00     0.007 C 
HETATM    9  C13 UNL     1      -5.549   0.388  -0.928  1.00  0.00     0.012 C 
HETATM   10  C14 UNL     1      -4.688   0.346   0.297  1.00  0.00     0.066 C 
HETATM   11  C15 UNL     1      -4.336   1.753   0.084  1.00  0.00     0.140 C 
HETATM   12  O1  UNL     1      -3.508   2.574   0.437  1.00  0.00    -0.297 OA
HETATM   13  C16 UNL     1      -5.497   1.869  -0.845  1.00  0.00     0.018 C 
HETATM   14  C17 UNL     1      -5.266   2.631  -2.098  1.00  0.00     0.023 C 
HETATM   15  C18 UNL     1      -6.675   2.458  -0.055  1.00  0.00     0.023 C 
HETATM   16  C19 UNL     1      -3.594  -0.684   0.097  1.00  0.00     0.005 C 
HETATM   17  C20 UNL     1      -2.981  -0.971   1.416  1.00  0.00     0.038 C 
HETATM   18  C21 UNL     1      -1.602  -0.429   1.630  1.00  0.00     0.123 C 
HETATM   19  S1  UNL     1       0.011  -0.075  -0.687  1.00  0.00     0.024 S 
HETATM   20  O3  UNL     1       1.034   0.070  -1.771  1.00  0.00    -0.257 OA
ENDROOT
BRANCH   1  21
HETATM   21  C4  UNL     1       1.312   0.266   1.692  1.00  0.00     0.024 C 
BRANCH  21  22
HETATM   22  C3  UNL     1       2.525   0.938   1.157  1.00  0.00     0.065 C 
BRANCH  22  23
HETATM   23  C2  UNL     1       3.737   0.058   1.003  1.00  0.00     0.049 C 
HETATM   24  C1  UNL     1       3.745  -1.087   1.635  1.00  0.00     0.046 C 
BRANCH  23  25
HETATM   25  O4  UNL     1       4.707   0.586   0.196  1.00  0.00    -0.267 OA
BRANCH  25  26
HETATM   26  C22 UNL     1       5.934   0.095  -0.185  1.00  0.00     0.369 C 
HETATM   27  O5  UNL     1       6.225  -1.030   0.284  1.00  0.00    -0.238 OA
HETATM   28  N1  UNL     1       6.782   0.829  -1.042  1.00  0.00    -0.316 N 
ATOM     29  H1  UNL     1       6.409   1.723  -1.361  1.00  0.00     0.170 HD
BRANCH  28  30
HETATM   30  C23 UNL     1       8.058   0.511  -1.519  1.00  0.00     0.066 C 
BRANCH  30  31
HETATM   31  C24 UNL     1       9.219   0.433  -0.619  1.00  0.00     0.040 C 
HETATM   32  C25 UNL     1       9.237  -0.575   0.467  1.00  0.00     0.010 C 
ENDBRANCH  30  31
ENDBRANCH  28  30
ENDBRANCH  25  26
ENDBRANCH  23  25
ENDBRANCH  22  23
ENDBRANCH  21  22
ENDBRANCH   1  21
BRANCH  18  33
HETATM   33  O2  UNL     1      -1.514   0.079   2.952  1.00  0.00    -0.395 OA
ATOM     34  H2  UNL     1      -2.209   0.719   3.048  1.00  0.00     0.210 HD
ENDBRANCH  18  33
TORSDOF 8
