REMARK  7 active torsions:
REMARK  status: ('A' for Active; 'I' for Inactive)
REMARK    1  A    between atoms: C2_2  and  C4_4 
REMARK    2  A    between atoms: C4_4  and  C5_5 
REMARK    3  A    between atoms: C5_5  and  O2_7 
REMARK    4  A    between atoms: O2_7  and  C6_8 
REMARK    5  A    between atoms: C6_8  and  C7_9 
REMARK    6  A    between atoms: C7_9  and  O3_10 
REMARK    7  A    between atoms: C15_22  and  O7_23 
ROOT
HETATM    1  C7  UNL     1      -0.693   0.058   0.187  1.00  0.00     0.108 C 
HETATM    2  C8  UNL     1      -2.040   0.807   0.144  1.00  0.00     0.050 C 
HETATM    3  C9  UNL     1      -2.781   0.005  -0.880  1.00  0.00     0.029 C 
HETATM    4  C10 UNL     1      -4.273   0.132  -0.754  1.00  0.00     0.057 A 
HETATM    5  C11 UNL     1      -4.693   1.526  -0.356  1.00  0.00     0.121 A 
HETATM    6  C12 UNL     1      -5.124   1.349   1.034  1.00  0.00     0.261 A 
HETATM    7  O4  UNL     1      -5.524   2.266   1.786  1.00  0.00    -0.265 OA
HETATM    8  O5  UNL     1      -5.043   0.028   1.445  1.00  0.00    -0.289 OA
HETATM    9  C13 UNL     1      -4.574  -0.791   0.393  1.00  0.00     0.275 A 
HETATM   10  O6  UNL     1      -3.399  -1.451   0.721  1.00  0.00    -0.352 OA
HETATM   11  C14 UNL     1      -2.562  -1.406  -0.370  1.00  0.00     0.161 C 
HETATM   12  C15 UNL     1      -1.101  -1.374  -0.013  1.00  0.00     0.184 C 
ENDROOT
BRANCH   1  13
HETATM   13  C6  UNL     1       0.134   0.641  -0.882  1.00  0.00     0.219 C 
BRANCH  13  14
HETATM   14  O2  UNL     1       1.397   0.176  -1.123  1.00  0.00    -0.318 OA
BRANCH  14  15
HETATM   15  C5  UNL     1       2.532   0.145  -0.390  1.00  0.00     0.259 C 
HETATM   16  O1  UNL     1       2.474   0.637   0.761  1.00  0.00    -0.265 OA
BRANCH  15  17
HETATM   17  C4  UNL     1       3.831  -0.432  -0.860  1.00  0.00     0.115 C 
BRANCH  17  18
HETATM   18  C2  UNL     1       4.840  -0.269   0.254  1.00  0.00    -0.013 C 
HETATM   19  C1  UNL     1       5.065   1.153   0.637  1.00  0.00     0.010 C 
HETATM   20  C3  UNL     1       6.142  -0.947  -0.193  1.00  0.00     0.010 C 
ENDBRANCH  17  18
ENDBRANCH  15  17
ENDBRANCH  14  15
ENDBRANCH  13  14
ENDBRANCH   1  13
BRANCH   1  21
HETATM   21  O3  UNL     1      -0.177   0.164   1.465  1.00  0.00    -0.385 OA
ATOM     22  H3  UNL     1      -0.711  -0.212   2.155  1.00  0.00     0.210 HD
ENDBRANCH   1  21
BRANCH  12  23
HETATM   23  O7  UNL     1      -0.942  -2.136   1.145  1.00  0.00    -0.390 OA
ATOM     24  H7  UNL     1      -1.200  -3.042   1.019  1.00  0.00     0.210 HD
ENDBRANCH  12  23
TORSDOF 7
