REMARK  7 active torsions:
REMARK  status: ('A' for Active; 'I' for Inactive)
REMARK    1  A    between atoms: C2_2  and  O2_4 
REMARK    2  A    between atoms: O2_4  and  C3_5 
REMARK    3  A    between atoms: C3_5  and  C4_6 
REMARK    4  A    between atoms: C5_8  and  N1_9 
REMARK    5  A    between atoms: C11_15  and  O4_16 
REMARK    6  A    between atoms: C13_19  and  O5_20 
REMARK    7  A    between atoms: O5_20  and  C14_21 
ROOT
HETATM    1  C4  UNL     1      -1.073   0.426  -0.285  1.00  0.00     0.178 C 
HETATM    2  O3  UNL     1       0.247   0.318  -0.837  1.00  0.00    -0.345 OA
HETATM    3  C5  UNL     1       1.089  -0.185   0.198  1.00  0.00     0.388 C 
HETATM    4  C11 UNL     1       0.717  -1.617   0.483  1.00  0.00     0.180 C 
HETATM    5  C12 UNL     1      -0.407  -1.932  -0.519  1.00  0.00     0.071 C 
HETATM    6  C13 UNL     1      -1.563  -0.952  -0.078  1.00  0.00     0.165 C 
ENDROOT
BRANCH   3   7
HETATM    7  N1  UNL     1       2.414   0.088  -0.168  1.00  0.00     0.119 N 
HETATM    8  C6  UNL     1       2.911   1.212   0.534  1.00  0.00     0.276 C 
HETATM    9  C7  UNL     1       4.308   1.627   0.121  1.00  0.00     0.030 C 
HETATM   10  C8  UNL     1       5.171   0.398   0.358  1.00  0.00     0.003 C 
HETATM   11  C9  UNL     1       4.678  -0.635  -0.646  1.00  0.00     0.030 C 
HETATM   12  C10 UNL     1       3.285  -1.042  -0.245  1.00  0.00     0.276 C 
ENDBRANCH   3   7
BRANCH   4  13
HETATM   13  O4  UNL     1       0.126  -1.784   1.733  1.00  0.00    -0.391 OA
ATOM     14  H4  UNL     1      -0.109  -2.687   1.913  1.00  0.00     0.210 HD
ENDBRANCH   4  13
BRANCH   1  15
HETATM   15  C3  UNL     1      -1.793   1.252  -1.303  1.00  0.00     0.213 C 
BRANCH  15  16
HETATM   16  O2  UNL     1      -3.052   1.739  -0.964  1.00  0.00    -0.319 OA
BRANCH  16  17
HETATM   17  C2  UNL     1      -3.162   2.692   0.057  1.00  0.00     0.254 C 
HETATM   18  C1  UNL     1      -4.468   3.278   0.480  1.00  0.00     0.126 C 
HETATM   19  O1  UNL     1      -2.083   3.052   0.616  1.00  0.00    -0.266 OA
ENDBRANCH  16  17
ENDBRANCH  15  16
ENDBRANCH   1  15
BRANCH   6  20
HETATM   20  O5  UNL     1      -2.705  -1.342  -0.802  1.00  0.00    -0.314 OA
BRANCH  20  21
HETATM   21  C14 UNL     1      -3.726  -2.098  -0.208  1.00  0.00     0.255 C 
HETATM   22  C15 UNL     1      -4.955  -2.546  -0.897  1.00  0.00     0.126 C 
HETATM   23  O6  UNL     1      -3.572  -2.413   0.996  1.00  0.00    -0.266 OA
ENDBRANCH  20  21
ENDBRANCH   6  20
TORSDOF 7
