REMARK  9 active torsions:
REMARK  status: ('A' for Active; 'I' for Inactive)
REMARK    1  A    between atoms: C2_2  and  O1_3 
REMARK    2  A    between atoms: O1_3  and  C3_4 
REMARK    3  A    between atoms: C3_4  and  O3_6 
REMARK    4  A    between atoms: O3_6  and  C4_7 
REMARK    5  A    between atoms: C6_9  and  C7_10 
REMARK    6  A    between atoms: C9_14  and  N1_15 
REMARK    7  A    between atoms: N1_15  and  N2_17 
REMARK    8  A    between atoms: N2_17  and  N3_18 
REMARK    9  A    between atoms: C10_21  and  O6_22 
ROOT
HETATM    1  C4  UNL     1       0.685  -0.163  -0.570  1.00  0.00     0.139 C 
HETATM    2  C5  UNL     1      -0.574  -0.783   0.007  1.00  0.00     0.043 C 
HETATM    3  C6  UNL     1      -1.715   0.060  -0.499  1.00  0.00     0.049 C 
HETATM    4  C10 UNL     1      -1.879  -0.286  -1.947  1.00  0.00     0.129 C 
HETATM    5  C11 UNL     1      -0.657   0.050  -2.696  1.00  0.00     0.022 A 
HETATM    6  C12 UNL     1       0.331  -1.106  -2.922  1.00  0.00     0.015 A 
HETATM    7  C13 UNL     1       0.622   0.038  -2.040  1.00  0.00     0.022 A 
ENDROOT
BRANCH   3   8
HETATM    8  C7  UNL     1      -2.996  -0.152   0.252  1.00  0.00     0.173 C 
HETATM    9  O4  UNL     1      -3.997   0.692  -0.310  1.00  0.00    -0.311 OA
HETATM   10  C8  UNL     1      -3.425   1.720   0.428  1.00  0.00     0.287 C 
HETATM   11  O5  UNL     1      -3.194   2.943   0.367  1.00  0.00    -0.263 OA
HETATM   12  C9  UNL     1      -3.140   0.702   1.475  1.00  0.00     0.243 C 
BRANCH  12  13
HETATM   13  N1  UNL     1      -4.327   0.447   2.233  1.00  0.00    -0.236 N 
ATOM     14  H1  UNL     1      -4.791  -0.455   2.128  1.00  0.00     0.198 HD
BRANCH  13  15
HETATM   15  N2  UNL     1      -4.811   1.278   3.010  1.00  0.00    -0.248 NA
BRANCH  15  16
HETATM   16  N3  UNL     1      -5.241   2.072   3.854  1.00  0.00    -0.261 N 
ATOM     17  H32 UNL     1      -4.578   1.515   4.393  1.00  0.00     0.193 HD
ATOM     18  H31 UNL     1      -5.640   2.758   4.495  1.00  0.00     0.193 HD
ENDBRANCH  15  16
ENDBRANCH  13  15
ENDBRANCH  12  13
ENDBRANCH   3   8
BRANCH   4  19
HETATM   19  O6  UNL     1      -2.264  -1.611  -2.138  1.00  0.00    -0.395 OA
ATOM     20  H6  UNL     1      -2.368  -1.830  -3.056  1.00  0.00     0.210 HD
ENDBRANCH   4  19
BRANCH   1  21
HETATM   21  O3  UNL     1       1.775  -0.968  -0.150  1.00  0.00    -0.292 OA
BRANCH  21  22
HETATM   22  C3  UNL     1       2.747  -0.492   0.718  1.00  0.00     0.406 C 
HETATM   23  O2  UNL     1       2.637   0.676   1.127  1.00  0.00    -0.229 OA
BRANCH  22  24
HETATM   24  O1  UNL     1       3.823  -1.254   1.146  1.00  0.00    -0.298 OA
BRANCH  24  25
HETATM   25  C2  UNL     1       4.764  -0.678   2.036  1.00  0.00     0.176 C 
HETATM   26  C1  UNL     1       5.367   0.530   1.346  1.00  0.00     0.034 C 
ENDBRANCH  24  25
ENDBRANCH  22  24
ENDBRANCH  21  22
ENDBRANCH   1  21
TORSDOF 9
