REMARK  5 active torsions:
REMARK  status: ('A' for Active; 'I' for Inactive)
REMARK    1  A    between atoms: C3_3  and  C4_4 
REMARK    2  A    between atoms: C4_4  and  O1_5 
REMARK    3  A    between atoms: C4_4  and  C5_7 
REMARK    4  A    between atoms: C5_7  and  C6_8 
REMARK    5  A    between atoms: C6_8  and  N1_9 
ROOT
HETATM    1  N1  UNL     1       0.704  -0.223  -0.173  1.00  0.00     0.092 N 
HETATM    2  C7  UNL     1       0.191   0.560  -1.306  1.00  0.00     0.298 C 
HETATM    3  C8  UNL     1       0.084   2.020  -0.978  1.00  0.00     0.198 C 
HETATM    4  O2  UNL     1      -0.785   2.317   0.036  1.00  0.00    -0.387 OA
HETATM    5  C9  UNL     1      -2.012   2.846  -0.433  1.00  0.00     0.193 C 
HETATM    6  C10 UNL     1      -3.061   1.846  -0.092  1.00  0.00     0.193 C 
HETATM    7  O3  UNL     1      -4.343   2.305  -0.050  1.00  0.00    -0.387 OA
HETATM    8  C11 UNL     1      -5.100   1.358   0.679  1.00  0.00     0.193 C 
HETATM    9  C12 UNL     1      -4.892  -0.042   0.160  1.00  0.00     0.193 C 
HETATM   10  O4  UNL     1      -3.910  -0.740   0.809  1.00  0.00    -0.387 OA
HETATM   11  C13 UNL     1      -4.054  -2.093   0.850  1.00  0.00     0.193 C 
HETATM   12  C14 UNL     1      -3.087  -2.877   0.033  1.00  0.00     0.193 C 
HETATM   13  O5  UNL     1      -1.770  -2.798   0.482  1.00  0.00    -0.387 OA
HETATM   14  C15 UNL     1      -1.220  -1.567   0.276  1.00  0.00     0.198 C 
HETATM   15  C16 UNL     1       0.182  -1.572  -0.259  1.00  0.00     0.298 C 
ENDROOT
BRANCH   1  16
HETATM   16  C6  UNL     1       2.126  -0.132  -0.231  1.00  0.00     0.275 C 
BRANCH  16  17
HETATM   17  C5  UNL     1       2.856  -0.863   0.854  1.00  0.00     0.066 C 
BRANCH  17  18
HETATM   18  C4  UNL     1       4.362  -0.657   0.639  1.00  0.00     0.142 C 
BRANCH  18  19
HETATM   19  C3  UNL     1       4.719   0.770   0.690  1.00  0.00     0.000 C 
HETATM   20  C2  UNL     1       5.751   1.221  -0.016  1.00  0.00    -0.033 C 
HETATM   21  C1  UNL     1       6.569   0.329  -0.865  1.00  0.00     0.036 C 
ENDBRANCH  18  19
BRANCH  18  22
HETATM   22  O1  UNL     1       5.110  -1.345   1.575  1.00  0.00    -0.392 OA
ATOM     23  H1  UNL     1       4.880  -2.266   1.542  1.00  0.00     0.210 HD
ENDBRANCH  18  22
ENDBRANCH  17  18
ENDBRANCH  16  17
ENDBRANCH   1  16
TORSDOF 5
