REMARK  4 active torsions:
REMARK  status: ('A' for Active; 'I' for Inactive)
REMARK       I    between atoms: N2_3  and  C2_5 
REMARK    1  A    between atoms: N4_7  and  S1_9 
REMARK    2  A    between atoms: S1_9  and  C3_12 
REMARK    3  A    between atoms: C8_17  and  S2_18 
REMARK    4  A    between atoms: S2_18  and  N5_19 
ROOT
HETATM    1  N1  UNL     1       6.611   0.530   0.556  1.00  0.00    -0.172 NA
HETATM    2  C1  UNL     1       5.534   0.856   0.264  1.00  0.00     0.184 C 
HETATM    3  N2  UNL     1       4.243   1.263  -0.089  1.00  0.00    -0.267 N 
ATOM      4  H2  UNL     1       4.066   2.214  -0.413  1.00  0.00     0.180 HD
HETATM    5  C2  UNL     1       3.200   0.336   0.012  1.00  0.00     0.211 C 
HETATM    6  N3  UNL     1       3.450  -1.061  -0.113  1.00  0.00    -0.062 NA
HETATM    7  N4  UNL     1       2.015   0.742   0.217  1.00  0.00    -0.253 N 
ATOM      8  H4  UNL     1       1.831   1.741   0.307  1.00  0.00     0.181 HD
ENDROOT
BRANCH   7   9
HETATM    9  S1  UNL     1       0.685  -0.407   0.347  1.00  0.00     0.266 S 
HETATM   10  O1  UNL     1       1.037  -1.447  -0.679  1.00  0.00    -0.200 OA
HETATM   11  O2  UNL     1       0.810  -0.913   1.752  1.00  0.00    -0.200 OA
BRANCH   9  12
HETATM   12  C3  UNL     1      -0.758   0.462   0.013  1.00  0.00     0.103 A 
HETATM   13  C4  UNL     1      -0.757   1.819  -0.299  1.00  0.00     0.027 A 
HETATM   14  C5  UNL     1      -1.891   2.527  -0.571  1.00  0.00     0.002 A 
HETATM   15  C6  UNL     1      -3.087   1.860  -0.533  1.00  0.00     0.002 A 
HETATM   16  C7  UNL     1      -3.102   0.529  -0.228  1.00  0.00     0.027 A 
HETATM   17  C8  UNL     1      -1.961  -0.226   0.055  1.00  0.00     0.102 A 
BRANCH  17  18
HETATM   18  S2  UNL     1      -2.160  -1.865   0.417  1.00  0.00     0.258 S 
HETATM   19  O3  UNL     1      -1.798  -2.080   1.886  1.00  0.00    -0.201 OA
HETATM   20  O4  UNL     1      -1.428  -2.863  -0.362  1.00  0.00    -0.201 OA
BRANCH  18  21
HETATM   21  N5  UNL     1      -3.841  -2.291   0.339  1.00  0.00    -0.324 N 
ATOM     22  H52 UNL     1      -4.588  -1.636   0.107  1.00  0.00     0.169 HD
ATOM     23  H51 UNL     1      -3.961  -3.280   0.557  1.00  0.00     0.169 HD
ENDBRANCH  18  21
ENDBRANCH  17  18
ENDBRANCH   9  12
ENDBRANCH   7   9
TORSDOF 4
