REMARK  4 active torsions:
REMARK  status: ('A' for Active; 'I' for Inactive)
REMARK       I    between atoms: N3_4  and  C2_6 
REMARK    1  A    between atoms: C2_6  and  C3_8 
REMARK    2  A    between atoms: C8_13  and  S1_14 
REMARK    3  A    between atoms: S1_14  and  N4_17 
REMARK    4  A    between atoms: N4_17  and  C9_19 
ROOT
HETATM    1  C3  UNL     1      -1.103   0.265  -0.878  1.00  0.00     0.055 A 
HETATM    2  C4  UNL     1      -1.825  -0.831  -1.388  1.00  0.00     0.018 A 
HETATM    3  C5  UNL     1      -1.212  -1.914  -1.928  1.00  0.00     0.001 A 
HETATM    4  C6  UNL     1       0.160  -1.920  -1.969  1.00  0.00     0.002 A 
HETATM    5  C7  UNL     1       0.882  -0.874  -1.484  1.00  0.00     0.026 A 
HETATM    6  C8  UNL     1       0.273   0.260  -0.919  1.00  0.00     0.096 A 
ENDROOT
BRANCH   6   7
HETATM    7  S1  UNL     1       1.299   1.542  -0.325  1.00  0.00     0.277 S 
HETATM    8  O2  UNL     1       1.024   2.792  -1.120  1.00  0.00    -0.200 OA
HETATM    9  O3  UNL     1       1.054   1.743   1.129  1.00  0.00    -0.200 OA
BRANCH   7  10
HETATM   10  N4  UNL     1       2.943   1.049  -0.594  1.00  0.00    -0.111 N 
ATOM     11  H4  UNL     1       3.403   1.370  -1.446  1.00  0.00     0.197 HD
BRANCH  10  12
HETATM   12  C9  UNL     1       3.616   0.309   0.207  1.00  0.00     0.707 A 
HETATM   13  N5  UNL     1       3.291  -0.252   1.378  1.00  0.00    -0.185 N 
HETATM   14  C10 UNL     1       4.354  -0.953   1.854  1.00  0.00     0.215 A 
ATOM     15  H5  UNL     1       2.386  -0.167   1.841  1.00  0.00     0.185 HD
HETATM   16  N6  UNL     1       5.318  -0.791   0.932  1.00  0.00    -0.281 N 
HETATM   17  N7  UNL     1       4.889  -0.044  -0.047  1.00  0.00    -0.130 N 
ATOM     18  H6  UNL     1       6.253  -1.195   0.990  1.00  0.00     0.188 HD
ATOM     19  H7  UNL     1       5.429   0.227  -0.869  1.00  0.00     0.205 HD
ENDBRANCH  10  12
ENDBRANCH   7  10
ENDBRANCH   6   7
BRANCH   1  20
HETATM   20  C2  UNL     1      -1.834   1.383  -0.324  1.00  0.00     0.259 C 
HETATM   21  N3  UNL     1      -3.274   1.253  -0.291  1.00  0.00    -0.299 N 
HETATM   22  C1  UNL     1      -3.807   0.754   0.755  1.00  0.00     0.203 C 
ATOM     23  H3  UNL     1      -3.846   1.551  -1.081  1.00  0.00     0.171 HD
HETATM   24  N1  UNL     1      -5.228   0.619   0.804  1.00  0.00    -0.066 NA
HETATM   25  N2  UNL     1      -3.015   0.344   1.835  1.00  0.00    -0.066 NA
HETATM   26  O1  UNL     1      -1.306   2.404   0.106  1.00  0.00    -0.267 OA
ENDBRANCH   1  20
TORSDOF 4
