REMARK  2 active torsions:
REMARK  status: ('A' for Active; 'I' for Inactive)
REMARK    1  A    between atoms: C2_2  and  N2_6 
REMARK    2  A    between atoms: N2_6  and  N4_9 
ROOT
HETATM    1  C1  UNL     1       3.777  -0.848   1.252  1.00  0.00     0.057 C 
HETATM    2  C2  UNL     1       3.262   0.199   0.289  1.00  0.00     0.140 C 
HETATM    3  C3  UNL     1       4.334   0.362  -0.784  1.00  0.00     0.057 C 
HETATM    4  C4  UNL     1       3.131   1.457   0.986  1.00  0.00     0.092 C 
HETATM    5  N1  UNL     1       3.040   2.471   1.532  1.00  0.00    -0.195 NA
ENDROOT
BRANCH   2   6
HETATM    6  N2  UNL     1       2.012  -0.200  -0.326  1.00  0.00    -0.224 N 
HETATM    7  C5  UNL     1       1.996  -1.384  -1.088  1.00  0.00     0.197 C 
HETATM    8  N3  UNL     1       1.986  -2.347  -1.732  1.00  0.00    -0.171 NA
BRANCH   6   9
HETATM    9  N4  UNL     1       0.905   0.594  -0.136  1.00  0.00    -0.217 NA
HETATM   10  C6  UNL     1       0.310   1.083  -1.334  1.00  0.00     0.115 C 
HETATM   11  C7  UNL     1      -0.917   0.190  -1.487  1.00  0.00     0.030 C 
HETATM   12  C8  UNL     1      -1.328  -0.210  -0.115  1.00  0.00     0.011 C 
HETATM   13  C9  UNL     1      -1.627  -1.690  -0.071  1.00  0.00     0.080 C 
HETATM   14  C11 UNL     1      -2.564   0.422   0.396  1.00  0.00     0.131 C 
HETATM   15  C14 UNL     1      -0.100   0.053   0.713  1.00  0.00     0.126 C 
HETATM   16  C10 UNL     1      -3.005  -1.828   0.507  1.00  0.00     0.369 C 
HETATM   17  F1  UNL     1      -3.708  -2.819  -0.149  1.00  0.00    -0.219 F 
HETATM   18  N5  UNL     1      -3.641  -0.560   0.226  1.00  0.00    -0.035 N 
ATOM     19  H52 UNL     1      -4.109  -0.517  -0.679  1.00  0.00     0.281 HD
ATOM     20  H51 UNL     1      -4.471  -0.373   0.788  1.00  0.00     0.281 HD
HETATM   21  C12 UNL     1      -2.512   0.785   1.859  1.00  0.00     0.047 C 
HETATM   22  C13 UNL     1      -2.993   1.657  -0.361  1.00  0.00     0.047 C 
ENDBRANCH   6   9
ENDBRANCH   2   6
TORSDOF 2
