REMARK  4 active torsions:
REMARK  status: ('A' for Active; 'I' for Inactive)
REMARK    1  A    between atoms: C2_2  and  C3_3 
REMARK    2  A    between atoms: C3_3  and  C4_4 
REMARK    3  A    between atoms: C7_10  and  C8_11 
REMARK    4  A    between atoms: C11_15  and  O4_16 
ROOT
HETATM    1  C4  UNL     1       1.823  -0.272  -0.160  1.00  0.00     0.126 C 
HETATM    2  C5  UNL     1       2.158  -1.005  -1.402  1.00  0.00     0.052 C 
HETATM    3  O1  UNL     1       1.384   1.052  -0.399  1.00  0.00    -0.224 OA
HETATM    4  O2  UNL     1       0.993   1.381   0.816  1.00  0.00    -0.204 OA
HETATM    5  C6  UNL     1       0.069   0.416   1.215  1.00  0.00     0.329 C 
HETATM    6  O3  UNL     1      -1.168   0.857   0.816  1.00  0.00    -0.341 OA
HETATM    7  C7  UNL     1      -2.071  -0.098   0.502  1.00  0.00     0.209 C 
HETATM    8  C11 UNL     1      -1.562  -1.194  -0.383  1.00  0.00     0.290 C 
HETATM    9  O5  UNL     1      -0.217  -1.344  -0.434  1.00  0.00    -0.345 OA
HETATM   10  C12 UNL     1       0.554  -0.813   0.524  1.00  0.00     0.220 C 
ENDROOT
BRANCH   1  11
HETATM   11  C3  UNL     1       2.956  -0.154   0.824  1.00  0.00     0.070 C 
BRANCH  11  12
HETATM   12  C2  UNL     1       4.058   0.581   0.124  1.00  0.00    -0.034 C 
HETATM   13  C1  UNL     1       4.546   1.720   0.541  1.00  0.00     0.007 C 
ENDBRANCH  11  12
ENDBRANCH   1  11
BRANCH   8  14
HETATM   14  O4  UNL     1      -1.999  -0.896  -1.689  1.00  0.00    -0.368 OA
ATOM     15  H4  UNL     1      -1.676  -1.591  -2.250  1.00  0.00     0.212 HD
ENDBRANCH   8  14
BRANCH   7  16
HETATM   16  C8  UNL     1      -3.313   0.525   0.005  1.00  0.00    -0.040 C 
HETATM   17  C9  UNL     1      -4.540  -0.355  -0.151  1.00  0.00     0.047 C 
HETATM   18  C10 UNL     1      -3.486   1.782  -0.330  1.00  0.00     0.089 C 
HETATM   19 CL1  UNL     1      -2.162   2.913  -0.208  1.00  0.00    -0.097 Cl
ENDBRANCH   7  16
TORSDOF 4
