REMARK  3 active torsions:
REMARK  status: ('A' for Active; 'I' for Inactive)
REMARK    1  A    between atoms: C3_4  and  S1_5 
REMARK    2  A    between atoms: S1_5  and  C4_6 
REMARK    3  A    between atoms: C12_18  and  O3_19 
ROOT
HETATM    1  C1  UNL     1      -4.099  -0.478  -1.228  1.00  0.00     0.042 C 
HETATM    2  C2  UNL     1      -3.244  -0.217  -0.032  1.00  0.00     0.157 C 
HETATM    3  O1  UNL     1      -1.902   0.033  -0.331  1.00  0.00    -0.363 OA
HETATM    4  C3  UNL     1      -1.071  -0.512   0.666  1.00  0.00     0.237 C 
HETATM    5  C10 UNL     1      -0.807   0.510   1.745  1.00  0.00     0.311 C 
HETATM    6  F1  UNL     1      -0.742   1.773   1.127  1.00  0.00    -0.223 F 
HETATM    7  N1  UNL     1      -1.999   0.637   2.596  1.00  0.00    -0.326 N 
ATOM      8  H1  UNL     1      -1.880   0.506   3.600  1.00  0.00     0.165 HD
HETATM    9  C11 UNL     1      -3.295   0.927   2.124  1.00  0.00     0.251 C 
HETATM   10  O2  UNL     1      -4.197   1.187   2.985  1.00  0.00    -0.270 OA
HETATM   11  C12 UNL     1      -3.791   0.979   0.713  1.00  0.00     0.238 C 
ENDROOT
BRANCH   4  12
HETATM   12  S1  UNL     1       0.374  -1.264   0.036  1.00  0.00    -0.128 SA
BRANCH  12  13
HETATM   13  C4  UNL     1       1.642  -0.273  -0.686  1.00  0.00     0.050 C 
HETATM   14  C5  UNL     1       2.447   0.519   0.284  1.00  0.00     0.015 C 
HETATM   15  C6  UNL     1       3.422   1.359  -0.559  1.00  0.00     0.001 C 
HETATM   16  C7  UNL     1       4.554   0.438  -0.917  1.00  0.00     0.000 C 
HETATM   17  C8  UNL     1       4.049  -0.956  -1.043  1.00  0.00     0.001 C 
HETATM   18  C9  UNL     1       2.632  -1.086  -1.526  1.00  0.00     0.015 C 
ENDBRANCH  12  13
ENDBRANCH   4  12
BRANCH  11  19
HETATM   19  O3  UNL     1      -3.373   2.119   0.035  1.00  0.00    -0.384 OA
ATOM     20  H3  UNL     1      -3.717   2.871   0.503  1.00  0.00     0.210 HD
ENDBRANCH  11  19
TORSDOF 3
