REMARK  2 active torsions:
REMARK  status: ('A' for Active; 'I' for Inactive)
REMARK    1  A    between atoms: C2_8  and  C3_9 
REMARK    2  A    between atoms: C11_18  and  C12_19 
ROOT
HETATM    1  C3  UNL     1       1.337   0.003   0.268  1.00  0.00     0.166 C 
HETATM    2  F1  UNL     1       2.135   1.016   0.856  1.00  0.00    -0.234 F 
HETATM    3  C4  UNL     1       1.128   0.352  -1.130  1.00  0.00     0.076 C 
HETATM    4  C5  UNL     1      -0.031   1.157  -1.548  1.00  0.00     0.080 C 
HETATM    5  C6  UNL     1      -0.137   2.511  -0.927  1.00  0.00     0.025 C 
HETATM    6  C7  UNL     1      -1.302   2.663   0.016  1.00  0.00     0.002 C 
HETATM    7  C8  UNL     1      -0.990   1.840   1.227  1.00  0.00     0.007 C 
HETATM    8  C9  UNL     1      -1.076   0.358   0.948  1.00  0.00     0.012 C 
HETATM    9  C10 UNL     1       0.229  -0.381   1.112  1.00  0.00     0.058 C 
HETATM   10  C11 UNL     1      -1.796   0.023  -0.295  1.00  0.00     0.085 C 
HETATM   11  N5  UNL     1      -1.239   0.385  -1.530  1.00  0.00    -0.412 N 
ATOM     12  H5  UNL     1      -1.686   0.103  -2.402  1.00  0.00     0.154 HD
ENDROOT
BRANCH   1  13
HETATM   13  C2  UNL     1       2.250  -1.185   0.227  1.00  0.00     0.152 A 
HETATM   14  N1  UNL     1       3.533  -1.326   0.584  1.00  0.00    -0.263 N 
HETATM   15  C1  UNL     1       4.395  -0.258   0.989  1.00  0.00     0.176 C 
HETATM   16  N2  UNL     1       3.827  -2.616   0.374  1.00  0.00    -0.003 NA
HETATM   17  N3  UNL     1       2.750  -3.254  -0.106  1.00  0.00    -0.225 N 
HETATM   18  N4  UNL     1       1.792  -2.368  -0.191  1.00  0.00    -0.272 N 
ATOM     19  H3  UNL     1       2.689  -4.241  -0.357  1.00  0.00     0.205 HD
ATOM     20  H4  UNL     1       0.845  -2.551  -0.524  1.00  0.00     0.189 HD
ENDBRANCH   1  13
BRANCH  10  21
HETATM   21  C12 UNL     1      -2.149  -1.454  -0.275  1.00  0.00     0.008 A 
HETATM   22  C13 UNL     1      -3.094  -1.940   0.797  1.00  0.00     0.007 A 
HETATM   23  C14 UNL     1      -3.540  -1.890  -0.637  1.00  0.00     0.007 A 
ENDBRANCH  10  21
TORSDOF 2
