REMARK  8 active torsions:
REMARK  status: ('A' for Active; 'I' for Inactive)
REMARK    1  A    between atoms: N1_2  and  C2_3 
REMARK    2  A    between atoms: N1_2  and  C5_9 
REMARK    3  A    between atoms: C2_3  and  C3_4 
REMARK    4  A    between atoms: C3_4  and  N2_5 
REMARK    5  A    between atoms: N2_5  and  O1_7 
REMARK    6  A    between atoms: C5_9  and  C6_10 
REMARK    7  A    between atoms: C13_17  and  N3_18 
REMARK    8  A    between atoms: N3_18  and  C14_20 
ROOT
HETATM    1  C6  UNL     1       1.161  -0.471  -1.206  1.00  0.00     0.028 A 
HETATM    2  C7  UNL     1       1.859  -1.710  -0.721  1.00  0.00     0.020 A 
HETATM    3  C8  UNL     1       0.572  -2.466  -0.644  1.00  0.00    -0.019 A 
HETATM    4  C9  UNL     1       0.431  -3.687  -1.496  1.00  0.00     0.011 C 
HETATM    5  C10 UNL     1       0.464  -4.873  -0.549  1.00  0.00     0.001 C 
HETATM    6  C11 UNL     1       0.770  -4.307   0.813  1.00  0.00     0.001 C 
HETATM    7  C12 UNL     1       0.155  -2.925   0.713  1.00  0.00     0.011 C 
HETATM    8  C13 UNL     1      -0.120  -1.223  -1.172  1.00  0.00     0.097 A 
ENDROOT
BRANCH   8   9
HETATM    9  N3  UNL     1      -1.178  -0.779  -0.325  1.00  0.00    -0.369 N 
ATOM     10  H3  UNL     1      -1.352  -1.249   0.563  1.00  0.00     0.161 HD
BRANCH   9  11
HETATM   11  C14 UNL     1      -1.909   0.210  -0.680  1.00  0.00     0.125 A 
HETATM   12  N4  UNL     1      -1.906   0.999  -1.768  1.00  0.00    -0.285 N 
HETATM   13  N5  UNL     1      -2.824   1.908  -1.708  1.00  0.00    -0.299 N 
ATOM     14  H4  UNL     1      -1.257   0.893  -2.548  1.00  0.00     0.188 HD
HETATM   15  C15 UNL     1      -3.524   1.778  -0.531  1.00  0.00     0.055 A 
ATOM     16  H5  UNL     1      -3.002   2.613  -2.423  1.00  0.00     0.187 HD
HETATM   17  C16 UNL     1      -2.905   0.686   0.085  1.00  0.00     0.025 A 
HETATM   18  C21 UNL     1      -4.607   2.687  -0.184  1.00  0.00     0.006 C 
HETATM   19  C17 UNL     1      -3.386   0.143   1.437  1.00  0.00     0.124 C 
HETATM   20  C18 UNL     1      -4.679   0.691   1.686  1.00  0.00    -0.178 C 
HETATM   21  C19 UNL     1      -5.878   1.413   1.634  1.00  0.00     0.084 C 
HETATM   22  C20 UNL     1      -5.921   2.237   0.310  1.00  0.00     0.040 C 
ENDBRANCH   9  11
ENDBRANCH   8   9
BRANCH   1  23
HETATM   23  C5  UNL     1       1.326   0.732  -0.334  1.00  0.00     0.128 C 
BRANCH  23  24
HETATM   24  N1  UNL     1       2.714   1.023  -0.234  1.00  0.00    -0.392 N 
HETATM   25  C1  UNL     1       3.349   1.439  -1.397  1.00  0.00     0.148 C 
BRANCH  24  26
HETATM   26  C2  UNL     1       3.169   1.433   1.013  1.00  0.00     0.104 C 
BRANCH  26  27
HETATM   27  C3  UNL     1       4.412   0.807   1.530  1.00  0.00     0.133 C 
BRANCH  27  28
HETATM   28  N2  UNL     1       5.570   1.060   0.790  1.00  0.00    -0.275 N 
HETATM   29  C4  UNL     1       6.229   2.340   0.772  1.00  0.00     0.184 C 
BRANCH  28  30
HETATM   30  O1  UNL     1       6.097   0.205   0.130  1.00  0.00    -0.288 OA
ATOM     31  H1  UNL     1       6.884   0.377  -0.373  1.00  0.00     0.244 HD
ENDBRANCH  28  30
ENDBRANCH  27  28
ENDBRANCH  26  27
ENDBRANCH  24  26
ENDBRANCH  23  24
ENDBRANCH   1  23
TORSDOF 8
