REMARK  10 active torsions:
REMARK  status: ('A' for Active; 'I' for Inactive)
REMARK    1  A    between atoms: C4_4  and  C5_5 
REMARK    2  A    between atoms: C6_6  and  C7_7 
REMARK    3  A    between atoms: C7_7  and  C8_8 
REMARK    4  A    between atoms: C8_8  and  C9_9 
REMARK    5  A    between atoms: C9_9  and  C10_10 
REMARK    6  A    between atoms: C10_10  and  C11_11 
REMARK    7  A    between atoms: C11_11  and  C12_12 
REMARK    8  A    between atoms: N2_21  and  O1_22 
REMARK    9  A    between atoms: C21_27  and  C22_28 
REMARK   10  A    between atoms: C22_28  and  C23_29 
ROOT
HETATM    1  C1  UNL     1      11.005   0.863   3.055  1.00  0.00     0.027 C 
HETATM    2  C2  UNL     1      10.016   0.925   2.368  1.00  0.00    -0.025 C 
HETATM    3  C3  UNL     1       8.836   1.020   1.563  1.00  0.00    -0.002 C 
HETATM    4  C4  UNL     1       7.841   1.122   0.890  1.00  0.00    -0.001 C 
ENDROOT
BRANCH   4   5
HETATM    5  C5  UNL     1       6.664   1.268   0.106  1.00  0.00    -0.014 C 
HETATM    6  C6  UNL     1       5.653   1.414  -0.557  1.00  0.00    -0.092 C 
BRANCH   6   7
HETATM    7  C7  UNL     1       4.434   1.614  -1.339  1.00  0.00     0.095 C 
BRANCH   7   8
HETATM    8  C8  UNL     1       3.372   0.594  -0.912  1.00  0.00     0.012 C 
BRANCH   8   9
HETATM    9  C9  UNL     1       2.153   0.853  -1.731  1.00  0.00     0.001 C 
BRANCH   9  10
HETATM   10  C10 UNL     1       1.073  -0.132  -1.357  1.00  0.00     0.006 C 
BRANCH  10  11
HETATM   11  C11 UNL     1       0.703  -0.008   0.107  1.00  0.00     0.062 C 
BRANCH  11  12
HETATM   12  C12 UNL     1      -0.373  -0.992   0.384  1.00  0.00     0.073 A 
HETATM   13  C13 UNL     1      -1.640  -0.650  -0.042  1.00  0.00     0.104 A 
HETATM   14  C14 UNL     1      -2.646  -1.558   0.209  1.00  0.00     0.144 A 
HETATM   15  N4  UNL     1      -2.250   0.446  -0.708  1.00  0.00    -0.338 N 
HETATM   16  N1  UNL     1      -2.341  -2.723   0.852  1.00  0.00    -0.290 N 
HETATM   17  N3  UNL     1      -3.882  -1.068  -0.280  1.00  0.00    -0.326 N 
HETATM   18  C15 UNL     1      -3.338  -3.604   1.089  1.00  0.00     0.100 A 
HETATM   19  C19 UNL     1      -1.084  -3.005   1.245  1.00  0.00     0.141 A 
HETATM   20  C16 UNL     1      -3.095  -4.800   1.733  1.00  0.00     0.018 A 
HETATM   21  C17 UNL     1      -1.818  -5.135   2.157  1.00  0.00     0.005 A 
HETATM   22  C18 UNL     1      -0.830  -4.203   1.892  1.00  0.00     0.051 A 
HETATM   23  N2  UNL     1      -0.081  -2.122   1.007  1.00  0.00    -0.209 N 
HETATM   24  C20 UNL     1      -3.646   0.230  -0.878  1.00  0.00     0.103 A 
ATOM     25  H3  UNL     1      -4.781  -1.546  -0.221  1.00  0.00     0.169 HD
HETATM   26  C21 UNL     1      -4.557   1.003  -1.437  1.00  0.00     0.022 C 
ATOM     27  H4  UNL     1      -1.753   1.279  -1.023  1.00  0.00     0.167 HD
BRANCH  23  28
HETATM   28  O1  UNL     1       1.184  -2.445   1.422  1.00  0.00    -0.281 OA
ATOM     29  H1  UNL     1       1.394  -3.256   1.869  1.00  0.00     0.245 HD
ENDBRANCH  23  28
BRANCH  26  30
HETATM   30  C22 UNL     1      -4.196   2.306  -2.014  1.00  0.00     0.030 C 
BRANCH  30  31
HETATM   31  C23 UNL     1      -4.910   3.465  -1.355  1.00  0.00    -0.001 C 
HETATM   32  C24 UNL     1      -4.528   3.474   0.107  1.00  0.00     0.005 C 
ENDBRANCH  30  31
ENDBRANCH  26  30
ENDBRANCH  11  12
ENDBRANCH  10  11
ENDBRANCH   9  10
ENDBRANCH   8   9
ENDBRANCH   7   8
ENDBRANCH   6   7
ENDBRANCH   4   5
TORSDOF 10
