REMARK  10 active torsions:
REMARK  status: ('A' for Active; 'I' for Inactive)
REMARK    1  A    between atoms: C3_3  and  C4_4 
REMARK    2  A    between atoms: C4_4  and  N1_7 
REMARK    3  A    between atoms: N1_7  and  C7_9 
REMARK    4  A    between atoms: C7_9  and  C8_13 
REMARK    5  A    between atoms: N3_14  and  C9_15 
REMARK    6  A    between atoms: C9_15  and  C10_16 
REMARK    7  A    between atoms: C10_16  and  C11_17 
REMARK    8  A    between atoms: C11_17  and  N4_18 
REMARK       I    between atoms: N5_24  and  C17_25 
REMARK    9  A    between atoms: C17_25  and  C18_27 
REMARK   10  A    between atoms: C19_28  and  C20_29 
ROOT
HETATM    1  C1  UNL     1       0.792   6.266   1.234  1.00  0.00     0.112 C 
HETATM    2  C2  UNL     1       1.101   4.864   0.895  1.00  0.00    -0.108 C 
HETATM    3  C3  UNL     1       1.365   3.714   0.623  1.00  0.00    -0.076 C 
ENDROOT
BRANCH   3   4
HETATM    4  C4  UNL     1       1.700   2.327   0.312  1.00  0.00     0.088 C 
HETATM    5  C5  UNL     1       1.268   2.078  -1.136  1.00  0.00     0.052 C 
HETATM    6  C6  UNL     1       3.199   2.107   0.338  1.00  0.00     0.052 C 
BRANCH   4   7
HETATM    7  N1  UNL     1       1.000   1.466   1.212  1.00  0.00    -0.357 N 
ATOM      8  H1  UNL     1       0.388   1.887   1.911  1.00  0.00     0.162 HD
BRANCH   7   9
HETATM    9  C7  UNL     1       1.118   0.039   1.178  1.00  0.00     0.116 C 
HETATM   10  N2  UNL     1       1.919  -0.463   2.085  1.00  0.00    -0.386 N 
ATOM     11  H22 UNL     1       2.406   0.141   2.747  1.00  0.00     0.157 HD
ATOM     12  H21 UNL     1       2.003  -1.479   2.061  1.00  0.00     0.157 HD
BRANCH   9  13
HETATM   13  C8  UNL     1       0.423  -0.824   0.233  1.00  0.00     0.261 C 
HETATM   14  N3  UNL     1      -0.984  -0.851   0.259  1.00  0.00    -0.344 N 
HETATM   15  C15 UNL     1      -1.367  -2.192   0.401  1.00  0.00     0.085 C 
HETATM   16  C16 UNL     1      -0.202  -2.940   1.011  1.00  0.00     0.173 C 
HETATM   17  N5  UNL     1       0.906  -2.191   0.410  1.00  0.00    -0.315 N 
HETATM   18  C17 UNL     1       2.149  -2.734   0.090  1.00  0.00     0.245 C 
HETATM   19  O1  UNL     1       2.388  -3.952   0.323  1.00  0.00    -0.268 OA
BRANCH  14  20
HETATM   20  C9  UNL     1      -1.693   0.142   0.931  1.00  0.00     0.067 C 
BRANCH  20  21
HETATM   21  C10 UNL     1      -3.181   0.047   0.922  1.00  0.00     0.072 C 
BRANCH  21  22
HETATM   22  C11 UNL     1      -3.767   0.086  -0.476  1.00  0.00     0.241 C 
BRANCH  22  23
HETATM   23  N4  UNL     1      -5.214  -0.009  -0.447  1.00  0.00    -0.078 N 
HETATM   24  C12 UNL     1      -5.670   0.278  -1.805  1.00  0.00     0.271 C 
HETATM   25  C13 UNL     1      -5.759   0.980   0.477  1.00  0.00     0.271 C 
HETATM   26  C14 UNL     1      -5.677  -1.341  -0.137  1.00  0.00     0.271 C 
ENDBRANCH  22  23
ENDBRANCH  21  22
ENDBRANCH  20  21
ENDBRANCH  14  20
BRANCH  18  27
HETATM   27  C18 UNL     1       3.193  -1.916  -0.516  1.00  0.00     0.074 C 
HETATM   28  C19 UNL     1       4.367  -2.436  -0.815  1.00  0.00     0.005 C 
BRANCH  28  29
HETATM   29  C20 UNL     1       5.421  -1.634  -1.420  1.00  0.00    -0.004 C 
HETATM   30  C21 UNL     1       6.592  -2.159  -1.717  1.00  0.00    -0.031 C 
HETATM   31  C22 UNL     1       6.928  -3.574  -1.466  1.00  0.00     0.036 C 
ENDBRANCH  28  29
ENDBRANCH  18  27
ENDBRANCH   9  13
ENDBRANCH   7   9
ENDBRANCH   4   7
ENDBRANCH   3   4
TORSDOF 10
