REMARK  7 active torsions:
REMARK  status: ('A' for Active; 'I' for Inactive)
REMARK    1  A    between atoms: C3_3  and  C4_4 
REMARK    2  A    between atoms: C5_5  and  C6_6 
REMARK    3  A    between atoms: C6_6  and  C7_7 
REMARK    4  A    between atoms: C7_7  and  C8_8 
REMARK    5  A    between atoms: C8_8  and  C9_9 
REMARK    6  A    between atoms: C9_9  and  C10_10 
REMARK    7  A    between atoms: C10_10  and  N1_11 
ROOT
HETATM    1  C10 UNL     1       2.070  -0.928  -0.177  1.00  0.00     0.137 C 
ENDROOT
BRANCH   1   2
HETATM    2  C9  UNL     1       1.895  -1.125   1.311  1.00  0.00     0.020 C 
BRANCH   2   3
HETATM    3  C8  UNL     1       0.799  -2.124   1.575  1.00  0.00     0.002 C 
BRANCH   3   4
HETATM    4  C7  UNL     1      -0.547  -1.717   1.018  1.00  0.00     0.004 C 
BRANCH   4   5
HETATM    5  C6  UNL     1      -0.978  -0.431   1.628  1.00  0.00     0.027 C 
BRANCH   5   6
HETATM    6  C5  UNL     1      -2.339   0.037   1.135  1.00  0.00    -0.026 C 
HETATM    7  C4  UNL     1      -3.029  -0.639   0.307  1.00  0.00     0.009 C 
BRANCH   7   8
HETATM    8  C3  UNL     1      -4.297  -0.500  -0.343  1.00  0.00    -0.014 A 
HETATM    9  C2  UNL     1      -5.088   0.600  -0.258  1.00  0.00     0.017 A 
HETATM   10  C1  UNL     1      -4.677   1.812   0.461  1.00  0.00     0.069 C 
HETATM   11  N4  UNL     1      -6.301   0.580  -0.896  1.00  0.00    -0.364 N 
HETATM   12  C19 UNL     1      -6.758  -0.458  -1.601  1.00  0.00     0.090 A 
HETATM   13  C20 UNL     1      -7.135   1.788  -0.776  1.00  0.00     0.155 C 
HETATM   14  C18 UNL     1      -5.987  -1.579  -1.708  1.00  0.00     0.018 A 
HETATM   15  C17 UNL     1      -4.771  -1.598  -1.086  1.00  0.00     0.014 A 
ENDBRANCH   7   8
ENDBRANCH   5   6
ENDBRANCH   4   5
ENDBRANCH   3   4
ENDBRANCH   2   3
ENDBRANCH   1   2
BRANCH   1  16
HETATM   16  N1  UNL     1       3.126   0.032  -0.462  1.00  0.00    -0.266 N 
HETATM   17  C11 UNL     1       3.037   1.435  -0.615  1.00  0.00     0.327 C 
HETATM   18  O1  UNL     1       1.942   2.077  -0.515  1.00  0.00    -0.247 OA
HETATM   19  N2  UNL     1       4.331   1.947  -0.886  1.00  0.00    -0.308 N 
HETATM   20  C12 UNL     1       5.280   0.920  -0.624  1.00  0.00     0.194 C 
ATOM     21  H2  UNL     1       4.545   2.889  -1.213  1.00  0.00     0.167 HD
HETATM   22  C13 UNL     1       5.919   1.028   0.742  1.00  0.00     0.073 C 
HETATM   23  N3  UNL     1       6.381   0.892  -1.554  1.00  0.00    -0.327 N 
HETATM   24  C16 UNL     1       4.478  -0.326  -0.638  1.00  0.00     0.277 C 
HETATM   25  C14 UNL     1       7.137   0.144   0.582  1.00  0.00     0.107 C 
HETATM   26  C15 UNL     1       7.495   0.365  -0.833  1.00  0.00     0.220 C 
HETATM   27  O2  UNL     1       8.623   0.123  -1.334  1.00  0.00    -0.274 OA
ATOM     28  H3  UNL     1       6.367   1.189  -2.530  1.00  0.00     0.165 HD
HETATM   29  O3  UNL     1       4.981  -1.487  -0.787  1.00  0.00    -0.268 OA
ENDBRANCH   1  16
TORSDOF 7
