REMARK  6 active torsions:
REMARK  status: ('A' for Active; 'I' for Inactive)
REMARK    1  A    between atoms: C4_5  and  N1_6 
REMARK    2  A    between atoms: N2_9  and  C7_10 
REMARK    3  A    between atoms: C7_10  and  C8_11 
REMARK    4  A    between atoms: C8_11  and  C9_12 
REMARK    5  A    between atoms: C9_12  and  O2_13 
REMARK    6  A    between atoms: N3_15  and  O3_17 
ROOT
HETATM    1  N1  UNL     1      -0.780   0.189   0.449  1.00  0.00     0.102 N 
HETATM    2  C5  UNL     1       0.288  -0.343   1.282  1.00  0.00     0.303 C 
HETATM    3  C6  UNL     1       1.311   0.774   1.327  1.00  0.00     0.302 C 
HETATM    4  N2  UNL     1       2.011   0.803   0.030  1.00  0.00     0.092 N 
HETATM    5  C10 UNL     1       1.203   0.323  -1.038  1.00  0.00     0.302 C 
HETATM    6  C11 UNL     1      -0.260   0.340  -0.866  1.00  0.00     0.303 C 
ENDROOT
BRANCH   1   7
HETATM    7  C4  UNL     1      -1.976  -0.619   0.540  1.00  0.00     0.293 C 
HETATM    8  C3  UNL     1      -2.470  -0.583   1.971  1.00  0.00     0.049 C 
HETATM    9  C2  UNL     1      -3.916  -1.003   1.816  1.00  0.00     0.087 C 
HETATM   10  C1  UNL     1      -4.348  -0.300   0.597  1.00  0.00     0.191 C 
HETATM   11  O1  UNL     1      -5.481  -0.031   0.304  1.00  0.00    -0.292 OA
HETATM   12  C12 UNL     1      -3.108   0.009  -0.196  1.00  0.00     0.258 C 
HETATM   13  O4  UNL     1      -3.222  -0.496  -1.493  1.00  0.00    -0.345 OA
HETATM   14  O5  UNL     1      -3.033   1.389  -0.303  1.00  0.00    -0.345 OA
HETATM   15  C13 UNL     1      -3.905   0.483  -2.204  1.00  0.00     0.198 C 
HETATM   16  C14 UNL     1      -3.875   1.735  -1.358  1.00  0.00     0.198 C 
ENDBRANCH   1   7
BRANCH   4  17
HETATM   17  C7  UNL     1       3.200   0.030   0.254  1.00  0.00     0.280 C 
BRANCH  17  18
HETATM   18  C8  UNL     1       4.122  -0.066  -0.912  1.00  0.00     0.116 C 
BRANCH  18  19
HETATM   19  C9  UNL     1       5.321  -0.886  -0.592  1.00  0.00     0.136 C 
HETATM   20  N3  UNL     1       6.523  -0.422  -0.604  1.00  0.00    -0.251 N 
ATOM     21  H3  UNL     1       7.279  -1.066  -0.370  1.00  0.00     0.196 HD
BRANCH  19  22
HETATM   22  O2  UNL     1       5.186  -2.232  -0.255  1.00  0.00    -0.348 OA
ATOM     23  H2  UNL     1       5.952  -2.756  -0.051  1.00  0.00     0.219 HD
ENDBRANCH  19  22
BRANCH  20  24
HETATM   24  O3  UNL     1       6.859   0.856  -0.904  1.00  0.00    -0.288 OA
ATOM     25  H3  UNL     1       7.745   1.198  -0.913  1.00  0.00     0.244 HD
ENDBRANCH  20  24
ENDBRANCH  18  19
ENDBRANCH  17  18
ENDBRANCH   4  17
TORSDOF 6
