REMARK  8 active torsions:
REMARK  status: ('A' for Active; 'I' for Inactive)
REMARK    1  A    between atoms: C2_2  and  O2_4 
REMARK    2  A    between atoms: O2_4  and  C3_5 
REMARK    3  A    between atoms: C6_8  and  C7_9 
REMARK    4  A    between atoms: C7_9  and  O3_10 
REMARK    5  A    between atoms: C10_15  and  O5_16 
REMARK    6  A    between atoms: C11_18  and  O6_19 
REMARK    7  A    between atoms: O6_19  and  C12_20 
REMARK    8  A    between atoms: C12_20  and  C13_22 
ROOT
HETATM    1  C3  UNL     1      -0.059   1.817  -0.128  1.00  0.00     0.170 C 
HETATM    2  C4  UNL     1      -1.380   1.083   0.043  1.00  0.00     0.050 C 
HETATM    3  C5  UNL     1      -1.487   0.030  -1.001  1.00  0.00     0.018 C 
HETATM    4  C6  UNL     1      -2.346  -1.138  -0.619  1.00  0.00     0.034 C 
HETATM    5  C8  UNL     1      -2.483  -1.357   0.839  1.00  0.00     0.175 C 
HETATM    6  O4  UNL     1      -1.627  -0.709   1.663  1.00  0.00    -0.382 OA
HETATM    7  C9  UNL     1      -1.365   0.594   1.454  1.00  0.00     0.159 C 
HETATM    8  C10 UNL     1      -0.058   1.069   2.075  1.00  0.00     0.179 C 
HETATM    9  C11 UNL     1       0.813   1.075   0.808  1.00  0.00     0.193 C 
ENDROOT
BRANCH   9  10
HETATM   10  O6  UNL     1       1.279  -0.146   0.438  1.00  0.00    -0.310 OA
BRANCH  10  11
HETATM   11  C12 UNL     1       2.576  -0.577   0.414  1.00  0.00     0.262 C 
HETATM   12  O7  UNL     1       3.451   0.219   0.766  1.00  0.00    -0.265 OA
BRANCH  11  13
HETATM   13  C13 UNL     1       2.931  -1.953  -0.018  1.00  0.00     0.077 C 
HETATM   14  C14 UNL     1       2.265  -2.980   0.870  1.00  0.00     0.020 C 
HETATM   15  C15 UNL     1       2.555  -2.220  -1.459  1.00  0.00     0.020 C 
ENDBRANCH  11  13
ENDBRANCH  10  11
ENDBRANCH   9  10
BRANCH   1  16
HETATM   16  O2  UNL     1      -0.171   3.179   0.044  1.00  0.00    -0.313 OA
BRANCH  16  17
HETATM   17  C2  UNL     1       0.086   4.076  -0.945  1.00  0.00     0.255 C 
HETATM   18  C1  UNL     1      -0.014   5.549  -0.827  1.00  0.00     0.126 C 
HETATM   19  O1  UNL     1       0.436   3.578  -2.043  1.00  0.00    -0.266 OA
ENDBRANCH  16  17
ENDBRANCH   1  16
BRANCH   8  20
HETATM   20  O5  UNL     1       0.419   0.273   3.057  1.00  0.00    -0.390 OA
ATOM     21  H5  UNL     1       1.234   0.569   3.444  1.00  0.00     0.210 HD
ENDBRANCH   8  20
BRANCH   4  22
HETATM   22  C7  UNL     1      -1.742  -2.404  -1.233  1.00  0.00     0.170 C 
BRANCH  22  23
HETATM   23  O3  UNL     1      -2.506  -3.523  -0.906  1.00  0.00    -0.400 OA
ATOM     24  H3  UNL     1      -2.131  -4.308  -1.287  1.00  0.00     0.209 HD
ENDBRANCH  22  23
ENDBRANCH   4  22
TORSDOF 8
