REMARK  7 active torsions:
REMARK  status: ('A' for Active; 'I' for Inactive)
REMARK    1  A    between atoms: C2_2  and  O1_3 
REMARK    2  A    between atoms: O1_3  and  C3_4 
REMARK    3  A    between atoms: C3_4  and  C4_6 
REMARK    4  A    between atoms: C11_14  and  C12_15 
REMARK    5  A    between atoms: C12_15  and  O4_16 
REMARK    6  A    between atoms: C13_19  and  C14_20 
REMARK    7  A    between atoms: C14_20  and  O6_21 
ROOT
HETATM    1  C4  UNL     1       0.753  -0.223  -0.574  1.00  0.00     0.290 C 
HETATM    2  O3  UNL     1       0.447  -1.546  -0.417  1.00  0.00    -0.339 OA
HETATM    3  C5  UNL     1      -0.830  -1.944  -0.500  1.00  0.00     0.129 C 
HETATM    4  C6  UNL     1      -1.724  -1.441  -1.569  1.00  0.00     0.037 C 
HETATM    5  C7  UNL     1      -2.453  -0.173  -1.345  1.00  0.00    -0.007 C 
HETATM    6  C8  UNL     1      -1.871   1.091  -1.854  1.00  0.00     0.037 C 
HETATM    7  C9  UNL     1      -0.447   1.339  -1.654  1.00  0.00     0.129 C 
HETATM    8  C10 UNL     1      -0.016   1.962  -0.357  1.00  0.00     0.078 C 
HETATM    9  C11 UNL     1       0.295   0.691   0.453  1.00  0.00     0.151 C 
HETATM   10  O5  UNL     1      -0.754   0.424   1.229  1.00  0.00    -0.358 OA
HETATM   11  C13 UNL     1      -1.790  -0.328   1.071  1.00  0.00     0.086 C 
HETATM   12  C15 UNL     1      -2.857   0.058   0.089  1.00  0.00     0.045 C 
HETATM   13  C16 UNL     1      -1.475  -1.784   0.857  1.00  0.00     0.072 C 
HETATM   14  O7  UNL     1       0.249   0.178  -1.824  1.00  0.00    -0.339 OA
ENDROOT
BRANCH   1  15
HETATM   15  C3  UNL     1       2.219  -0.154  -0.832  1.00  0.00     0.325 C 
HETATM   16  O2  UNL     1       2.777   0.925  -1.191  1.00  0.00    -0.259 OA
BRANCH  15  17
HETATM   17  O1  UNL     1       3.056  -1.250  -0.698  1.00  0.00    -0.318 OA
BRANCH  17  18
HETATM   18  C2  UNL     1       4.429  -1.141  -0.950  1.00  0.00     0.174 C 
HETATM   19  C1  UNL     1       5.141  -0.156  -0.085  1.00  0.00     0.034 C 
ENDBRANCH  17  18
ENDBRANCH  15  17
ENDBRANCH   1  15
BRANCH   9  20
HETATM   20  C12 UNL     1       1.390   1.072   1.428  1.00  0.00     0.208 C 
BRANCH  20  21
HETATM   21  O4  UNL     1       0.976   2.204   2.191  1.00  0.00    -0.398 OA
ATOM     22  H4  UNL     1       1.663   2.443   2.802  1.00  0.00     0.209 HD
ENDBRANCH  20  21
ENDBRANCH   9  20
BRANCH  11  23
HETATM   23  C14 UNL     1      -2.549  -0.329   2.431  1.00  0.00     0.202 C 
BRANCH  23  24
HETATM   24  O6  UNL     1      -2.881   1.016   2.665  1.00  0.00    -0.398 OA
ATOM     25  H6  UNL     1      -3.344   1.015   3.495  1.00  0.00     0.209 HD
ENDBRANCH  23  24
ENDBRANCH  11  23
TORSDOF 7
