REMARK  7 active torsions:
REMARK  status: ('A' for Active; 'I' for Inactive)
REMARK    1  A    between atoms: C2_2  and  C3_3 
REMARK    2  A    between atoms: C3_3  and  O1_4 
REMARK    3  A    between atoms: O1_4  and  C4_5 
REMARK    4  A    between atoms: C4_5  and  C5_7 
REMARK    5  A    between atoms: C6_8  and  C7_9 
REMARK    6  A    between atoms: C7_9  and  O3_10 
REMARK    7  A    between atoms: C8_12  and  O4_13 
ROOT
HETATM    1  C7  UNL     1      -0.470  -0.878   0.305  1.00  0.00     0.128 C 
HETATM    2  C8  UNL     1      -0.800   0.089   1.432  1.00  0.00     0.161 C 
HETATM    3  C9  UNL     1      -2.203   0.635   1.265  1.00  0.00     0.067 C 
HETATM    4  C10 UNL     1      -2.422   1.197  -0.101  1.00  0.00     0.131 C 
HETATM    5  O5  UNL     1      -1.461   0.794  -1.024  1.00  0.00    -0.377 OA
HETATM    6  C11 UNL     1      -1.275  -0.572  -0.946  1.00  0.00     0.165 C 
HETATM    7  C12 UNL     1      -2.526  -1.374  -1.015  1.00  0.00     0.068 C 
HETATM    8  C13 UNL     1      -3.780  -0.589  -1.228  1.00  0.00     0.141 A 
HETATM    9  O6  UNL     1      -4.855  -1.252  -0.568  1.00  0.00    -0.315 OA
HETATM   10  C14 UNL     1      -5.442  -0.452   0.369  1.00  0.00     0.259 A 
HETATM   11  O7  UNL     1      -6.346  -0.814   1.164  1.00  0.00    -0.265 OA
HETATM   12  C15 UNL     1      -4.870   0.905   0.325  1.00  0.00     0.120 A 
HETATM   13  C16 UNL     1      -3.762   0.795  -0.700  1.00  0.00     0.053 A 
ENDROOT
BRANCH   1  14
HETATM   14  C6  UNL     1       0.980  -0.825   0.079  1.00  0.00     0.022 C 
HETATM   15  C5  UNL     1       1.556  -0.114  -0.876  1.00  0.00     0.081 C 
BRANCH  15  16
HETATM   16  C4  UNL     1       2.994  -0.081  -1.075  1.00  0.00     0.282 C 
HETATM   17  O2  UNL     1       3.489   0.612  -2.001  1.00  0.00    -0.260 OA
BRANCH  16  18
HETATM   18  O1  UNL     1       3.883  -0.787  -0.286  1.00  0.00    -0.318 OA
BRANCH  18  19
HETATM   19  C3  UNL     1       5.278  -0.797  -0.425  1.00  0.00     0.178 C 
BRANCH  19  20
HETATM   20  C2  UNL     1       5.942   0.531  -0.277  1.00  0.00     0.022 C 
HETATM   21  C1  UNL     1       5.692   1.157   1.080  1.00  0.00     0.007 C 
ENDBRANCH  19  20
ENDBRANCH  18  19
ENDBRANCH  16  18
ENDBRANCH  15  16
ENDBRANCH   1  14
BRANCH   1  22
HETATM   22  O3  UNL     1      -0.768  -2.200   0.711  1.00  0.00    -0.381 OA
ATOM     23  H3  UNL     1      -1.706  -2.234   0.857  1.00  0.00     0.211 HD
ENDBRANCH   1  22
BRANCH   2  24
HETATM   24  O4  UNL     1       0.142   1.135   1.397  1.00  0.00    -0.392 OA
ATOM     25  H4  UNL     1      -0.064   1.739   2.101  1.00  0.00     0.210 HD
ENDBRANCH   2  24
TORSDOF 7
