REMARK  3 active torsions:
REMARK  status: ('A' for Active; 'I' for Inactive)
REMARK    1  A    between atoms: S1_2  and  O3_4 
REMARK    2  A    between atoms: O3_4  and  C1_5 
REMARK    3  A    between atoms: C3_7  and  O4_8 
ROOT
HETATM    1  C1  UNL     1       0.688   0.349  -0.028  1.00  0.00     0.182 C 
HETATM    2  C2  UNL     1      -0.296   1.431  -0.397  1.00  0.00     0.096 C 
HETATM    3  C3  UNL     1      -1.643   1.266   0.236  1.00  0.00     0.260 C 
HETATM    4  O5  UNL     1      -2.208   0.021   0.077  1.00  0.00    -0.351 OA
HETATM    5  C4  UNL     1      -1.341  -0.911  -0.409  1.00  0.00     0.186 C 
HETATM    6  C5  UNL     1      -1.675  -2.337  -0.128  1.00  0.00     0.244 C 
HETATM    7  O6  UNL     1      -0.454  -2.926   0.049  1.00  0.00    -0.238 OA
HETATM    8  O7  UNL     1       0.462  -2.051   0.259  1.00  0.00    -0.230 OA
HETATM    9  C6  UNL     1      -0.074  -0.822   0.460  1.00  0.00     0.222 C 
ENDROOT
BRANCH   1  10
HETATM   10  O3  UNL     1       1.633   0.741   0.882  1.00  0.00    -0.254 OA
BRANCH  10  11
HETATM   11  S1  UNL     1       3.199   0.655   0.239  1.00  0.00     0.401 S 
HETATM   12  O1  UNL     1       3.948   1.963   0.360  1.00  0.00    -0.179 OA
HETATM   13  O2  UNL     1       4.071  -0.671   0.801  1.00  0.00    -0.179 OA
ENDBRANCH  10  11
ENDBRANCH   1  10
BRANCH   3  14
HETATM   14  O4  UNL     1      -2.505   2.190  -0.358  1.00  0.00    -0.371 OA
ATOM     15  H4  UNL     1      -3.360   2.085   0.044  1.00  0.00     0.212 HD
ENDBRANCH   3  14
TORSDOF 3
