REMARK  4 active torsions:
REMARK  status: ('A' for Active; 'I' for Inactive)
REMARK    1  A    between atoms: C4_5  and  O2_6 
REMARK    2  A    between atoms: O2_6  and  C5_7 
REMARK    3  A    between atoms: C8_11  and  O4_12 
REMARK    4  A    between atoms: C9_14  and  O5_15 
ROOT
HETATM    1  C5  UNL     1      -1.207   0.465  -0.104  1.00  0.00     0.302 C 
HETATM    2  O3  UNL     1      -1.914   1.340  -0.964  1.00  0.00    -0.330 OA
HETATM    3  C6  UNL     1      -3.134   1.824  -0.521  1.00  0.00     0.137 C 
HETATM    4  C7  UNL     1      -3.987   0.922  -0.018  1.00  0.00     0.031 C 
HETATM    5  C8  UNL     1      -3.520  -0.485   0.003  1.00  0.00     0.176 C 
HETATM    6  C9  UNL     1      -2.120  -0.521   0.581  1.00  0.00     0.206 C 
ENDROOT
BRANCH   1   7
HETATM    7  O2  UNL     1      -0.238  -0.262  -0.785  1.00  0.00    -0.305 OA
BRANCH   7   8
HETATM    8  C4  UNL     1       1.055  -0.026  -0.318  1.00  0.00     0.415 C 
HETATM    9  O1  UNL     1       1.785   0.447  -1.394  1.00  0.00    -0.335 OA
HETATM   10  C3  UNL     1       3.087   0.791  -1.064  1.00  0.00     0.209 C 
HETATM   11  C2  UNL     1       3.611  -0.271  -0.151  1.00  0.00    -0.042 C 
HETATM   12  C1  UNL     1       4.681  -0.122   0.589  1.00  0.00     0.019 C 
HETATM   13  C10 UNL     1       2.805  -1.541  -0.148  1.00  0.00     0.209 C 
HETATM   14  O6  UNL     1       1.526  -1.212   0.204  1.00  0.00    -0.335 OA
ENDBRANCH   7   8
ENDBRANCH   1   7
BRANCH   6  15
HETATM   15  O5  UNL     1      -2.167  -0.198   1.957  1.00  0.00    -0.388 OA
ATOM     16  H5  UNL     1      -2.742  -0.819   2.388  1.00  0.00     0.210 HD
ENDBRANCH   6  15
BRANCH   5  17
HETATM   17  O4  UNL     1      -4.331  -1.253   0.839  1.00  0.00    -0.389 OA
ATOM     18  H4  UNL     1      -4.032  -2.155   0.852  1.00  0.00     0.210 HD
ENDBRANCH   5  17
TORSDOF 4
