REMARK  3 active torsions:
REMARK  status: ('A' for Active; 'I' for Inactive)
REMARK    1  A    between atoms: C5_5  and  N1_6 
REMARK    2  A    between atoms: N1_6  and  C6_8 
REMARK    3  A    between atoms: C7_9  and  C8_10 
ROOT
HETATM    1  C6  UNL     1      -1.265   0.448   0.118  1.00  0.00     0.218 C 
HETATM    2  C7  UNL     1      -2.586   0.270   0.941  1.00  0.00     0.192 C 
HETATM    3  O1  UNL     1      -2.937  -1.024   0.947  1.00  0.00    -0.379 OA
HETATM    4  C9  UNL     1      -3.535  -1.629  -0.089  1.00  0.00     0.176 C 
HETATM    5  C10 UNL     1      -3.762  -0.947  -1.358  1.00  0.00     0.104 C 
HETATM    6  C11 UNL     1      -2.784   0.050  -1.808  1.00  0.00     0.102 A 
HETATM    7  N2  UNL     1      -2.858   0.581  -3.065  1.00  0.00    -0.288 N 
ATOM      8  H2  UNL     1      -3.547   0.334  -3.776  1.00  0.00     0.188 HD
HETATM    9  N3  UNL     1      -1.891   1.465  -3.206  1.00  0.00    -0.295 N 
ATOM     10  H3  UNL     1      -1.722   2.008  -4.053  1.00  0.00     0.187 HD
HETATM   11  C12 UNL     1      -1.163   1.554  -2.090  1.00  0.00     0.203 A 
HETATM   12  N4  UNL     1      -1.743   0.654  -1.225  1.00  0.00    -0.306 N 
ENDROOT
BRANCH   1  13
HETATM   13  N1  UNL     1      -0.529  -0.688   0.342  1.00  0.00    -0.395 N 
ATOM     14  H1  UNL     1      -1.051  -1.532   0.578  1.00  0.00     0.155 HD
BRANCH  13  15
HETATM   15  C5  UNL     1       0.861  -0.808   0.280  1.00  0.00     0.078 C 
HETATM   16  C4  UNL     1       1.505  -0.712  -1.053  1.00  0.00     0.025 C 
HETATM   17  C3  UNL     1       2.593   0.347  -1.154  1.00  0.00     0.006 C 
HETATM   18  C2  UNL     1       3.664  -0.041  -0.139  1.00  0.00    -0.019 C 
HETATM   19  C1  UNL     1       4.788   0.949  -0.166  1.00  0.00     0.010 C 
HETATM   20  C14 UNL     1       3.033  -0.213   1.234  1.00  0.00     0.006 C 
HETATM   21  C13 UNL     1       1.577   0.189   1.201  1.00  0.00     0.025 C 
ENDBRANCH  13  15
ENDBRANCH   1  13
BRANCH   2  22
HETATM   22  C8  UNL     1      -2.302   0.746   2.368  1.00  0.00     0.258 C 
HETATM   23  F1  UNL     1      -3.443   0.602   3.121  1.00  0.00    -0.253 F 
ENDBRANCH   2  22
TORSDOF 3
