REMARK  3 active torsions:
REMARK  status: ('A' for Active; 'I' for Inactive)
REMARK    1  A    between atoms: C10_14  and  C11_15 
REMARK    2  A    between atoms: C11_15  and  C12_17 
REMARK    3  A    between atoms: C12_17  and  N1_18 
ROOT
HETATM    1  C1  UNL     1      -3.876  -0.570  -0.047  1.00  0.00     0.015 C 
HETATM    2  C2  UNL     1      -2.467  -0.081   0.219  1.00  0.00     0.046 C 
HETATM    3  C3  UNL     1      -2.125   1.125  -0.655  1.00  0.00     0.010 C 
HETATM    4  C4  UNL     1      -1.374   2.169   0.104  1.00  0.00     0.004 C 
HETATM    5  C5  UNL     1       0.148   1.976   0.010  1.00  0.00     0.049 C 
HETATM    6  C6  UNL     1       0.452   0.615   0.472  1.00  0.00     0.173 C 
HETATM    7  O1  UNL     1      -0.439   0.147   1.450  1.00  0.00    -0.219 OA
HETATM    8  O2  UNL     1      -0.629  -1.134   1.211  1.00  0.00    -0.200 OA
HETATM    9  C7  UNL     1      -1.448  -1.173   0.059  1.00  0.00     0.199 C 
HETATM   10  C8  UNL     1      -2.049  -2.537  -0.077  1.00  0.00     0.082 C 
HETATM   11  O3  UNL     1      -0.600  -0.965  -1.018  1.00  0.00    -0.319 OA
HETATM   12  C9  UNL     1       0.577  -0.344  -0.688  1.00  0.00     0.304 C 
HETATM   13  O4  UNL     1       1.470  -1.074   0.092  1.00  0.00    -0.348 OA
HETATM   14  C10 UNL     1       1.812   0.156   0.706  1.00  0.00     0.187 C 
ENDROOT
BRANCH  14  15
HETATM   15  C11 UNL     1       2.973   0.756   0.023  1.00  0.00     0.140 C 
HETATM   16 CL1  UNL     1       3.218   2.470   0.310  1.00  0.00    -0.120 Cl
BRANCH  15  17
HETATM   17  C12 UNL     1       4.224   0.035   0.555  1.00  0.00     0.252 C 
BRANCH  17  18
HETATM   18  N1  UNL     1       4.164  -1.371   0.280  1.00  0.00    -0.078 N 
ATOM     19  H13 UNL     1       3.307  -1.789   0.642  1.00  0.00     0.274 HD
ATOM     20  H12 UNL     1       4.018  -1.554  -0.713  1.00  0.00     0.274 HD
ATOM     21  H11 UNL     1       4.993  -1.849   0.633  1.00  0.00     0.274 HD
ENDBRANCH  17  18
ENDBRANCH  15  17
ENDBRANCH  14  15
TORSDOF 3
