REMARK  4 active torsions:
REMARK  status: ('A' for Active; 'I' for Inactive)
REMARK    1  A    between atoms: C2_2  and  C3_4 
REMARK    2  A    between atoms: C3_4  and  C4_5 
REMARK       I    between atoms: N4_14  and  C9_15 
REMARK    3  A    between atoms: C9_15  and  O2_17 
REMARK    4  A    between atoms: O2_17  and  C10_18 
ROOT
HETATM    1  C4  UNL     1      -1.386   0.310   0.205  1.00  0.00     0.151 C 
HETATM    2  C5  UNL     1      -2.353   1.364   0.508  1.00  0.00     0.045 C 
HETATM    3  C6  UNL     1      -3.215   1.396   1.499  1.00  0.00     0.120 C 
HETATM    4  C7  UNL     1      -4.129   2.501   1.700  1.00  0.00     0.089 C 
HETATM    5  N1  UNL     1      -4.874   3.372   1.869  1.00  0.00    -0.192 NA
HETATM    6  N2  UNL     1      -2.171   2.355  -0.489  1.00  0.00    -0.331 N 
ATOM      7  H2  UNL     1      -2.852   3.073  -0.738  1.00  0.00     0.168 HD
HETATM    8  C8  UNL     1      -0.990   2.205  -1.041  1.00  0.00     0.200 C 
HETATM    9  N3  UNL     1      -0.477   3.023  -2.075  1.00  0.00    -0.063 NA
HETATM   10  N4  UNL     1      -0.325   1.107  -0.436  1.00  0.00    -0.256 N 
HETATM   11  C9  UNL     1       1.063   0.835  -0.447  1.00  0.00     0.370 C 
HETATM   12  O1  UNL     1       1.830   1.614  -1.037  1.00  0.00    -0.238 OA
ENDROOT
BRANCH   1  13
HETATM   13  C3  UNL     1      -1.802  -0.704  -0.790  1.00  0.00     0.069 C 
BRANCH  13  14
HETATM   14  C2  UNL     1      -3.018  -1.508  -0.472  1.00  0.00     0.168 C 
HETATM   15  C1  UNL     1      -2.878  -2.301   0.806  1.00  0.00     0.045 C 
HETATM   16  F1  UNL     1      -4.192  -0.838  -0.442  1.00  0.00    -0.250 F 
ENDBRANCH  13  14
ENDBRANCH   1  13
BRANCH  11  17
HETATM   17  O2  UNL     1       1.631  -0.264   0.171  1.00  0.00    -0.293 OA
BRANCH  17  18
HETATM   18  C10 UNL     1       2.974  -0.583   0.197  1.00  0.00     0.061 C 
HETATM   19  C11 UNL     1       3.148  -1.874   0.987  1.00  0.00     0.046 C 
HETATM   20  C12 UNL     1       3.511  -0.862  -1.201  1.00  0.00     0.046 C 
HETATM   21  C13 UNL     1       3.867   0.445   0.825  1.00  0.00     0.046 C 
ENDBRANCH  17  18
ENDBRANCH  11  17
TORSDOF 4
