REMARK  6 active torsions:
REMARK  status: ('A' for Active; 'I' for Inactive)
REMARK    1  A    between atoms: O1_2  and  C2_3 
REMARK    2  A    between atoms: C2_3  and  C3_4 
REMARK    3  A    between atoms: C4_5  and  C5_6 
REMARK    4  A    between atoms: C5_6  and  O2_7 
REMARK    5  A    between atoms: O2_7  and  C6_8 
REMARK    6  A    between atoms: C6_8  and  C7_10 
ROOT
HETATM    1  C7  UNL     1      -0.589   0.663   0.923  1.00  0.00     0.195 C 
HETATM    2  C8  UNL     1      -1.643  -0.367   1.064  1.00  0.00     0.038 C 
HETATM    3  C9  UNL     1      -3.069   0.143   0.921  1.00  0.00    -0.001 C 
HETATM    4  C10 UNL     1      -3.118   1.624   0.581  1.00  0.00     0.029 C 
HETATM    5  C11 UNL     1      -2.879   1.212  -0.856  1.00  0.00     0.103 C 
HETATM    6  N1  UNL     1      -1.493   1.148  -1.161  1.00  0.00    -0.142 NA
HETATM    7  N2  UNL     1      -0.649   1.601  -0.119  1.00  0.00    -0.133 NA
HETATM    8  C12 UNL     1      -3.543  -0.112  -0.515  1.00  0.00    -0.025 C 
HETATM    9  C13 UNL     1      -5.052   0.016  -0.599  1.00  0.00     0.017 C 
HETATM   10  C14 UNL     1      -3.005  -1.330  -1.173  1.00  0.00     0.017 C 
ENDROOT
BRANCH   1  11
HETATM   11  C6  UNL     1       0.702  -0.140   0.820  1.00  0.00     0.280 C 
HETATM   12  O3  UNL     1       1.343  -0.557   1.794  1.00  0.00    -0.263 OA
BRANCH  11  13
HETATM   13  O2  UNL     1       1.171  -0.415  -0.451  1.00  0.00    -0.308 OA
BRANCH  13  14
HETATM   14  C5  UNL     1       2.223  -1.175  -0.820  1.00  0.00     0.272 C 
BRANCH  14  15
HETATM   15  C4  UNL     1       3.500  -1.039  -0.249  1.00  0.00    -0.078 C 
HETATM   16  C3  UNL     1       4.613  -1.052   0.206  1.00  0.00    -0.078 C 
BRANCH  16  17
HETATM   17  C2  UNL     1       6.001  -1.188   0.759  1.00  0.00     0.260 C 
BRANCH  17  18
HETATM   18  O1  UNL     1       6.504   0.075   0.821  1.00  0.00    -0.384 OA
HETATM   19  C1  UNL     1       6.571   0.737  -0.410  1.00  0.00     0.202 C 
ENDBRANCH  17  18
ENDBRANCH  16  17
ENDBRANCH  14  15
ENDBRANCH  13  14
ENDBRANCH  11  13
ENDBRANCH   1  11
TORSDOF 6
