REMARK  4 active torsions:
REMARK  status: ('A' for Active; 'I' for Inactive)
REMARK    1  A    between atoms: C2_2  and  N1_4 
REMARK    2  A    between atoms: C7_8  and  C8_9 
REMARK    3  A    between atoms: C8_9  and  N3_14 
REMARK    4  A    between atoms: N2_10  and  O1_12 
ROOT
HETATM    1  C8  UNL     1       1.450  -0.608   0.035  1.00  0.00     0.109 C 
HETATM    2  N2  UNL     1       1.173  -1.733   0.603  1.00  0.00    -0.256 N 
ATOM      3  H2  UNL     1       0.204  -1.987   0.793  1.00  0.00     0.195 HD
ENDROOT
BRANCH   1   4
HETATM    4  C7  UNL     1       0.313   0.279  -0.320  1.00  0.00     0.083 C 
HETATM    5  C6  UNL     1       0.362   1.599   0.377  1.00  0.00     0.016 C 
HETATM    6  C5  UNL     1      -0.955   2.179   0.758  1.00  0.00     0.031 C 
HETATM    7  C4  UNL     1      -1.938   1.105   1.184  1.00  0.00     0.273 C 
HETATM    8  N1  UNL     1      -2.144   0.284  -0.021  1.00  0.00     0.093 N 
HETATM    9  C12 UNL     1      -0.941  -0.494  -0.173  1.00  0.00     0.285 C 
BRANCH   8  10
HETATM   10  C2  UNL     1      -3.231  -0.666   0.214  1.00  0.00     0.215 C 
HETATM   11  C1  UNL     1      -4.535   0.013   0.476  1.00  0.00     0.042 C 
HETATM   12  C3  UNL     1      -3.365  -1.470  -1.073  1.00  0.00     0.042 C 
ENDBRANCH   8  10
ENDBRANCH   1   4
BRANCH   1  13
HETATM   13  N3  UNL     1       2.809  -0.249  -0.229  1.00  0.00    -0.339 N 
HETATM   14  C9  UNL     1       3.838  -0.494   0.701  1.00  0.00     0.076 C 
HETATM   15  C10 UNL     1       4.880   0.575   0.647  1.00  0.00     0.120 C 
HETATM   16  S1  UNL     1       4.965   0.823  -1.173  1.00  0.00    -0.144 SA
HETATM   17  C11 UNL     1       3.202   0.377  -1.451  1.00  0.00     0.203 C 
ENDBRANCH   1  13
BRANCH   2  18
HETATM   18  O1  UNL     1       2.188  -2.582   0.949  1.00  0.00    -0.288 OA
ATOM     19  H1  UNL     1       1.984  -3.410   1.367  1.00  0.00     0.244 HD
ENDBRANCH   2  18
TORSDOF 4
