REMARK  4 active torsions:
REMARK  status: ('A' for Active; 'I' for Inactive)
REMARK    1  A    between atoms: C12_15  and  C13_16 
REMARK       I    between atoms: C13_16  and  N3_18 
REMARK    2  A    between atoms: N3_18  and  C14_20 
REMARK    3  A    between atoms: C14_20  and  C15_21 
REMARK    4  A    between atoms: C15_21  and  N4_22 
ROOT
HETATM    1  C1  UNL     1      -1.436  -0.339  -2.223  1.00  0.00     0.052 C 
HETATM    2  C2  UNL     1      -2.406  -0.019  -1.135  1.00  0.00    -0.022 A 
HETATM    3  C3  UNL     1      -1.974   0.629   0.003  1.00  0.00     0.023 A 
HETATM    4  C4  UNL     1      -2.884   0.919   1.004  1.00  0.00    -0.019 A 
HETATM    5  C5  UNL     1      -4.199   0.538   0.806  1.00  0.00     0.099 A 
HETATM    6  N1  UNL     1      -4.592  -0.100  -0.329  1.00  0.00    -0.364 N 
HETATM    7  C6  UNL     1      -5.988  -0.500  -0.529  1.00  0.00     0.155 C 
HETATM    8  C7  UNL     1      -3.727  -0.393  -1.315  1.00  0.00     0.014 A 
HETATM    9  C8  UNL     1      -4.151  -1.096  -2.570  1.00  0.00     0.069 C 
HETATM   10  C9  UNL     1      -2.705   1.588   2.299  1.00  0.00     0.036 C 
HETATM   11  C10 UNL     1      -4.025   2.259   2.705  1.00  0.00     0.017 C 
HETATM   12  C11 UNL     1      -1.667   2.665   2.317  1.00  0.00     0.147 C 
HETATM   13  N2  UNL     1      -0.309   2.179   2.390  1.00  0.00    -0.309 N 
HETATM   14  S1  UNL     1       1.005   2.181   3.434  1.00  0.00    -0.003 SA
HETATM   15  C12 UNL     1       1.643   1.306   2.127  1.00  0.00     0.123 A 
HETATM   16  C18 UNL     1       0.411   1.476   1.503  1.00  0.00     0.107 A 
HETATM   17  S2  UNL     1      -0.243   0.952  -0.102  1.00  0.00    -0.069 SA
ENDROOT
BRANCH  15  18
HETATM   18  C13 UNL     1       2.920   0.679   1.838  1.00  0.00     0.262 C 
HETATM   19  O1  UNL     1       3.836   0.740   2.683  1.00  0.00    -0.267 OA
HETATM   20  N3  UNL     1       3.179  -0.010   0.621  1.00  0.00    -0.355 N 
ATOM     21  H3  UNL     1       2.439  -0.069  -0.078  1.00  0.00     0.162 HD
BRANCH  20  22
HETATM   22  C14 UNL     1       4.450  -0.628   0.341  1.00  0.00     0.153 C 
BRANCH  22  23
HETATM   23  C15 UNL     1       4.420  -1.273  -1.006  1.00  0.00     0.291 C 
BRANCH  23  24
HETATM   24  N4  UNL     1       5.625  -1.922  -1.404  1.00  0.00     0.081 N 
HETATM   25  C16 UNL     1       6.736  -1.059  -1.658  1.00  0.00     0.309 C 
HETATM   26  C17 UNL     1       5.985  -3.078  -0.639  1.00  0.00     0.309 C 
ENDBRANCH  23  24
ENDBRANCH  22  23
ENDBRANCH  20  22
ENDBRANCH  15  18
TORSDOF 4
