REMARK  8 active torsions:
REMARK  status: ('A' for Active; 'I' for Inactive)
REMARK    1  A    between atoms: N1_6  and  N2_7 
REMARK    2  A    between atoms: N1_6  and  C6_10 
REMARK    3  A    between atoms: C6_10  and  C7_11 
REMARK    4  A    between atoms: C7_11  and  O1_12 
REMARK    5  A    between atoms: O1_12  and  N3_13 
REMARK    6  A    between atoms: N3_13  and  C8_15 
REMARK    7  A    between atoms: C8_15  and  C9_19 
REMARK    8  A    between atoms: N5_20  and  N6_22 
ROOT
HETATM    1  N3  UNL     1       1.969   0.059  -1.341  1.00  0.00    -0.250 N 
ATOM      2  H3  UNL     1       1.675  -0.380  -2.214  1.00  0.00     0.196 HD
ENDROOT
BRANCH   1   3
HETATM    3  O1  UNL     1       1.105   0.869  -0.690  1.00  0.00    -0.277 OA
BRANCH   3   4
HETATM    4  C7  UNL     1      -0.064   0.200  -0.339  1.00  0.00     0.231 C 
BRANCH   4   5
HETATM    5  C6  UNL     1      -1.033   1.099   0.388  1.00  0.00     0.293 C 
BRANCH   5   6
HETATM    6  N1  UNL     1      -2.202   0.311   0.704  1.00  0.00     0.009 N 
HETATM    7  C5  UNL     1      -3.237   1.039   1.363  1.00  0.00     0.265 C 
HETATM    8  C4  UNL     1      -4.473   0.206   1.034  1.00  0.00     0.041 C 
HETATM    9  C2  UNL     1      -4.223  -0.305  -0.344  1.00  0.00    -0.020 C 
HETATM   10  C1  UNL     1      -5.026   0.494  -1.367  1.00  0.00     0.016 C 
HETATM   11  C3  UNL     1      -4.608  -1.755  -0.521  1.00  0.00     0.016 C 
HETATM   12  C11 UNL     1      -2.747  -0.176  -0.548  1.00  0.00     0.273 C 
BRANCH   6  13
HETATM   13  N2  UNL     1      -1.772  -0.762   1.496  1.00  0.00    -0.261 N 
ATOM     14  H22 UNL     1      -2.156  -0.980   2.415  1.00  0.00     0.183 HD
ATOM     15  H21 UNL     1      -1.032  -1.282   1.025  1.00  0.00     0.183 HD
ENDBRANCH   6  13
ENDBRANCH   5   6
ENDBRANCH   4   5
ENDBRANCH   3   4
ENDBRANCH   1   3
BRANCH   1  16
HETATM   16  C8  UNL     1       3.270  -0.197  -0.846  1.00  0.00     0.136 C 
HETATM   17  N4  UNL     1       4.194  -0.533  -1.668  1.00  0.00    -0.383 N 
ATOM     18  H42 UNL     1       3.958  -0.605  -2.658  1.00  0.00     0.157 HD
ATOM     19  H41 UNL     1       5.132  -0.717  -1.311  1.00  0.00     0.157 HD
BRANCH  16  20
HETATM   20  C9  UNL     1       3.607  -0.094   0.569  1.00  0.00     0.156 C 
HETATM   21  N5  UNL     1       4.766  -0.314   1.069  1.00  0.00    -0.306 N 
ATOM     22  H5  UNL     1       4.894  -0.213   2.076  1.00  0.00     0.186 HD
BRANCH  21  23
HETATM   23  N6  UNL     1       5.844  -0.682   0.298  1.00  0.00    -0.276 N 
HETATM   24  C10 UNL     1       6.960  -0.052   0.386  1.00  0.00     0.215 C 
HETATM   25  N7  UNL     1       8.038  -0.472  -0.431  1.00  0.00    -0.065 NA
HETATM   26  N8  UNL     1       7.089   1.030   1.282  1.00  0.00    -0.065 NA
ATOM     27  H6  UNL     1       5.756  -1.464  -0.351  1.00  0.00     0.189 HD
ENDBRANCH  21  23
ENDBRANCH  16  20
ENDBRANCH   1  16
TORSDOF 8
