REMARK  7 active torsions:
REMARK  status: ('A' for Active; 'I' for Inactive)
REMARK    1  A    between atoms: C1_2  and  N2_4 
REMARK    2  A    between atoms: C2_6  and  N3_7 
REMARK    3  A    between atoms: N3_7  and  N4_9 
REMARK       I    between atoms: N4_9  and  C3_11 
REMARK       I    between atoms: C3_11  and  N5_13 
REMARK    4  A    between atoms: N5_13  and  C4_15 
REMARK    5  A    between atoms: C4_15  and  C5_16 
REMARK    6  A    between atoms: C5_16  and  S2_17 
REMARK    7  A    between atoms: S2_17  and  N6_18 
ROOT
HETATM    1  N4  UNL     1       1.321  -0.826   0.457  1.00  0.00    -0.251 N 
ATOM      2  H4  UNL     1       1.314  -0.976  -0.552  1.00  0.00     0.191 HD
HETATM    3  C3  UNL     1       0.166  -0.305   1.085  1.00  0.00     0.334 C 
HETATM    4  O1  UNL     1       0.148  -0.112   2.319  1.00  0.00    -0.246 OA
HETATM    5  N5  UNL     1      -0.983   0.003   0.318  1.00  0.00    -0.341 N 
ATOM      6  H5  UNL     1      -0.964  -0.157  -0.689  1.00  0.00     0.164 HD
ENDROOT
BRANCH   1   7
HETATM    7  N3  UNL     1       2.462  -1.138   1.179  1.00  0.00    -0.292 N 
ATOM      8  H3  UNL     1       2.669  -2.107   1.420  1.00  0.00     0.187 HD
BRANCH   7   9
HETATM    9  C2  UNL     1       3.334  -0.107   1.578  1.00  0.00     0.199 C 
HETATM   10  N2  UNL     1       4.389   0.170   0.910  1.00  0.00    -0.331 N 
ATOM     11  H2  UNL     1       4.976   0.929   1.257  1.00  0.00     0.168 HD
BRANCH  10  12
HETATM   12  C1  UNL     1       4.809  -0.487  -0.268  1.00  0.00     0.185 C 
HETATM   13  N1  UNL     1       5.658   0.224  -1.154  1.00  0.00    -0.070 NA
HETATM   14  S1  UNL     1       4.382  -2.007  -0.673  1.00  0.00    -0.044 SA
ENDBRANCH  10  12
ENDBRANCH   7   9
ENDBRANCH   1   7
BRANCH   5  15
HETATM   15  C4  UNL     1      -2.183   0.538   0.922  1.00  0.00     0.141 C 
BRANCH  15  16
HETATM   16  C5  UNL     1      -3.290   0.796  -0.034  1.00  0.00     0.182 C 
BRANCH  16  17
HETATM   17  S2  UNL     1      -3.890  -0.597  -0.905  1.00  0.00     0.226 S 
HETATM   18  O2  UNL     1      -4.541  -1.572   0.068  1.00  0.00    -0.206 OA
HETATM   19  O3  UNL     1      -2.854  -1.370  -1.638  1.00  0.00    -0.206 OA
BRANCH  17  20
HETATM   20  N6  UNL     1      -5.179  -0.097  -1.970  1.00  0.00    -0.328 N 
ATOM     21  H62 UNL     1      -5.518   0.861  -2.059  1.00  0.00     0.168 HD
ATOM     22  H61 UNL     1      -5.529  -0.909  -2.478  1.00  0.00     0.168 HD
ENDBRANCH  17  20
ENDBRANCH  16  17
ENDBRANCH  15  16
ENDBRANCH   5  15
TORSDOF 7
