REMARK  6 active torsions:
REMARK  status: ('A' for Active; 'I' for Inactive)
REMARK    1  A    between atoms: C3_3  and  O1_4 
REMARK    2  A    between atoms: O1_4  and  C4_5 
REMARK    3  A    between atoms: C4_5  and  C5_6 
REMARK    4  A    between atoms: C5_6  and  C6_7 
REMARK       I    between atoms: C6_7  and  N1_9 
REMARK    5  A    between atoms: N1_9  and  N2_11 
REMARK       I    between atoms: N2_11  and  C7_13 
REMARK       I    between atoms: N4_15  and  C8_17 
REMARK    6  A    between atoms: C8_17  and  C9_19 
ROOT
HETATM    1  C1  UNL     1       6.927   1.738   1.711  1.00  0.00     0.014 C 
HETATM    2  C2  UNL     1       6.668   1.154   0.691  1.00  0.00    -0.091 C 
HETATM    3  C3  UNL     1       6.369   0.459  -0.561  1.00  0.00     0.260 C 
ENDROOT
BRANCH   3   4
HETATM    4  O1  UNL     1       5.089  -0.071  -0.598  1.00  0.00    -0.379 OA
BRANCH   4   5
HETATM    5  C4  UNL     1       4.902  -0.985   0.416  1.00  0.00     0.178 C 
BRANCH   5   6
HETATM    6  C5  UNL     1       3.519  -1.557   0.383  1.00  0.00     0.131 C 
BRANCH   6   7
HETATM    7  C6  UNL     1       2.493  -0.498   0.539  1.00  0.00     0.238 C 
HETATM    8  O2  UNL     1       2.905   0.695   0.658  1.00  0.00    -0.272 OA
HETATM    9  N1  UNL     1       1.106  -0.785   0.557  1.00  0.00    -0.268 N 
ATOM     10  H1  UNL     1       0.814  -1.757   0.458  1.00  0.00     0.190 HD
BRANCH   9  11
HETATM   11  N2  UNL     1       0.120   0.186   0.702  1.00  0.00    -0.271 N 
HETATM   12  C7  UNL     1      -0.925   0.294  -0.250  1.00  0.00     0.209 C 
HETATM   13  N3  UNL     1      -0.881   1.368  -1.174  1.00  0.00    -0.062 NA
HETATM   14  N4  UNL     1      -1.907  -0.530  -0.316  1.00  0.00    -0.300 N 
HETATM   15  C8  UNL     1      -2.936  -0.420  -1.259  1.00  0.00     0.229 C 
ATOM     16  H4  UNL     1      -1.939  -1.302   0.350  1.00  0.00     0.171 HD
HETATM   17  O3  UNL     1      -2.598  -0.482  -2.493  1.00  0.00    -0.273 OA
ATOM     18  H2  UNL     1       0.149   0.824   1.498  1.00  0.00     0.189 HD
BRANCH  15  19
HETATM   19  C9  UNL     1      -4.359  -0.240  -0.986  1.00  0.00     0.105 C 
HETATM   20  C10 UNL     1      -4.693   1.063  -0.266  1.00  0.00     0.043 C 
HETATM   21  C11 UNL     1      -6.159   0.758   0.082  1.00  0.00     0.233 C 
HETATM   22  N5  UNL     1      -6.034  -0.569   0.654  1.00  0.00    -0.074 N 
HETATM   23  C12 UNL     1      -4.917  -1.228   0.036  1.00  0.00     0.246 C 
ATOM     24  H52 UNL     1      -5.965  -0.552   1.671  1.00  0.00     0.277 HD
ATOM     25  H51 UNL     1      -6.896  -1.109   0.582  1.00  0.00     0.277 HD
ENDBRANCH  15  19
ENDBRANCH   9  11
ENDBRANCH   6   7
ENDBRANCH   5   6
ENDBRANCH   4   5
ENDBRANCH   3   4
TORSDOF 6
