REMARK  6 active torsions:
REMARK  status: ('A' for Active; 'I' for Inactive)
REMARK    1  A    between atoms: C1_2  and  C2_4 
REMARK    2  A    between atoms: C2_4  and  N2_5 
REMARK       I    between atoms: N2_5  and  C3_6 
REMARK    3  A    between atoms: C3_6  and  C4_8 
REMARK       I    between atoms: C4_8  and  N3_10 
REMARK    4  A    between atoms: N3_10  and  C5_12 
REMARK    5  A    between atoms: C5_12  and  C6_13 
REMARK    6  A    between atoms: C6_13  and  N4_14 
REMARK       I    between atoms: N4_14  and  C7_16 
REMARK       I    between atoms: C7_16  and  N5_18 
ROOT
HETATM    1  C4  UNL     1       2.766  -0.208  -0.060  1.00  0.00     0.324 C 
HETATM    2  O3  UNL     1       3.496  -0.366   0.940  1.00  0.00    -0.261 OA
HETATM    3  N3  UNL     1       1.397   0.025   0.222  1.00  0.00    -0.350 N 
ATOM      4  H3  UNL     1       0.745   0.178  -0.548  1.00  0.00     0.163 HD
ENDROOT
BRANCH   3   5
HETATM    5  C5  UNL     1       0.912   0.049   1.573  1.00  0.00     0.143 C 
BRANCH   5   6
HETATM    6  C6  UNL     1      -0.478   0.554   1.699  1.00  0.00     0.144 C 
BRANCH   6   7
HETATM    7  N4  UNL     1      -1.485  -0.142   0.960  1.00  0.00    -0.341 N 
HETATM    8  C7  UNL     1      -2.829   0.388   0.985  1.00  0.00     0.318 C 
HETATM    9  O4  UNL     1      -2.986   1.459   1.672  1.00  0.00    -0.247 OA
HETATM   10  N5  UNL     1      -3.892  -0.186   0.312  1.00  0.00    -0.334 N 
HETATM   11  C8  UNL     1      -5.234   0.427   0.230  1.00  0.00     0.127 C 
HETATM   12  C11 UNL     1      -4.001  -1.472  -0.385  1.00  0.00     0.127 C 
HETATM   13  C9  UNL     1      -6.191  -0.726   0.053  1.00  0.00     0.022 C 
HETATM   14  C10 UNL     1      -5.308  -1.955   0.318  1.00  0.00     0.022 C 
ATOM     15  H4  UNL     1      -1.262  -0.986   0.432  1.00  0.00     0.164 HD
ENDBRANCH   6   7
ENDBRANCH   5   6
ENDBRANCH   3   5
BRANCH   1  16
HETATM   16  C3  UNL     1       3.227  -0.224  -1.455  1.00  0.00     0.383 C 
HETATM   17  N2  UNL     1       4.596   0.262  -1.811  1.00  0.00    -0.370 NA
HETATM   18  O2  UNL     1       2.390  -0.657  -2.279  1.00  0.00    -0.246 OA
BRANCH  17  19
HETATM   19  C2  UNL     1       5.706   0.656  -2.100  1.00  0.00     0.257 C 
BRANCH  19  20
HETATM   20  C1  UNL     1       6.608   1.349  -1.045  1.00  0.00     0.283 C 
HETATM   21  N1  UNL     1       6.229   1.545   0.280  1.00  0.00    -0.056 NA
HETATM   22  O1  UNL     1       7.710   1.732  -1.447  1.00  0.00    -0.269 OA
ENDBRANCH  19  20
ENDBRANCH  17  19
ENDBRANCH   1  16
TORSDOF 6
