REMARK  6 active torsions:
REMARK  status: ('A' for Active; 'I' for Inactive)
REMARK    1  A    between atoms: C2_2  and  C3_3 
REMARK       I    between atoms: C3_3  and  N1_5 
REMARK    2  A    between atoms: N1_5  and  C4_7 
REMARK    3  A    between atoms: C4_7  and  C5_8 
REMARK    4  A    between atoms: C5_8  and  N2_9 
REMARK       I    between atoms: N2_9  and  C6_11 
REMARK    5  A    between atoms: C6_11  and  C7_13 
REMARK    6  A    between atoms: C7_13  and  N3_14 
REMARK       I    between atoms: N4_20  and  C10_21 
ROOT
HETATM    1  C5  UNL     1       0.084  -0.249   0.089  1.00  0.00     0.068 C 
HETATM    2  C8  UNL     1       1.332  -1.095   0.605  1.00  0.00     0.056 C 
HETATM    3  C9  UNL     1       2.501  -0.933  -0.290  1.00  0.00     0.130 C 
HETATM    4  N4  UNL     1       2.626   0.409  -0.768  1.00  0.00    -0.336 N 
HETATM    5  C10 UNL     1       3.784   1.160  -0.529  1.00  0.00     0.330 C 
HETATM    6  N5  UNL     1       4.860   0.588   0.201  1.00  0.00    -0.040 NA
HETATM    7  O3  UNL     1       3.945   2.346  -0.927  1.00  0.00    -0.251 OA
HETATM    8  C11 UNL     1       1.480   0.939  -1.518  1.00  0.00     0.130 C 
HETATM    9  C12 UNL     1       0.309  -0.010  -1.330  1.00  0.00     0.056 C 
ENDROOT
BRANCH   1  10
HETATM   10  C4  UNL     1       0.052   0.952   0.971  1.00  0.00     0.095 C 
BRANCH  10  11
HETATM   11  N1  UNL     1      -1.118   1.719   1.018  1.00  0.00    -0.335 N 
HETATM   12  C3  UNL     1      -1.850   2.510   0.138  1.00  0.00     0.244 C 
HETATM   13  O1  UNL     1      -1.523   2.713  -1.040  1.00  0.00    -0.268 OA
ATOM     14  H1  UNL     1      -1.548   1.690   1.943  1.00  0.00     0.168 HD
BRANCH  12  15
HETATM   15  C2  UNL     1      -3.096   3.174   0.566  1.00  0.00     0.064 C 
HETATM   16  C1  UNL     1      -3.752   3.906  -0.291  1.00  0.00     0.017 C 
ENDBRANCH  12  15
ENDBRANCH  10  11
ENDBRANCH   1  10
BRANCH   1  17
HETATM   17  N2  UNL     1      -1.006  -1.124   0.464  1.00  0.00    -0.346 N 
HETATM   18  C6  UNL     1      -1.288  -2.362  -0.147  1.00  0.00     0.244 C 
HETATM   19  O2  UNL     1      -0.628  -2.859  -1.091  1.00  0.00    -0.272 OA
ATOM     20  H2  UNL     1      -1.614  -0.823   1.226  1.00  0.00     0.163 HD
BRANCH  18  21
HETATM   21  C7  UNL     1      -2.439  -3.180   0.321  1.00  0.00     0.332 C 
BRANCH  21  22
HETATM   22  N3  UNL     1      -2.599  -4.407  -0.392  1.00  0.00    -0.071 N 
ATOM     23  H33 UNL     1      -2.664  -4.234  -1.395  1.00  0.00     0.274 HD
ATOM     24  H32 UNL     1      -1.737  -4.952  -0.368  1.00  0.00     0.274 HD
ATOM     25  H31 UNL     1      -3.388  -4.968  -0.071  1.00  0.00     0.274 HD
ENDBRANCH  21  22
ENDBRANCH  18  21
ENDBRANCH   1  17
TORSDOF 6
