REMARK  10 active torsions:
REMARK  status: ('A' for Active; 'I' for Inactive)
REMARK    1  A    between atoms: C2_2  and  N1_3 
REMARK       I    between atoms: N1_3  and  C3_5 
REMARK       I    between atoms: C3_5  and  N2_7 
REMARK    2  A    between atoms: N2_7  and  C4_9 
REMARK    3  A    between atoms: C5_12  and  N4_13 
REMARK    4  A    between atoms: C8_16  and  C9_17 
REMARK    5  A    between atoms: C8_16  and  C11_19 
REMARK    6  A    between atoms: C11_19  and  C12_20 
REMARK    7  A    between atoms: C12_20  and  C13_21 
REMARK    8  A    between atoms: C13_21  and  C14_22 
REMARK    9  A    between atoms: C14_22  and  N5_23 
REMARK   10  A    between atoms: C17_30  and  N6_31 
ROOT
HETATM    1  C4  UNL     1      -3.388   0.415  -0.092  1.00  0.00     0.689 A 
HETATM    2  N3  UNL     1      -2.083   0.669   0.114  1.00  0.00    -0.173 N 
ATOM      3  H3  UNL     1      -1.808   1.598   0.432  1.00  0.00     0.186 HD
HETATM    4  C5  UNL     1      -1.130  -0.255  -0.083  1.00  0.00     0.162 A 
HETATM    5  C16 UNL     1      -1.546  -1.487  -0.512  1.00  0.00     0.204 A 
HETATM    6  F1  UNL     1      -0.682  -2.482  -0.739  1.00  0.00    -0.198 F 
HETATM    7  C17 UNL     1      -2.896  -1.764  -0.731  1.00  0.00     0.162 A 
HETATM    8  N7  UNL     1      -3.797  -0.799  -0.515  1.00  0.00    -0.173 N 
ATOM      9  H7  UNL     1      -4.789  -0.980  -0.669  1.00  0.00     0.186 HD
ENDROOT
BRANCH   4  10
HETATM   10  N4  UNL     1       0.269  -0.013   0.123  1.00  0.00    -0.363 N 
HETATM   11  C6  UNL     1       0.723   1.290   0.607  1.00  0.00     0.125 C 
HETATM   12  C7  UNL     1       2.087   1.005   1.133  1.00  0.00     0.031 C 
HETATM   13  C8  UNL     1       2.649  -0.065   0.219  1.00  0.00    -0.023 C 
HETATM   14  C15 UNL     1       1.356  -0.899  -0.087  1.00  0.00     0.134 C 
BRANCH  13  15
HETATM   15  C9  UNL     1       3.571  -1.004   0.901  1.00  0.00     0.007 C 
HETATM   16  C10 UNL     1       2.874  -1.752   2.021  1.00  0.00     0.006 C 
ENDBRANCH  13  15
BRANCH  13  17
HETATM   17  C11 UNL     1       3.051   0.469  -1.092  1.00  0.00     0.011 C 
BRANCH  17  18
HETATM   18  C12 UNL     1       4.043   1.537  -1.224  1.00  0.00     0.002 C 
BRANCH  18  19
HETATM   19  C13 UNL     1       5.419   1.268  -0.696  1.00  0.00     0.027 C 
BRANCH  19  20
HETATM   20  C14 UNL     1       6.282   2.502  -1.003  1.00  0.00     0.229 C 
BRANCH  20  21
HETATM   21  N5  UNL     1       7.628   2.321  -0.524  1.00  0.00    -0.079 N 
ATOM     22  H53 UNL     1       7.646   2.086   0.468  1.00  0.00     0.274 HD
ATOM     23  H52 UNL     1       8.047   1.467  -0.892  1.00  0.00     0.274 HD
ATOM     24  H51 UNL     1       8.201   3.140  -0.728  1.00  0.00     0.274 HD
ENDBRANCH  20  21
ENDBRANCH  19  20
ENDBRANCH  18  19
ENDBRANCH  17  18
ENDBRANCH  13  17
ENDBRANCH   4  10
BRANCH   1  25
HETATM   25  N2  UNL     1      -4.307   1.301   0.097  1.00  0.00    -0.141 N 
HETATM   26  C3  UNL     1      -4.056   2.616   0.536  1.00  0.00     0.334 C 
HETATM   27  N1  UNL     1      -3.954   2.944   1.900  1.00  0.00    -0.343 N 
HETATM   28  O1  UNL     1      -3.920   3.522  -0.322  1.00  0.00    -0.247 OA
ATOM     29  H1  UNL     1      -4.066   2.203   2.592  1.00  0.00     0.164 HD
ATOM     30  H2  UNL     1      -5.275   1.033  -0.082  1.00  0.00     0.189 HD
BRANCH  27  31
HETATM   31  C2  UNL     1      -3.695   4.299   2.364  1.00  0.00     0.120 C 
HETATM   32  C1  UNL     1      -2.390   4.823   1.842  1.00  0.00     0.026 C 
ENDBRANCH  27  31
ENDBRANCH   1  25
BRANCH   7  33
HETATM   33  N6  UNL     1      -3.353  -3.031  -1.173  1.00  0.00    -0.360 N 
HETATM   34  C18 UNL     1      -3.683  -4.006  -0.154  1.00  0.00     0.151 C 
HETATM   35  C19 UNL     1      -4.401  -5.199  -0.704  1.00  0.00     0.187 C 
HETATM   36  O2  UNL     1      -4.064  -5.449  -2.031  1.00  0.00    -0.388 OA
HETATM   37  C20 UNL     1      -4.458  -4.365  -2.821  1.00  0.00     0.187 C 
HETATM   38  C21 UNL     1      -3.457  -3.263  -2.584  1.00  0.00     0.151 C 
ENDBRANCH   7  33
TORSDOF 10
