REMARK  10 active torsions:
REMARK  status: ('A' for Active; 'I' for Inactive)
REMARK    1  A    between atoms: N1_7  and  C6_9 
REMARK    2  A    between atoms: C6_9  and  C7_11 
REMARK    3  A    between atoms: C7_11  and  C8_12 
REMARK    4  A    between atoms: C7_11  and  C15_19 
REMARK    5  A    between atoms: C8_12  and  C9_13 
REMARK    6  A    between atoms: C9_13  and  C10_14 
REMARK    7  A    between atoms: C15_19  and  C16_21 
REMARK    8  A    between atoms: C16_21  and  O3_22 
REMARK    9  A    between atoms: C17_24  and  O4_25 
REMARK   10  A    between atoms: C17_24  and  C18_27 
ROOT
HETATM    1  C1  UNL     1       6.060  -0.830  -1.342  1.00  0.00     0.078 C 
HETATM    2  C2  UNL     1       5.457  -0.503  -0.000  1.00  0.00     0.158 C 
HETATM    3  C3  UNL     1       6.250  -1.054   1.137  1.00  0.00     0.078 C 
HETATM    4  O1  UNL     1       4.093  -0.872   0.056  1.00  0.00    -0.342 OA
HETATM    5  C4  UNL     1       3.568  -0.058  -0.918  1.00  0.00     0.206 C 
HETATM    6  C5  UNL     1       2.237   0.578  -0.584  1.00  0.00     0.054 C 
HETATM    7  N1  UNL     1       1.080   0.145  -0.867  1.00  0.00    -0.361 N 
ATOM      8  H1  UNL     1       1.074  -0.736  -1.380  1.00  0.00     0.162 HD
HETATM    9  C17 UNL     1       2.987   1.657   0.062  1.00  0.00     0.136 C 
HETATM   10  C19 UNL     1       4.261   1.253  -0.669  1.00  0.00     0.201 C 
HETATM   11  O5  UNL     1       5.317   0.894   0.164  1.00  0.00    -0.344 OA
ENDROOT
BRANCH   7  12
HETATM   12  C6  UNL     1      -0.175   0.658  -0.602  1.00  0.00     0.280 C 
HETATM   13  F1  UNL     1      -0.252   1.473   0.511  1.00  0.00    -0.226 F 
BRANCH  12  14
HETATM   14  C7  UNL     1      -1.217  -0.432  -0.488  1.00  0.00     0.111 C 
BRANCH  14  15
HETATM   15  C8  UNL     1      -2.584   0.113  -0.206  1.00  0.00     0.017 C 
BRANCH  15  16
HETATM   16  C9  UNL     1      -3.564  -0.991  -0.070  1.00  0.00     0.005 C 
BRANCH  16  17
HETATM   17  C10 UNL     1      -4.969  -0.516   0.224  1.00  0.00    -0.014 C 
HETATM   18  C11 UNL     1      -5.547   0.375  -0.821  1.00  0.00     0.004 C 
HETATM   19  C12 UNL     1      -6.784   0.927  -0.106  1.00  0.00     0.000 C 
HETATM   20  C13 UNL     1      -6.438   0.926   1.359  1.00  0.00     0.000 C 
HETATM   21  C14 UNL     1      -5.088   0.252   1.496  1.00  0.00     0.004 C 
ENDBRANCH  16  17
ENDBRANCH  15  16
ENDBRANCH  14  15
BRANCH  14  22
HETATM   22  C15 UNL     1      -1.138  -1.351  -1.631  1.00  0.00     0.158 C 
HETATM   23  O2  UNL     1      -1.946  -1.269  -2.581  1.00  0.00    -0.295 OA
BRANCH  22  24
HETATM   24  C16 UNL     1      -0.136  -2.429  -1.794  1.00  0.00     0.242 C 
BRANCH  24  25
HETATM   25  O3  UNL     1       0.563  -2.663  -0.641  1.00  0.00    -0.394 OA
ATOM     26  H3  UNL     1       1.206  -3.355  -0.746  1.00  0.00     0.209 HD
ENDBRANCH  24  25
ENDBRANCH  22  24
ENDBRANCH  14  22
ENDBRANCH  12  14
ENDBRANCH   7  12
BRANCH   9  27
HETATM   27  O4  UNL     1       2.641   2.952  -0.330  1.00  0.00    -0.380 OA
ATOM     28  H4  UNL     1       3.128   3.652   0.089  1.00  0.00     0.211 HD
ENDBRANCH   9  27
BRANCH   9  29
HETATM   29  C18 UNL     1       3.176   1.602   1.545  1.00  0.00     0.132 C 
HETATM   30 BR1  UNL     1       4.208   3.183   2.048  1.00  0.00    -0.093 Br
ENDBRANCH   9  29
TORSDOF 10
