REMARK  5 active torsions:
REMARK  status: ('A' for Active; 'I' for Inactive)
REMARK    1  A    between atoms: C2_2  and  C3_3 
REMARK    2  A    between atoms: C5_5  and  O1_6 
REMARK    3  A    between atoms: C7_9  and  O2_10 
REMARK    4  A    between atoms: C8_12  and  O3_13 
REMARK    5  A    between atoms: C9_15  and  O4_16 
ROOT
HETATM    1  C3  UNL     1      -0.933   0.116   0.298  1.00  0.00    -0.000 C 
HETATM    2  C4  UNL     1      -0.154   0.529   1.573  1.00  0.00     0.053 C 
HETATM    3  C5  UNL     1       1.215   0.736   0.962  1.00  0.00     0.088 C 
HETATM    4  C6  UNL     1       1.275   1.820  -0.063  1.00  0.00     0.075 C 
HETATM    5  C7  UNL     1      -0.040   2.323  -0.528  1.00  0.00     0.150 C 
HETATM    6  C8  UNL     1      -1.192   1.388  -0.413  1.00  0.00     0.156 C 
HETATM    7  C9  UNL     1       1.408  -0.572   0.218  1.00  0.00     0.163 C 
HETATM    8  C11 UNL     1       0.005  -0.854  -0.289  1.00  0.00    -0.008 C 
HETATM    9  C12 UNL     1      -0.268  -2.291   0.182  1.00  0.00     0.018 C 
HETATM   10  C13 UNL     1       0.049  -0.942  -1.795  1.00  0.00     0.018 C 
ENDROOT
BRANCH   1  11
HETATM   11  C2  UNL     1      -2.212  -0.524   0.794  1.00  0.00     0.009 C 
HETATM   12  C1  UNL     1      -3.154  -0.997  -0.248  1.00  0.00     0.006 C 
ENDBRANCH   1  11
BRANCH   6  13
HETATM   13  O3  UNL     1      -1.821   1.283  -1.643  1.00  0.00    -0.392 OA
ATOM     14  H3  UNL     1      -1.987   2.099  -2.099  1.00  0.00     0.210 HD
ENDBRANCH   6  13
BRANCH   3  15
HETATM   15  O1  UNL     1       2.193   0.890   1.954  1.00  0.00    -0.387 OA
ATOM     16  H1  UNL     1       3.052   1.020   1.570  1.00  0.00     0.210 HD
ENDBRANCH   3  15
BRANCH   5  17
HETATM   17  O2  UNL     1      -0.271   3.555   0.135  1.00  0.00    -0.393 OA
ATOM     18  H2  UNL     1      -1.114   3.877  -0.163  1.00  0.00     0.210 HD
ENDBRANCH   5  17
BRANCH   7  19
HETATM   19  O4  UNL     1       2.296  -0.472  -0.820  1.00  0.00    -0.387 OA
HETATM   20  C10 UNL     1       3.400  -1.302  -0.660  1.00  0.00     0.202 C 
ENDBRANCH   7  19
TORSDOF 5
