REMARK  5 active torsions:
REMARK  status: ('A' for Active; 'I' for Inactive)
REMARK    1  A    between atoms: C2_2  and  N1_4 
REMARK    2  A    between atoms: C2_2  and  C6_10 
REMARK    3  A    between atoms: N1_4  and  C4_7 
REMARK    4  A    between atoms: C8_12  and  O1_13 
REMARK    5  A    between atoms: C10_16  and  O2_17 
ROOT
HETATM    1  C4  UNL     1      -3.432   1.097  -0.323  1.00  0.00     0.356 C 
HETATM    2  C5  UNL     1      -3.781   2.512  -0.523  1.00  0.00     0.086 C 
HETATM    3  N2  UNL     1      -4.050   3.640  -0.677  1.00  0.00    -0.196 NA
ENDROOT
BRANCH   1   4
HETATM    4  N1  UNL     1      -1.991   1.045  -0.124  1.00  0.00    -0.055 N 
ATOM      5  H12 UNL     1      -1.692   1.658   0.634  1.00  0.00     0.279 HD
ATOM      6  H11 UNL     1      -1.488   1.492  -0.890  1.00  0.00     0.279 HD
BRANCH   4   7
HETATM    7  C2  UNL     1      -1.545  -0.334   0.086  1.00  0.00     0.123 C 
HETATM    8  C1  UNL     1      -1.839  -1.087  -1.158  1.00  0.00     0.046 C 
HETATM    9  C3  UNL     1      -2.380  -0.976   1.201  1.00  0.00     0.046 C 
BRANCH   7  10
HETATM   10  C6  UNL     1      -0.160  -0.315   0.569  1.00  0.00     0.028 C 
HETATM   11  C7  UNL     1       0.404  -1.695   0.888  1.00  0.00     0.039 C 
HETATM   12  C8  UNL     1       1.865  -1.667   0.388  1.00  0.00     0.125 C 
HETATM   13  C9  UNL     1       2.105  -0.244   0.508  1.00  0.00     0.048 C 
HETATM   14  C10 UNL     1       3.230   0.462   0.006  1.00  0.00     0.125 C 
HETATM   15  C13 UNL     1       0.888   0.291  -0.281  1.00  0.00     0.001 C 
HETATM   16  C11 UNL     1       2.669   1.802  -0.418  1.00  0.00     0.032 C 
HETATM   17  C12 UNL     1       1.151   1.736  -0.180  1.00  0.00     0.008 C 
BRANCH  12  18
HETATM   18  O1  UNL     1       1.842  -2.225  -0.857  1.00  0.00    -0.395 OA
ATOM     19  H1  UNL     1       2.741  -2.208  -1.165  1.00  0.00     0.210 HD
ENDBRANCH  12  18
BRANCH  14  20
HETATM   20  O2  UNL     1       4.005  -0.122  -0.987  1.00  0.00    -0.395 OA
ATOM     21  H2  UNL     1       4.758   0.350  -1.323  1.00  0.00     0.210 HD
ENDBRANCH  14  20
ENDBRANCH   7  10
ENDBRANCH   4   7
ENDBRANCH   1   4
TORSDOF 5
