REMARK  14 active torsions:
REMARK  status: ('A' for Active; 'I' for Inactive)
REMARK    1  A    between atoms: C7_8  and  N2_9 
REMARK    2  A    between atoms: C9_13  and  C10_14 
REMARK    3  A    between atoms: C10_14  and  C11_16 
REMARK    4  A    between atoms: C13_18  and  C14_19 
REMARK    5  A    between atoms: N3_22  and  C15_23 
REMARK    6  A    between atoms: C15_23  and  C16_24 
REMARK       I    between atoms: C16_24  and  N4_26 
REMARK    7  A    between atoms: N4_26  and  C17_27 
REMARK    8  A    between atoms: N4_26  and  C20_31 
REMARK    9  A    between atoms: C17_27  and  C18_28 
REMARK   10  A    between atoms: C18_28  and  O7_29 
REMARK   11  A    between atoms: C20_31  and  N5_33 
REMARK   12  A    between atoms: N5_33  and  C21_35 
REMARK   13  A    between atoms: C21_35  and  C22_36 
REMARK   14  A    between atoms: C22_36  and  C23_37 
ROOT
HETATM    1  C1  UNL     1       6.003  -2.686  -2.740  1.00  0.00     0.018 C 
HETATM    2  C2  UNL     1       6.088  -1.691  -2.050  1.00  0.00    -0.075 C 
HETATM    3  C3  UNL     1       6.215  -0.522  -1.230  1.00  0.00     0.052 A 
HETATM    4  C4  UNL     1       7.498  -0.082  -0.977  1.00  0.00     0.066 A 
HETATM    5  C5  UNL     1       8.656  -0.771  -1.521  1.00  0.00     0.101 C 
HETATM    6  N1  UNL     1       9.586  -1.312  -1.948  1.00  0.00    -0.191 NA
HETATM    7  C6  UNL     1       7.658   1.033  -0.190  1.00  0.00     0.060 A 
HETATM    8  C7  UNL     1       6.579   1.716   0.348  1.00  0.00     0.105 A 
HETATM    9  C8  UNL     1       5.283   1.274   0.093  1.00  0.00     0.053 A 
HETATM   10  C9  UNL     1       5.135   0.152  -0.699  1.00  0.00     0.037 A 
ENDROOT
BRANCH  10  11
HETATM   11  C10 UNL     1       3.799  -0.318  -0.987  1.00  0.00     0.196 C 
HETATM   12  O3  UNL     1       3.589  -0.920  -2.084  1.00  0.00    -0.287 OA
BRANCH  11  13
HETATM   13  C11 UNL     1       2.647  -0.154  -0.100  1.00  0.00     0.040 A 
HETATM   14  C12 UNL     1       2.697  -0.010   1.269  1.00  0.00     0.054 A 
HETATM   15  C13 UNL     1       1.392   0.109   1.791  1.00  0.00     0.113 A 
HETATM   16  N3  UNL     1       0.590   0.034   0.722  1.00  0.00    -0.336 N 
HETATM   17  C25 UNL     1       1.305  -0.123  -0.417  1.00  0.00     0.023 A 
HETATM   18  C26 UNL     1       0.742  -0.242  -1.782  1.00  0.00     0.069 C 
BRANCH  15  19
HETATM   19  C14 UNL     1       1.079   0.268   3.198  1.00  0.00     0.227 C 
HETATM   20  O4  UNL     1      -0.094   0.359   3.588  1.00  0.00    -0.643 OA
HETATM   21  O5  UNL     1       2.092   0.323   4.138  1.00  0.00    -0.643 OA
ENDBRANCH  15  19
BRANCH  16  22
HETATM   22  C15 UNL     1      -0.882   0.119   0.754  1.00  0.00     0.232 C 
BRANCH  22  23
HETATM   23  C16 UNL     1      -1.489  -1.190   0.944  1.00  0.00     0.244 C 
HETATM   24  O6  UNL     1      -0.651  -2.169   1.063  1.00  0.00    -0.271 OA
HETATM   25  N4  UNL     1      -2.844  -1.567   1.019  1.00  0.00    -0.291 N 
BRANCH  25  26
HETATM   26  C17 UNL     1      -3.145  -3.018   1.229  1.00  0.00     0.160 C 
BRANCH  26  27
HETATM   27  C18 UNL     1      -3.294  -3.733  -0.071  1.00  0.00     0.187 C 
BRANCH  27  28
HETATM   28  O7  UNL     1      -2.167  -3.683  -0.867  1.00  0.00    -0.394 OA
HETATM   29  C19 UNL     1      -2.378  -4.365  -2.052  1.00  0.00     0.201 C 
ENDBRANCH  27  28
ENDBRANCH  26  27
ENDBRANCH  25  26
BRANCH  25  30
HETATM   30  C20 UNL     1      -3.990  -0.756   0.915  1.00  0.00     0.176 C 
HETATM   31  S1  UNL     1      -5.464  -1.536   1.055  1.00  0.00    -0.041 SA
BRANCH  30  32
HETATM   32  N5  UNL     1      -4.077   0.625   0.705  1.00  0.00    -0.367 N 
ATOM     33  H5  UNL     1      -3.230   1.185   0.605  1.00  0.00     0.161 HD
BRANCH  32  34
HETATM   34  C21 UNL     1      -5.402   1.262   0.630  1.00  0.00     0.122 C 
BRANCH  34  35
HETATM   35  C22 UNL     1      -5.235   2.759   0.396  1.00  0.00     0.019 C 
BRANCH  35  36
HETATM   36  C23 UNL     1      -6.590   3.426   0.318  1.00  0.00    -0.003 C 
HETATM   37  C24 UNL     1      -6.425   4.898   0.087  1.00  0.00     0.005 C 
ENDBRANCH  35  36
ENDBRANCH  34  35
ENDBRANCH  32  34
ENDBRANCH  30  32
ENDBRANCH  25  30
ENDBRANCH  22  23
ENDBRANCH  16  22
ENDBRANCH  11  13
ENDBRANCH  10  11
BRANCH   8  38
HETATM   38  N2  UNL     1       6.772   2.865   1.157  1.00  0.00    -0.116 N 
HETATM   39  O1  UNL     1       5.777   3.446   1.618  1.00  0.00    -0.532 OA
HETATM   40  O2  UNL     1       8.012   3.364   1.455  1.00  0.00    -0.532 OA
ENDBRANCH   8  38
TORSDOF 14
