REMARK  14 active torsions:
REMARK  status: ('A' for Active; 'I' for Inactive)
REMARK    1  A    between atoms: C2_2  and  C3_3 
REMARK    2  A    between atoms: C3_3  and  N1_4 
REMARK       I    between atoms: N1_4  and  C4_6 
REMARK    3  A    between atoms: C4_6  and  C5_8 
REMARK    4  A    between atoms: C5_8  and  C6_9 
REMARK    5  A    between atoms: C5_8  and  O2_16 
REMARK    6  A    between atoms: C6_9  and  C7_10 
REMARK    7  A    between atoms: C7_10  and  N2_11 
REMARK    8  A    between atoms: O2_16  and  C12_17 
REMARK       I    between atoms: C12_17  and  N3_19 
REMARK    9  A    between atoms: C15_22  and  C16_23 
REMARK   10  A    between atoms: C16_23  and  N4_24 
REMARK       I    between atoms: N4_24  and  C17_26 
REMARK   11  A    between atoms: C17_26  and  C18_28 
REMARK   12  A    between atoms: C20_30  and  C21_31 
REMARK   13  A    between atoms: N6_37  and  C25_38 
REMARK   14  A    between atoms: C25_38  and  C26_39 
ROOT
HETATM    1  C26 UNL     1       5.092  -4.109  -0.879  1.00  0.00     0.145 C 
HETATM    2  C27 UNL     1       4.718  -5.531  -0.693  1.00  0.00     0.060 C 
HETATM    3  N7  UNL     1       4.441  -6.643  -0.534  1.00  0.00    -0.197 NA
ENDROOT
BRANCH   1   4
HETATM    4  C25 UNL     1       5.647  -3.527   0.380  1.00  0.00     0.163 C 
BRANCH   4   5
HETATM    5  N6  UNL     1       6.015  -2.140   0.227  1.00  0.00    -0.286 N 
HETATM    6  C18 UNL     1       5.310  -1.041   0.431  1.00  0.00     0.120 A 
HETATM    7  C19 UNL     1       6.114   0.037   0.160  1.00  0.00     0.064 A 
HETATM    8  C20 UNL     1       7.342  -0.447  -0.220  1.00  0.00     0.036 A 
HETATM    9  N5  UNL     1       7.240  -1.777  -0.166  1.00  0.00    -0.301 N 
ATOM     10  H5  UNL     1       7.993  -2.427  -0.393  1.00  0.00     0.187 HD
BRANCH   6  11
HETATM   11  C17 UNL     1       3.901  -0.989   0.884  1.00  0.00     0.269 C 
HETATM   12  N4  UNL     1       3.367   0.264   1.249  1.00  0.00    -0.355 N 
ATOM     13  H4  UNL     1       4.012   1.053   1.210  1.00  0.00     0.162 HD
HETATM   14  O4  UNL     1       3.211  -2.024   0.938  1.00  0.00    -0.266 OA
BRANCH  12  15
HETATM   15  C16 UNL     1       2.046   0.561   1.663  1.00  0.00     0.127 C 
BRANCH  15  16
HETATM   16  C15 UNL     1       1.029   0.563   0.624  1.00  0.00     0.006 C 
HETATM   17  C14 UNL     1       0.744  -0.632  -0.194  1.00  0.00     0.026 C 
HETATM   18  C13 UNL     1      -0.532  -0.333  -1.020  1.00  0.00     0.128 C 
HETATM   19  N3  UNL     1      -0.898   1.060  -0.876  1.00  0.00    -0.328 N 
HETATM   20  C12 UNL     1      -2.232   1.413  -0.512  1.00  0.00     0.363 C 
HETATM   21  C29 UNL     1       0.113   2.080  -1.120  1.00  0.00     0.128 C 
HETATM   22  O3  UNL     1      -2.504   2.630  -0.340  1.00  0.00    -0.238 OA
HETATM   23  C28 UNL     1       1.342   1.770  -0.308  1.00  0.00     0.026 C 
BRANCH  20  24
HETATM   24  O2  UNL     1      -3.253   0.513  -0.334  1.00  0.00    -0.289 OA
BRANCH  24  25
HETATM   25  C5  UNL     1      -4.575   0.960   0.054  1.00  0.00     0.227 C 
BRANCH  25  26
HETATM   26  C4  UNL     1      -4.977   0.315   1.301  1.00  0.00     0.247 C 
HETATM   27  N1  UNL     1      -4.311  -0.728   1.943  1.00  0.00    -0.359 N 
ATOM     28  H1  UNL     1      -3.455  -1.102   1.534  1.00  0.00     0.162 HD
HETATM   29  O1  UNL     1      -6.042   0.746   1.856  1.00  0.00    -0.271 OA
BRANCH  27  30
HETATM   30  C3  UNL     1      -4.809  -1.286   3.171  1.00  0.00     0.122 C 
BRANCH  30  31
HETATM   31  C2  UNL     1      -3.962  -2.410   3.711  1.00  0.00     0.015 C 
HETATM   32  C1  UNL     1      -2.547  -2.004   4.024  1.00  0.00     0.006 C 
ENDBRANCH  30  31
ENDBRANCH  27  30
ENDBRANCH  25  26
BRANCH  25  33
HETATM   33  C6  UNL     1      -5.477   0.712  -1.132  1.00  0.00     0.072 C 
BRANCH  33  34
HETATM   34  C7  UNL     1      -6.872   1.196  -0.891  1.00  0.00     0.275 C 
BRANCH  34  35
HETATM   35  N2  UNL     1      -7.728   0.987  -2.059  1.00  0.00     0.088 N 
HETATM   36  C8  UNL     1      -7.282   1.875  -3.098  1.00  0.00     0.272 C 
HETATM   37  C9  UNL     1      -8.435   2.717  -3.552  1.00  0.00     0.032 C 
HETATM   38  C10 UNL     1      -9.656   2.155  -2.845  1.00  0.00     0.032 C 
HETATM   39  C11 UNL     1      -9.062   1.398  -1.701  1.00  0.00     0.272 C 
ENDBRANCH  34  35
ENDBRANCH  33  34
ENDBRANCH  25  33
ENDBRANCH  24  25
ENDBRANCH  20  24
ENDBRANCH  15  16
ENDBRANCH  12  15
ENDBRANCH   6  11
BRANCH   8  40
HETATM   40  C21 UNL     1       8.493   0.400  -0.609  1.00  0.00    -0.007 C 
HETATM   41  C22 UNL     1       9.679   0.224   0.322  1.00  0.00     0.021 C 
HETATM   42  C23 UNL     1       8.905  -0.038  -2.003  1.00  0.00     0.021 C 
HETATM   43  C24 UNL     1       8.028   1.847  -0.611  1.00  0.00     0.021 C 
ENDBRANCH   8  40
ENDBRANCH   4   5
ENDBRANCH   1   4
TORSDOF 14
