REMARK  6 active torsions:
REMARK  status: ('A' for Active; 'I' for Inactive)
REMARK    1  A    between atoms: O1_2  and  N1_3 
REMARK       I    between atoms: N1_3  and  C2_5 
REMARK    2  A    between atoms: C2_5  and  C3_7 
REMARK    3  A    between atoms: C3_7  and  C4_9 
REMARK    4  A    between atoms: C6_19  and  N6_20 
REMARK    5  A    between atoms: N6_20  and  N7_22 
REMARK    6  A    between atoms: C8_26  and  C9_27 
ROOT
HETATM    1  C4  UNL     1       0.580  -0.072   0.263  1.00  0.00     0.122 A 
HETATM    2  N2  UNL     1       0.594   0.911   1.209  1.00  0.00    -0.274 N 
ATOM      3  H2  UNL     1       1.440   1.289   1.635  1.00  0.00     0.189 HD
HETATM    4  N3  UNL     1      -0.623   1.307   1.499  1.00  0.00    -0.188 N 
HETATM    5  N4  UNL     1      -1.051   2.230   2.354  1.00  0.00    -0.229 N 
ATOM      6  H4  UNL     1      -0.376   2.756   2.910  1.00  0.00     0.194 HD
HETATM    7  C5  UNL     1      -2.367   2.478   2.494  1.00  0.00     0.342 A 
HETATM    8  O4  UNL     1      -2.762   3.360   3.313  1.00  0.00    -0.245 OA
HETATM    9  N5  UNL     1      -3.253   1.764   1.742  1.00  0.00    -0.290 N 
ATOM     10  H5  UNL     1      -4.254   1.937   1.834  1.00  0.00     0.172 HD
HETATM   11  C6  UNL     1      -2.808   0.830   0.878  1.00  0.00     0.155 A 
HETATM   12  C7  UNL     1      -1.459   0.580   0.738  1.00  0.00     0.137 A 
HETATM   13  C8  UNL     1      -0.744  -0.296  -0.051  1.00  0.00     0.077 A 
ENDROOT
BRANCH  13  14
HETATM   14  C9  UNL     1      -1.279  -1.261  -1.019  1.00  0.00     0.152 A 
HETATM   15  N8  UNL     1      -1.634  -2.550  -0.773  1.00  0.00    -0.268 N 
HETATM   16  N9  UNL     1      -2.060  -3.057  -1.897  1.00  0.00    -0.227 N 
ATOM     17  H8  UNL     1      -1.578  -3.032   0.124  1.00  0.00     0.190 HD
HETATM   18  N10 UNL     1      -2.009  -2.178  -2.880  1.00  0.00    -0.227 N 
ATOM     19  H9  UNL     1      -2.392  -4.016  -2.003  1.00  0.00     0.210 HD
HETATM   20  N11 UNL     1      -1.528  -1.079  -2.327  1.00  0.00    -0.268 N 
ATOM     21  H10 UNL     1      -2.281  -2.317  -3.853  1.00  0.00     0.210 HD
ATOM     22  H11 UNL     1      -1.366  -0.205  -2.828  1.00  0.00     0.190 HD
ENDBRANCH  13  14
BRANCH   1  23
HETATM   23  C3  UNL     1       1.731  -0.747  -0.300  1.00  0.00     0.270 C 
HETATM   24  O3  UNL     1       1.576  -1.636  -1.169  1.00  0.00    -0.280 OA
BRANCH  23  25
HETATM   25  C2  UNL     1       3.084  -0.421   0.115  1.00  0.00     0.317 C 
HETATM   26  N1  UNL     1       4.216  -1.066  -0.435  1.00  0.00    -0.228 N 
ATOM     27  H1  UNL     1       4.076  -1.784  -1.146  1.00  0.00     0.198 HD
HETATM   28  O2  UNL     1       3.266   0.473   1.001  1.00  0.00    -0.262 OA
BRANCH  26  29
HETATM   29  O1  UNL     1       5.470  -0.766  -0.053  1.00  0.00    -0.282 OA
HETATM   30  C1  UNL     1       6.270  -0.290  -1.068  1.00  0.00     0.237 C 
ENDBRANCH  26  29
ENDBRANCH  23  25
ENDBRANCH   1  23
BRANCH  11  31
HETATM   31  N6  UNL     1      -3.664   0.167   0.177  1.00  0.00    -0.290 N 
ATOM     32  H6  UNL     1      -3.311  -0.536  -0.473  1.00  0.00     0.188 HD
BRANCH  31  33
HETATM   33  N7  UNL     1      -5.029   0.353   0.255  1.00  0.00    -0.344 N 
ATOM     34  H72 UNL     1      -5.364   1.060   0.910  1.00  0.00     0.176 HD
ATOM     35  H71 UNL     1      -5.706  -0.171  -0.299  1.00  0.00     0.176 HD
ENDBRANCH  31  33
ENDBRANCH  11  31
TORSDOF 6
