REMARK  8 active torsions:
REMARK  status: ('A' for Active; 'I' for Inactive)
REMARK    1  A    between atoms: N1_1  and  C1_4 
REMARK    2  A    between atoms: N2_5  and  N3_6 
REMARK    3  A    between atoms: C3_10  and  N4_11 
REMARK    4  A    between atoms: N8_26  and  C11_27 
REMARK    5  A    between atoms: C11_27  and  C12_28 
REMARK    6  A    between atoms: C12_28  and  O1_29 
REMARK    7  A    between atoms: C12_28  and  C13_31 
REMARK    8  A    between atoms: C13_31  and  O2_32 
ROOT
HETATM    1  C1  UNL     1       2.070   0.238   1.363  1.00  0.00     0.701 A 
HETATM    2  N2  UNL     1       0.724   0.306   1.239  1.00  0.00    -0.086 N 
HETATM    3  C2  UNL     1       0.317  -0.488   0.240  1.00  0.00     0.162 A 
HETATM    4  C3  UNL     1      -0.921  -0.787  -0.282  1.00  0.00     0.138 A 
HETATM    5  N6  UNL     1      -0.948  -1.684  -1.318  1.00  0.00    -0.337 N 
ATOM      6  H6  UNL     1      -1.844  -1.936  -1.735  1.00  0.00     0.168 HD
HETATM    7  C9  UNL     1       0.178  -2.240  -1.798  1.00  0.00     0.183 A 
HETATM    8  N7  UNL     1       1.382  -1.939  -1.280  1.00  0.00    -0.336 N 
ATOM      9  H7  UNL     1       2.222  -2.374  -1.661  1.00  0.00     0.168 HD
HETATM   10  C10 UNL     1       1.485  -1.055  -0.248  1.00  0.00     0.158 A 
HETATM   11  N8  UNL     1       2.543  -0.602   0.446  1.00  0.00    -0.162 N 
ENDROOT
BRANCH   4  12
HETATM   12  N4  UNL     1      -2.131  -0.197   0.153  1.00  0.00    -0.364 N 
HETATM   13  C4  UNL     1      -2.379   1.118  -0.393  1.00  0.00     0.126 C 
HETATM   14  C5  UNL     1      -3.397   1.906   0.401  1.00  0.00     0.047 C 
HETATM   15  C6  UNL     1      -4.750   1.281   0.225  1.00  0.00     0.234 C 
HETATM   16  N5  UNL     1      -4.693   0.004  -0.443  1.00  0.00    -0.074 N 
HETATM   17  C7  UNL     1      -4.412  -1.001   0.564  1.00  0.00     0.252 C 
ATOM     18  H52 UNL     1      -5.533  -0.200  -0.985  1.00  0.00     0.277 HD
ATOM     19  H51 UNL     1      -4.029  -0.011  -1.217  1.00  0.00     0.277 HD
HETATM   20  C8  UNL     1      -2.990  -0.912   1.065  1.00  0.00     0.152 C 
ENDBRANCH   4  12
BRANCH   2  21
HETATM   21  N3  UNL     1      -0.132   1.075   2.045  1.00  0.00    -0.324 N 
ATOM     22  H32 UNL     1       0.178   1.680   2.806  1.00  0.00     0.178 HD
ATOM     23  H31 UNL     1      -1.146   1.126   1.952  1.00  0.00     0.178 HD
ENDBRANCH   2  21
BRANCH   1  24
HETATM   24  N1  UNL     1       2.719   0.918   2.267  1.00  0.00    -0.233 N 
ATOM     25  H12 UNL     1       2.356   1.562   2.970  1.00  0.00     0.174 HD
ATOM     26  H11 UNL     1       3.733   0.867   2.360  1.00  0.00     0.174 HD
ENDBRANCH   1  24
BRANCH  11  27
HETATM   27  C11 UNL     1       3.927  -0.959   0.231  1.00  0.00     0.183 C 
BRANCH  27  28
HETATM   28  C12 UNL     1       4.656  -0.099  -0.742  1.00  0.00     0.160 C 
BRANCH  28  29
HETATM   29  O1  UNL     1       4.693   1.228  -0.365  1.00  0.00    -0.392 OA
ATOM     30  H1  UNL     1       5.158   1.777  -0.986  1.00  0.00     0.210 HD
ENDBRANCH  28  29
BRANCH  28  31
HETATM   31  C13 UNL     1       4.225  -0.274  -2.169  1.00  0.00     0.197 C 
BRANCH  31  32
HETATM   32  O2  UNL     1       5.156   0.405  -2.966  1.00  0.00    -0.398 OA
ATOM     33  H2  UNL     1       4.883   0.294  -3.869  1.00  0.00     0.209 HD
ENDBRANCH  31  32
ENDBRANCH  28  31
ENDBRANCH  27  28
ENDBRANCH  11  27
TORSDOF 8
