REMARK  8 active torsions:
REMARK  status: ('A' for Active; 'I' for Inactive)
REMARK    1  A    between atoms: N1_2  and  C2_4 
REMARK    2  A    between atoms: C4_11  and  C5_12 
REMARK    3  A    between atoms: C5_12  and  N5_13 
REMARK    4  A    between atoms: C5_12  and  C6_17 
REMARK    5  A    between atoms: C6_17  and  O1_18 
REMARK    6  A    between atoms: C6_17  and  C7_20 
REMARK    7  A    between atoms: C7_20  and  O2_21 
REMARK    8  A    between atoms: C7_20  and  N6_23 
ROOT
HETATM    1  C5  UNL     1      -0.462  -0.517  -0.749  1.00  0.00     0.286 C 
ENDROOT
BRANCH   1   2
HETATM    2  C4  UNL     1       0.730  -0.395   0.173  1.00  0.00     0.153 A 
HETATM    3  N4  UNL     1       1.839   0.332  -0.104  1.00  0.00    -0.218 N 
HETATM    4  N3  UNL     1       2.187   1.075  -1.133  1.00  0.00    -0.286 N 
HETATM    5  C11 UNL     1       2.710   0.233   0.907  1.00  0.00     0.188 A 
HETATM    6  C3  UNL     1       3.361   1.725  -1.206  1.00  0.00     0.199 A 
ATOM      7  H3  UNL     1       1.535   1.162  -1.912  1.00  0.00     0.188 HD
HETATM    8  N2  UNL     1       4.251   1.639  -0.203  1.00  0.00    -0.335 N 
HETATM    9  C2  UNL     1       3.927   0.891   0.859  1.00  0.00     0.150 A 
ATOM     10  H2  UNL     1       5.145   2.128  -0.249  1.00  0.00     0.168 HD
HETATM   11  N9  UNL     1       2.130  -0.573   1.831  1.00  0.00    -0.279 N 
HETATM   12  N8  UNL     1       0.949  -0.936   1.371  1.00  0.00    -0.284 N 
ATOM     13  H9  UNL     1       2.536  -0.850   2.725  1.00  0.00     0.189 HD
ATOM     14  H8  UNL     1       0.295  -1.545   1.863  1.00  0.00     0.188 HD
BRANCH   9  15
HETATM   15  N1  UNL     1       4.750   0.789   1.828  1.00  0.00    -0.377 N 
HETATM   16  C1  UNL     1       6.027   1.470   1.797  1.00  0.00     0.148 C 
ATOM     17  H1  UNL     1       4.505   0.219   2.637  1.00  0.00     0.160 HD
ENDBRANCH   9  15
ENDBRANCH   1   2
BRANCH   1  18
HETATM   18  N5  UNL     1       0.199  -0.775  -2.059  1.00  0.00    -0.065 N 
ATOM     19  H53 UNL     1       0.896  -0.084  -2.338  1.00  0.00     0.275 HD
ATOM     20  H52 UNL     1       0.842  -1.566  -2.073  1.00  0.00     0.275 HD
ATOM     21  H51 UNL     1      -0.605  -0.857  -2.681  1.00  0.00     0.275 HD
ENDBRANCH   1  18
BRANCH   1  22
HETATM   22  C6  UNL     1      -1.305  -1.690  -0.493  1.00  0.00     0.205 C 
BRANCH  22  23
HETATM   23  O1  UNL     1      -0.534  -2.861  -0.368  1.00  0.00    -0.389 OA
ATOM     24  H1  UNL     1      -1.080  -3.621  -0.202  1.00  0.00     0.210 HD
ENDBRANCH  22  23
BRANCH  22  25
HETATM   25  C7  UNL     1      -2.335  -1.672   0.562  1.00  0.00     0.255 C 
BRANCH  25  26
HETATM   26  O2  UNL     1      -1.775  -1.944   1.802  1.00  0.00    -0.374 OA
ATOM     27  H2  UNL     1      -2.439  -1.932   2.482  1.00  0.00     0.212 HD
ENDBRANCH  25  26
BRANCH  25  28
HETATM   28  N6  UNL     1      -3.232  -0.577   0.611  1.00  0.00    -0.303 N 
HETATM   29  C8  UNL     1      -4.684  -0.584   0.377  1.00  0.00     0.150 C 
HETATM   30  C9  UNL     1      -4.811   0.646  -0.500  1.00  0.00     0.144 C 
HETATM   31  N7  UNL     1      -3.842   1.558   0.078  1.00  0.00    -0.341 N 
HETATM   32  C10 UNL     1      -2.938   0.773   0.884  1.00  0.00     0.320 C 
ATOM     33  H7  UNL     1      -3.806   2.568  -0.060  1.00  0.00     0.164 HD
HETATM   34  O3  UNL     1      -2.065   1.255   1.670  1.00  0.00    -0.247 OA
ENDBRANCH  25  28
ENDBRANCH  22  25
ENDBRANCH   1  22
TORSDOF 8
