REMARK  10 active torsions:
REMARK  status: ('A' for Active; 'I' for Inactive)
REMARK    1  A    between atoms: N1_2  and  N2_3 
REMARK    2  A    between atoms: N1_2  and  C2_6 
REMARK    3  A    between atoms: C3_9  and  N4_10 
REMARK    4  A    between atoms: N4_10  and  O1_12 
REMARK    5  A    between atoms: C5_19  and  C6_20 
REMARK    6  A    between atoms: C7_25  and  N9_26 
REMARK    7  A    between atoms: N9_26  and  C8_28 
REMARK    8  A    between atoms: C8_28  and  C9_29 
REMARK    9  A    between atoms: C9_29  and  O3_30 
REMARK   10  A    between atoms: C9_29  and  O4_32 
ROOT
HETATM    1  C2  UNL     1       1.652  -1.007  -0.220  1.00  0.00     0.154 A 
HETATM    2  N3  UNL     1       3.021  -1.057  -0.182  1.00  0.00    -0.172 N 
ATOM      3  H3  UNL     1       3.493  -1.935  -0.397  1.00  0.00     0.186 HD
HETATM    4  C3  UNL     1       3.747   0.011   0.128  1.00  0.00     0.705 A 
HETATM    5  N5  UNL     1       3.155   1.175   0.415  1.00  0.00    -0.174 N 
ATOM      6  H5  UNL     1       3.738   1.978   0.651  1.00  0.00     0.186 HD
HETATM    7  C4  UNL     1       1.812   1.326   0.404  1.00  0.00     0.140 A 
HETATM    8  N6  UNL     1       1.253   2.525   0.687  1.00  0.00    -0.323 N 
ATOM      9  H6  UNL     1       1.847   3.320   0.923  1.00  0.00     0.169 HD
HETATM   10  C5  UNL     1      -0.076   2.672   0.659  1.00  0.00     0.174 A 
HETATM   11  N8  UNL     1      -0.809   1.598   0.343  1.00  0.00    -0.324 N 
ATOM     12  H8  UNL     1      -1.823   1.704   0.318  1.00  0.00     0.169 HD
HETATM   13  C7  UNL     1      -0.293   0.376   0.053  1.00  0.00     0.120 A 
HETATM   14  C10 UNL     1       1.061   0.195   0.075  1.00  0.00     0.098 A 
ENDROOT
BRANCH  13  15
HETATM   15  N9  UNL     1      -1.061  -0.602  -0.268  1.00  0.00    -0.371 N 
ATOM     16  H9  UNL     1      -0.673  -1.520  -0.486  1.00  0.00     0.161 HD
BRANCH  15  17
HETATM   17  C8  UNL     1      -2.485  -0.373  -0.313  1.00  0.00     0.181 C 
BRANCH  17  18
HETATM   18  C9  UNL     1      -3.244  -1.656  -0.610  1.00  0.00     0.271 C 
BRANCH  18  19
HETATM   19  O3  UNL     1      -4.618  -1.433  -0.653  1.00  0.00    -0.370 OA
ATOM     20  H3  UNL     1      -5.092  -2.235  -0.839  1.00  0.00     0.212 HD
ENDBRANCH  18  19
BRANCH  18  21
HETATM   21  O4  UNL     1      -2.843  -2.071  -1.877  1.00  0.00    -0.370 OA
ATOM     22  H4  UNL     1      -3.317  -2.873  -2.063  1.00  0.00     0.212 HD
ENDBRANCH  18  21
ENDBRANCH  17  18
ENDBRANCH  15  17
ENDBRANCH  13  15
BRANCH  10  23
HETATM   23  C6  UNL     1      -0.708   3.973   0.965  1.00  0.00     0.298 C 
HETATM   24  N7  UNL     1      -2.126   4.095   0.926  1.00  0.00    -0.054 NA
HETATM   25  O2  UNL     1       0.024   4.934   1.252  1.00  0.00    -0.268 OA
ENDBRANCH  10  23
BRANCH   1  26
HETATM   26  N1  UNL     1       0.949  -2.200  -0.501  1.00  0.00    -0.286 N 
HETATM   27  C1  UNL     1       0.436  -3.077   0.528  1.00  0.00     0.179 C 
BRANCH  26  28
HETATM   28  N2  UNL     1       0.750  -2.565  -1.831  1.00  0.00    -0.342 N 
ATOM     29  H22 UNL     1       0.243  -3.426  -2.034  1.00  0.00     0.177 HD
ATOM     30  H21 UNL     1       1.112  -1.946  -2.557  1.00  0.00     0.177 HD
ENDBRANCH  26  28
ENDBRANCH   1  26
BRANCH   4  31
HETATM   31  N4  UNL     1       5.022  -0.084   0.151  1.00  0.00    -0.098 N 
ATOM     32  H4  UNL     1       5.435  -0.989  -0.073  1.00  0.00     0.213 HD
BRANCH  31  33
HETATM   33  O1  UNL     1       5.871   0.946   0.456  1.00  0.00    -0.276 OA
ATOM     34  H1  UNL     1       6.818   0.875   0.473  1.00  0.00     0.245 HD
ENDBRANCH  31  33
ENDBRANCH   4  31
TORSDOF 10
