REMARK  7 active torsions:
REMARK  status: ('A' for Active; 'I' for Inactive)
REMARK    1  A    between atoms: C3_6  and  N3_7 
REMARK    2  A    between atoms: N3_7  and  C4_8 
REMARK       I    between atoms: N3_7  and  C7_19 
REMARK    3  A    between atoms: C4_8  and  C5_9 
REMARK       I    between atoms: C5_9  and  N4_11 
REMARK    4  A    between atoms: N4_11  and  O2_12 
REMARK    5  A    between atoms: N4_11  and  C6_14 
REMARK    6  A    between atoms: C6_14  and  N5_15 
REMARK    7  A    between atoms: C8_25  and  N9_26 
ROOT
HETATM    1  N1  UNL     1       5.466   3.269   0.257  1.00  0.00    -0.190 NA
HETATM    2  C1  UNL     1       4.675   2.426   0.179  1.00  0.00     0.120 C 
HETATM    3  C2  UNL     1       3.680   1.375   0.058  1.00  0.00     0.154 A 
HETATM    4  N2  UNL     1       2.382   1.625   0.022  1.00  0.00    -0.178 N 
ATOM      5  H2  UNL     1       2.094   2.602   0.084  1.00  0.00     0.185 HD
HETATM    6  C3  UNL     1       1.387   0.685  -0.092  1.00  0.00     0.713 A 
HETATM    7  N7  UNL     1       1.784  -0.588  -0.172  1.00  0.00    -0.053 N 
HETATM    8  N8  UNL     1       1.130  -1.726  -0.292  1.00  0.00    -0.109 N 
ATOM      9  H8  UNL     1       0.114  -1.796  -0.343  1.00  0.00     0.207 HD
HETATM   10  C8  UNL     1       1.964  -2.791  -0.340  1.00  0.00     0.693 A 
HETATM   11  N10 UNL     1       3.187  -2.274  -0.246  1.00  0.00    -0.172 N 
ATOM     12  H10 UNL     1       4.054  -2.812  -0.251  1.00  0.00     0.186 HD
HETATM   13  C9  UNL     1       3.108  -0.935  -0.143  1.00  0.00     0.185 A 
HETATM   14  C10 UNL     1       4.058   0.054  -0.027  1.00  0.00     0.129 A 
HETATM   15  C11 UNL     1       5.439  -0.319   0.003  1.00  0.00     0.106 C 
HETATM   16  N11 UNL     1       6.560  -0.644   0.024  1.00  0.00    -0.191 NA
ENDROOT
BRANCH   6  17
HETATM   17  N3  UNL     1       0.047   1.100  -0.126  1.00  0.00    -0.124 N 
HETATM   18  C7  UNL     1      -0.150   2.526   0.151  1.00  0.00     0.349 C 
HETATM   19  N6  UNL     1      -1.463   3.071   0.144  1.00  0.00    -0.039 NA
HETATM   20  O3  UNL     1       0.784   3.294   0.395  1.00  0.00    -0.250 OA
BRANCH  17  21
HETATM   21  C4  UNL     1      -1.161   0.420  -0.409  1.00  0.00     0.257 C 
BRANCH  21  22
HETATM   22  C5  UNL     1      -1.800  -0.079   0.850  1.00  0.00     0.263 C 
HETATM   23  O1  UNL     1      -1.253   0.136   1.965  1.00  0.00    -0.269 OA
HETATM   24  N4  UNL     1      -3.023  -0.802   0.868  1.00  0.00    -0.202 N 
BRANCH  24  25
HETATM   25  O2  UNL     1      -3.582  -1.244   2.031  1.00  0.00    -0.283 OA
ATOM     26  H2  UNL     1      -4.400  -1.727   2.043  1.00  0.00     0.245 HD
ENDBRANCH  24  25
BRANCH  24  27
HETATM   27  C6  UNL     1      -3.682  -1.072  -0.380  1.00  0.00     0.387 C 
BRANCH  27  28
HETATM   28  N5  UNL     1      -4.605  -0.002  -0.708  1.00  0.00    -0.061 N 
ATOM     29  H53 UNL     1      -5.272   0.168   0.045  1.00  0.00     0.276 HD
ATOM     30  H52 UNL     1      -4.145   0.908  -0.711  1.00  0.00     0.276 HD
ATOM     31  H51 UNL     1      -5.073  -0.194  -1.594  1.00  0.00     0.276 HD
ENDBRANCH  27  28
ENDBRANCH  24  27
ENDBRANCH  21  22
ENDBRANCH  17  21
ENDBRANCH   6  17
BRANCH  10  32
HETATM   32  N9  UNL     1       1.638  -4.035  -0.453  1.00  0.00    -0.233 N 
ATOM     33  H92 UNL     1       0.701  -4.431  -0.525  1.00  0.00     0.174 HD
ATOM     34  H91 UNL     1       2.266  -4.838  -0.489  1.00  0.00     0.174 HD
ENDBRANCH  10  32
TORSDOF 7
