REMARK  8 active torsions:
REMARK  status: ('A' for Active; 'I' for Inactive)
REMARK    1  A    between atoms: C1_4  and  C2_6 
REMARK    2  A    between atoms: N3_8  and  N4_9 
REMARK    3  A    between atoms: N5_11  and  C4_13 
REMARK    4  A    between atoms: C7_18  and  C8_19 
REMARK    5  A    between atoms: C8_19  and  O2_20 
REMARK    6  A    between atoms: C8_19  and  C9_22 
REMARK    7  A    between atoms: C10_25  and  O5_26 
REMARK    8  A    between atoms: C14_37  and  N11_38 
ROOT
HETATM    1  C4  UNL     1       1.215  -0.251   0.034  1.00  0.00     0.186 C 
HETATM    2  C5  UNL     1       1.781  -0.421  -1.144  1.00  0.00     0.144 C 
HETATM    3  N6  UNL     1       0.837  -0.966  -2.060  1.00  0.00    -0.094 NA
HETATM    4  C6  UNL     1       3.100  -0.193  -1.712  1.00  0.00     0.217 C 
HETATM    5  O1  UNL     1       3.107  -0.210  -2.962  1.00  0.00    -0.285 OA
HETATM    6  C7  UNL     1       4.496   0.064  -1.213  1.00  0.00     0.107 C 
HETATM    7  C10 UNL     1       4.805   0.636  -0.070  1.00  0.00     0.172 C 
HETATM    8  N7  UNL     1       4.082   1.196   1.065  1.00  0.00    -0.168 N 
ATOM      9  H7  UNL     1       4.617   1.935   1.522  1.00  0.00     0.186 HD
HETATM   10  C11 UNL     1       2.840   0.988   1.700  1.00  0.00     0.701 C 
HETATM   11  N8  UNL     1       2.568   1.487   2.851  1.00  0.00    -0.209 N 
ATOM     12  H8  UNL     1       3.211   2.063   3.394  1.00  0.00     0.179 HD
HETATM   13  C12 UNL     1       1.231   1.128   3.282  1.00  0.00     0.275 C 
HETATM   14  N9  UNL     1       0.890   0.024   2.421  1.00  0.00    -0.097 NA
HETATM   15  N10 UNL     1       1.675   0.251   1.291  1.00  0.00    -0.070 N 
ENDROOT
BRANCH   1  16
HETATM   16  N5  UNL     1      -0.150  -0.634   0.121  1.00  0.00    -0.268 N 
HETATM   17  N4  UNL     1      -0.952   0.153   0.670  1.00  0.00    -0.243 N 
ATOM     18  H4  UNL     1      -0.565   1.028   1.023  1.00  0.00     0.208 HD
ATOM     19  H5  UNL     1      -0.468  -1.528  -0.254  1.00  0.00     0.190 HD
BRANCH  17  20
HETATM   20  N3  UNL     1      -2.306  -0.042   0.847  1.00  0.00    -0.311 N 
HETATM   21  C3  UNL     1      -3.319   0.970   0.949  1.00  0.00     0.158 C 
HETATM   22  C2  UNL     1      -4.626   0.302   0.553  1.00  0.00     0.101 C 
HETATM   23  C14 UNL     1      -4.194  -1.092   0.078  1.00  0.00     0.215 C 
HETATM   24  C13 UNL     1      -2.975  -1.307   0.965  1.00  0.00     0.177 C 
BRANCH  22  25
HETATM   25  C1  UNL     1      -5.263   1.059  -0.554  1.00  0.00     0.094 C 
HETATM   26  N1  UNL     1      -6.431   1.549  -0.353  1.00  0.00    -0.391 N 
ATOM     27  H12 UNL     1      -6.869   2.069  -1.114  1.00  0.00     0.157 HD
ATOM     28  H11 UNL     1      -6.918   1.429   0.535  1.00  0.00     0.157 HD
HETATM   29  N2  UNL     1      -4.587   1.226  -1.788  1.00  0.00    -0.088 NA
ENDBRANCH  22  25
BRANCH  23  30
HETATM   30  N11 UNL     1      -5.218  -2.072   0.315  1.00  0.00    -0.073 N 
ATOM     31 3H11 UNL     1      -5.503  -2.084   1.294  1.00  0.00     0.274 HD
ATOM     32 2H11 UNL     1      -6.105  -1.793  -0.105  1.00  0.00     0.274 HD
ATOM     33 1H11 UNL     1      -4.931  -2.998  -0.001  1.00  0.00     0.274 HD
ENDBRANCH  23  30
ENDBRANCH  17  20
ENDBRANCH   1  16
BRANCH   6  34
HETATM   34  C8  UNL     1       5.459  -0.384  -2.134  1.00  0.00     0.161 C 
BRANCH  34  35
HETATM   35  O2  UNL     1       4.911  -0.926  -3.231  1.00  0.00    -0.354 OA
ATOM     36  H2  UNL     1       5.562  -1.229  -3.853  1.00  0.00     0.218 HD
ENDBRANCH  34  35
BRANCH  34  37
HETATM   37  C9  UNL     1       6.866  -0.405  -2.188  1.00  0.00     0.234 C 
HETATM   38  O3  UNL     1       7.701  -0.007  -1.384  1.00  0.00    -0.642 OA
HETATM   39  O4  UNL     1       7.526  -0.977  -3.353  1.00  0.00    -0.642 OA
ENDBRANCH  34  37
ENDBRANCH   6  34
BRANCH   7  40
HETATM   40  O5  UNL     1       6.147   0.737   0.115  1.00  0.00    -0.345 OA
ATOM     41  H5  UNL     1       6.370   1.150   0.941  1.00  0.00     0.219 HD
ENDBRANCH   7  40
TORSDOF 8
