REMARK  10 active torsions:
REMARK  status: ('A' for Active; 'I' for Inactive)
REMARK    1  A    between atoms: N1_2  and  C2_4 
REMARK    2  A    between atoms: N1_2  and  C4_7 
REMARK    3  A    between atoms: C4_7  and  C5_8 
REMARK    4  A    between atoms: C5_8  and  N3_9 
REMARK    5  A    between atoms: C7_14  and  C8_15 
REMARK    6  A    between atoms: C8_15  and  O2_16 
REMARK    7  A    between atoms: C8_15  and  O3_18 
REMARK    8  A    between atoms: N5_20  and  C9_21 
REMARK    9  A    between atoms: C10_24  and  N7_25 
REMARK   10  A    between atoms: C11_30  and  N9_31 
ROOT
HETATM    1  C2  UNL     1      -6.120  -1.958  -0.911  1.00  0.00     0.434 C 
HETATM    2  C3  UNL     1      -6.003  -3.267  -0.313  1.00  0.00     0.095 C 
HETATM    3  N2  UNL     1      -5.913  -4.315   0.165  1.00  0.00    -0.195 NA
ENDROOT
BRANCH   1   4
HETATM    4  N1  UNL     1      -5.172  -1.033  -0.279  1.00  0.00     0.023 N 
HETATM    5  C1  UNL     1      -5.743   0.285  -0.279  1.00  0.00     0.357 C 
HETATM    6  O1  UNL     1      -4.998  -1.461   0.988  1.00  0.00    -0.064 OA
BRANCH   4   7
HETATM    7  C4  UNL     1      -3.891  -1.074  -0.973  1.00  0.00     0.332 C 
BRANCH   7   8
HETATM    8  C5  UNL     1      -2.828  -0.533   0.007  1.00  0.00     0.174 C 
BRANCH   8   9
HETATM    9  N3  UNL     1      -1.591  -0.553  -0.610  1.00  0.00    -0.222 N 
HETATM   10  C6  UNL     1      -0.414  -0.220  -0.382  1.00  0.00     0.716 A 
HETATM   11  N4  UNL     1       0.568  -0.434  -1.328  1.00  0.00    -0.172 N 
HETATM   12  N14 UNL     1      -0.031   0.357   0.778  1.00  0.00     0.106 N 
HETATM   13  C7  UNL     1       1.839  -0.083  -1.102  1.00  0.00     0.194 A 
ATOM     14  H4  UNL     1       0.320  -0.868  -2.217  1.00  0.00     0.185 HD
HETATM   15  N5  UNL     1       2.220   0.489   0.048  1.00  0.00     0.044 N 
HETATM   16  C12 UNL     1       1.272   0.707   0.990  1.00  0.00     0.756 A 
HETATM   17  N11 UNL     1       1.423   1.264   2.211  1.00  0.00    -0.018 N 
HETATM   18  C13 UNL     1       0.224   1.269   2.775  1.00  0.00     0.706 A 
ATOM     19  H11 UNL     1       2.290   1.613   2.619  1.00  0.00     0.203 HD
HETATM   20  N12 UNL     1      -0.114   1.704   3.938  1.00  0.00    -0.233 N 
HETATM   21  N13 UNL     1      -0.653   0.714   1.894  1.00  0.00    -0.096 N 
ATOM     22 2H12 UNL     1       0.543   2.120   4.598  1.00  0.00     0.174 HD
ATOM     23 1H12 UNL     1      -1.037   1.708   4.372  1.00  0.00     0.174 HD
ATOM     24  H13 UNL     1      -1.650   0.590   2.068  1.00  0.00     0.207 HD
ATOM     25  H3  UNL     1      -1.666  -0.969  -1.538  1.00  0.00     0.177 HD
BRANCH  13  26
HETATM   26  C8  UNL     1       2.897  -0.317  -2.133  1.00  0.00     0.325 C 
BRANCH  26  27
HETATM   27  O2  UNL     1       2.702  -1.628  -2.626  1.00  0.00    -0.365 OA
ATOM     28  H2  UNL     1       3.374  -1.777  -3.281  1.00  0.00     0.213 HD
ENDBRANCH  26  27
BRANCH  26  29
HETATM   29  O3  UNL     1       2.613   0.539  -3.196  1.00  0.00    -0.365 OA
ATOM     30  H3  UNL     1       3.285   0.390  -3.851  1.00  0.00     0.213 HD
ENDBRANCH  26  29
ENDBRANCH  13  26
BRANCH  15  31
HETATM   31  C9  UNL     1       3.586   0.833   0.214  1.00  0.00     0.734 A 
HETATM   32  N6  UNL     1       4.056   2.022  -0.247  1.00  0.00    -0.020 N 
HETATM   33  C10 UNL     1       5.352   2.367  -0.099  1.00  0.00     0.705 A 
ATOM     34  H6  UNL     1       3.417   2.666  -0.714  1.00  0.00     0.203 HD
HETATM   35  N8  UNL     1       6.207   1.539   0.510  1.00  0.00    -0.022 N 
HETATM   36  C11 UNL     1       5.779   0.349   0.982  1.00  0.00     0.705 A 
ATOM     37  H8  UNL     1       7.185   1.807   0.618  1.00  0.00     0.203 HD
HETATM   38  N10 UNL     1       4.488   0.040   0.818  1.00  0.00    -0.020 N 
ATOM     39  H10 UNL     1       4.166  -0.859   1.176  1.00  0.00     0.203 HD
BRANCH  33  40
HETATM   40  N7  UNL     1       5.823   3.495  -0.530  1.00  0.00    -0.234 N 
ATOM     41  H72 UNL     1       5.171   4.127  -0.995  1.00  0.00     0.174 HD
ATOM     42  H71 UNL     1       6.803   3.756  -0.418  1.00  0.00     0.174 HD
ENDBRANCH  33  40
BRANCH  36  43
HETATM   43  N9  UNL     1       6.619  -0.461   1.578  1.00  0.00    -0.234 N 
ATOM     44  H92 UNL     1       7.603  -0.225   1.703  1.00  0.00     0.174 HD
ATOM     45  H91 UNL     1       6.296  -1.360   1.935  1.00  0.00     0.174 HD
ENDBRANCH  36  43
ENDBRANCH  15  31
ENDBRANCH   8   9
ENDBRANCH   7   8
ENDBRANCH   4   7
ENDBRANCH   1   4
TORSDOF 10
