REMARK  12 active torsions:
REMARK  status: ('A' for Active; 'I' for Inactive)
REMARK    1  A    between atoms: N1_1  and  C1_4 
REMARK    2  A    between atoms: C4_12  and  N4_13 
REMARK    3  A    between atoms: C5_17  and  C6_18 
REMARK    4  A    between atoms: C6_18  and  O2_19 
REMARK    5  A    between atoms: C7_21  and  C8_22 
REMARK    6  A    between atoms: N8_24  and  N9_26 
REMARK    7  A    between atoms: N10_29  and  C9_30 
REMARK    8  A    between atoms: C9_30  and  C10_31 
REMARK    9  A    between atoms: C10_31  and  C11_32 
REMARK   10  A    between atoms: C11_32  and  C12_34 
REMARK   11  A    between atoms: C12_34  and  O4_35 
REMARK   12  A    between atoms: C12_34  and  O5_37 
ROOT
HETATM    1  C1  UNL     1       2.720   2.989  -2.293  1.00  0.00     0.680 A 
HETATM    2  N2  UNL     1       2.526   4.034  -1.436  1.00  0.00    -0.154 N 
ATOM      3  H2  UNL     1       2.957   4.936  -1.639  1.00  0.00     0.187 HD
HETATM    4  C2  UNL     1       1.779   3.895  -0.332  1.00  0.00     0.290 A 
HETATM    5  O1  UNL     1       1.584   4.834   0.471  1.00  0.00    -0.265 OA
HETATM    6  C3  UNL     1       1.206   2.675  -0.069  1.00  0.00     0.162 A 
HETATM    7  N3  UNL     1       0.413   2.212   0.936  1.00  0.00    -0.180 N 
ATOM      8  H3  UNL     1       0.092   2.764   1.731  1.00  0.00     0.184 HD
HETATM    9  C4  UNL     1       0.117   0.917   0.722  1.00  0.00     0.707 A 
HETATM   10  N10 UNL     1       0.734   0.585  -0.427  1.00  0.00    -0.163 N 
HETATM   11  C13 UNL     1       1.406   1.621  -0.940  1.00  0.00     0.172 A 
HETATM   12  N11 UNL     1       2.170   1.787  -2.058  1.00  0.00    -0.174 N 
ATOM     13  H11 UNL     1       2.321   1.012  -2.704  1.00  0.00     0.186 HD
ENDROOT
BRANCH   9  14
HETATM   14  N4  UNL     1      -0.691   0.128   1.586  1.00  0.00    -0.065 N 
HETATM   15  N5  UNL     1      -0.257  -0.624   2.611  1.00  0.00     0.001 NA
HETATM   16  N6  UNL     1      -1.292  -1.226   3.200  1.00  0.00    -0.283 N 
HETATM   17  C5  UNL     1      -2.421  -0.875   2.568  1.00  0.00     0.079 A 
ATOM     18  H6  UNL     1      -1.234  -1.853   4.003  1.00  0.00     0.184 HD
HETATM   19  C7  UNL     1      -2.028  -0.022   1.553  1.00  0.00     0.141 A 
BRANCH  17  20
HETATM   20  C6  UNL     1      -3.801  -1.297   2.869  1.00  0.00     0.224 C 
BRANCH  20  21
HETATM   21  O2  UNL     1      -3.840  -2.162   3.961  1.00  0.00    -0.395 OA
ATOM     22  H2  UNL     1      -4.729  -2.434   4.155  1.00  0.00     0.209 HD
ENDBRANCH  20  21
ENDBRANCH  17  20
BRANCH  19  23
HETATM   23  C8  UNL     1      -2.955   0.590   0.626  1.00  0.00     0.161 C 
HETATM   24  N7  UNL     1      -2.452   1.447  -0.377  1.00  0.00    -0.079 NA
HETATM   25  N8  UNL     1      -4.220   0.388   0.673  1.00  0.00    -0.292 N 
ATOM     26  H8  UNL     1      -4.570  -0.234   1.402  1.00  0.00     0.187 HD
BRANCH  25  27
HETATM   27  N9  UNL     1      -5.142   0.945  -0.184  1.00  0.00    -0.344 N 
ATOM     28  H92 UNL     1      -4.773   1.564  -0.906  1.00  0.00     0.176 HD
ATOM     29  H91 UNL     1      -6.149   0.784  -0.147  1.00  0.00     0.176 HD
ENDBRANCH  25  27
ENDBRANCH  19  23
ENDBRANCH   9  14
BRANCH  10  30
HETATM   30  C9  UNL     1       0.684  -0.720  -1.036  1.00  0.00     0.157 C 
BRANCH  30  31
HETATM   31  C10 UNL     1       1.830  -1.550  -0.505  1.00  0.00     0.104 C 
BRANCH  31  32
HETATM   32  C11 UNL     1       1.839  -2.913  -1.093  1.00  0.00     0.182 C 
HETATM   33  O3  UNL     1       0.969  -3.197  -1.894  1.00  0.00    -0.293 OA
BRANCH  32  34
HETATM   34  C12 UNL     1       2.853  -3.940  -0.751  1.00  0.00     0.325 C 
BRANCH  34  35
HETATM   35  O4  UNL     1       3.780  -3.475   0.174  1.00  0.00    -0.365 OA
ATOM     36  H4  UNL     1       4.429  -4.133   0.393  1.00  0.00     0.213 HD
ENDBRANCH  34  35
BRANCH  34  37
HETATM   37  O5  UNL     1       2.209  -5.039  -0.191  1.00  0.00    -0.365 OA
ATOM     38  H5  UNL     1       2.858  -5.697   0.028  1.00  0.00     0.213 HD
ENDBRANCH  34  37
ENDBRANCH  32  34
ENDBRANCH  31  32
ENDBRANCH  30  31
ENDBRANCH  10  30
BRANCH   1  39
HETATM   39  N1  UNL     1       3.437   3.122  -3.354  1.00  0.00    -0.234 N 
ATOM     40  H12 UNL     1       3.855   4.035  -3.533  1.00  0.00     0.174 HD
ATOM     41  H11 UNL     1       3.582   2.341  -3.994  1.00  0.00     0.174 HD
ENDBRANCH   1  39
TORSDOF 12
