REMARK  7 active torsions:
REMARK  status: ('A' for Active; 'I' for Inactive)
REMARK    1  A    between atoms: N1_1  and  N2_4 
REMARK    2  A    between atoms: N2_4  and  C1_6 
REMARK    3  A    between atoms: C3_11  and  C4_12 
REMARK       I    between atoms: C4_12  and  N5_14 
REMARK    4  A    between atoms: N5_14  and  N6_16 
REMARK    5  A    between atoms: N8_21  and  N9_22 
REMARK    6  A    between atoms: N9_22  and  C6_24 
REMARK    7  A    between atoms: C6_24  and  C7_25 
ROOT
HETATM    1  C1  UNL     1      -1.263  -1.813  -0.245  1.00  0.00     0.184 A 
HETATM    2  C2  UNL     1      -2.594  -2.012  -0.055  1.00  0.00     0.164 A 
HETATM    3  N3  UNL     1      -3.183  -3.309  -0.207  1.00  0.00    -0.078 NA
HETATM    4  N4  UNL     1      -3.335  -0.942   0.283  1.00  0.00    -0.334 N 
ATOM      5  H4  UNL     1      -4.337  -1.057   0.433  1.00  0.00     0.167 HD
HETATM    6  C3  UNL     1      -2.785   0.275   0.427  1.00  0.00     0.147 A 
HETATM    7  C5  UNL     1      -1.424   0.407   0.217  1.00  0.00     0.172 A 
HETATM    8  N7  UNL     1      -0.904   1.713   0.384  1.00  0.00    -0.078 NA
HETATM    9  N8  UNL     1      -0.632  -0.608  -0.118  1.00  0.00    -0.219 N 
ENDROOT
BRANCH   9  10
HETATM   10  N9  UNL     1       0.737  -0.531  -0.339  1.00  0.00    -0.301 N 
ATOM     11  H9  UNL     1       1.209  -1.400  -0.589  1.00  0.00     0.186 HD
BRANCH  10  12
HETATM   12  C6  UNL     1       1.540   0.621  -0.254  1.00  0.00     0.121 C 
BRANCH  12  13
HETATM   13  C7  UNL     1       2.989   0.433  -0.519  1.00  0.00     0.005 A 
HETATM   14  C8  UNL     1       3.579  -0.757  -0.831  1.00  0.00     0.015 A 
HETATM   15  C9  UNL     1       4.945  -0.897  -1.073  1.00  0.00     0.001 A 
HETATM   16  C10 UNL     1       5.719   0.232  -0.989  1.00  0.00     0.002 A 
HETATM   17  C11 UNL     1       5.164   1.454  -0.677  1.00  0.00     0.027 A 
HETATM   18  C12 UNL     1       3.831   1.559  -0.447  1.00  0.00     0.058 A 
HETATM   19  N10 UNL     1       3.239   2.824  -0.121  1.00  0.00    -0.102 NA
ENDBRANCH  12  13
ENDBRANCH  10  12
ENDBRANCH   9  10
BRANCH   1  20
HETATM   20  N2  UNL     1      -0.558  -2.849  -0.571  1.00  0.00    -0.288 N 
ATOM     21  H2  UNL     1       0.441  -2.705  -0.716  1.00  0.00     0.188 HD
BRANCH  20  22
HETATM   22  N1  UNL     1      -1.038  -4.124  -0.738  1.00  0.00    -0.343 N 
ATOM     23  H12 UNL     1      -2.039  -4.249  -0.589  1.00  0.00     0.176 HD
ATOM     24  H11 UNL     1      -0.483  -4.940  -0.995  1.00  0.00     0.176 HD
ENDBRANCH  20  22
ENDBRANCH   1  20
BRANCH   6  25
HETATM   25  C4  UNL     1      -3.613   1.444   0.799  1.00  0.00     0.289 C 
HETATM   26  O1  UNL     1      -3.038   2.555   0.917  1.00  0.00    -0.264 OA
HETATM   27  N5  UNL     1      -4.992   1.338   1.016  1.00  0.00    -0.271 N 
ATOM     28  H5  UNL     1      -5.455   0.434   0.918  1.00  0.00     0.189 HD
BRANCH  27  29
HETATM   29  N6  UNL     1      -5.730   2.462   1.364  1.00  0.00    -0.342 N 
ATOM     30  H62 UNL     1      -5.252   3.358   1.457  1.00  0.00     0.176 HD
ATOM     31  H61 UNL     1      -6.735   2.385   1.522  1.00  0.00     0.176 HD
ENDBRANCH  27  29
ENDBRANCH   6  25
TORSDOF 7
