REMARK  6 active torsions:
REMARK  status: ('A' for Active; 'I' for Inactive)
REMARK    1  A    between atoms: C4_10  and  C5_11 
REMARK    2  A    between atoms: C7_16  and  C8_17 
REMARK       I    between atoms: C8_17  and  N7_19 
REMARK    3  A    between atoms: N7_19  and  N8_21 
REMARK    4  A    between atoms: N9_24  and  C9_25 
REMARK    5  A    between atoms: C9_25  and  C10_26 
REMARK    6  A    between atoms: C10_26  and  O2_27 
ROOT
HETATM    1  N1  UNL     1       2.882  -2.457  -2.067  1.00  0.00    -0.191 NA
HETATM    2  C1  UNL     1       3.063  -1.465  -1.492  1.00  0.00     0.105 C 
HETATM    3  C2  UNL     1       3.315  -0.262  -0.756  1.00  0.00     0.116 A 
HETATM    4  C3  UNL     1       4.634   0.192  -0.551  1.00  0.00     0.154 A 
HETATM    5  N2  UNL     1       5.824  -0.382  -1.051  1.00  0.00    -0.080 NA
HETATM    6  N3  UNL     1       4.496   1.273   0.213  1.00  0.00    -0.286 N 
ATOM      7  H3  UNL     1       5.268   1.848   0.549  1.00  0.00     0.188 HD
HETATM    8  N4  UNL     1       3.217   1.500   0.477  1.00  0.00    -0.297 N 
ATOM      9  H4  UNL     1       2.869   2.273   1.044  1.00  0.00     0.187 HD
HETATM   10  C4  UNL     1       2.428   0.552  -0.118  1.00  0.00     0.091 A 
ENDROOT
BRANCH  10  11
HETATM   11  C5  UNL     1       0.987   0.440   0.042  1.00  0.00     0.103 A 
HETATM   12  C6  UNL     1       0.386   0.756   1.275  1.00  0.00     0.136 A 
HETATM   13  N5  UNL     1       1.299   1.027   2.358  1.00  0.00    -0.082 NA
HETATM   14  N6  UNL     1      -0.900   0.775   1.474  1.00  0.00    -0.325 N 
HETATM   15  C7  UNL     1      -1.794   0.481   0.476  1.00  0.00     0.182 A 
ATOM     16  H6  UNL     1      -1.254   1.016   2.400  1.00  0.00     0.169 HD
HETATM   17  N9  UNL     1      -1.270   0.179  -0.692  1.00  0.00    -0.293 N 
HETATM   18  C11 UNL     1       0.089   0.150  -0.944  1.00  0.00     0.265 A 
HETATM   19  O3  UNL     1       0.467  -0.144  -2.108  1.00  0.00    -0.267 OA
BRANCH  15  20
HETATM   20  C8  UNL     1      -3.195   0.561   0.842  1.00  0.00     0.303 C 
HETATM   21  O1  UNL     1      -4.115   0.491   0.038  1.00  0.00    -0.263 OA
HETATM   22  N7  UNL     1      -3.530   0.729   2.209  1.00  0.00    -0.270 N 
ATOM     23  H7  UNL     1      -2.800   0.793   2.918  1.00  0.00     0.189 HD
BRANCH  22  24
HETATM   24  N8  UNL     1      -4.875   0.805   2.567  1.00  0.00    -0.342 N 
ATOM     25  H82 UNL     1      -5.593   0.739   1.846  1.00  0.00     0.176 HD
ATOM     26  H81 UNL     1      -5.116   0.926   3.551  1.00  0.00     0.176 HD
ENDBRANCH  22  24
ENDBRANCH  15  20
BRANCH  17  27
HETATM   27  C9  UNL     1      -2.103  -0.218  -1.807  1.00  0.00     0.160 C 
BRANCH  27  28
HETATM   28  C10 UNL     1      -2.258  -1.698  -1.958  1.00  0.00     0.184 C 
BRANCH  28  29
HETATM   29  O2  UNL     1      -2.791  -2.320  -0.878  1.00  0.00    -0.399 OA
ATOM     30  H2  UNL     1      -2.889  -3.260  -0.974  1.00  0.00     0.209 HD
ENDBRANCH  28  29
ENDBRANCH  27  28
ENDBRANCH  17  27
ENDBRANCH  10  11
TORSDOF 6
