REMARK  6 active torsions:
REMARK  status: ('A' for Active; 'I' for Inactive)
REMARK    1  A    between atoms: C3_5  and  S1_6 
REMARK    2  A    between atoms: S1_6  and  C4_7 
REMARK    3  A    between atoms: C4_7  and  C5_8 
REMARK       I    between atoms: C5_8  and  N2_10 
REMARK    4  A    between atoms: N2_10  and  N3_12 
REMARK    5  A    between atoms: N3_12  and  N4_13 
REMARK       I    between atoms: N4_13  and  C6_15 
REMARK       I    between atoms: C6_15  and  N5_17 
REMARK    6  A    between atoms: N5_17  and  N6_19 
ROOT
HETATM    1  C1  UNL     1      -4.930  -3.291  -0.799  1.00  0.00     0.089 C 
HETATM    2  C2  UNL     1      -4.407  -1.936  -0.485  1.00  0.00     0.080 A 
HETATM    3  N1  UNL     1      -3.165  -1.584  -0.862  1.00  0.00    -0.326 N 
ATOM      4  H1  UNL     1      -2.583  -2.253  -1.366  1.00  0.00     0.169 HD
HETATM    5  C3  UNL     1      -2.678  -0.351  -0.580  1.00  0.00     0.171 A 
HETATM    6  N7  UNL     1      -3.407   0.560   0.079  1.00  0.00    -0.110 N 
HETATM    7  C7  UNL     1      -3.181   1.821   0.480  1.00  0.00     0.685 A 
HETATM    8  N8  UNL     1      -2.139   2.546   0.332  1.00  0.00    -0.234 N 
ATOM      9  H81 UNL     1      -1.967   3.504   0.637  1.00  0.00     0.174 HD
ATOM     10  H82 UNL     1      -1.312   2.193  -0.150  1.00  0.00     0.174 HD
HETATM   11  N9  UNL     1      -4.297   2.298   1.130  1.00  0.00    -0.198 N 
ATOM     12  H9  UNL     1      -4.415   3.224   1.542  1.00  0.00     0.183 HD
HETATM   13  C8  UNL     1      -5.183   1.321   1.115  1.00  0.00     0.155 A 
HETATM   14  C9  UNL     1      -4.666   0.221   0.469  1.00  0.00     0.148 A 
HETATM   15  N10 UNL     1      -5.109  -1.001   0.173  1.00  0.00    -0.330 N 
ATOM     16  H10 UNL     1      -6.054  -1.244   0.470  1.00  0.00     0.168 HD
ENDROOT
BRANCH   5  17
HETATM   17  S1  UNL     1      -1.024  -0.021  -1.137  1.00  0.00    -0.083 SA
BRANCH  17  18
HETATM   18  C4  UNL     1       0.125  -0.520   0.203  1.00  0.00     0.186 C 
BRANCH  18  19
HETATM   19  C5  UNL     1       1.483  -0.234  -0.294  1.00  0.00     0.244 C 
HETATM   20  O1  UNL     1       2.102  -1.119  -0.913  1.00  0.00    -0.271 OA
HETATM   21  N2  UNL     1       2.077   1.026  -0.071  1.00  0.00    -0.253 N 
ATOM     22  H2  UNL     1       1.552   1.736   0.439  1.00  0.00     0.187 HD
BRANCH  21  23
HETATM   23  N3  UNL     1       3.351   1.328  -0.524  1.00  0.00    -0.016 NA
BRANCH  23  24
HETATM   24  N4  UNL     1       4.289   0.623   0.233  1.00  0.00    -0.234 N 
HETATM   25  C6  UNL     1       5.620   0.542  -0.257  1.00  0.00     0.351 C 
HETATM   26  O2  UNL     1       5.933   1.100  -1.355  1.00  0.00    -0.244 OA
HETATM   27  N5  UNL     1       6.568  -0.172   0.511  1.00  0.00    -0.257 N 
ATOM     28  H5  UNL     1       6.293  -0.612   1.389  1.00  0.00     0.191 HD
ATOM     29  H4  UNL     1       4.026   0.179   1.113  1.00  0.00     0.189 HD
BRANCH  27  30
HETATM   30  N6  UNL     1       7.879  -0.269   0.057  1.00  0.00    -0.341 N 
ATOM     31  H62 UNL     1       8.138   0.176  -0.823  1.00  0.00     0.177 HD
ATOM     32  H61 UNL     1       8.563  -0.784   0.611  1.00  0.00     0.177 HD
ENDBRANCH  27  30
ENDBRANCH  23  24
ENDBRANCH  21  23
ENDBRANCH  18  19
ENDBRANCH  17  18
ENDBRANCH   5  17
TORSDOF 6
