REMARK  7 active torsions:
REMARK  status: ('A' for Active; 'I' for Inactive)
REMARK    1  A    between atoms: N2_4  and  C3_6 
REMARK    2  A    between atoms: C3_6  and  C4_7 
REMARK    3  A    between atoms: C4_7  and  C5_11 
REMARK    4  A    between atoms: C5_11  and  O1_12 
REMARK    5  A    between atoms: C5_11  and  C6_14 
REMARK    6  A    between atoms: C6_14  and  N4_15 
REMARK    7  A    between atoms: C10_30  and  N10_31 
ROOT
HETATM    1  C1  UNL     1      -1.428   1.747  -1.265  1.00  0.00     0.177 C 
HETATM    2  N1  UNL     1      -1.933   0.738  -0.369  1.00  0.00    -0.169 N 
HETATM    3  C2  UNL     1      -1.266   0.027   0.554  1.00  0.00     0.686 A 
HETATM    4  N2  UNL     1      -0.031   0.060   0.869  1.00  0.00    -0.200 N 
ATOM      5  H2  UNL     1       0.265  -0.576   1.610  1.00  0.00     0.183 HD
HETATM    6  N8  UNL     1      -2.200  -0.802   1.143  1.00  0.00    -0.182 N 
ATOM      7  H8  UNL     1      -1.994  -1.467   1.888  1.00  0.00     0.184 HD
HETATM    8  C8  UNL     1      -3.398  -0.619   0.613  1.00  0.00     0.162 A 
HETATM    9  C9  UNL     1      -4.664  -1.145   0.795  1.00  0.00     0.290 A 
HETATM   10  O2  UNL     1      -4.795  -2.030   1.669  1.00  0.00    -0.265 OA
HETATM   11  N9  UNL     1      -5.662  -0.682   0.032  1.00  0.00    -0.154 N 
ATOM     12  H9  UNL     1      -6.592  -1.076   0.172  1.00  0.00     0.187 HD
HETATM   13  C10 UNL     1      -5.517   0.265  -0.903  1.00  0.00     0.680 A 
HETATM   14  N11 UNL     1      -4.295   0.787  -1.093  1.00  0.00    -0.174 N 
ATOM     15  H11 UNL     1      -4.155   1.510  -1.799  1.00  0.00     0.186 HD
HETATM   16  C11 UNL     1      -3.247   0.356  -0.349  1.00  0.00     0.171 A 
ENDROOT
BRANCH   4  17
HETATM   17  C3  UNL     1       0.970   0.876   0.308  1.00  0.00     0.133 C 
BRANCH  17  18
HETATM   18  C4  UNL     1       2.362   0.393   0.699  1.00  0.00     0.049 C 
HETATM   19  N3  UNL     1       3.086   1.175   1.349  1.00  0.00    -0.399 N 
ATOM     20  H32 UNL     1       2.807   2.118   1.619  1.00  0.00     0.156 HD
ATOM     21  H31 UNL     1       4.017   0.852   1.611  1.00  0.00     0.156 HD
BRANCH  18  22
HETATM   22  C5  UNL     1       2.760  -0.953   0.314  1.00  0.00     0.188 C 
BRANCH  22  23
HETATM   23  O1  UNL     1       1.839  -1.911   0.815  1.00  0.00    -0.388 OA
ATOM     24  H1  UNL     1       2.099  -2.790   0.564  1.00  0.00     0.210 HD
ENDBRANCH  22  23
BRANCH  22  25
HETATM   25  C6  UNL     1       4.119  -1.422   0.608  1.00  0.00     0.189 C 
BRANCH  25  26
HETATM   26  N4  UNL     1       5.209  -0.708   0.003  1.00  0.00    -0.268 N 
HETATM   27  C7  UNL     1       5.988   0.282   0.436  1.00  0.00     0.220 A 
HETATM   28  N5  UNL     1       6.880   0.655  -0.531  1.00  0.00    -0.279 N 
HETATM   29  N6  UNL     1       6.619  -0.132  -1.552  1.00  0.00    -0.227 N 
ATOM     30  H5  UNL     1       7.592   1.384  -0.473  1.00  0.00     0.189 HD
HETATM   31  N7  UNL     1       5.636  -0.946  -1.262  1.00  0.00    -0.225 N 
ATOM     32  H6  UNL     1       7.113  -0.111  -2.444  1.00  0.00     0.210 HD
ATOM     33  H7  UNL     1       5.250  -1.651  -1.891  1.00  0.00     0.210 HD
ENDBRANCH  25  26
ENDBRANCH  22  25
ENDBRANCH  18  22
ENDBRANCH  17  18
ENDBRANCH   4  17
BRANCH  13  34
HETATM   34  N10 UNL     1      -6.535   0.678  -1.619  1.00  0.00    -0.234 N 
ATOM     35 2H10 UNL     1      -7.464   0.281  -1.475  1.00  0.00     0.174 HD
ATOM     36 1H10 UNL     1      -6.425   1.400  -2.331  1.00  0.00     0.174 HD
ENDBRANCH  13  34
TORSDOF 7
