REMARK  14 active torsions:
REMARK  status: ('A' for Active; 'I' for Inactive)
REMARK    1  A    between atoms: C2_2  and  C3_3 
REMARK    2  A    between atoms: C3_3  and  C4_4 
REMARK    3  A    between atoms: C4_4  and  C5_5 
REMARK    4  A    between atoms: C5_5  and  N1_6 
REMARK    5  A    between atoms: N2_9  and  C7_10 
REMARK    6  A    between atoms: C7_10  and  O2_11 
REMARK    7  A    between atoms: C7_10  and  C8_13 
REMARK    8  A    between atoms: C9_18  and  C10_19 
REMARK    9  A    between atoms: C21_30  and  C22_31 
REMARK       I    between atoms: C22_31  and  N5_33 
REMARK   10  A    between atoms: N5_33  and  C23_35 
REMARK   11  A    between atoms: C23_35  and  C25_38 
REMARK   12  A    between atoms: C25_38  and  C26_39 
REMARK   13  A    between atoms: N7_41  and  C28_42 
REMARK   14  A    between atoms: C28_42  and  C29_43 
ROOT
HETATM    1  C23 UNL     1       3.313   0.532   1.351  1.00  0.00     0.197 C 
HETATM    2  C24 UNL     1       3.831   1.319   2.468  1.00  0.00     0.085 C 
HETATM    3  N6  UNL     1       4.248   1.955   3.342  1.00  0.00    -0.195 NA
ENDROOT
BRANCH   1   4
HETATM    4  N5  UNL     1       2.187  -0.277   1.741  1.00  0.00    -0.342 N 
HETATM    5  C22 UNL     1       2.175  -1.668   1.528  1.00  0.00     0.243 C 
HETATM    6  O3  UNL     1       3.220  -2.150   0.961  1.00  0.00    -0.271 OA
ATOM      7  H5  UNL     1       1.381   0.168   2.181  1.00  0.00     0.163 HD
BRANCH   5   8
HETATM    8  C21 UNL     1       1.132  -2.624   1.868  1.00  0.00     0.199 C 
HETATM    9  N1  UNL     1       0.449  -3.220   0.722  1.00  0.00    -0.319 N 
HETATM   10  C6  UNL     1      -0.921  -2.871   0.898  1.00  0.00     0.327 C 
HETATM   11  O1  UNL     1      -1.956  -3.453   0.470  1.00  0.00    -0.247 OA
HETATM   12  N2  UNL     1      -0.972  -1.687   1.689  1.00  0.00    -0.276 N 
HETATM   13  C20 UNL     1       0.070  -2.014   2.712  1.00  0.00     0.171 C 
BRANCH   9  14
HETATM   14  C5  UNL     1       1.012  -3.998  -0.338  1.00  0.00     0.129 C 
BRANCH  14  15
HETATM   15  C4  UNL     1       1.152  -5.452  -0.119  1.00  0.00     0.020 C 
BRANCH  15  16
HETATM   16  C3  UNL     1      -0.053  -6.288   0.039  1.00  0.00     0.001 C 
BRANCH  16  17
HETATM   17  C2  UNL     1      -0.938  -6.360  -1.190  1.00  0.00    -0.004 C 
HETATM   18  C1  UNL     1      -0.177  -6.943  -2.370  1.00  0.00     0.005 C 
ENDBRANCH  16  17
ENDBRANCH  15  16
ENDBRANCH  14  15
ENDBRANCH   9  14
BRANCH  12  19
HETATM   19  C7  UNL     1      -1.738  -0.530   1.672  1.00  0.00     0.175 C 
BRANCH  19  20
HETATM   20  O2  UNL     1      -1.530   0.247   2.706  1.00  0.00    -0.344 OA
ATOM     21  H2  UNL     1      -2.054   1.039   2.694  1.00  0.00     0.219 HD
ENDBRANCH  19  20
BRANCH  19  22
HETATM   22  C8  UNL     1      -2.709  -0.047   0.724  1.00  0.00     0.107 A 
HETATM   23  N3  UNL     1      -3.107  -0.530  -0.451  1.00  0.00    -0.296 N 
HETATM   24  N4  UNL     1      -4.083   0.225  -0.994  1.00  0.00    -0.299 N 
ATOM     25  H3  UNL     1      -2.721  -1.368  -0.887  1.00  0.00     0.187 HD
HETATM   26  C9  UNL     1      -4.353   1.246  -0.169  1.00  0.00     0.066 A 
ATOM     27  H4  UNL     1      -4.542   0.048  -1.888  1.00  0.00     0.187 HD
HETATM   28  C18 UNL     1      -3.520   1.097   0.891  1.00  0.00    -0.001 A 
HETATM   29  C19 UNL     1      -3.476   1.989   2.058  1.00  0.00     0.053 C 
BRANCH  26  30
HETATM   30  C10 UNL     1      -5.358   2.258  -0.427  1.00  0.00    -0.006 A 
HETATM   31  C11 UNL     1      -6.649   1.923  -0.830  1.00  0.00     0.020 A 
HETATM   32  C12 UNL     1      -7.608   2.868  -1.092  1.00  0.00    -0.061 A 
HETATM   33  C13 UNL     1      -8.957   2.392  -1.514  1.00  0.00     0.048 C 
HETATM   34  C14 UNL     1      -7.280   4.187  -0.949  1.00  0.00     0.013 A 
HETATM   35  C15 UNL     1      -6.018   4.533  -0.554  1.00  0.00    -0.061 A 
HETATM   36  C16 UNL     1      -5.668   5.986  -0.402  1.00  0.00     0.048 C 
HETATM   37  C17 UNL     1      -5.064   3.603  -0.294  1.00  0.00     0.020 A 
ENDBRANCH  26  30
ENDBRANCH  19  22
ENDBRANCH  12  19
ENDBRANCH   5   8
ENDBRANCH   1   4
BRANCH   1  38
HETATM   38  C25 UNL     1       2.994   1.473   0.226  1.00  0.00     0.100 C 
BRANCH  38  39
HETATM   39  C26 UNL     1       4.232   2.254  -0.094  1.00  0.00     0.047 A 
HETATM   40  C27 UNL     1       5.226   1.951  -0.994  1.00  0.00     0.138 A 
HETATM   41  N7  UNL     1       6.121   2.943  -0.913  1.00  0.00    -0.287 N 
HETATM   42  N8  UNL     1       5.699   3.809  -0.010  1.00  0.00    -0.241 N 
HETATM   43  N9  UNL     1       4.571   3.406   0.486  1.00  0.00    -0.289 N 
ATOM     44  H8  UNL     1       6.186   4.665   0.257  1.00  0.00     0.208 HD
ATOM     45  H9  UNL     1       4.031   3.891   1.203  1.00  0.00     0.188 HD
BRANCH  41  46
HETATM   46  C28 UNL     1       7.365   3.092  -1.673  1.00  0.00     0.149 C 
BRANCH  46  47
HETATM   47  C29 UNL     1       8.448   2.398  -0.864  1.00  0.00     0.017 C 
HETATM   48  C30 UNL     1       9.791   2.488  -1.553  1.00  0.00     0.007 C 
ENDBRANCH  46  47
ENDBRANCH  41  46
ENDBRANCH  38  39
ENDBRANCH   1  38
TORSDOF 14
