REMARK  14 active torsions:
REMARK  status: ('A' for Active; 'I' for Inactive)
REMARK    1  A    between atoms: C2_2  and  N1_3 
REMARK    2  A    between atoms: N1_3  and  C3_4 
REMARK    3  A    between atoms: N1_3  and  C5_6 
REMARK    4  A    between atoms: C5_6  and  C6_7 
REMARK    5  A    between atoms: C6_7  and  C7_8 
REMARK    6  A    between atoms: C7_8  and  C8_9 
REMARK    7  A    between atoms: C8_9  and  C9_10 
REMARK    8  A    between atoms: C8_9  and  N4_24 
REMARK       I    between atoms: C9_10  and  N2_12 
REMARK    9  A    between atoms: N2_12  and  C10_14 
REMARK   10  A    between atoms: N5_27  and  C19_28 
REMARK   11  A    between atoms: C19_28  and  C20_29 
REMARK   12  A    between atoms: C22_31  and  O2_32 
REMARK   13  A    between atoms: C24_34  and  O3_35 
REMARK   14  A    between atoms: C26_37  and  O4_38 
ROOT
HETATM    1  C8  UNL     1       1.485   0.066   0.483  1.00  0.00     0.314 C 
ENDROOT
BRANCH   1   2
HETATM    2  C7  UNL     1       1.892   1.530   0.401  1.00  0.00     0.047 C 
BRANCH   2   3
HETATM    3  C6  UNL     1       2.939   1.787  -0.621  1.00  0.00     0.033 C 
BRANCH   3   4
HETATM    4  C5  UNL     1       3.223   3.290  -0.615  1.00  0.00     0.272 C 
BRANCH   4   5
HETATM    5  N1  UNL     1       2.053   4.046  -0.933  1.00  0.00     0.087 N 
BRANCH   5   6
HETATM    6  C2  UNL     1       2.303   5.486  -0.883  1.00  0.00     0.268 C 
HETATM    7  C1  UNL     1       0.991   6.227  -0.750  1.00  0.00     0.037 C 
ENDBRANCH   5   6
BRANCH   5   8
HETATM    8  C3  UNL     1       1.391   3.671  -2.145  1.00  0.00     0.268 C 
HETATM    9  C4  UNL     1       2.277   3.843  -3.362  1.00  0.00     0.037 C 
ENDBRANCH   5   8
ENDBRANCH   4   5
ENDBRANCH   3   4
ENDBRANCH   2   3
ENDBRANCH   1   2
BRANCH   1  10
HETATM   10  C9  UNL     1       2.687  -0.710   0.848  1.00  0.00     0.257 C 
HETATM   11  O1  UNL     1       2.896  -0.979   2.047  1.00  0.00    -0.271 OA
HETATM   12  N2  UNL     1       3.569  -1.134  -0.143  1.00  0.00    -0.305 N 
ATOM     13  H2  UNL     1       3.672  -0.517  -0.948  1.00  0.00     0.171 HD
BRANCH  12  14
HETATM   14  C10 UNL     1       4.276  -2.223  -0.162  1.00  0.00     0.151 A 
HETATM   15  N3  UNL     1       4.373  -3.221   0.715  1.00  0.00    -0.339 N 
HETATM   16  C11 UNL     1       5.168  -4.218   0.455  1.00  0.00     0.024 A 
ATOM     17  H3  UNL     1       3.831  -3.204   1.579  1.00  0.00     0.168 HD
HETATM   18  C12 UNL     1       5.871  -4.191  -0.720  1.00  0.00     0.009 A 
HETATM   19  C16 UNL     1       5.461  -5.470   1.281  1.00  0.00     0.058 C 
HETATM   20  S1  UNL     1       5.360  -2.723  -1.410  1.00  0.00    -0.057 SA
HETATM   21  C13 UNL     1       6.806  -5.323  -1.074  1.00  0.00     0.048 C 
HETATM   22  C14 UNL     1       7.685  -5.553   0.109  1.00  0.00     0.006 C 
HETATM   23  C15 UNL     1       6.958  -5.596   1.415  1.00  0.00     0.006 C 
ENDBRANCH  12  14
ENDBRANCH   1  10
BRANCH   1  24
HETATM   24  N4  UNL     1       0.412  -0.038   1.476  1.00  0.00     0.105 N 
HETATM   25  C17 UNL     1      -0.053  -1.399   1.649  1.00  0.00     0.303 C 
HETATM   26  C18 UNL     1      -0.960  -1.726   0.496  1.00  0.00     0.303 C 
HETATM   27  N5  UNL     1      -2.234  -1.063   0.741  1.00  0.00     0.096 N 
HETATM   28  C29 UNL     1      -2.037   0.276   1.248  1.00  0.00     0.303 C 
HETATM   29  C30 UNL     1      -0.653   0.808   0.959  1.00  0.00     0.303 C 
BRANCH  27  30
HETATM   30  C19 UNL     1      -3.073  -1.102  -0.439  1.00  0.00     0.311 C 
BRANCH  30  31
HETATM   31  C20 UNL     1      -4.370  -0.458  -0.131  1.00  0.00    -0.025 A 
HETATM   32  C21 UNL     1      -4.906  -0.465   1.140  1.00  0.00     0.048 A 
HETATM   33  C22 UNL     1      -6.110   0.125   1.459  1.00  0.00     0.104 A 
HETATM   34  C24 UNL     1      -6.848   0.767   0.478  1.00  0.00     0.135 A 
HETATM   35  C26 UNL     1      -6.321   0.779  -0.797  1.00  0.00     0.104 A 
HETATM   36  C28 UNL     1      -5.119   0.187  -1.101  1.00  0.00     0.048 A 
BRANCH  33  37
HETATM   37  O2  UNL     1      -6.628   0.105   2.746  1.00  0.00    -0.353 OA
HETATM   38  C23 UNL     1      -5.935  -0.532   3.811  1.00  0.00     0.210 C 
ENDBRANCH  33  37
BRANCH  34  39
HETATM   39  O3  UNL     1      -8.068   1.375   0.757  1.00  0.00    -0.351 OA
HETATM   40  C25 UNL     1      -9.219   0.531   0.612  1.00  0.00     0.210 C 
ENDBRANCH  34  39
BRANCH  35  41
HETATM   41  O4  UNL     1      -7.046   1.420  -1.801  1.00  0.00    -0.353 OA
HETATM   42  C27 UNL     1      -6.561   1.468  -3.127  1.00  0.00     0.210 C 
ENDBRANCH  35  41
ENDBRANCH  30  31
ENDBRANCH  27  30
ENDBRANCH   1  24
TORSDOF 14
