REMARK  12 active torsions:
REMARK  status: ('A' for Active; 'I' for Inactive)
REMARK    1  A    between atoms: C2_2  and  C3_3 
REMARK    2  A    between atoms: C3_3  and  C4_4 
REMARK    3  A    between atoms: C4_4  and  C5_5 
REMARK    4  A    between atoms: C5_5  and  N1_7 
REMARK    5  A    between atoms: C5_5  and  C19_36 
REMARK       I    between atoms: N1_7  and  C7_9 
REMARK    6  A    between atoms: C7_9  and  C8_11 
REMARK    7  A    between atoms: C14_20  and  C15_21 
REMARK    8  A    between atoms: C15_21  and  O2_22 
REMARK    9  A    between atoms: C15_21  and  C16_24 
REMARK   10  A    between atoms: C17_28  and  O3_29 
REMARK   11  A    between atoms: C18_32  and  N4_33 
REMARK   12  A    between atoms: C21_39  and  C22_40 
ROOT
HETATM    1  C19 UNL     1      -2.952  -1.096   0.787  1.00  0.00     0.047 C 
HETATM    2  C20 UNL     1      -2.429  -2.440   0.569  1.00  0.00     0.097 C 
HETATM    3  N5  UNL     1      -1.990  -3.506   0.400  1.00  0.00    -0.192 NA
HETATM    4  C21 UNL     1      -4.231  -0.860   0.760  1.00  0.00     0.002 C 
ENDROOT
BRANCH   1   5
HETATM    5  C5  UNL     1      -1.928  -0.065   1.083  1.00  0.00     0.066 C 
HETATM    6  C6  UNL     1      -1.519  -0.346   2.566  1.00  0.00     0.044 C 
BRANCH   5   7
HETATM    7  C4  UNL     1      -2.453   1.337   1.120  1.00  0.00     0.036 C 
BRANCH   7   8
HETATM    8  C3  UNL     1      -2.865   1.823  -0.240  1.00  0.00     0.002 C 
BRANCH   8   9
HETATM    9  C2  UNL     1      -3.400   3.255  -0.094  1.00  0.00    -0.004 C 
HETATM   10  C1  UNL     1      -2.302   4.123   0.468  1.00  0.00     0.005 C 
ENDBRANCH   8   9
ENDBRANCH   7   8
ENDBRANCH   5   7
BRANCH   5  11
HETATM   11  N1  UNL     1      -0.795  -0.218   0.230  1.00  0.00    -0.342 N 
HETATM   12  C7  UNL     1       0.440   0.429   0.389  1.00  0.00     0.273 C 
HETATM   13  O1  UNL     1       0.654   1.237   1.352  1.00  0.00    -0.266 OA
ATOM     14  H1  UNL     1      -0.891  -0.852  -0.563  1.00  0.00     0.164 HD
BRANCH  12  15
HETATM   15  C8  UNL     1       1.560   0.233  -0.517  1.00  0.00     0.145 C 
HETATM   16  N2  UNL     1       1.376  -0.621  -1.567  1.00  0.00    -0.352 N 
HETATM   17  C9  UNL     1       2.232  -0.968  -2.572  1.00  0.00     0.008 C 
ATOM     18  H2  UNL     1       0.460  -1.067  -1.606  1.00  0.00     0.166 HD
HETATM   19  C10 UNL     1       1.598  -1.680  -3.703  1.00  0.00     0.068 C 
HETATM   20  C11 UNL     1       3.586  -0.725  -2.629  1.00  0.00     0.056 C 
HETATM   21  C12 UNL     1       4.378  -0.219  -1.594  1.00  0.00     0.067 A 
HETATM   22  C13 UNL     1       5.715  -0.411  -1.478  1.00  0.00     0.074 A 
HETATM   23  N3  UNL     1       4.011   0.513  -0.532  1.00  0.00    -0.274 N 
HETATM   24 CL1  UNL     1       6.712  -1.308  -2.610  1.00  0.00    -0.081 Cl
HETATM   25  C14 UNL     1       6.189   0.224  -0.302  1.00  0.00     0.054 A 
HETATM   26  C17 UNL     1       5.075   0.793   0.261  1.00  0.00     0.159 A 
HETATM   27  C18 UNL     1       2.751   0.935  -0.253  1.00  0.00     0.141 C 
BRANCH  25  28
HETATM   28  C15 UNL     1       7.592   0.162   0.075  1.00  0.00     0.264 C 
BRANCH  28  29
HETATM   29  O2  UNL     1       7.856  -1.183   0.467  1.00  0.00    -0.382 OA
ATOM     30  H2  UNL     1       8.773  -1.224   0.713  1.00  0.00     0.210 HD
ENDBRANCH  28  29
BRANCH  28  31
HETATM   31  C16 UNL     1       8.047   1.008   1.209  1.00  0.00     0.417 C 
HETATM   32  F1  UNL     1       9.442   0.794   1.414  1.00  0.00    -0.168 F 
HETATM   33  F2  UNL     1       7.469   0.726   2.416  1.00  0.00    -0.168 F 
HETATM   34  F3  UNL     1       7.984   2.380   0.927  1.00  0.00    -0.168 F 
ENDBRANCH  28  31
ENDBRANCH  25  28
BRANCH  26  35
HETATM   35  O3  UNL     1       4.999   1.522   1.420  1.00  0.00    -0.345 OA
ATOM     36  H3  UNL     1       4.228   1.916   1.810  1.00  0.00     0.219 HD
ENDBRANCH  26  35
BRANCH  27  37
HETATM   37  N4  UNL     1       2.551   2.050   0.295  1.00  0.00    -0.383 N 
ATOM     38  H42 UNL     1       1.604   2.367   0.505  1.00  0.00     0.157 HD
ATOM     39  H41 UNL     1       3.414   2.559   0.486  1.00  0.00     0.157 HD
ENDBRANCH  27  37
ENDBRANCH  12  15
ENDBRANCH   5  11
ENDBRANCH   1   5
BRANCH   4  40
HETATM   40  C22 UNL     1      -5.248  -1.906   0.458  1.00  0.00    -0.032 C 
HETATM   41  C23 UNL     1      -5.148  -2.977   1.518  1.00  0.00     0.018 C 
HETATM   42  C24 UNL     1      -6.626  -1.294   0.548  1.00  0.00     0.018 C 
HETATM   43  C25 UNL     1      -5.099  -2.458  -0.935  1.00  0.00     0.018 C 
ENDBRANCH   4  40
TORSDOF 12
