REMARK  10 active torsions:
REMARK  status: ('A' for Active; 'I' for Inactive)
REMARK    1  A    between atoms: N1_1  and  C1_4 
REMARK    2  A    between atoms: C2_7  and  C3_8 
REMARK    3  A    between atoms: C4_9  and  O1_10 
REMARK    4  A    between atoms: C5_12  and  C6_13 
REMARK    5  A    between atoms: C16_26  and  C17_27 
REMARK    6  A    between atoms: C17_27  and  C18_28 
REMARK    7  A    between atoms: C18_28  and  C19_29 
REMARK    8  A    between atoms: C19_29  and  C20_30 
REMARK    9  A    between atoms: C20_30  and  C21_31 
REMARK   10  A    between atoms: C21_31  and  C22_34 
ROOT
HETATM    1  C1  UNL     1      -2.586  -3.832   0.672  1.00  0.00     0.676 A 
HETATM    2  N2  UNL     1      -3.633  -2.974   0.735  1.00  0.00    -0.190 N 
ATOM      3  H2  UNL     1      -4.600  -3.290   0.803  1.00  0.00     0.184 HD
HETATM    4  C2  UNL     1      -3.295  -1.671   0.701  1.00  0.00     0.082 A 
HETATM    5  C13 UNL     1      -1.953  -1.276   0.606  1.00  0.00     0.063 A 
HETATM    6  S1  UNL     1      -1.171   0.235   0.539  1.00  0.00    -0.083 SA
HETATM    7  C14 UNL     1       0.452  -0.301   0.433  1.00  0.00     0.035 A 
HETATM    8  C15 UNL     1       1.689   0.365   0.343  1.00  0.00     0.029 A 
HETATM    9  C16 UNL     1       2.856  -0.366   0.270  1.00  0.00    -0.041 A 
HETATM   10  C23 UNL     1       2.695  -1.722   0.294  1.00  0.00     0.095 A 
HETATM   11  N3  UNL     1       1.532  -2.347   0.378  1.00  0.00    -0.362 N 
ATOM     12  H3  UNL     1       1.520  -3.367   0.387  1.00  0.00     0.165 HD
HETATM   13  C24 UNL     1       0.331  -1.662   0.454  1.00  0.00     0.078 A 
HETATM   14  C25 UNL     1      -0.930  -2.167   0.544  1.00  0.00     0.096 A 
HETATM   15  N4  UNL     1      -1.318  -3.484   0.583  1.00  0.00    -0.188 N 
ATOM     16  H4  UNL     1      -0.605  -4.213   0.542  1.00  0.00     0.184 HD
ENDROOT
BRANCH   4  17
HETATM   17  C3  UNL     1      -4.259  -0.584   0.756  1.00  0.00     0.034 A 
HETATM   18  C4  UNL     1      -4.612  -0.082   1.990  1.00  0.00     0.095 A 
HETATM   19  C5  UNL     1      -5.517   0.947   2.134  1.00  0.00     0.075 A 
HETATM   20  C7  UNL     1      -6.073   1.473   0.975  1.00  0.00     0.029 A 
HETATM   21  C8  UNL     1      -5.733   0.984  -0.268  1.00  0.00    -0.050 A 
HETATM   22  C9  UNL     1      -4.811  -0.061  -0.388  1.00  0.00    -0.036 A 
HETATM   23  C12 UNL     1      -6.161   1.350  -1.625  1.00  0.00     0.039 C 
HETATM   24  C10 UNL     1      -4.613  -0.403  -1.800  1.00  0.00     0.040 C 
HETATM   25  C11 UNL     1      -5.032   0.894  -2.494  1.00  0.00     0.009 C 
BRANCH  18  26
HETATM   26  O1  UNL     1      -4.025  -0.643   3.141  1.00  0.00    -0.359 OA
ATOM     27  H1  UNL     1      -4.268  -0.297   3.992  1.00  0.00     0.217 HD
ENDBRANCH  18  26
BRANCH  19  28
HETATM   28  C6  UNL     1      -5.847   1.430   3.449  1.00  0.00     0.212 C 
HETATM   29  O2  UNL     1      -5.314   0.917   4.462  1.00  0.00    -0.644 OA
HETATM   30  O3  UNL     1      -6.751   2.461   3.644  1.00  0.00    -0.644 OA
ENDBRANCH  19  28
ENDBRANCH   4  17
BRANCH   1  31
HETATM   31  N1  UNL     1      -2.897  -5.094   0.705  1.00  0.00    -0.234 N 
ATOM     32  H12 UNL     1      -3.878  -5.363   0.774  1.00  0.00     0.174 HD
ATOM     33  H11 UNL     1      -2.109  -5.740   0.658  1.00  0.00     0.174 HD
ENDBRANCH   1  31
BRANCH   9  34
HETATM   34  C17 UNL     1       4.153   0.350   0.175  1.00  0.00     0.040 C 
BRANCH  34  35
HETATM   35  C18 UNL     1       4.481   0.572  -1.271  1.00  0.00     0.005 C 
BRANCH  35  36
HETATM   36  C19 UNL     1       5.780   1.325  -1.498  1.00  0.00     0.007 C 
BRANCH  36  37
HETATM   37  C20 UNL     1       6.899   0.537  -0.906  1.00  0.00     0.089 C 
BRANCH  37  38
HETATM   38  C21 UNL     1       8.282   1.030  -1.075  1.00  0.00     0.339 C 
HETATM   39  F1  UNL     1       9.133   0.124  -0.440  1.00  0.00    -0.196 F 
HETATM   40  F2  UNL     1       8.546   1.011  -2.458  1.00  0.00    -0.196 F 
BRANCH  38  41
HETATM   41  C22 UNL     1       8.494   2.409  -0.596  1.00  0.00     0.454 C 
HETATM   42  F3  UNL     1       7.731   3.318  -1.274  1.00  0.00    -0.165 F 
HETATM   43  F4  UNL     1       9.826   2.802  -0.677  1.00  0.00    -0.165 F 
HETATM   44  F5  UNL     1       8.120   2.465   0.758  1.00  0.00    -0.165 F 
ENDBRANCH  38  41
ENDBRANCH  37  38
ENDBRANCH  36  37
ENDBRANCH  35  36
ENDBRANCH  34  35
ENDBRANCH   9  34
TORSDOF 10
