REMARK  8 active torsions:
REMARK  status: ('A' for Active; 'I' for Inactive)
REMARK    1  A    between atoms: C2_2  and  O1_4 
REMARK    2  A    between atoms: C2_2  and  C4_6 
REMARK    3  A    between atoms: C7_9  and  N1_10 
REMARK    4  A    between atoms: N1_10  and  C8_12 
REMARK    5  A    between atoms: C8_12  and  C9_13 
REMARK    6  A    between atoms: C9_13  and  N2_14 
REMARK    7  A    between atoms: N2_14  and  C10_16 
REMARK    8  A    between atoms: C22_37  and  C24_39 
ROOT
HETATM    1  C10 UNL     1       2.056  -0.463   0.768  1.00  0.00     0.037 A 
HETATM    2  C11 UNL     1       2.537  -1.475   1.548  1.00  0.00     0.061 A 
HETATM    3  C12 UNL     1       3.898  -1.611   1.661  1.00  0.00     0.063 A 
HETATM    4  N3  UNL     1       4.620  -2.525   2.358  1.00  0.00    -0.299 N 
ATOM      5  H3  UNL     1       4.220  -3.273   2.925  1.00  0.00     0.187 HD
HETATM    6  N4  UNL     1       5.884  -2.314   2.202  1.00  0.00    -0.297 N 
ATOM      7  H4  UNL     1       6.626  -2.871   2.626  1.00  0.00     0.187 HD
HETATM    8  C13 UNL     1       6.089  -1.205   1.362  1.00  0.00     0.096 A 
HETATM    9  C14 UNL     1       7.412  -0.740   1.048  1.00  0.00     0.121 A 
HETATM   10  C15 UNL     1       8.462  -1.692   0.887  1.00  0.00     0.129 A 
HETATM   11  N5  UNL     1       9.587  -1.058   0.622  1.00  0.00    -0.354 N 
ATOM     12  H5  UNL     1      10.500  -1.481   0.458  1.00  0.00     0.166 HD
HETATM   13  C16 UNL     1       9.297   0.256   0.609  1.00  0.00     0.233 A 
HETATM   14  O2  UNL     1       8.041   0.359   0.859  1.00  0.00    -0.302 OA
HETATM   15  C17 UNL     1       4.845  -0.792   1.032  1.00  0.00     0.031 A 
HETATM   16  C18 UNL     1       4.359   0.250   0.214  1.00  0.00    -0.011 A 
HETATM   17  C19 UNL     1       2.944   0.363   0.132  1.00  0.00    -0.017 A 
HETATM   18  C20 UNL     1       2.602   1.620  -0.644  1.00  0.00     0.122 C 
HETATM   19  C21 UNL     1       3.900   2.365  -0.455  1.00  0.00     0.267 C 
HETATM   20  F1  UNL     1       3.965   3.360  -1.326  1.00  0.00    -0.204 F 
HETATM   21  F2  UNL     1       4.086   2.751   0.855  1.00  0.00    -0.204 F 
HETATM   22  C22 UNL     1       4.852   1.143  -0.750  1.00  0.00     0.148 C 
HETATM   23  C23 UNL     1       4.175   0.561  -2.060  1.00  0.00     0.036 C 
ENDROOT
BRANCH   1  24
HETATM   24  N2  UNL     1       0.658  -0.294   0.647  1.00  0.00    -0.388 N 
ATOM     25  H2  UNL     1       0.274   0.461   0.078  1.00  0.00     0.159 HD
BRANCH  24  26
HETATM   26  C9  UNL     1      -0.217  -1.207   1.341  1.00  0.00     0.139 C 
BRANCH  26  27
HETATM   27  C8  UNL     1      -1.685  -0.823   1.124  1.00  0.00     0.133 C 
BRANCH  27  28
HETATM   28  N1  UNL     1      -1.936  -0.866  -0.289  1.00  0.00    -0.416 N 
ATOM     29  H1  UNL     1      -1.207  -1.096  -0.964  1.00  0.00     0.153 HD
BRANCH  28  30
HETATM   30  C7  UNL     1      -3.273  -0.566  -0.685  1.00  0.00     0.076 C 
HETATM   31  C6  UNL     1      -3.632   0.827  -0.304  1.00  0.00     0.025 C 
HETATM   32  C5  UNL     1      -5.085   1.186  -0.535  1.00  0.00     0.009 C 
HETATM   33  C4  UNL     1      -6.042   0.088  -0.212  1.00  0.00     0.019 C 
HETATM   34  C26 UNL     1      -5.618  -1.237  -0.828  1.00  0.00     0.009 C 
HETATM   35  C25 UNL     1      -4.273  -1.578  -0.174  1.00  0.00     0.025 C 
BRANCH  33  36
HETATM   36  C2  UNL     1      -7.402   0.450  -0.763  1.00  0.00     0.054 C 
HETATM   37  C1  UNL     1      -8.428  -0.627  -0.475  1.00  0.00     0.045 C 
HETATM   38  C3  UNL     1      -7.816   1.765  -0.104  1.00  0.00     0.045 C 
BRANCH  36  39
HETATM   39  O1  UNL     1      -7.257   0.705  -2.122  1.00  0.00    -0.390 OA
ATOM     40  H1  UNL     1      -6.614   1.380  -2.303  1.00  0.00     0.210 HD
ENDBRANCH  36  39
ENDBRANCH  33  36
ENDBRANCH  28  30
ENDBRANCH  27  28
ENDBRANCH  26  27
ENDBRANCH  24  26
ENDBRANCH   1  24
BRANCH  22  41
HETATM   41  C24 UNL     1       6.015   1.705  -1.285  1.00  0.00     0.404 C 
HETATM   42  F3  UNL     1       5.585   2.572  -2.394  1.00  0.00    -0.170 F 
HETATM   43  F4  UNL     1       6.880   0.945  -2.075  1.00  0.00    -0.170 F 
HETATM   44  F5  UNL     1       6.660   2.764  -0.624  1.00  0.00    -0.170 F 
ENDBRANCH  22  41
TORSDOF 8
