REMARK  10 active torsions:
REMARK  status: ('A' for Active; 'I' for Inactive)
REMARK    1  A    between atoms: C1_4  and  N2_6 
REMARK    2  A    between atoms: N2_6  and  C2_8 
REMARK    3  A    between atoms: C2_8  and  C3_9 
REMARK    4  A    between atoms: C4_10  and  C5_11 
REMARK    5  A    between atoms: C6_14  and  C7_15 
REMARK       I    between atoms: C7_15  and  N4_17 
REMARK    6  A    between atoms: N4_17  and  C8_19 
REMARK    7  A    between atoms: C8_19  and  C9_20 
REMARK    8  A    between atoms: C10_24  and  C11_25 
REMARK    9  A    between atoms: C11_25  and  C12_26 
REMARK   10  A    between atoms: C20_36  and  O2_37 
ROOT
HETATM    1  C5  UNL     1       1.490   0.298  -0.088  1.00  0.00     0.086 A 
HETATM    2  N3  UNL     1       0.650   1.236   0.285  1.00  0.00    -0.345 N 
ATOM      3  H3  UNL     1       0.864   2.210   0.073  1.00  0.00     0.167 HD
HETATM    4  C6  UNL     1      -0.449   0.950   0.919  1.00  0.00     0.115 A 
HETATM    5  C10 UNL     1      -0.708  -0.353   1.182  1.00  0.00     0.017 A 
HETATM    6  S2  UNL     1       0.709  -1.090   0.476  1.00  0.00    -0.074 SA
ENDROOT
BRANCH   1   7
HETATM    7  C4  UNL     1       2.763   0.535  -0.808  1.00  0.00     0.009 A 
HETATM    8  C3  UNL     1       3.641  -0.445  -1.151  1.00  0.00    -0.003 A 
HETATM    9  C21 UNL     1       4.781  -0.069  -1.838  1.00  0.00     0.077 A 
HETATM   10  C20 UNL     1       5.048   1.268  -2.178  1.00  0.00     0.109 A 
HETATM   11 CL2  UNL     1       5.968  -1.203  -2.411  1.00  0.00    -0.081 Cl
HETATM   12  C19 UNL     1       4.152   2.244  -1.823  1.00  0.00     0.069 A 
HETATM   13  C18 UNL     1       3.032   1.844  -1.146  1.00  0.00     0.041 A 
HETATM   14 CL1  UNL     1       4.432   3.926  -2.219  1.00  0.00    -0.081 Cl
BRANCH   8  15
HETATM   15  C2  UNL     1       3.343  -1.828  -0.825  1.00  0.00     0.163 C 
BRANCH  15  16
HETATM   16  N2  UNL     1       4.279  -2.855  -1.086  1.00  0.00    -0.366 N 
ATOM     17  H2  UNL     1       4.249  -3.336  -1.985  1.00  0.00     0.162 HD
BRANCH  16  18
HETATM   18  C1  UNL     1       5.276  -3.243  -0.116  1.00  0.00     0.145 C 
HETATM   19  N1  UNL     1       6.018  -4.289  -0.247  1.00  0.00    -0.379 N 
ATOM     20  H12 UNL     1       6.722  -4.563   0.438  1.00  0.00     0.158 HD
ATOM     21  H11 UNL     1       5.885  -4.856  -1.085  1.00  0.00     0.158 HD
HETATM   22  S1  UNL     1       5.509  -2.250   1.352  1.00  0.00    -0.014 SA
ENDBRANCH  16  18
ENDBRANCH  15  16
ENDBRANCH   8  15
BRANCH  10  23
HETATM   23  O2  UNL     1       6.208   1.615  -2.870  1.00  0.00    -0.357 OA
ATOM     24  H2  UNL     1       6.829   0.939  -3.116  1.00  0.00     0.217 HD
ENDBRANCH  10  23
ENDBRANCH   1   7
BRANCH   4  25
HETATM   25  C7  UNL     1      -1.325   2.073   1.378  1.00  0.00     0.269 C 
HETATM   26  O1  UNL     1      -2.225   1.851   2.188  1.00  0.00    -0.266 OA
HETATM   27  N4  UNL     1      -1.145   3.398   0.902  1.00  0.00    -0.347 N 
ATOM     28  H4  UNL     1      -0.410   3.617   0.230  1.00  0.00     0.163 HD
BRANCH  27  29
HETATM   29  C8  UNL     1      -2.029   4.429   1.393  1.00  0.00     0.240 C 
BRANCH  29  30
HETATM   30  C9  UNL     1      -1.708   5.767   0.804  1.00  0.00     0.403 C 
HETATM   31  F1  UNL     1      -0.412   6.092   1.143  1.00  0.00    -0.169 F 
HETATM   32  F2  UNL     1      -2.521   6.698   1.430  1.00  0.00    -0.169 F 
HETATM   33  F3  UNL     1      -1.938   5.763  -0.544  1.00  0.00    -0.169 F 
ENDBRANCH  29  30
ENDBRANCH  27  29
ENDBRANCH   4  25
BRANCH   5  34
HETATM   34  C11 UNL     1      -1.853  -1.108   1.755  1.00  0.00     0.053 C 
BRANCH  34  35
HETATM   35  C12 UNL     1      -2.847  -1.593   0.772  1.00  0.00    -0.010 C 
HETATM   36  C13 UNL     1      -3.527  -0.576  -0.046  1.00  0.00     0.005 C 
HETATM   37  C14 UNL     1      -4.853  -1.104  -0.620  1.00  0.00     0.000 C 
HETATM   38  C15 UNL     1      -4.837  -2.587  -0.814  1.00  0.00     0.000 C 
HETATM   39  C16 UNL     1      -4.653  -3.282   0.510  1.00  0.00     0.000 C 
HETATM   40  C17 UNL     1      -3.955  -2.376   1.504  1.00  0.00     0.005 C 
ENDBRANCH  34  35
ENDBRANCH   5  34
TORSDOF 10
