REMARK  8 active torsions:
REMARK  status: ('A' for Active; 'I' for Inactive)
REMARK    1  A    between atoms: C2_2  and  C3_5 
REMARK    2  A    between atoms: C5_9  and  N2_10 
REMARK    3  A    between atoms: N2_10  and  C6_12 
REMARK    4  A    between atoms: C9_15  and  N3_16 
REMARK    5  A    between atoms: N3_16  and  C10_18 
REMARK    6  A    between atoms: C18_27  and  C19_28 
REMARK    7  A    between atoms: C22_33  and  O2_34 
REMARK    8  A    between atoms: O2_34  and  C23_35 
ROOT
HETATM    1  C3  UNL     1      -3.474  -3.468   0.211  1.00  0.00     0.029 A 
HETATM    2  C4  UNL     1      -2.104  -3.467   0.075  1.00  0.00     0.103 A 
HETATM    3  N1  UNL     1      -1.450  -2.345  -0.073  1.00  0.00    -0.351 N 
ATOM      4  H1  UNL     1      -0.436  -2.400  -0.172  1.00  0.00     0.166 HD
HETATM    5  C5  UNL     1      -2.023  -1.097  -0.106  1.00  0.00     0.115 A 
HETATM    6  C18 UNL     1      -3.375  -1.048   0.018  1.00  0.00     0.052 A 
HETATM    7  C25 UNL     1      -4.098  -2.249   0.180  1.00  0.00     0.033 A 
ENDROOT
BRANCH   5   8
HETATM    8  N2  UNL     1      -1.157   0.050  -0.142  1.00  0.00    -0.371 N 
ATOM      9  H2  UNL     1      -1.534   0.996  -0.084  1.00  0.00     0.161 HD
BRANCH   8  10
HETATM   10  C6  UNL     1       0.244  -0.177  -0.261  1.00  0.00     0.083 C 
HETATM   11  C7  UNL     1       1.074   1.066  -0.481  1.00  0.00     0.027 C 
HETATM   12  C8  UNL     1       2.445   0.930   0.214  1.00  0.00     0.027 C 
HETATM   13  C9  UNL     1       2.988  -0.411   0.043  1.00  0.00     0.079 C 
HETATM   14  C16 UNL     1       2.015  -1.355   0.846  1.00  0.00     0.027 C 
HETATM   15  C17 UNL     1       0.704  -0.713   1.091  1.00  0.00     0.027 C 
BRANCH  13  16
HETATM   16  N3  UNL     1       4.229  -0.820   0.473  1.00  0.00    -0.393 N 
ATOM     17  H3  UNL     1       4.234  -1.627   1.096  1.00  0.00     0.156 HD
BRANCH  16  18
HETATM   18  C10 UNL     1       5.466  -0.291   0.179  1.00  0.00     0.216 C 
HETATM   19  C11 UNL     1       5.699   1.022   0.891  1.00  0.00     0.053 C 
HETATM   20  C12 UNL     1       6.711   1.910   0.255  1.00  0.00     0.004 C 
HETATM   21  C13 UNL     1       7.585   1.288  -0.773  1.00  0.00     0.002 C 
HETATM   22  C14 UNL     1       8.329   0.077  -0.271  1.00  0.00     0.026 C 
HETATM   23  C15 UNL     1       7.527  -1.187  -0.291  1.00  0.00     0.170 C 
HETATM   24  O1  UNL     1       6.471  -1.172   0.619  1.00  0.00    -0.367 OA
ENDBRANCH  16  18
ENDBRANCH  13  16
ENDBRANCH   8  10
ENDBRANCH   5   8
BRANCH   6  25
HETATM   25  C19 UNL     1      -4.140   0.178  -0.143  1.00  0.00     0.121 A 
HETATM   26  N4  UNL     1      -5.344   0.382   0.506  1.00  0.00    -0.339 N 
HETATM   27  C20 UNL     1      -5.807   1.613   0.269  1.00  0.00     0.082 A 
ATOM     28  H4  UNL     1      -5.814  -0.312   1.086  1.00  0.00     0.167 HD
HETATM   29  C21 UNL     1      -6.790   2.576   0.471  1.00  0.00     0.089 A 
HETATM   30  C24 UNL     1      -4.891   2.223  -0.549  1.00  0.00     0.136 A 
HETATM   31  C22 UNL     1      -6.471   3.734  -0.209  1.00  0.00     0.154 A 
HETATM   32  N5  UNL     1      -5.305   3.489  -0.823  1.00  0.00    -0.321 N 
ATOM     33  H5  UNL     1      -4.802   4.155  -1.410  1.00  0.00     0.169 HD
HETATM   34  N6  UNL     1      -3.906   1.327  -0.774  1.00  0.00    -0.326 N 
ATOM     35  H6  UNL     1      -3.087   1.508  -1.354  1.00  0.00     0.169 HD
BRANCH  31  36
HETATM   36  O2  UNL     1      -7.157   4.944  -0.287  1.00  0.00    -0.239 OA
BRANCH  36  37
HETATM   37  C23 UNL     1      -8.371   5.165   0.405  1.00  0.00     0.531 C 
HETATM   38  F3  UNL     1      -9.284   4.224  -0.022  1.00  0.00    -0.144 F 
HETATM   39  F4  UNL     1      -8.206   5.218   1.758  1.00  0.00    -0.144 F 
HETATM   40  F5  UNL     1      -8.895   6.391  -0.035  1.00  0.00    -0.144 F 
ENDBRANCH  36  37
ENDBRANCH  31  36
ENDBRANCH   6  25
BRANCH   1  41
HETATM   41  C2  UNL     1      -4.129  -4.774   0.407  1.00  0.00     0.268 C 
HETATM   42  C1  UNL     1      -5.386  -4.946  -0.389  1.00  0.00     0.096 C 
HETATM   43  F1  UNL     1      -4.330  -4.897   1.780  1.00  0.00    -0.201 F 
HETATM   44  F2  UNL     1      -3.253  -5.790   0.062  1.00  0.00    -0.201 F 
ENDBRANCH   1  41
TORSDOF 8
