REMARK  5 active torsions:
REMARK  status: ('A' for Active; 'I' for Inactive)
REMARK    1  A    between atoms: C2_2  and  C3_3 
REMARK    2  A    between atoms: C3_3  and  S1_4 
REMARK    3  A    between atoms: S1_4  and  C4_5 
REMARK    4  A    between atoms: C4_5  and  N3_10 
REMARK    5  A    between atoms: N3_10  and  C6_12 
ROOT
HETATM    1  C4  UNL     1       0.142   0.236   0.442  1.00  0.00     0.149 C 
HETATM    2  N1  UNL     1       0.760   1.352   0.366  1.00  0.00    -0.274 N 
ATOM      3  H1  UNL     1       1.633   1.398  -0.160  1.00  0.00     0.180 HD
HETATM    4  C5  UNL     1       0.279   2.510   0.979  1.00  0.00     0.183 C 
HETATM    5  N2  UNL     1      -0.123   3.479   1.486  1.00  0.00    -0.172 NA
ENDROOT
BRANCH   1   6
HETATM    6  S1  UNL     1       0.851  -1.181  -0.382  1.00  0.00    -0.093 SA
BRANCH   6   7
HETATM    7  C3  UNL     1       2.396  -0.761  -1.206  1.00  0.00     0.082 C 
BRANCH   7   8
HETATM    8  C2  UNL     1       3.498  -0.389  -0.240  1.00  0.00     0.006 C 
HETATM    9  C1  UNL     1       4.723  -0.064  -1.046  1.00  0.00     0.006 C 
ENDBRANCH   7   8
ENDBRANCH   6   7
ENDBRANCH   1   6
BRANCH   1  10
HETATM   10  N3  UNL     1      -1.079   0.033   1.137  1.00  0.00    -0.362 N 
ATOM     11  H3  UNL     1      -1.049   0.047   2.156  1.00  0.00     0.162 HD
BRANCH  10  12
HETATM   12  C6  UNL     1      -2.341  -0.189   0.519  1.00  0.00     0.021 C 
HETATM   13  C7  UNL     1      -3.417  -0.368   1.558  1.00  0.00     0.037 C 
HETATM   14  C8  UNL     1      -2.687   1.042  -0.323  1.00  0.00     0.037 C 
HETATM   15  C9  UNL     1      -2.374  -1.398  -0.381  1.00  0.00     0.037 C 
ENDBRANCH  10  12
ENDBRANCH   1  10
TORSDOF 5
