REMARK  3 active torsions:
REMARK  status: ('A' for Active; 'I' for Inactive)
REMARK    1  A    between atoms: C2_2  and  C4_4 
REMARK    2  A    between atoms: C4_4  and  O1_5 
REMARK    3  A    between atoms: C4_4  and  C5_7 
ROOT
HETATM    1  C4  UNL     1      -0.077  -0.133   0.633  1.00  0.00     0.127 C 
ENDROOT
BRANCH   1   2
HETATM    2  C2  UNL     1      -1.179   0.602  -0.133  1.00  0.00     0.006 C 
HETATM    3  C1  UNL     1      -1.624  -0.231  -1.317  1.00  0.00     0.012 C 
HETATM    4  C3  UNL     1      -2.379   0.724   0.782  1.00  0.00     0.012 C 
ENDBRANCH   1   2
BRANCH   1   5
HETATM    5  O1  UNL     1       0.354   0.594   1.718  1.00  0.00    -0.395 OA
ATOM      6  H1  UNL     1       1.038   0.138   2.194  1.00  0.00     0.210 HD
ENDBRANCH   1   5
BRANCH   1   7
HETATM    7  C5  UNL     1       1.089  -0.456  -0.272  1.00  0.00     0.035 C 
HETATM    8  C6  UNL     1       2.116  -1.180   0.586  1.00  0.00     0.094 C 
HETATM    9  S1  UNL     1       3.430  -1.611  -0.634  1.00  0.00    -0.097 SA
HETATM   10  S2  UNL     1       3.079   0.137  -1.867  1.00  0.00    -0.097 SA
HETATM   11  C7  UNL     1       1.749   0.806  -0.782  1.00  0.00     0.094 C 
ENDBRANCH   1   7
TORSDOF 3
