REMARK  3 active torsions:
REMARK  status: ('A' for Active; 'I' for Inactive)
REMARK    1  A    between atoms: C2_2  and  C4_4 
REMARK    2  A    between atoms: C6_6  and  N1_7 
REMARK    3  A    between atoms: N2_9  and  N3_11 
ROOT
HETATM    1  N1  UNL     1      -0.125  -0.513  -0.313  1.00  0.00    -0.297 N 
ATOM      2  H1  UNL     1      -0.652   0.275   0.062  1.00  0.00     0.187 HD
HETATM    3  N2  UNL     1       1.123  -0.612  -0.092  1.00  0.00    -0.245 N 
ATOM      4  H2  UNL     1       1.637  -1.406  -0.474  1.00  0.00     0.208 HD
ENDROOT
BRANCH   1   5
HETATM    5  C6  UNL     1      -0.772  -1.497  -1.078  1.00  0.00     0.115 C 
HETATM    6  C4  UNL     1      -2.059  -1.469  -1.292  1.00  0.00    -0.040 C 
HETATM    7  C5  UNL     1      -2.638  -2.596  -2.139  1.00  0.00     0.050 C 
BRANCH   6   8
HETATM    8  C2  UNL     1      -2.947  -0.458  -0.786  1.00  0.00    -0.064 C 
HETATM    9  C1  UNL     1      -4.252  -0.566  -1.093  1.00  0.00     0.019 C 
HETATM   10  C3  UNL     1      -2.503   0.670   0.036  1.00  0.00     0.048 C 
ENDBRANCH   6   8
ENDBRANCH   1   5
BRANCH   3  11
HETATM   11  N3  UNL     1       1.798   0.337   0.658  1.00  0.00    -0.310 N 
HETATM   12  C7  UNL     1       2.573   0.016   1.827  1.00  0.00     0.170 C 
HETATM   13  C8  UNL     1       4.007   0.398   1.552  1.00  0.00     0.189 C 
HETATM   14  O1  UNL     1       4.057   1.509   0.729  1.00  0.00    -0.388 OA
HETATM   15  C9  UNL     1       2.984   2.371   0.861  1.00  0.00     0.189 C 
HETATM   16  C10 UNL     1       1.732   1.722   0.260  1.00  0.00     0.170 C 
ENDBRANCH   3  11
TORSDOF 3
