REMARK  2 active torsions:
REMARK  status: ('A' for Active; 'I' for Inactive)
REMARK    1  A    between atoms: O1_2  and  N1_3 
REMARK    2  A    between atoms: N1_3  and  C2_4 
ROOT
HETATM    1  C2  UNL     1       0.719  -0.599   0.352  1.00  0.00     0.141 C 
HETATM    2  C3  UNL     1       0.449  -2.074   0.219  1.00  0.00     0.027 C 
HETATM    3  C4  UNL     1      -0.248  -2.295  -1.131  1.00  0.00     0.002 C 
HETATM    4  C5  UNL     1      -1.618  -1.679  -0.932  1.00  0.00     0.003 C 
HETATM    5  C6  UNL     1      -1.389  -0.176  -0.963  1.00  0.00     0.040 C 
HETATM    6  C7  UNL     1      -0.414   0.286   0.063  1.00  0.00     0.080 C 
HETATM    7  C8  UNL     1      -1.206   0.611   1.334  1.00  0.00     0.042 C 
HETATM    8  C9  UNL     1      -1.865   1.918   0.966  1.00  0.00     0.029 C 
HETATM    9  C10 UNL     1      -1.108   2.335  -0.267  1.00  0.00     0.169 C 
HETATM   10  O2  UNL     1       0.043   1.551  -0.288  1.00  0.00    -0.378 OA
ENDROOT
BRANCH   1  11
HETATM   11  N1  UNL     1       1.901  -0.332  -0.442  1.00  0.00    -0.094 NA
BRANCH  11  12
HETATM   12  O1  UNL     1       2.309   0.935  -0.421  1.00  0.00    -0.291 OA
HETATM   13  C1  UNL     1       3.512   0.969   0.320  1.00  0.00     0.231 C 
ENDBRANCH  11  12
ENDBRANCH   1  11
TORSDOF 2
