REMARK  2 active torsions:
REMARK  status: ('A' for Active; 'I' for Inactive)
REMARK    1  A    between atoms: C2_2  and  C3_4 
REMARK    2  A    between atoms: C8_9  and  O2_10 
ROOT
HETATM    1  C3  UNL     1      -1.308   0.281  -0.380  1.00  0.00     0.059 C 
HETATM    2  C4  UNL     1      -1.660  -1.146   0.096  1.00  0.00     0.013 C 
HETATM    3  C5  UNL     1      -1.055  -2.014  -0.985  1.00  0.00     0.001 C 
HETATM    4  C6  UNL     1       0.423  -2.002  -0.691  1.00  0.00     0.007 C 
HETATM    5  C7  UNL     1       1.037  -0.655  -0.652  1.00  0.00     0.019 C 
HETATM    6  C8  UNL     1       2.071  -0.695   0.466  1.00  0.00     0.122 C 
HETATM    7  C9  UNL     1       2.887   0.565   0.532  1.00  0.00     0.032 C 
HETATM    8  C10 UNL     1       2.203   1.714  -0.178  1.00  0.00     0.003 C 
HETATM    9  C11 UNL     1       0.728   1.625   0.282  1.00  0.00     0.006 C 
HETATM   10  C12 UNL     1       0.119   0.529  -0.579  1.00  0.00     0.003 C 
ENDROOT
BRANCH   1  11
HETATM   11  C2  UNL     1      -2.101   1.160   0.464  1.00  0.00     0.127 C 
HETATM   12  C1  UNL     1      -3.586   1.074   0.431  1.00  0.00     0.091 C 
HETATM   13  O1  UNL     1      -1.617   1.967   1.203  1.00  0.00    -0.298 OA
ENDBRANCH   1  11
BRANCH   6  14
HETATM   14  O2  UNL     1       1.512  -1.076   1.656  1.00  0.00    -0.395 OA
ATOM     15  H2  UNL     1       2.157  -1.101   2.353  1.00  0.00     0.210 HD
ENDBRANCH   6  14
TORSDOF 2
