REMARK  15 active torsions:
REMARK  status: ('A' for Active; 'I' for Inactive)
REMARK    1  A    between atoms: C2_2  and  C4_4 
REMARK    2  A    between atoms: C2_2  and  N4_17 
REMARK    3  A    between atoms: C4_4  and  O1_5 
REMARK    4  A    between atoms: O1_5  and  C5_6 
REMARK    5  A    between atoms: C5_6  and  C6_8 
REMARK    6  A    between atoms: N4_17  and  C8_19 
REMARK    7  A    between atoms: C8_19  and  C9_20 
REMARK    8  A    between atoms: C9_20  and  N5_21 
REMARK    9  A    between atoms: N5_21  and  O4_22 
REMARK       I    between atoms: N5_21  and  C10_24 
REMARK   10  A    between atoms: C10_24  and  O6_26 
REMARK   11  A    between atoms: O6_26  and  C11_27 
REMARK   12  A    between atoms: C11_27  and  O7_28 
REMARK   13  A    between atoms: C11_27  and  C12_30 
REMARK   14  A    between atoms: C14_34  and  N7_35 
REMARK   15  A    between atoms: C15_40  and  N9_41 
ROOT
HETATM    1  N5  UNL     1       0.220   2.122   1.963  1.00  0.00    -0.203 N 
HETATM    2  C10 UNL     1       1.358   2.614   1.320  1.00  0.00     0.389 C 
HETATM    3  O5  UNL     1       1.304   3.736   0.732  1.00  0.00    -0.236 OA
ENDROOT
BRANCH   2   4
HETATM    4  O6  UNL     1       2.595   1.975   1.261  1.00  0.00    -0.263 OA
BRANCH   4   5
HETATM    5  C11 UNL     1       3.685   2.553   0.596  1.00  0.00     0.345 C 
BRANCH   5   6
HETATM    6  O7  UNL     1       4.480   3.170   1.668  1.00  0.00    -0.364 OA
ATOM      7  H7  UNL     1       5.219   3.562   1.217  1.00  0.00     0.213 HD
ENDBRANCH   5   6
BRANCH   5   8
HETATM    8  C12 UNL     1       4.552   1.556  -0.061  1.00  0.00     0.182 A 
HETATM    9  N6  UNL     1       4.250   0.458  -0.764  1.00  0.00    -0.329 N 
HETATM   10  C13 UNL     1       5.391  -0.159  -1.180  1.00  0.00     0.131 A 
ATOM     11  H6  UNL     1       3.304   0.131  -0.960  1.00  0.00     0.168 HD
HETATM   12  C14 UNL     1       5.667  -1.311  -1.926  1.00  0.00     0.146 A 
HETATM   13  C16 UNL     1       6.411   0.621  -0.697  1.00  0.00     0.195 A 
HETATM   14  N8  UNL     1       6.963  -1.642  -2.161  1.00  0.00    -0.175 N 
HETATM   15  C15 UNL     1       7.969  -0.881  -1.688  1.00  0.00     0.679 A 
ATOM     16  H8  UNL     1       7.178  -2.479  -2.703  1.00  0.00     0.186 HD
HETATM   17  N10 UNL     1       7.683   0.217  -0.979  1.00  0.00    -0.168 N 
ATOM     18  H10 UNL     1       8.457   0.782  -0.631  1.00  0.00     0.186 HD
HETATM   19  O8  UNL     1       5.900   1.619  -0.044  1.00  0.00    -0.273 OA
BRANCH  12  20
HETATM   20  N7  UNL     1       4.683  -1.990  -2.346  1.00  0.00    -0.383 N 
ATOM     21  H72 UNL     1       3.710  -1.741  -2.170  1.00  0.00     0.157 HD
ATOM     22  H71 UNL     1       4.884  -2.829  -2.890  1.00  0.00     0.157 HD
ENDBRANCH  12  20
BRANCH  15  23
HETATM   23  N9  UNL     1       9.211  -1.225  -1.932  1.00  0.00    -0.234 N 
ATOM     24  H92 UNL     1       9.429  -2.062  -2.473  1.00  0.00     0.174 HD
ATOM     25  H91 UNL     1       9.973  -0.649  -1.574  1.00  0.00     0.174 HD
ENDBRANCH  15  23
ENDBRANCH   5   8
ENDBRANCH   4   5
ENDBRANCH   2   4
BRANCH   1  26
HETATM   26  C9  UNL     1       0.130   0.811   2.597  1.00  0.00     0.180 C 
BRANCH  26  27
HETATM   27  C8  UNL     1      -0.446  -0.138   1.477  1.00  0.00     0.137 C 
BRANCH  27  28
HETATM   28  N4  UNL     1      -1.690   0.417   1.184  1.00  0.00    -0.410 N 
ATOM     29  H4  UNL     1      -1.964   1.250   1.706  1.00  0.00     0.154 HD
BRANCH  28  30
HETATM   30  C2  UNL     1      -2.596  -0.070   0.235  1.00  0.00     0.040 C 
HETATM   31  C1  UNL     1      -3.118   1.003  -0.671  1.00  0.00     0.040 C 
HETATM   32  C3  UNL     1      -1.822  -1.030  -0.750  1.00  0.00     0.040 C 
BRANCH  30  33
HETATM   33  C4  UNL     1      -3.622  -0.916   0.945  1.00  0.00     0.208 C 
BRANCH  33  34
HETATM   34  O1  UNL     1      -4.695  -1.364   0.208  1.00  0.00    -0.314 OA
BRANCH  34  35
HETATM   35  C5  UNL     1      -5.832  -0.661  -0.156  1.00  0.00     0.315 C 
HETATM   36  O2  UNL     1      -5.976   0.540   0.237  1.00  0.00    -0.257 OA
BRANCH  35  37
HETATM   37  C6  UNL     1      -6.889  -1.238  -0.981  1.00  0.00     0.171 A 
HETATM   38  N1  UNL     1      -8.053  -0.628  -1.363  1.00  0.00    -0.231 N 
HETATM   39  O3  UNL     1      -8.753  -1.438  -2.109  1.00  0.00    -0.132 OA
ATOM     40  H1  UNL     1      -8.332   0.318  -1.103  1.00  0.00     0.197 HD
HETATM   41  N2  UNL     1      -8.144  -2.576  -2.269  1.00  0.00    -0.119 N 
HETATM   42  N3  UNL     1      -7.933  -3.789  -2.685  1.00  0.00    -0.238 N 
HETATM   43  C7  UNL     1      -6.936  -2.486  -1.553  1.00  0.00     0.177 A 
HETATM   44  S1  UNL     1      -6.450  -4.064  -1.978  1.00  0.00     0.029 SA
ATOM     45  H3  UNL     1      -8.507  -4.395  -3.272  1.00  0.00     0.198 HD
ENDBRANCH  35  37
ENDBRANCH  34  35
ENDBRANCH  33  34
ENDBRANCH  30  33
ENDBRANCH  28  30
ENDBRANCH  27  28
ENDBRANCH  26  27
ENDBRANCH   1  26
BRANCH   1  46
HETATM   46  O4  UNL     1      -0.879   2.941   1.976  1.00  0.00    -0.283 OA
ATOM     47  H4  UNL     1      -0.820   3.795   1.563  1.00  0.00     0.245 HD
ENDBRANCH   1  46
TORSDOF 15
