REMARK  7 active torsions:
REMARK  status: ('A' for Active; 'I' for Inactive)
REMARK    1  A    between atoms: N1_1  and  C1_4 
REMARK    2  A    between atoms: C2_5  and  C3_6 
REMARK    3  A    between atoms: C3_6  and  O1_7 
REMARK    4  A    between atoms: C3_6  and  C4_9 
REMARK    5  A    between atoms: C3_6  and  C5_12 
REMARK    6  A    between atoms: C4_9  and  O2_10 
REMARK    7  A    between atoms: C5_12  and  N2_13 
ROOT
HETATM    1  C3  UNL     1       1.378  -0.929   0.361  1.00  0.00     0.160 C 
ENDROOT
BRANCH   1   2
HETATM    2  C2  UNL     1       1.878   0.416   0.017  1.00  0.00    -0.042 C 
HETATM    3  C1  UNL     1       2.291   1.509  -0.279  1.00  0.00     0.006 C 
BRANCH   3   4
HETATM    4  N1  UNL     1       2.749   2.787  -0.611  1.00  0.00    -0.359 N 
ATOM      5  H12 UNL     1       1.939   2.396  -0.130  1.00  0.00     0.166 HD
ATOM      6  H11 UNL     1       3.098   3.712  -0.861  1.00  0.00     0.166 HD
ENDBRANCH   3   4
ENDBRANCH   1   2
BRANCH   1   7
HETATM    7  O1  UNL     1       2.389  -1.526   1.177  1.00  0.00    -0.373 OA
ATOM      8  H1  UNL     1       2.067  -2.392   1.398  1.00  0.00     0.212 HD
ENDBRANCH   1   7
BRANCH   1   9
HETATM    9  C4  UNL     1       1.297  -1.719  -0.890  1.00  0.00     0.217 C 
BRANCH   9  10
HETATM   10  O2  UNL     1       0.413  -1.305  -1.842  1.00  0.00    -0.397 OA
ATOM     11  H2  UNL     1       0.361  -1.811  -2.644  1.00  0.00     0.209 HD
ENDBRANCH   9  10
ENDBRANCH   1   9
BRANCH   1  12
HETATM   12  C5  UNL     1       0.177  -0.881   1.229  1.00  0.00     0.181 C 
BRANCH  12  13
HETATM   13  N2  UNL     1      -0.978  -0.218   0.726  1.00  0.00    -0.363 N 
HETATM   14  C6  UNL     1      -1.913  -0.919   0.059  1.00  0.00     0.090 A 
HETATM   15  C7  UNL     1      -3.015  -0.263  -0.420  1.00  0.00     0.017 A 
HETATM   16  C8  UNL     1      -3.212   1.087  -0.251  1.00  0.00     0.003 A 
HETATM   17  C9  UNL     1      -2.260   1.793   0.428  1.00  0.00     0.017 A 
HETATM   18  C10 UNL     1      -1.159   1.126   0.903  1.00  0.00     0.090 A 
ENDBRANCH  12  13
ENDBRANCH   1  12
TORSDOF 7
