REMARK  7 active torsions:
REMARK  status: ('A' for Active; 'I' for Inactive)
REMARK    1  A    between atoms: N1_1  and  N2_4 
REMARK    2  A    between atoms: N2_4  and  N3_5 
REMARK    3  A    between atoms: N3_5  and  C1_7 
REMARK    4  A    between atoms: C3_9  and  O1_10 
REMARK    5  A    between atoms: C4_12  and  O2_13 
REMARK    6  A    between atoms: C5_15  and  N4_16 
REMARK    7  A    between atoms: N4_16  and  C6_18 
ROOT
HETATM    1  C1  UNL     1       0.386   0.457  -1.167  1.00  0.00     0.142 C 
HETATM    2  C2  UNL     1       0.637  -0.998  -1.362  1.00  0.00     0.064 C 
HETATM    3  C3  UNL     1       0.171  -1.676  -0.083  1.00  0.00     0.151 C 
HETATM    4  C4  UNL     1       0.348  -0.604   0.942  1.00  0.00     0.171 C 
HETATM    5  C5  UNL     1      -0.062   0.677   0.245  1.00  0.00     0.140 C 
ENDROOT
BRANCH   1   6
HETATM    6  N3  UNL     1       1.484   1.301  -1.562  1.00  0.00    -0.246 N 
ATOM      7  H3  UNL     1       1.461   1.794  -2.455  1.00  0.00     0.197 HD
BRANCH   6   8
HETATM    8  N2  UNL     1       2.438   1.418  -0.818  1.00  0.00    -0.248 NA
BRANCH   8   9
HETATM    9  N1  UNL     1       3.565   1.296  -0.335  1.00  0.00    -0.261 N 
ATOM     10  H12 UNL     1       3.922   0.678  -1.063  1.00  0.00     0.193 HD
ATOM     11  H11 UNL     1       4.366   1.394   0.289  1.00  0.00     0.193 HD
ENDBRANCH   8   9
ENDBRANCH   6   8
ENDBRANCH   1   6
BRANCH   5  12
HETATM   12  N4  UNL     1      -1.496   0.873   0.338  1.00  0.00    -0.359 N 
ATOM     13  H4  UNL     1      -2.108   0.160  -0.059  1.00  0.00     0.162 HD
BRANCH  12  14
HETATM   14  C6  UNL     1      -2.088   1.997   0.949  1.00  0.00     0.349 C 
HETATM   15  O3  UNL     1      -1.416   2.926   1.466  1.00  0.00    -0.284 OA
ENDBRANCH  12  14
ENDBRANCH   5  12
BRANCH   3  16
HETATM   16  O1  UNL     1      -1.122  -2.117  -0.218  1.00  0.00    -0.393 OA
ATOM     17  H1  UNL     1      -1.413  -2.541   0.581  1.00  0.00     0.210 HD
ENDBRANCH   3  16
BRANCH   4  18
HETATM   18  O2  UNL     1      -0.442  -0.849   2.070  1.00  0.00    -0.391 OA
ATOM     19  H2  UNL     1      -0.329  -0.167   2.722  1.00  0.00     0.210 HD
ENDBRANCH   4  18
TORSDOF 7
