REMARK  4 active torsions:
REMARK  status: ('A' for Active; 'I' for Inactive)
REMARK    1  A    between atoms: N1_1  and  C1_5 
REMARK    2  A    between atoms: C5_9  and  N2_10 
REMARK    3  A    between atoms: N2_10  and  S1_12 
REMARK    4  A    between atoms: S1_12  and  N3_13 
ROOT
HETATM    1  C1  UNL     1      -1.341   0.167   0.285  1.00  0.00     0.206 C 
HETATM    2  C2  UNL     1      -2.003   0.404  -1.056  1.00  0.00     0.035 C 
HETATM    3  C3  UNL     1      -1.317  -0.525  -2.041  1.00  0.00     0.004 C 
HETATM    4  C4  UNL     1      -0.532  -1.468  -1.111  1.00  0.00     0.028 C 
HETATM    5  C5  UNL     1      -0.012  -0.418  -0.167  1.00  0.00     0.124 C 
ENDROOT
BRANCH   5   6
HETATM    6  N2  UNL     1       0.852  -0.822   0.830  1.00  0.00    -0.296 N 
ATOM      7  H2  UNL     1       0.548  -1.539   1.489  1.00  0.00     0.174 HD
BRANCH   6   8
HETATM    8  S1  UNL     1       2.378  -0.171   0.986  1.00  0.00     0.313 S 
HETATM    9  O1  UNL     1       3.298  -1.163   1.646  1.00  0.00    -0.183 OA
HETATM   10  O2  UNL     1       2.981   0.179  -0.331  1.00  0.00    -0.183 OA
BRANCH   8  11
HETATM   11  N3  UNL     1       2.318   1.213   2.025  1.00  0.00    -0.312 N 
ATOM     12  H32 UNL     1       1.469   1.564   2.467  1.00  0.00     0.170 HD
ATOM     13  H31 UNL     1       3.252   1.611   2.120  1.00  0.00     0.170 HD
ENDBRANCH   8  11
ENDBRANCH   6   8
ENDBRANCH   5   6
BRANCH   1  14
HETATM   14  N1  UNL     1      -1.105   1.384   1.015  1.00  0.00    -0.073 N 
ATOM     15  H13 UNL     1      -0.569   2.047   0.455  1.00  0.00     0.274 HD
ATOM     16  H12 UNL     1      -1.967   1.918   1.123  1.00  0.00     0.274 HD
ATOM     17  H11 UNL     1      -0.659   1.224   1.918  1.00  0.00     0.274 HD
ENDBRANCH   1  14
TORSDOF 4
