REMARK  8 active torsions:
REMARK  status: ('A' for Active; 'I' for Inactive)
REMARK    1  A    between atoms: C1_2  and  C2_4 
REMARK    2  A    between atoms: C2_4  and  N1_5 
REMARK       I    between atoms: N1_5  and  C3_7 
REMARK    3  A    between atoms: C3_7  and  C4_9 
REMARK    4  A    between atoms: C4_9  and  O4_10 
REMARK    5  A    between atoms: C4_9  and  C5_12 
REMARK    6  A    between atoms: C5_12  and  N2_13 
REMARK    7  A    between atoms: C5_12  and  C11_22 
REMARK       I    between atoms: N2_13  and  C6_15 
REMARK    8  A    between atoms: C6_15  and  C7_17 
ROOT
HETATM    1  C5  UNL     1      -0.157  -0.044   0.050  1.00  0.00     0.156 C 
ENDROOT
BRANCH   1   2
HETATM    2  C4  UNL     1       0.511   0.505   1.270  1.00  0.00     0.237 C 
BRANCH   2   3
HETATM    3  C3  UNL     1       1.982   0.575   1.105  1.00  0.00     0.249 C 
HETATM    4  N1  UNL     1       2.878  -0.215   1.872  1.00  0.00    -0.349 N 
ATOM      5  H1  UNL     1       2.499  -0.858   2.568  1.00  0.00     0.163 HD
HETATM    6  O3  UNL     1       2.440   1.357   0.261  1.00  0.00    -0.271 OA
BRANCH   4   7
HETATM    7  C2  UNL     1       4.295  -0.137   1.699  1.00  0.00     0.235 C 
BRANCH   7   8
HETATM    8  C1  UNL     1       4.750  -0.506   0.342  1.00  0.00     0.191 C 
HETATM    9  O1  UNL     1       4.002  -0.876  -0.596  1.00  0.00    -0.647 OA
HETATM   10  O2  UNL     1       6.115  -0.435   0.095  1.00  0.00    -0.647 OA
ENDBRANCH   7   8
ENDBRANCH   4   7
ENDBRANCH   2   3
BRANCH   2  11
HETATM   11  O4  UNL     1       0.278  -0.422   2.317  1.00  0.00    -0.384 OA
ATOM     12  H4  UNL     1      -0.665  -0.467   2.423  1.00  0.00     0.210 HD
ENDBRANCH   2  11
ENDBRANCH   1   2
BRANCH   1  13
HETATM   13  N2  UNL     1      -1.598  -0.212   0.266  1.00  0.00    -0.344 N 
HETATM   14  C6  UNL     1      -2.226  -1.467   0.251  1.00  0.00     0.276 C 
HETATM   15  O5  UNL     1      -1.534  -2.487   0.047  1.00  0.00    -0.265 OA
ATOM     16  H2  UNL     1      -2.167   0.618   0.434  1.00  0.00     0.163 HD
BRANCH  14  17
HETATM   17  C7  UNL     1      -3.659  -1.600   0.469  1.00  0.00     0.142 A 
HETATM   18  C8  UNL     1      -4.534  -0.540   0.706  1.00  0.00     0.045 A 
HETATM   19  C9  UNL     1      -5.783  -1.063   0.858  1.00  0.00     0.027 A 
HETATM   20  C10 UNL     1      -5.645  -2.425   0.711  1.00  0.00     0.143 A 
HETATM   21  O6  UNL     1      -4.393  -2.675   0.488  1.00  0.00    -0.317 OA
ENDBRANCH  14  17
ENDBRANCH   1  13
BRANCH   1  22
HETATM   22  C11 UNL     1      -0.003   0.715  -1.181  1.00  0.00    -0.033 A 
HETATM   23  C12 UNL     1      -0.712   1.877  -1.451  1.00  0.00     0.009 A 
HETATM   24  C13 UNL     1      -0.508   2.520  -2.646  1.00  0.00     0.001 A 
HETATM   25  C14 UNL     1       0.388   2.035  -3.589  1.00  0.00     0.000 A 
HETATM   26  C15 UNL     1       1.106   0.878  -3.343  1.00  0.00     0.001 A 
HETATM   27  C16 UNL     1       0.882   0.254  -2.137  1.00  0.00     0.009 A 
ENDBRANCH   1  22
TORSDOF 8
