REMARK  9 active torsions:
REMARK  status: ('A' for Active; 'I' for Inactive)
REMARK    1  A    between atoms: C5_5  and  C6_6 
REMARK       I    between atoms: C6_6  and  N1_8 
REMARK    2  A    between atoms: N1_8  and  C7_10 
REMARK    3  A    between atoms: C7_10  and  C8_11 
REMARK    4  A    between atoms: C7_10  and  C12_22 
REMARK    5  A    between atoms: C8_11  and  O2_12 
REMARK    6  A    between atoms: C8_11  and  N2_14 
REMARK    7  A    between atoms: N2_14  and  C9_16 
REMARK    8  A    between atoms: C9_16  and  C10_17 
REMARK    9  A    between atoms: C9_16  and  C11_19 
ROOT
HETATM    1  C7  UNL     1      -1.448  -0.896  -0.595  1.00  0.00     0.162 C 
ENDROOT
BRANCH   1   2
HETATM    2  N1  UNL     1      -0.025  -0.526  -0.412  1.00  0.00    -0.348 N 
HETATM    3  C6  UNL     1       0.780  -1.057   0.615  1.00  0.00     0.222 C 
HETATM    4  O1  UNL     1       0.310  -1.876   1.426  1.00  0.00    -0.273 OA
ATOM      5  H1  UNL     1       0.391   0.144  -1.059  1.00  0.00     0.163 HD
BRANCH   3   6
HETATM    6  C5  UNL     1       2.188  -0.644   0.732  1.00  0.00     0.078 C 
HETATM    7  C4  UNL     1       2.196   0.854   0.952  1.00  0.00     0.014 C 
HETATM    8  C3  UNL     1       3.603   1.314   0.621  1.00  0.00     0.005 C 
HETATM    9  C2  UNL     1       4.622   0.396   1.260  1.00  0.00    -0.019 C 
HETATM   10  C1  UNL     1       5.755   1.253   1.741  1.00  0.00     0.010 C 
HETATM   11  C16 UNL     1       4.042  -0.431   2.393  1.00  0.00     0.005 C 
HETATM   12  C15 UNL     1       2.917  -1.300   1.886  1.00  0.00     0.014 C 
ENDBRANCH   3   6
ENDBRANCH   1   2
BRANCH   1  13
HETATM   13  C8  UNL     1      -2.277   0.286  -0.367  1.00  0.00     0.136 C 
BRANCH  13  14
HETATM   14  O2  UNL     1      -1.800   1.128   0.522  1.00  0.00    -0.348 OA
ATOM     15  H2  UNL     1      -2.339   1.896   0.670  1.00  0.00     0.219 HD
ENDBRANCH  13  14
BRANCH  13  16
HETATM   16  N2  UNL     1      -3.481   0.693  -0.919  1.00  0.00    -0.353 N 
ATOM     17  H2  UNL     1      -3.915   0.096  -1.623  1.00  0.00     0.162 HD
BRANCH  16  18
HETATM   18  C9  UNL     1      -4.171   1.944  -0.544  1.00  0.00     0.246 C 
BRANCH  18  19
HETATM   19  C10 UNL     1      -4.218   2.875  -1.710  1.00  0.00     0.267 C 
HETATM   20  O3  UNL     1      -3.766   2.661  -2.801  1.00  0.00    -0.304 OA
ENDBRANCH  18  19
BRANCH  18  21
HETATM   21  C11 UNL     1      -5.563   1.650  -0.158  1.00  0.00     0.203 C 
HETATM   22  O4  UNL     1      -5.971   0.479  -0.169  1.00  0.00    -0.646 OA
HETATM   23  O5  UNL     1      -6.400   2.671   0.211  1.00  0.00    -0.646 OA
ENDBRANCH  18  21
ENDBRANCH  16  18
ENDBRANCH  13  16
ENDBRANCH   1  13
BRANCH   1  24
HETATM   24  C12 UNL     1      -1.624  -1.610  -1.901  1.00  0.00     0.008 C 
HETATM   25  C13 UNL     1      -0.727  -2.854  -1.954  1.00  0.00     0.012 C 
HETATM   26  C14 UNL     1      -3.038  -2.199  -2.051  1.00  0.00     0.012 C 
ENDBRANCH   1  24
TORSDOF 9
