REMARK  10 active torsions:
REMARK  status: ('A' for Active; 'I' for Inactive)
REMARK    1  A    between atoms: C1_2  and  C2_3 
REMARK       I    between atoms: C1_2  and  N2_15 
REMARK    2  A    between atoms: C2_3  and  N1_4 
REMARK       I    between atoms: N1_4  and  C3_6 
REMARK    3  A    between atoms: C3_6  and  O3_8 
REMARK    4  A    between atoms: O3_8  and  C4_9 
REMARK    5  A    between atoms: N2_15  and  C10_17 
REMARK    6  A    between atoms: C10_17  and  C11_18 
REMARK    7  A    between atoms: C10_17  and  C18_25 
REMARK    8  A    between atoms: C11_18  and  C12_19 
REMARK    9  A    between atoms: C18_25  and  O4_26 
REMARK   10  A    between atoms: C18_25  and  O5_28 
ROOT
HETATM    1  O1  UNL     1      -0.910  -3.639  -0.821  1.00  0.00    -0.272 OA
HETATM    2  C1  UNL     1      -0.556  -2.471  -0.425  1.00  0.00     0.235 C 
HETATM    3  N2  UNL     1      -1.470  -1.446  -0.515  1.00  0.00    -0.350 N 
ATOM      4  H2  UNL     1      -1.205  -0.511  -0.204  1.00  0.00     0.163 HD
ENDROOT
BRANCH   3   5
HETATM    5  C10 UNL     1      -2.808  -1.668  -1.045  1.00  0.00     0.143 C 
BRANCH   5   6
HETATM    6  C11 UNL     1      -3.010  -0.952  -2.344  1.00  0.00     0.068 C 
BRANCH   6   7
HETATM    7  C12 UNL     1      -2.850   0.502  -2.296  1.00  0.00    -0.056 A 
HETATM    8  C13 UNL     1      -3.884   1.385  -2.063  1.00  0.00     0.007 A 
HETATM    9  C14 UNL     1      -3.629   2.736  -2.041  1.00  0.00     0.001 A 
HETATM   10  C15 UNL     1      -2.358   3.222  -2.247  1.00  0.00     0.000 A 
HETATM   11  C16 UNL     1      -1.300   2.347  -2.482  1.00  0.00     0.001 A 
HETATM   12  C17 UNL     1      -1.556   0.995  -2.505  1.00  0.00     0.007 A 
ENDBRANCH   6   7
ENDBRANCH   5   6
BRANCH   5  13
HETATM   13  C18 UNL     1      -3.879  -1.474  -0.026  1.00  0.00     0.276 C 
BRANCH  13  14
HETATM   14  O4  UNL     1      -3.951  -0.235   0.551  1.00  0.00    -0.369 OA
ATOM     15  H4  UNL     1      -4.633  -0.111   1.200  1.00  0.00     0.212 HD
ENDBRANCH  13  14
BRANCH  13  16
HETATM   16  O5  UNL     1      -5.095  -1.832  -0.636  1.00  0.00    -0.369 OA
ATOM     17  H5  UNL     1      -5.777  -1.708   0.013  1.00  0.00     0.212 HD
ENDBRANCH  13  16
ENDBRANCH   5  13
ENDBRANCH   3   5
BRANCH   2  18
HETATM   18  C2  UNL     1       0.804  -2.361   0.084  1.00  0.00     0.227 C 
BRANCH  18  19
HETATM   19  N1  UNL     1       1.136  -1.042   0.512  1.00  0.00    -0.328 N 
HETATM   20  C3  UNL     1       2.442  -0.813   1.026  1.00  0.00     0.366 C 
HETATM   21  O2  UNL     1       3.299  -1.737   1.112  1.00  0.00    -0.238 OA
ATOM     22  H1  UNL     1       0.456  -0.284   0.451  1.00  0.00     0.165 HD
BRANCH  20  23
HETATM   23  O3  UNL     1       2.780   0.446   1.440  1.00  0.00    -0.262 OA
BRANCH  23  24
HETATM   24  C4  UNL     1       4.008   0.792   1.952  1.00  0.00     0.081 A 
HETATM   25  C5  UNL     1       4.998   1.185   1.082  1.00  0.00     0.037 A 
HETATM   26  C6  UNL     1       6.236   1.538   1.567  1.00  0.00     0.003 A 
HETATM   27  C7  UNL     1       6.536   1.515   2.910  1.00  0.00     0.000 A 
HETATM   28  C8  UNL     1       5.531   1.117   3.782  1.00  0.00     0.003 A 
HETATM   29  C9  UNL     1       4.288   0.762   3.300  1.00  0.00     0.037 A 
ENDBRANCH  23  24
ENDBRANCH  20  23
ENDBRANCH  18  19
ENDBRANCH   2  18
TORSDOF 10
