REMARK  15 active torsions:
REMARK  status: ('A' for Active; 'I' for Inactive)
REMARK    1  A    between atoms: N1_1  and  C1_5 
REMARK    2  A    between atoms: C1_5  and  C2_6 
REMARK    3  A    between atoms: C2_6  and  C3_7 
REMARK    4  A    between atoms: C3_7  and  C4_8 
REMARK    5  A    between atoms: C4_8  and  C5_9 
REMARK    6  A    between atoms: C5_9  and  C6_10 
REMARK    7  A    between atoms: C6_10  and  C7_11 
REMARK    8  A    between atoms: C7_11  and  C8_12 
REMARK    9  A    between atoms: C8_12  and  C9_13 
REMARK   10  A    between atoms: C9_13  and  N2_14 
REMARK   11  A    between atoms: N2_14  and  C10_16 
REMARK   12  A    between atoms: C18_26  and  O1_27 
REMARK   13  A    between atoms: O1_27  and  C19_28 
REMARK   14  A    between atoms: C19_28  and  C20_29 
REMARK   15  A    between atoms: C20_29  and  N4_30 
ROOT
HETATM    1  C10 UNL     1       1.726   1.359  -1.416  1.00  0.00     0.030 A 
HETATM    2  C11 UNL     1       1.160   2.627  -1.430  1.00  0.00     0.030 A 
HETATM    3  C12 UNL     1      -0.207   2.799  -1.353  1.00  0.00     0.017 A 
HETATM    4  C13 UNL     1      -1.032   1.690  -1.261  1.00  0.00     0.003 A 
HETATM    5  C14 UNL     1      -0.506   0.414  -1.245  1.00  0.00     0.046 A 
HETATM    6  C15 UNL     1       0.868   0.283  -1.323  1.00  0.00     0.059 A 
HETATM    7  N3  UNL     1      -1.509  -0.471  -1.151  1.00  0.00    -0.355 N 
ATOM      8  H3  UNL     1      -1.396  -1.484  -1.119  1.00  0.00     0.166 HD
HETATM    9  C16 UNL     1      -2.686   0.176  -1.105  1.00  0.00     0.046 A 
HETATM   10  C17 UNL     1      -3.994  -0.254  -1.011  1.00  0.00     0.067 A 
HETATM   11  C18 UNL     1      -5.017   0.662  -0.984  1.00  0.00     0.071 A 
HETATM   12  C26 UNL     1      -4.712   2.024  -1.054  1.00  0.00     0.038 A 
HETATM   13  C27 UNL     1      -3.415   2.476  -1.148  1.00  0.00     0.017 A 
HETATM   14  C28 UNL     1      -2.406   1.537  -1.173  1.00  0.00     0.003 A 
ENDROOT
BRANCH   1  15
HETATM   15  N2  UNL     1       3.140   1.183  -1.497  1.00  0.00    -0.390 N 
ATOM     16  H2  UNL     1       3.757   1.991  -1.582  1.00  0.00     0.159 HD
BRANCH  15  17
HETATM   17  C9  UNL     1       3.687  -0.156  -1.457  1.00  0.00     0.119 C 
BRANCH  17  18
HETATM   18  C8  UNL     1       5.196  -0.105  -1.561  1.00  0.00     0.020 C 
BRANCH  18  19
HETATM   19  C7  UNL     1       5.793  -1.474  -1.518  1.00  0.00     0.002 C 
BRANCH  19  20
HETATM   20  C6  UNL     1       7.286  -1.390  -1.627  1.00  0.00     0.000 C 
BRANCH  20  21
HETATM   21  C5  UNL     1       7.876  -0.559  -0.470  1.00  0.00     0.000 C 
BRANCH  21  22
HETATM   22  C4  UNL     1       7.555  -1.150   0.839  1.00  0.00     0.000 C 
BRANCH  22  23
HETATM   23  C3  UNL     1       7.980  -0.393   2.018  1.00  0.00     0.002 C 
BRANCH  23  24
HETATM   24  C2  UNL     1       9.368  -0.054   2.322  1.00  0.00     0.027 C 
BRANCH  24  25
HETATM   25  C1  UNL     1      10.129   0.850   1.420  1.00  0.00     0.229 C 
BRANCH  25  26
HETATM   26  N1  UNL     1      11.502   1.070   1.977  1.00  0.00    -0.079 N 
ATOM     27  H13 UNL     1      11.478   1.414   2.937  1.00  0.00     0.274 HD
ATOM     28  H12 UNL     1      11.994   0.193   2.149  1.00  0.00     0.274 HD
ATOM     29  H11 UNL     1      12.024   1.690   1.358  1.00  0.00     0.274 HD
ENDBRANCH  25  26
ENDBRANCH  24  25
ENDBRANCH  23  24
ENDBRANCH  22  23
ENDBRANCH  21  22
ENDBRANCH  20  21
ENDBRANCH  19  20
ENDBRANCH  18  19
ENDBRANCH  17  18
ENDBRANCH  15  17
ENDBRANCH   1  15
BRANCH  11  30
HETATM   30  O1  UNL     1      -6.314   0.213  -0.891  1.00  0.00    -0.349 OA
BRANCH  30  31
HETATM   31  C19 UNL     1      -6.596  -1.168  -0.823  1.00  0.00     0.206 C 
BRANCH  31  32
HETATM   32  C20 UNL     1      -8.108  -1.370  -0.727  1.00  0.00     0.299 C 
BRANCH  32  33
HETATM   33  N4  UNL     1      -8.673  -0.747   0.433  1.00  0.00     0.090 N 
HETATM   34  C21 UNL     1      -8.304  -1.336   1.680  1.00  0.00     0.272 C 
HETATM   35  C22 UNL     1      -8.530  -0.318   2.774  1.00  0.00     0.030 C 
HETATM   36  C23 UNL     1      -9.949   0.128   2.755  1.00  0.00     0.003 C 
HETATM   37  C24 UNL     1     -10.783  -0.410   1.638  1.00  0.00     0.030 C 
HETATM   38  C25 UNL     1     -10.060  -0.438   0.314  1.00  0.00     0.272 C 
ENDBRANCH  32  33
ENDBRANCH  31  32
ENDBRANCH  30  31
ENDBRANCH  11  30
TORSDOF 15
