REMARK  14 active torsions:
REMARK  status: ('A' for Active; 'I' for Inactive)
REMARK    1  A    between atoms: C6_9  and  C7_10 
REMARK    2  A    between atoms: C7_10  and  C8_11 
REMARK    3  A    between atoms: C8_11  and  C9_12 
REMARK    4  A    between atoms: C9_12  and  C10_13 
REMARK    5  A    between atoms: C10_13  and  N2_14 
REMARK    6  A    between atoms: N2_14  and  C11_16 
REMARK    7  A    between atoms: C11_16  and  C12_17 
REMARK    8  A    between atoms: C12_17  and  C13_18 
REMARK    9  A    between atoms: C13_18  and  C14_19 
REMARK   10  A    between atoms: C14_19  and  C15_20 
REMARK   11  A    between atoms: C15_20  and  N3_21 
REMARK   12  A    between atoms: N3_21  and  C16_23 
REMARK   13  A    between atoms: C16_23  and  C17_24 
REMARK   14  A    between atoms: C17_24  and  C18_25 
ROOT
HETATM    1  C14 UNL     1      -0.417   1.685  -2.554  1.00  0.00     0.023 C 
ENDROOT
BRANCH   1   2
HETATM    2  C13 UNL     1       0.194   0.930  -3.688  1.00  0.00     0.030 C 
BRANCH   2   3
HETATM    3  C12 UNL     1       0.276  -0.516  -3.536  1.00  0.00    -0.010 C 
BRANCH   3   4
HETATM    4  C11 UNL     1       1.098  -1.194  -2.526  1.00  0.00     0.079 C 
BRANCH   4   5
HETATM    5  N2  UNL     1       0.836  -0.945  -1.170  1.00  0.00    -0.399 N 
ATOM      6  H2  UNL     1       0.187  -0.232  -0.836  1.00  0.00     0.158 HD
BRANCH   5   7
HETATM    7  C10 UNL     1       1.608  -1.834  -0.287  1.00  0.00     0.119 C 
BRANCH   7   8
HETATM    8  C9  UNL     1       3.088  -1.548  -0.341  1.00  0.00     0.020 C 
BRANCH   8   9
HETATM    9  C8  UNL     1       3.441  -0.160   0.051  1.00  0.00     0.002 C 
BRANCH   9  10
HETATM   10  C7  UNL     1       4.924   0.056  -0.045  1.00  0.00     0.010 C 
BRANCH  10  11
HETATM   11  C6  UNL     1       5.662  -0.859   0.866  1.00  0.00     0.031 C 
HETATM   12  C1  UNL     1       7.149  -0.649   0.793  1.00  0.00    -0.016 C 
HETATM   13  N1  UNL     1       7.818  -1.258  -0.113  1.00  0.00    -0.405 N 
HETATM   14  C2  UNL     1       7.799   0.245   1.763  1.00  0.00     0.052 C 
ATOM     15  H12 UNL     1       8.827  -1.116  -0.163  1.00  0.00     0.155 HD
ATOM     16  H11 UNL     1       7.367  -1.878  -0.786  1.00  0.00     0.155 HD
HETATM   17  C3  UNL     1       6.880   1.251   2.379  1.00  0.00     0.006 C 
HETATM   18  C4  UNL     1       5.547   0.710   2.787  1.00  0.00     0.001 C 
HETATM   19  C5  UNL     1       5.295  -0.710   2.317  1.00  0.00     0.010 C 
ENDBRANCH  10  11
ENDBRANCH   9  10
ENDBRANCH   8   9
ENDBRANCH   7   8
ENDBRANCH   5   7
ENDBRANCH   4   5
ENDBRANCH   3   4
ENDBRANCH   2   3
ENDBRANCH   1   2
BRANCH   1  20
HETATM   20  C15 UNL     1      -1.835   1.177  -2.330  1.00  0.00     0.119 C 
BRANCH  20  21
HETATM   21  N3  UNL     1      -2.432   1.897  -1.252  1.00  0.00    -0.402 N 
ATOM     22  H3  UNL     1      -3.178   2.571  -1.427  1.00  0.00     0.158 HD
BRANCH  21  23
HETATM   23  C16 UNL     1      -1.980   1.664   0.038  1.00  0.00     0.060 C 
BRANCH  23  24
HETATM   24  C17 UNL     1      -2.413   0.421   0.710  1.00  0.00     0.086 C 
BRANCH  24  25
HETATM   25  C18 UNL     1      -3.858   0.423   1.003  1.00  0.00    -0.010 A 
HETATM   26  C19 UNL     1      -4.861  -0.064   0.220  1.00  0.00    -0.042 A 
HETATM   27  C20 UNL     1      -6.181   0.108   0.609  1.00  0.00    -0.049 A 
HETATM   28  C28 UNL     1      -4.557  -0.851  -1.020  1.00  0.00     0.040 C 
HETATM   29  C21 UNL     1      -6.471   0.778   1.799  1.00  0.00     0.047 A 
HETATM   30  C25 UNL     1      -7.344  -0.374  -0.154  1.00  0.00     0.039 C 
HETATM   31  C22 UNL     1      -5.464   1.269   2.595  1.00  0.00     0.106 A 
HETATM   32  C23 UNL     1      -4.171   1.102   2.214  1.00  0.00     0.112 A 
HETATM   33  O2  UNL     1      -5.457   1.968   3.820  1.00  0.00    -0.323 OA
HETATM   34  O1  UNL     1      -3.373   1.692   3.198  1.00  0.00    -0.322 OA
HETATM   35  C24 UNL     1      -4.184   1.723   4.382  1.00  0.00     0.352 C 
HETATM   36  C26 UNL     1      -6.928  -0.935  -1.483  1.00  0.00     0.005 C 
HETATM   37  C27 UNL     1      -5.712  -1.824  -1.253  1.00  0.00     0.005 C 
ENDBRANCH  24  25
ENDBRANCH  23  24
ENDBRANCH  21  23
ENDBRANCH  20  21
ENDBRANCH   1  20
TORSDOF 14
