REMARK  15 active torsions:
REMARK  status: ('A' for Active; 'I' for Inactive)
REMARK    1  A    between atoms: N1_1  and  N2_4 
REMARK    2  A    between atoms: C2_6  and  C3_7 
REMARK    3  A    between atoms: C3_7  and  C4_8 
REMARK    4  A    between atoms: C4_8  and  C5_9 
REMARK    5  A    between atoms: C5_9  and  C6_10 
REMARK    6  A    between atoms: C6_10  and  C7_11 
REMARK    7  A    between atoms: C7_11  and  O1_12 
REMARK    8  A    between atoms: C7_11  and  C8_14 
REMARK    9  A    between atoms: C8_14  and  C9_15 
REMARK   10  A    between atoms: C9_15  and  C10_16 
REMARK   11  A    between atoms: C10_16  and  C11_17 
REMARK   12  A    between atoms: C11_17  and  C12_18 
REMARK   13  A    between atoms: C12_18  and  C13_19 
REMARK   14  A    between atoms: C13_19  and  C14_20 
REMARK   15  A    between atoms: C20_29  and  C21_30 
ROOT
HETATM    1  C3  UNL     1       1.328  -2.398   1.030  1.00  0.00     0.056 C 
ENDROOT
BRANCH   1   2
HETATM    2  C2  UNL     1       2.463  -1.837   0.263  1.00  0.00     0.025 C 
HETATM    3  C1  UNL     1       2.394  -0.797  -0.777  1.00  0.00     0.170 C 
HETATM    4  N2  UNL     1       3.478   0.151  -0.556  1.00  0.00    -0.201 NA
HETATM    5  C20 UNL     1       4.770  -0.489  -0.734  1.00  0.00     0.249 C 
HETATM    6  O2  UNL     1       4.731  -1.818  -0.206  1.00  0.00    -0.258 OA
HETATM    7  N3  UNL     1       3.684  -2.300   0.492  1.00  0.00    -0.272 N 
ATOM      8  H3  UNL     1       3.831  -3.022   1.197  1.00  0.00     0.193 HD
BRANCH   4   9
HETATM    9  N1  UNL     1       3.340   1.303  -1.296  1.00  0.00    -0.361 NA
ATOM     10  H12 UNL     1       2.433   1.752  -1.171  1.00  0.00     0.171 HD
ATOM     11  H11 UNL     1       4.099   1.967  -1.141  1.00  0.00     0.171 HD
ENDBRANCH   4   9
BRANCH   5  12
HETATM   12  C21 UNL     1       5.887   0.295  -0.077  1.00  0.00     0.033 C 
HETATM   13  C22 UNL     1       7.168  -0.497  -0.344  1.00  0.00     0.009 C 
HETATM   14  C23 UNL     1       8.239   0.454  -0.797  1.00  0.00     0.001 C 
HETATM   15  C24 UNL     1       8.780   1.130   0.470  1.00  0.00     0.000 C 
HETATM   16  C25 UNL     1       8.248   2.490   0.677  1.00  0.00     0.000 C 
HETATM   17  C26 UNL     1       6.900   2.607   1.287  1.00  0.00     0.000 C 
HETATM   18  C27 UNL     1       6.433   1.458   2.092  1.00  0.00     0.001 C 
HETATM   19  C28 UNL     1       5.601   0.447   1.365  1.00  0.00     0.009 C 
ENDBRANCH   5  12
ENDBRANCH   1   2
BRANCH   1  20
HETATM   20  C4  UNL     1       0.320  -3.155   0.260  1.00  0.00     0.006 C 
BRANCH  20  21
HETATM   21  C5  UNL     1      -0.458  -2.418  -0.767  1.00  0.00     0.003 C 
BRANCH  21  22
HETATM   22  C6  UNL     1      -1.301  -1.308  -0.172  1.00  0.00     0.032 C 
BRANCH  22  23
HETATM   23  C7  UNL     1      -2.061  -0.601  -1.286  1.00  0.00     0.118 C 
BRANCH  23  24
HETATM   24  O1  UNL     1      -2.906  -1.413  -1.989  1.00  0.00    -0.396 OA
ATOM     25  H1  UNL     1      -3.380  -0.972  -2.684  1.00  0.00     0.210 HD
ENDBRANCH  23  24
BRANCH  23  26
HETATM   26  C8  UNL     1      -2.678   0.662  -0.759  1.00  0.00     0.032 C 
BRANCH  26  27
HETATM   27  C9  UNL     1      -3.639   0.493   0.350  1.00  0.00     0.002 C 
BRANCH  27  28
HETATM   28  C10 UNL     1      -4.858  -0.315   0.090  1.00  0.00     0.000 C 
BRANCH  28  29
HETATM   29  C11 UNL     1      -5.735   0.216  -0.984  1.00  0.00     0.000 C 
BRANCH  29  30
HETATM   30  C12 UNL     1      -6.954  -0.573  -1.264  1.00  0.00     0.005 C 
BRANCH  30  31
HETATM   31  C13 UNL     1      -7.939  -0.734  -0.168  1.00  0.00     0.038 C 
BRANCH  31  32
HETATM   32  C14 UNL     1      -8.502   0.584   0.295  1.00  0.00    -0.058 A 
HETATM   33  C15 UNL     1      -7.976   1.322   1.303  1.00  0.00     0.007 A 
HETATM   34  C16 UNL     1      -8.547   2.515   1.658  1.00  0.00     0.001 A 
HETATM   35  C17 UNL     1      -9.660   3.028   1.035  1.00  0.00     0.000 A 
HETATM   36  C18 UNL     1     -10.199   2.280   0.009  1.00  0.00     0.001 A 
HETATM   37  C19 UNL     1      -9.635   1.085  -0.355  1.00  0.00     0.007 A 
ENDBRANCH  31  32
ENDBRANCH  30  31
ENDBRANCH  29  30
ENDBRANCH  28  29
ENDBRANCH  27  28
ENDBRANCH  26  27
ENDBRANCH  23  26
ENDBRANCH  22  23
ENDBRANCH  21  22
ENDBRANCH  20  21
ENDBRANCH   1  20
TORSDOF 15
