REMARK  14 active torsions:
REMARK  status: ('A' for Active; 'I' for Inactive)
REMARK    1  A    between atoms: C3_6  and  N3_7 
REMARK    2  A    between atoms: C4_12  and  N5_13 
REMARK    3  A    between atoms: C5_16  and  C6_17 
REMARK       I    between atoms: C6_17  and  N6_19 
REMARK    4  A    between atoms: N6_19  and  C7_21 
REMARK    5  A    between atoms: C7_21  and  C8_22 
REMARK    6  A    between atoms: C8_22  and  C9_23 
REMARK    7  A    between atoms: C9_23  and  N7_24 
REMARK    8  A    between atoms: N7_24  and  C10_25 
REMARK    9  A    between atoms: N7_24  and  S1_36 
REMARK   10  A    between atoms: C13_28  and  C14_29 
REMARK   11  A    between atoms: S1_36  and  C17_39 
REMARK   12  A    between atoms: C20_42  and  C21_43 
REMARK   13  A    between atoms: C21_43  and  C22_44 
REMARK   14  A    between atoms: C22_44  and  N10_45 
ROOT
HETATM    1  N1  UNL     1       4.837  -2.193  -2.989  1.00  0.00    -0.190 NA
HETATM    2  C1  UNL     1       5.426  -1.965  -2.008  1.00  0.00     0.119 C 
HETATM    3  C2  UNL     1       6.169  -1.717  -0.811  1.00  0.00     0.149 A 
HETATM    4  N2  UNL     1       7.520  -1.727  -0.872  1.00  0.00    -0.181 N 
ATOM      5  H2  UNL     1       7.967  -1.871  -1.777  1.00  0.00     0.185 HD
HETATM    6  C3  UNL     1       8.294  -1.556   0.203  1.00  0.00     0.678 A 
HETATM    7  N4  UNL     1       7.740  -1.365   1.392  1.00  0.00    -0.176 N 
ATOM      8  H4  UNL     1       8.338  -1.235   2.208  1.00  0.00     0.186 HD
HETATM    9  C4  UNL     1       6.379  -1.339   1.545  1.00  0.00     0.133 A 
HETATM   10  C5  UNL     1       5.580  -1.516   0.434  1.00  0.00     0.114 A 
ENDROOT
BRANCH  10  11
HETATM   11  C6  UNL     1       4.144  -1.433   0.538  1.00  0.00     0.258 C 
HETATM   12  O1  UNL     1       3.572  -2.007   1.516  1.00  0.00    -0.267 OA
HETATM   13  N6  UNL     1       3.299  -0.756  -0.358  1.00  0.00    -0.357 N 
ATOM     14  H6  UNL     1       3.704  -0.265  -1.155  1.00  0.00     0.162 HD
BRANCH  13  15
HETATM   15  C7  UNL     1       1.838  -0.742  -0.167  1.00  0.00     0.124 C 
BRANCH  15  16
HETATM   16  C8  UNL     1       1.205   0.045  -1.259  1.00  0.00     0.041 C 
BRANCH  16  17
HETATM   17  C9  UNL     1      -0.274   0.115  -1.199  1.00  0.00     0.143 C 
BRANCH  17  18
HETATM   18  N7  UNL     1      -0.826   0.698  -0.004  1.00  0.00    -0.272 N 
BRANCH  18  19
HETATM   19  C10 UNL     1      -0.685   2.135   0.089  1.00  0.00     0.045 A 
HETATM   20  C11 UNL     1      -1.645   2.990  -0.411  1.00  0.00     0.031 A 
HETATM   21  C12 UNL     1      -1.530   4.348  -0.333  1.00  0.00     0.017 A 
HETATM   22  C13 UNL     1      -0.400   4.901   0.276  1.00  0.00     0.005 A 
HETATM   23  C15 UNL     1       0.562   4.069   0.778  1.00  0.00     0.017 A 
HETATM   24  C16 UNL     1       0.410   2.683   0.680  1.00  0.00     0.031 A 
BRANCH  22  25
HETATM   25  C14 UNL     1      -0.238   6.332   0.380  1.00  0.00     0.120 C 
HETATM   26  N8  UNL     1       0.801   6.834   0.940  1.00  0.00    -0.387 N 
ATOM     27  H82 UNL     1       1.514   6.206   1.312  1.00  0.00     0.157 HD
ATOM     28  H81 UNL     1       0.915   7.845   1.013  1.00  0.00     0.157 HD
HETATM   29  N9  UNL     1      -1.223   7.199  -0.134  1.00  0.00    -0.082 NA
ENDBRANCH  22  25
ENDBRANCH  18  19
BRANCH  18  30
HETATM   30  S1  UNL     1      -1.598  -0.196   1.227  1.00  0.00     0.265 S 
HETATM   31  O2  UNL     1      -0.720  -1.277   1.737  1.00  0.00    -0.200 OA
HETATM   32  O3  UNL     1      -2.012   0.650   2.385  1.00  0.00    -0.200 OA
BRANCH  30  33
HETATM   33  C17 UNL     1      -3.033  -0.998   0.562  1.00  0.00     0.080 A 
HETATM   34  C18 UNL     1      -4.254  -0.360   0.578  1.00  0.00     0.026 A 
HETATM   35  C19 UNL     1      -5.398  -0.954   0.067  1.00  0.00     0.009 A 
HETATM   36  C20 UNL     1      -5.346  -2.218  -0.480  1.00  0.00    -0.057 A 
HETATM   37  C23 UNL     1      -4.122  -2.853  -0.494  1.00  0.00     0.009 A 
HETATM   38  C24 UNL     1      -2.979  -2.261   0.016  1.00  0.00     0.026 A 
BRANCH  36  39
HETATM   39  C21 UNL     1      -6.542  -2.900  -1.041  1.00  0.00     0.065 C 
BRANCH  39  40
HETATM   40  C22 UNL     1      -7.222  -3.693   0.049  1.00  0.00     0.234 C 
BRANCH  40  41
HETATM   41  N10 UNL     1      -8.380  -4.340  -0.538  1.00  0.00    -0.079 N 
ATOM     42 3H10 UNL     1      -9.008  -3.685  -1.003  1.00  0.00     0.274 HD
ATOM     43 2H10 UNL     1      -8.148  -4.905  -1.355  1.00  0.00     0.274 HD
ATOM     44 1H10 UNL     1      -8.839  -4.876   0.198  1.00  0.00     0.274 HD
ENDBRANCH  40  41
ENDBRANCH  39  40
ENDBRANCH  36  39
ENDBRANCH  30  33
ENDBRANCH  18  30
ENDBRANCH  17  18
ENDBRANCH  16  17
ENDBRANCH  15  16
ENDBRANCH  13  15
ENDBRANCH  10  11
BRANCH   6  45
HETATM   45  N3  UNL     1       9.584  -1.576   0.080  1.00  0.00    -0.234 N 
ATOM     46  H32 UNL     1      10.010  -1.723  -0.835  1.00  0.00     0.174 HD
ATOM     47  H31 UNL     1      10.175  -1.445   0.901  1.00  0.00     0.174 HD
ENDBRANCH   6  45
BRANCH   9  48
HETATM   48  N5  UNL     1       5.976  -1.134   2.714  1.00  0.00    -0.384 N 
ATOM     49  H52 UNL     1       6.567  -1.003   3.535  1.00  0.00     0.157 HD
ATOM     50  H51 UNL     1       4.963  -1.115   2.828  1.00  0.00     0.157 HD
ENDBRANCH   9  48
TORSDOF 14
