REMARK  15 active torsions:
REMARK  status: ('A' for Active; 'I' for Inactive)
REMARK    1  A    between atoms: C2_2  and  N1_3 
REMARK       I    between atoms: N1_3  and  C3_5 
REMARK    2  A    between atoms: C3_5  and  C4_7 
REMARK    3  A    between atoms: C4_7  and  N2_8 
REMARK    4  A    between atoms: N2_8  and  C5_10 
REMARK    5  A    between atoms: C6_13  and  N4_14 
REMARK    6  A    between atoms: N4_14  and  C7_16 
REMARK    7  A    between atoms: C7_16  and  C8_17 
REMARK    8  A    between atoms: C8_17  and  C9_18 
REMARK    9  A    between atoms: C9_18  and  C10_19 
REMARK   10  A    between atoms: C12_23  and  N6_24 
REMARK   11  A    between atoms: C14_34  and  N10_35 
REMARK   12  A    between atoms: N10_35  and  C15_37 
REMARK   13  A    between atoms: N11_44  and  C22_45 
REMARK   14  A    between atoms: C22_45  and  C23_46 
REMARK   15  A    between atoms: C23_46  and  O2_47 
ROOT
HETATM    1  C5  UNL     1      -2.201   0.690  -1.039  1.00  0.00     0.148 A 
HETATM    2  N3  UNL     1      -3.232  -0.002  -0.483  1.00  0.00    -0.175 N 
ATOM      3  H3  UNL     1      -4.177   0.143  -0.839  1.00  0.00     0.186 HD
HETATM    4  C6  UNL     1      -3.039  -0.866   0.516  1.00  0.00     0.681 A 
HETATM    5  N8  UNL     1      -1.767  -1.041   0.972  1.00  0.00    -0.174 N 
ATOM      6  H8  UNL     1      -1.604  -1.698   1.735  1.00  0.00     0.186 HD
HETATM    7  C13 UNL     1      -0.727  -0.383   0.456  1.00  0.00     0.167 A 
HETATM    8  N9  UNL     1       0.611  -0.373   0.722  1.00  0.00    -0.174 N 
ATOM      9  H9  UNL     1       1.063  -0.937   1.442  1.00  0.00     0.186 HD
HETATM   10  C14 UNL     1       1.247   0.474  -0.086  1.00  0.00     0.680 A 
HETATM   11  N12 UNL     1       0.282   1.004  -0.873  1.00  0.00    -0.184 N 
ATOM     12  H12 UNL     1       0.455   1.695  -1.603  1.00  0.00     0.184 HD
HETATM   13  C25 UNL     1      -0.913   0.517  -0.581  1.00  0.00     0.138 A 
ENDROOT
BRANCH   4  14
HETATM   14  N4  UNL     1      -3.961  -1.552   1.087  1.00  0.00    -0.226 N 
ATOM     15  H4  UNL     1      -3.704  -2.187   1.843  1.00  0.00     0.177 HD
BRANCH  14  16
HETATM   16  C7  UNL     1      -5.335  -1.459   0.702  1.00  0.00     0.138 C 
BRANCH  16  17
HETATM   17  C8  UNL     1      -5.541  -2.403  -0.458  1.00  0.00     0.026 C 
BRANCH  17  18
HETATM   18  C9  UNL     1      -6.917  -2.454  -1.003  1.00  0.00     0.060 C 
BRANCH  18  19
HETATM   19  C10 UNL     1      -7.964  -2.975  -0.102  1.00  0.00     0.042 A 
HETATM   20  C11 UNL     1      -7.825  -3.601   1.117  1.00  0.00     0.131 A 
HETATM   21  N5  UNL     1      -9.060  -3.868   1.556  1.00  0.00    -0.200 N 
HETATM   22  C12 UNL     1      -9.966  -3.437   0.666  1.00  0.00     0.675 A 
ATOM     23  H5  UNL     1      -9.280  -4.331   2.438  1.00  0.00     0.183 HD
HETATM   24  N7  UNL     1      -9.306  -2.891  -0.350  1.00  0.00    -0.195 N 
ATOM     25  H7  UNL     1      -9.731  -2.477  -1.180  1.00  0.00     0.184 HD
BRANCH  22  26
HETATM   26  N6  UNL     1     -11.262  -3.520   0.746  1.00  0.00    -0.234 N 
ATOM     27  H62 UNL     1     -11.769  -3.939   1.526  1.00  0.00     0.174 HD
ATOM     28  H61 UNL     1     -11.951  -3.192   0.069  1.00  0.00     0.174 HD
ENDBRANCH  22  26
ENDBRANCH  18  19
ENDBRANCH  17  18
ENDBRANCH  16  17
ENDBRANCH  14  16
ENDBRANCH   4  14
BRANCH   1  29
HETATM   29  N2  UNL     1      -2.474   1.491  -1.979  1.00  0.00    -0.365 N 
ATOM     30  H2  UNL     1      -3.464   1.530  -2.222  1.00  0.00     0.161 HD
BRANCH  29  31
HETATM   31  C4  UNL     1      -1.652   2.342  -2.753  1.00  0.00     0.224 C 
BRANCH  31  32
HETATM   32  C3  UNL     1      -1.389   3.652  -2.110  1.00  0.00     0.235 C 
HETATM   33  N1  UNL     1      -1.956   3.936  -0.849  1.00  0.00    -0.360 N 
ATOM     34  H1  UNL     1      -2.544   3.246  -0.381  1.00  0.00     0.162 HD
HETATM   35  O1  UNL     1      -0.660   4.457  -2.736  1.00  0.00    -0.272 OA
BRANCH  33  36
HETATM   36  C2  UNL     1      -1.693   5.223  -0.224  1.00  0.00     0.118 C 
HETATM   37  C1  UNL     1      -2.181   6.372  -1.078  1.00  0.00     0.026 C 
ENDBRANCH  33  36
ENDBRANCH  31  32
ENDBRANCH  29  31
ENDBRANCH   1  29
BRANCH  10  38
HETATM   38  N10 UNL     1       2.626   0.813  -0.157  1.00  0.00    -0.221 N 
ATOM     39  H10 UNL     1       2.903   1.510  -0.848  1.00  0.00     0.178 HD
BRANCH  38  40
HETATM   40  C15 UNL     1       3.652   0.255   0.662  1.00  0.00     0.103 C 
HETATM   41  C16 UNL     1       3.926  -1.208   0.431  1.00  0.00     0.061 C 
HETATM   42  C17 UNL     1       5.065  -1.663   1.312  1.00  0.00     0.225 C 
HETATM   43  C18 UNL     1       4.823  -1.211   2.740  1.00  0.00     0.038 C 
HETATM   44  N11 UNL     1       6.314  -0.996   1.017  1.00  0.00     0.100 N 
HETATM   45  C19 UNL     1       5.437   0.175   2.773  1.00  0.00     0.038 C 
HETATM   46  C20 UNL     1       6.013   0.358   1.361  1.00  0.00     0.225 C 
HETATM   47  C21 UNL     1       4.980   0.987   0.478  1.00  0.00     0.061 C 
BRANCH  44  48
HETATM   48  C22 UNL     1       6.791  -1.204  -0.300  1.00  0.00     0.299 C 
BRANCH  48  49
HETATM   49  C23 UNL     1       8.101  -0.443  -0.459  1.00  0.00     0.197 C 
BRANCH  49  50
HETATM   50  O2  UNL     1       8.624  -0.609  -1.741  1.00  0.00    -0.394 OA
HETATM   51  C24 UNL     1       9.814   0.112  -1.814  1.00  0.00     0.201 C 
ENDBRANCH  49  50
ENDBRANCH  48  49
ENDBRANCH  44  48
ENDBRANCH  38  40
ENDBRANCH  10  38
TORSDOF 15
