REMARK  13 active torsions:
REMARK  status: ('A' for Active; 'I' for Inactive)
REMARK    1  A    between atoms: C4_4  and  N1_5 
REMARK    2  A    between atoms: N1_5  and  C5_7 
REMARK    3  A    between atoms: C8_10  and  C9_11 
REMARK       I    between atoms: C9_11  and  N2_13 
REMARK    4  A    between atoms: N2_13  and  C10_15 
REMARK    5  A    between atoms: C10_15  and  C11_16 
REMARK    6  A    between atoms: C11_16  and  N3_17 
REMARK    7  A    between atoms: C16_24  and  N5_25 
REMARK    8  A    between atoms: N5_25  and  C17_27 
REMARK    9  A    between atoms: C17_27  and  C18_28 
REMARK   10  A    between atoms: C18_28  and  C19_29 
REMARK   11  A    between atoms: C22_32  and  C23_33 
REMARK   12  A    between atoms: C23_33  and  N6_35 
REMARK   13  A    between atoms: C23_33  and  C25_39 
ROOT
HETATM    1  N5  UNL     1       0.577   0.503   1.030  1.00  0.00    -0.226 N 
ATOM      2  H5  UNL     1      -0.131  -0.193   1.262  1.00  0.00     0.177 HD
ENDROOT
BRANCH   1   3
HETATM    3  C16 UNL     1       0.187   1.611   0.500  1.00  0.00     0.679 A 
HETATM    4  N4  UNL     1      -1.120   1.858   0.254  1.00  0.00    -0.177 N 
HETATM    5  C4  UNL     1      -1.554   2.997  -0.295  1.00  0.00     0.123 A 
ATOM      6  H4  UNL     1      -1.805   1.143   0.498  1.00  0.00     0.186 HD
HETATM    7  C3  UNL     1      -0.650   3.974  -0.633  1.00  0.00     0.074 A 
HETATM    8  C2  UNL     1       0.695   3.755  -0.396  1.00  0.00     0.026 A 
HETATM    9  C1  UNL     1       1.742   4.756  -0.726  1.00  0.00     0.069 C 
HETATM   10  N12 UNL     1       1.048   2.583   0.160  1.00  0.00    -0.196 N 
ATOM     11  H12 UNL     1       2.040   2.421   0.336  1.00  0.00     0.184 HD
BRANCH   5  12
HETATM   12  N1  UNL     1      -2.814   3.172  -0.504  1.00  0.00    -0.342 N 
ATOM     13  H1  UNL     1      -3.129   4.047  -0.924  1.00  0.00     0.167 HD
BRANCH  12  14
HETATM   14  C5  UNL     1      -3.773   2.188  -0.169  1.00  0.00     0.033 A 
HETATM   15  C6  UNL     1      -4.160   1.211  -1.041  1.00  0.00     0.030 A 
HETATM   16  C7  UNL     1      -5.100   0.252  -0.704  1.00  0.00     0.019 A 
HETATM   17  C8  UNL     1      -5.686   0.247   0.536  1.00  0.00     0.032 A 
HETATM   18  C14 UNL     1      -5.298   1.239   1.432  1.00  0.00     0.019 A 
HETATM   19  C15 UNL     1      -4.354   2.191   1.075  1.00  0.00     0.030 A 
BRANCH  17  20
HETATM   20  C9  UNL     1      -6.676  -0.739   0.921  1.00  0.00     0.251 C 
HETATM   21  O1  UNL     1      -7.005  -0.748   2.154  1.00  0.00    -0.268 OA
HETATM   22  N2  UNL     1      -7.273  -1.657   0.024  1.00  0.00    -0.352 N 
ATOM     23  H2  UNL     1      -6.992  -1.631  -0.956  1.00  0.00     0.163 HD
BRANCH  22  24
HETATM   24  C10 UNL     1      -8.253  -2.621   0.428  1.00  0.00     0.167 C 
BRANCH  24  25
HETATM   25  C11 UNL     1      -9.471  -1.976   0.974  1.00  0.00     0.076 C 
BRANCH  25  26
HETATM   26  N3  UNL     1     -10.156  -1.105   0.111  1.00  0.00    -0.400 N 
HETATM   27  C12 UNL     1     -11.320  -0.457   0.569  1.00  0.00     0.148 C 
HETATM   28  C13 UNL     1      -9.674  -0.846  -1.176  1.00  0.00     0.148 C 
ENDBRANCH  25  26
ENDBRANCH  24  25
ENDBRANCH  22  24
ENDBRANCH  17  20
ENDBRANCH  12  14
ENDBRANCH   5  12
ENDBRANCH   1   3
BRANCH   1  29
HETATM   29  C17 UNL     1       1.960   0.188   1.315  1.00  0.00     0.144 C 
BRANCH  29  30
HETATM   30  C18 UNL     1       2.612  -0.279   0.044  1.00  0.00     0.077 C 
BRANCH  30  31
HETATM   31  C19 UNL     1       4.039  -0.629   0.226  1.00  0.00     0.010 A 
HETATM   32  C20 UNL     1       5.055   0.306   0.074  1.00  0.00     0.025 A 
HETATM   33  C21 UNL     1       6.388  -0.007   0.239  1.00  0.00     0.013 A 
HETATM   34  C22 UNL     1       6.730  -1.298   0.568  1.00  0.00     0.000 A 
HETATM   35  C27 UNL     1       5.706  -2.213   0.716  1.00  0.00     0.098 A 
HETATM   36  N11 UNL     1       4.411  -1.882   0.549  1.00  0.00    -0.368 N 
ATOM     37  H11 UNL     1       3.695  -2.598   0.670  1.00  0.00     0.165 HD
BRANCH  34  38
HETATM   38  C23 UNL     1       8.151  -1.697   0.761  1.00  0.00     0.207 C 
HETATM   39  C24 UNL     1       8.690  -0.897   1.906  1.00  0.00     0.060 C 
BRANCH  38  40
HETATM   40  N6  UNL     1       8.220  -3.100   1.128  1.00  0.00    -0.059 N 
ATOM     41  H63 UNL     1       7.647  -3.312   1.945  1.00  0.00     0.276 HD
ATOM     42  H62 UNL     1       7.741  -3.697   0.454  1.00  0.00     0.276 HD
ATOM     43  H61 UNL     1       9.194  -3.373   1.260  1.00  0.00     0.276 HD
ENDBRANCH  38  40
BRANCH  38  44
HETATM   44  C25 UNL     1       8.965  -1.508  -0.441  1.00  0.00     0.153 A 
HETATM   45  N7  UNL     1       9.920  -0.572  -0.576  1.00  0.00    -0.272 N 
HETATM   46  N8  UNL     1      10.464  -0.656  -1.763  1.00  0.00    -0.131 N 
ATOM     47  H7  UNL     1      10.182   0.104   0.141  1.00  0.00     0.189 HD
HETATM   48  C26 UNL     1       9.879  -1.646  -2.427  1.00  0.00     0.692 A 
ATOM     49  H8  UNL     1      11.212  -0.061  -2.119  1.00  0.00     0.205 HD
HETATM   50  N9  UNL     1      10.145  -2.034  -3.632  1.00  0.00    -0.233 N 
HETATM   51  N10 UNL     1       8.956  -2.176  -1.623  1.00  0.00    -0.175 N 
ATOM     52  H92 UNL     1      10.851  -1.629  -4.247  1.00  0.00     0.174 HD
ATOM     53  H91 UNL     1       9.696  -2.794  -4.142  1.00  0.00     0.174 HD
ATOM     54  H10 UNL     1       8.343  -2.957  -1.858  1.00  0.00     0.185 HD
ENDBRANCH  38  44
ENDBRANCH  34  38
ENDBRANCH  30  31
ENDBRANCH  29  30
ENDBRANCH   1  29
TORSDOF 13
