REMARK  1 active torsions:
REMARK  status: ('A' for Active; 'I' for Inactive)
REMARK    1  A    between atoms: N1_1  and  C1_4 
ROOT
HETATM    1  C1  UNL     1      -0.306  -0.898   0.102  1.00  0.00     0.132 A 
HETATM    2  N2  UNL     1       1.026  -0.969   0.123  1.00  0.00    -0.304 N 
ATOM      3  H2  UNL     1       1.557  -1.833   0.229  1.00  0.00     0.171 HD
HETATM    4  C2  UNL     1       1.579   0.262  -0.016  1.00  0.00     0.299 A 
HETATM    5  O1  UNL     1       2.820   0.481  -0.031  1.00  0.00    -0.264 OA
HETATM    6  C3  UNL     1       0.537   1.143  -0.129  1.00  0.00     0.269 A 
HETATM    7  O2  UNL     1       0.629   2.392  -0.274  1.00  0.00    -0.280 OA
HETATM    8  C4  UNL     1      -0.644   0.443  -0.058  1.00  0.00     0.126 A 
HETATM    9  N3  UNL     1      -1.865   0.857  -0.117  1.00  0.00    -0.393 N 
ATOM     10  H31 UNL     1      -2.113   1.840  -0.234  1.00  0.00     0.156 HD
ATOM     11  H32 UNL     1      -2.741   0.338  -0.064  1.00  0.00     0.156 HD
ENDROOT
BRANCH   1  12
HETATM   12  N1  UNL     1      -1.097  -1.915   0.214  1.00  0.00    -0.383 N 
ATOM     13  H12 UNL     1      -0.849  -2.898   0.331  1.00  0.00     0.157 HD
ATOM     14  H11 UNL     1      -2.115  -1.861   0.198  1.00  0.00     0.157 HD
ENDBRANCH   1  12
TORSDOF 1
