REMARK  1 active torsions:
REMARK  status: ('A' for Active; 'I' for Inactive)
REMARK    1  A    between atoms: N2_4  and  N3_6 
ROOT
HETATM    1  N3  UNL     1       1.569   0.447   0.243  1.00  0.00    -0.268 N 
ATOM      2  H3  UNL     1       1.860   1.424   0.265  1.00  0.00     0.190 HD
HETATM    3  C1  UNL     1       0.302   0.171   0.059  1.00  0.00     0.169 A 
HETATM    4  N4  UNL     1      -0.299  -1.113  -0.002  1.00  0.00    -0.290 N 
ATOM      5  H4  UNL     1       0.187  -2.005   0.091  1.00  0.00     0.172 HD
HETATM    6  C2  UNL     1      -1.692  -0.945  -0.215  1.00  0.00     0.327 A 
HETATM    7  O1  UNL     1      -2.579  -1.845  -0.328  1.00  0.00    -0.247 OA
HETATM    8  N5  UNL     1      -2.017   0.437  -0.294  1.00  0.00    -0.292 N 
ATOM      9  H5  UNL     1      -2.939   0.848  -0.441  1.00  0.00     0.172 HD
HETATM   10  C3  UNL     1      -0.784   1.124  -0.125  1.00  0.00     0.149 A 
HETATM   11  N6  UNL     1      -0.609   2.423  -0.127  1.00  0.00    -0.382 N 
ATOM     12  H61 UNL     1      -1.370   3.090  -0.256  1.00  0.00     0.157 HD
ATOM     13  H62 UNL     1       0.276   2.916  -0.006  1.00  0.00     0.157 HD
ENDROOT
BRANCH   1  14
HETATM   14  N2  UNL     1       2.526  -0.533   0.408  1.00  0.00    -0.248 N 
HETATM   15  N1  UNL     1       3.412  -0.707  -0.501  1.00  0.00    -0.331 N 
ATOM     16  H12 UNL     1       3.396  -0.118  -1.333  1.00  0.00     0.178 HD
ATOM     17  H11 UNL     1       4.120  -1.432  -0.379  1.00  0.00     0.178 HD
ATOM     18  H2  UNL     1       2.528  -1.114   1.246  1.00  0.00     0.207 HD
ENDBRANCH   1  14
TORSDOF 1
