REMARK  2 active torsions:
REMARK  status: ('A' for Active; 'I' for Inactive)
REMARK       I    between atoms: C1_2  and  N2_4 
REMARK       I    between atoms: N2_4  and  C2_6 
REMARK    1  A    between atoms: C2_6  and  C3_8 
REMARK    2  A    between atoms: C3_8  and  O3_9 
ROOT
HETATM    1  C3  UNL     1      -1.046  -0.284  -0.301  1.00  0.00     0.302 C 
HETATM    2  N3  UNL     1      -1.988   0.782  -0.645  1.00  0.00    -0.295 N 
ATOM      3  H3  UNL     1      -2.004   1.299  -1.524  1.00  0.00     0.168 HD
HETATM    4  C4  UNL     1      -2.872   0.978   0.442  1.00  0.00     0.326 C 
HETATM    5  O4  UNL     1      -3.705   1.933   0.547  1.00  0.00    -0.247 OA
HETATM    6  N4  UNL     1      -2.675  -0.061   1.389  1.00  0.00    -0.275 N 
ATOM      7  H4  UNL     1      -3.176  -0.171   2.271  1.00  0.00     0.173 HD
HETATM    8  C5  UNL     1      -1.665  -0.915   0.898  1.00  0.00     0.291 C 
HETATM    9  O5  UNL     1      -1.345  -2.009   1.383  1.00  0.00    -0.267 OA
ENDROOT
BRANCH   1  10
HETATM   10  C2  UNL     1       0.220   0.365   0.023  1.00  0.00     0.291 C 
HETATM   11  N2  UNL     1       1.443  -0.402  -0.116  1.00  0.00    -0.277 N 
HETATM   12  C1  UNL     1       2.684   0.198   0.187  1.00  0.00     0.335 C 
ATOM     13  H2  UNL     1       1.406  -1.371  -0.432  1.00  0.00     0.173 HD
HETATM   14  N1  UNL     1       3.885  -0.504  -0.004  1.00  0.00    -0.040 NA
HETATM   15  O1  UNL     1       2.700   1.364   0.621  1.00  0.00    -0.251 OA
HETATM   16  O2  UNL     1       0.272   1.540   0.406  1.00  0.00    -0.267 OA
ENDBRANCH   1  10
BRANCH   1  17
HETATM   17  O3  UNL     1      -0.848  -1.191  -1.322  1.00  0.00    -0.356 OA
ATOM     18  H3  UNL     1      -1.672  -1.614  -1.533  1.00  0.00     0.213 HD
ENDBRANCH   1  17
TORSDOF 2
