REMARK  2 active torsions:
REMARK  status: ('A' for Active; 'I' for Inactive)
REMARK    1  A    between atoms: N1_1  and  N2_4 
REMARK       I    between atoms: N2_4  and  C1_6 
REMARK       I    between atoms: C1_6  and  N3_8 
REMARK    2  A    between atoms: N7_15  and  N8_16 
ROOT
HETATM    1  N2  UNL     1       1.496  -2.362  -0.582  1.00  0.00    -0.258 N 
ATOM      2  H2  UNL     1       0.936  -2.953   0.033  1.00  0.00     0.191 HD
HETATM    3  C1  UNL     1       1.229  -0.974  -0.654  1.00  0.00     0.341 C 
HETATM    4  O1  UNL     1       1.916  -0.240  -1.411  1.00  0.00    -0.245 OA
HETATM    5  N3  UNL     1       0.193  -0.425   0.124  1.00  0.00    -0.276 N 
ATOM      6  H3  UNL     1      -0.154  -0.974   0.911  1.00  0.00     0.173 HD
HETATM    7  C2  UNL     1      -0.346   0.725  -0.092  1.00  0.00     0.235 C 
HETATM    8  N4  UNL     1      -0.090   1.701  -1.084  1.00  0.00    -0.254 N 
ATOM      9  H4  UNL     1       0.691   1.729  -1.740  1.00  0.00     0.187 HD
HETATM   10  N5  UNL     1      -1.149   2.629  -0.970  1.00  0.00    -0.004 NA
HETATM   11  N6  UNL     1      -1.505   2.642   0.384  1.00  0.00     0.017 NA
HETATM   12  N7  UNL     1      -1.394   1.263   0.707  1.00  0.00    -0.153 N 
ENDROOT
BRANCH  12  13
HETATM   13  N8  UNL     1      -2.149   0.533   1.627  1.00  0.00    -0.323 N 
ATOM     14  H82 UNL     1      -2.069  -0.457   1.859  1.00  0.00     0.178 HD
ATOM     15  H81 UNL     1      -2.900   0.919   2.200  1.00  0.00     0.178 HD
ENDBRANCH  12  13
BRANCH   1  16
HETATM   16  N1  UNL     1       2.501  -2.921  -1.332  1.00  0.00    -0.341 N 
ATOM     17  H12 UNL     1       3.051  -2.316  -1.942  1.00  0.00     0.177 HD
ATOM     18  H11 UNL     1       2.693  -3.921  -1.280  1.00  0.00     0.177 HD
ENDBRANCH   1  16
TORSDOF 2
