REMARK  5 active torsions:
REMARK  status: ('A' for Active; 'I' for Inactive)
REMARK       I    between atoms: C1_2  and  N2_4 
REMARK    1  A    between atoms: N2_4  and  C2_6 
REMARK    2  A    between atoms: C2_6  and  O2_7 
REMARK    3  A    between atoms: C2_6  and  C3_9 
REMARK    4  A    between atoms: C3_9  and  N3_10 
REMARK    5  A    between atoms: C3_9  and  C4_14 
ROOT
HETATM    1  C2  UNL     1      -0.032   0.739   0.537  1.00  0.00     0.159 C 
ENDROOT
BRANCH   1   2
HETATM    2  N2  UNL     1       1.318   0.506   0.637  1.00  0.00    -0.293 N 
HETATM    3  C1  UNL     1       2.238  -0.237  -0.095  1.00  0.00     0.334 C 
HETATM    4  N1  UNL     1       3.639  -0.254   0.317  1.00  0.00    -0.040 NA
HETATM    5  O1  UNL     1       2.009  -0.920  -1.101  1.00  0.00    -0.251 OA
ATOM      6  H2  UNL     1       1.743   0.988   1.429  1.00  0.00     0.172 HD
ENDBRANCH   1   2
BRANCH   1   7
HETATM    7  O2  UNL     1      -0.520   1.535   1.474  1.00  0.00    -0.347 OA
ATOM      8  H2  UNL     1      -1.454   1.696   1.405  1.00  0.00     0.219 HD
ENDBRANCH   1   7
BRANCH   1   9
HETATM    9  C3  UNL     1      -1.053   0.288  -0.398  1.00  0.00     0.345 C 
BRANCH   9  10
HETATM   10  N3  UNL     1      -0.703  -0.567  -1.460  1.00  0.00    -0.059 N 
ATOM     11  H33 UNL     1       0.051  -0.131  -1.991  1.00  0.00     0.275 HD
ATOM     12  H32 UNL     1      -0.234  -1.386  -1.074  1.00  0.00     0.275 HD
ATOM     13  H31 UNL     1      -1.418  -0.883  -2.115  1.00  0.00     0.275 HD
ENDBRANCH   9  10
BRANCH   9  14
HETATM   14  C4  UNL     1      -2.161  -0.413   0.368  1.00  0.00     0.269 C 
HETATM   15  N4  UNL     1      -2.753   0.179   1.513  1.00  0.00    -0.060 NA
HETATM   16  O3  UNL     1      -2.575  -1.536  -0.002  1.00  0.00    -0.274 OA
ENDBRANCH   9  14
ENDBRANCH   1   9
TORSDOF 5
