REMARK  5 active torsions:
REMARK  status: ('A' for Active; 'I' for Inactive)
REMARK    1  A    between atoms: N1_1  and  N2_4 
REMARK       I    between atoms: N2_4  and  C1_6 
REMARK    2  A    between atoms: C1_6  and  C2_8 
REMARK    3  A    between atoms: C6_12  and  C7_13 
REMARK    4  A    between atoms: N3_14  and  N4_16 
REMARK    5  A    between atoms: N4_16  and  C8_18 
ROOT
HETATM    1  C2  UNL     1       2.946  -0.281   0.498  1.00  0.00     0.034 A 
HETATM    2  C3  UNL     1       3.382  -1.582   0.398  1.00  0.00     0.017 A 
HETATM    3  C4  UNL     1       2.611  -2.610  -0.106  1.00  0.00     0.002 A 
HETATM    4  C5  UNL     1       1.320  -2.316  -0.536  1.00  0.00     0.013 A 
HETATM    5  C6  UNL     1       0.851  -1.024  -0.450  1.00  0.00    -0.018 A 
HETATM    6  C11 UNL     1       1.667  -0.009   0.068  1.00  0.00     0.030 A 
ENDROOT
BRANCH   5   7
HETATM    7  C7  UNL     1      -0.495  -0.714  -0.898  1.00  0.00     0.118 C 
HETATM    8  N3  UNL     1      -1.219  -1.663  -1.368  1.00  0.00    -0.308 N 
ATOM      9  H3  UNL     1      -0.848  -2.612  -1.422  1.00  0.00     0.186 HD
BRANCH   8  10
HETATM   10  N4  UNL     1      -2.506  -1.393  -1.801  1.00  0.00    -0.272 N 
ATOM     11  H4  UNL     1      -2.832  -1.736  -2.705  1.00  0.00     0.190 HD
BRANCH  10  12
HETATM   12  C8  UNL     1      -3.378  -0.618  -0.952  1.00  0.00     0.190 C 
HETATM   13  N5  UNL     1      -4.260  -1.066  -0.137  1.00  0.00    -0.360 N 
HETATM   14  C9  UNL     1      -4.968  -0.026   0.569  1.00  0.00     0.142 C 
ATOM     15  H5  UNL     1      -4.443  -2.060  -0.001  1.00  0.00     0.162 HD
HETATM   16  C10 UNL     1      -4.199   1.242   0.259  1.00  0.00     0.142 C 
HETATM   17  N6  UNL     1      -3.407   0.799  -0.872  1.00  0.00    -0.360 N 
ATOM     18  H6  UNL     1      -2.933   1.424  -1.524  1.00  0.00     0.162 HD
ENDBRANCH  10  12
ENDBRANCH   8  10
ENDBRANCH   5   7
BRANCH   1  19
HETATM   19  C1  UNL     1       3.806   0.759   1.038  1.00  0.00     0.269 C 
HETATM   20  N2  UNL     1       3.399   2.096   1.158  1.00  0.00    -0.272 N 
ATOM     21  H2  UNL     1       2.462   2.365   0.858  1.00  0.00     0.189 HD
HETATM   22  O1  UNL     1       4.978   0.441   1.417  1.00  0.00    -0.266 OA
BRANCH  20  23
HETATM   23  N1  UNL     1       4.265   3.072   1.687  1.00  0.00    -0.342 N 
ATOM     24  H12 UNL     1       5.198   2.786   1.983  1.00  0.00     0.176 HD
ATOM     25  H11 UNL     1       3.969   4.044   1.774  1.00  0.00     0.176 HD
ENDBRANCH  20  23
ENDBRANCH   1  19
TORSDOF 5
