REMARK  5 active torsions:
REMARK  status: ('A' for Active; 'I' for Inactive)
REMARK    1  A    between atoms: N1_1  and  C1_4 
REMARK    2  A    between atoms: N5_15  and  C5_16 
REMARK    3  A    between atoms: C5_16  and  C6_17 
REMARK    4  A    between atoms: C6_17  and  O2_18 
REMARK    5  A    between atoms: O2_18  and  C7_19 
ROOT
HETATM    1  C1  UNL     1      -1.630   1.073   0.036  1.00  0.00     0.134 A 
HETATM    2  N2  UNL     1      -2.805   1.662   0.324  1.00  0.00    -0.293 N 
ATOM      3  H2  UNL     1      -2.876   2.679   0.346  1.00  0.00     0.172 HD
HETATM    4  C2  UNL     1      -3.881   0.906   0.582  1.00  0.00     0.327 A 
HETATM    5  O1  UNL     1      -4.980   1.457   0.852  1.00  0.00    -0.247 OA
HETATM    6  N3  UNL     1      -3.751  -0.434   0.545  1.00  0.00    -0.292 N 
ATOM      7  H3  UNL     1      -4.576  -1.001   0.743  1.00  0.00     0.172 HD
HETATM    8  C3  UNL     1      -2.607  -1.067   0.264  1.00  0.00     0.141 A 
HETATM    9  N4  UNL     1      -2.179  -2.332   0.153  1.00  0.00    -0.336 N 
ATOM     10  H4  UNL     1      -2.754  -3.163   0.289  1.00  0.00     0.168 HD
HETATM   11  C4  UNL     1      -0.883  -2.334  -0.163  1.00  0.00     0.185 A 
HETATM   12  N5  UNL     1      -0.432  -1.045  -0.266  1.00  0.00    -0.335 N 
HETATM   13  C8  UNL     1      -1.488  -0.293  -0.005  1.00  0.00     0.124 A 
ENDROOT
BRANCH  12  14
HETATM   14  C5  UNL     1       0.918  -0.756  -0.585  1.00  0.00     0.157 C 
BRANCH  14  15
HETATM   15  C6  UNL     1       1.704  -0.697   0.712  1.00  0.00     0.200 C 
BRANCH  15  16
HETATM   16  O2  UNL     1       3.053  -0.428   0.567  1.00  0.00    -0.305 OA
BRANCH  16  17
HETATM   17  C7  UNL     1       3.641   0.676   0.016  1.00  0.00     0.372 C 
HETATM   18  N6  UNL     1       5.065   0.719  -0.020  1.00  0.00    -0.032 NA
HETATM   19  O3  UNL     1       2.914   1.585  -0.424  1.00  0.00    -0.242 OA
ENDBRANCH  16  17
ENDBRANCH  15  16
ENDBRANCH  14  15
ENDBRANCH  12  14
BRANCH   1  20
HETATM   20  N1  UNL     1      -0.613   1.796  -0.211  1.00  0.00    -0.383 N 
ATOM     21  H12 UNL     1      -0.718   2.810  -0.181  1.00  0.00     0.157 HD
ATOM     22  H11 UNL     1       0.278   1.350  -0.429  1.00  0.00     0.157 HD
ENDBRANCH   1  20
TORSDOF 5
