REMARK  4 active torsions:
REMARK  status: ('A' for Active; 'I' for Inactive)
REMARK    1  A    between atoms: C1_2  and  C2_4 
REMARK    2  A    between atoms: C5_7  and  C6_8 
REMARK    3  A    between atoms: N2_9  and  N3_11 
REMARK    4  A    between atoms: N3_11  and  C7_13 
ROOT
HETATM    1  C6  UNL     1       0.519   0.979  -0.073  1.00  0.00     0.118 C 
HETATM    2  N2  UNL     1       1.203   0.868   1.016  1.00  0.00    -0.308 N 
ATOM      3  H2  UNL     1       0.788   0.496   1.870  1.00  0.00     0.186 HD
ENDROOT
BRANCH   1   4
HETATM    4  C5  UNL     1      -0.871   0.551  -0.037  1.00  0.00    -0.018 A 
HETATM    5  C4  UNL     1      -1.626   0.655  -1.177  1.00  0.00     0.014 A 
HETATM    6  C3  UNL     1      -2.944   0.267  -1.204  1.00  0.00     0.019 A 
HETATM    7  C2  UNL     1      -3.526  -0.243  -0.045  1.00  0.00     0.053 A 
HETATM    8  C11 UNL     1      -2.755  -0.340   1.087  1.00  0.00     0.062 A 
HETATM    9  C10 UNL     1      -1.435   0.051   1.105  1.00  0.00     0.040 A 
HETATM   10  N6  UNL     1      -3.352  -0.865   2.280  1.00  0.00    -0.101 NA
BRANCH   7  11
HETATM   11  C1  UNL     1      -4.915  -0.667  -0.020  1.00  0.00     0.266 C 
HETATM   12  N1  UNL     1      -5.750  -0.580  -1.183  1.00  0.00    -0.057 NA
HETATM   13  O1  UNL     1      -5.375  -1.117   1.059  1.00  0.00    -0.271 OA
ENDBRANCH   7  11
ENDBRANCH   1   4
BRANCH   2  14
HETATM   14  N3  UNL     1       2.538   1.281   0.972  1.00  0.00    -0.272 N 
ATOM     15  H3  UNL     1       2.801   2.184   1.366  1.00  0.00     0.190 HD
BRANCH  14  16
HETATM   16  C7  UNL     1       3.542   0.445   0.377  1.00  0.00     0.190 C 
HETATM   17  N4  UNL     1       3.598  -0.834   0.340  1.00  0.00    -0.360 N 
HETATM   18  C8  UNL     1       4.776  -1.288  -0.358  1.00  0.00     0.142 C 
ATOM     19  H4  UNL     1       2.899  -1.453   0.751  1.00  0.00     0.162 HD
HETATM   20  C9  UNL     1       5.662  -0.085  -0.386  1.00  0.00     0.142 C 
HETATM   21  N5  UNL     1       4.677   0.990  -0.289  1.00  0.00    -0.360 N 
ATOM     22  H5  UNL     1       4.782   1.945  -0.632  1.00  0.00     0.162 HD
ENDBRANCH  14  16
ENDBRANCH   2  14
TORSDOF 4
