REMARK  4 active torsions:
REMARK  status: ('A' for Active; 'I' for Inactive)
REMARK    1  A    between atoms: C5_14  and  C6_15 
REMARK    2  A    between atoms: C6_15  and  N5_16 
REMARK    3  A    between atoms: N6_20  and  C7_21 
REMARK    4  A    between atoms: C7_21  and  C8_22 
ROOT
HETATM    1  N1  UNL     1      -3.939   0.938  -1.694  1.00  0.00    -0.383 N 
ATOM      2  H11 UNL     1      -3.840   0.135  -2.315  1.00  0.00     0.157 HD
ATOM      3  H12 UNL     1      -4.720   1.586  -1.793  1.00  0.00     0.157 HD
HETATM    4  C1  UNL     1      -3.095   1.184  -0.756  1.00  0.00     0.131 A 
HETATM    5  N2  UNL     1      -3.225   2.242   0.063  1.00  0.00    -0.337 N 
ATOM      6  H2  UNL     1      -4.010   2.885  -0.043  1.00  0.00     0.168 HD
HETATM    7  C2  UNL     1      -2.297   2.443   1.033  1.00  0.00     0.183 A 
HETATM    8  N3  UNL     1      -1.264   1.592   1.168  1.00  0.00    -0.336 N 
ATOM      9  H3  UNL     1      -0.580   1.764   1.904  1.00  0.00     0.168 HD
HETATM   10  C3  UNL     1      -1.098   0.516   0.364  1.00  0.00     0.141 A 
HETATM   11  C4  UNL     1      -2.027   0.298  -0.621  1.00  0.00     0.122 A 
HETATM   12  N4  UNL     1      -1.645  -0.805  -1.264  1.00  0.00    -0.338 N 
ATOM     13  H4  UNL     1      -2.138  -1.223  -2.053  1.00  0.00     0.167 HD
HETATM   14  C5  UNL     1      -0.500  -1.292  -0.713  1.00  0.00     0.111 A 
HETATM   15  N6  UNL     1      -0.170  -0.472   0.290  1.00  0.00    -0.314 N 
ENDROOT
BRANCH  15  16
HETATM   16  C7  UNL     1       0.966  -0.630   1.135  1.00  0.00     0.190 C 
BRANCH  16  17
HETATM   17  C8  UNL     1       2.185   0.052   0.724  1.00  0.00     0.044 A 
HETATM   18  C9  UNL     1       2.542   1.337   1.051  1.00  0.00     0.115 A 
HETATM   19  N7  UNL     1       3.723   1.598   0.494  1.00  0.00    -0.360 N 
HETATM   20  C10 UNL     1       4.138   0.523  -0.181  1.00  0.00     0.180 A 
ATOM     21  H7  UNL     1       4.230   2.480   0.571  1.00  0.00     0.166 HD
HETATM   22  N8  UNL     1       3.186  -0.410  -0.028  1.00  0.00    -0.353 N 
ATOM     23  H8  UNL     1       3.222  -1.346  -0.432  1.00  0.00     0.166 HD
ENDBRANCH  16  17
ENDBRANCH  15  16
BRANCH  14  24
HETATM   24  C6  UNL     1       0.180  -2.538  -1.212  1.00  0.00     0.306 C 
BRANCH  24  25
HETATM   25  N5  UNL     1      -0.406  -3.660  -0.508  1.00  0.00    -0.073 N 
ATOM     26  H53 UNL     1      -0.363  -3.561   0.506  1.00  0.00     0.274 HD
ATOM     27  H52 UNL     1      -1.422  -3.698  -0.594  1.00  0.00     0.274 HD
ATOM     28  H51 UNL     1       0.055  -4.505  -0.846  1.00  0.00     0.274 HD
ENDBRANCH  24  25
ENDBRANCH  14  24
TORSDOF 4
