REMARK  4 active torsions:
REMARK  status: ('A' for Active; 'I' for Inactive)
REMARK    1  A    between atoms: N1_1  and  C1_5 
REMARK    2  A    between atoms: C1_5  and  C2_6 
REMARK    3  A    between atoms: C2_6  and  N2_7 
REMARK    4  A    between atoms: N4_18  and  N5_19 
ROOT
HETATM    1  N2  UNL     1       0.457   0.486  -0.371  1.00  0.00    -0.323 N 
HETATM    2  C3  UNL     1       0.547   1.850  -0.412  1.00  0.00     0.085 A 
HETATM    3  S1  UNL     1       2.026   2.770  -0.771  1.00  0.00    -0.033 SA
HETATM    4  C4  UNL     1      -0.668   2.415  -0.135  1.00  0.00     0.059 A 
HETATM    5  C5  UNL     1      -1.530   1.353   0.082  1.00  0.00     0.081 A 
HETATM    6  C6  UNL     1      -2.879   1.280   0.399  1.00  0.00     0.263 A 
HETATM    7  O1  UNL     1      -3.503   2.359   0.530  1.00  0.00    -0.267 OA
HETATM    8  N3  UNL     1      -3.435   0.065   0.547  1.00  0.00    -0.273 N 
ATOM      9  H3  UNL     1      -4.426   0.003   0.781  1.00  0.00     0.173 HD
HETATM   10  C7  UNL     1      -2.735  -1.068   0.399  1.00  0.00     0.349 A 
HETATM   11  O2  UNL     1      -3.273  -2.188   0.542  1.00  0.00    -0.244 OA
HETATM   12  N4  UNL     1      -1.408  -1.006   0.087  1.00  0.00    -0.194 N 
HETATM   13  C8  UNL     1      -0.822   0.187  -0.067  1.00  0.00     0.150 A 
ENDROOT
BRANCH   1  14
HETATM   14  C2  UNL     1       1.565  -0.390  -0.618  1.00  0.00     0.158 C 
BRANCH  14  15
HETATM   15  C1  UNL     1       2.320  -0.704   0.674  1.00  0.00     0.249 C 
BRANCH  15  16
HETATM   16  N1  UNL     1       3.431  -1.582   0.435  1.00  0.00    -0.078 N 
ATOM     17  H13 UNL     1       3.137  -2.434  -0.042  1.00  0.00     0.274 HD
ATOM     18  H12 UNL     1       4.055  -1.208  -0.280  1.00  0.00     0.274 HD
ATOM     19  H11 UNL     1       3.935  -1.791   1.297  1.00  0.00     0.274 HD
ENDBRANCH  15  16
ENDBRANCH  14  15
ENDBRANCH   1  14
BRANCH  12  20
HETATM   20  N5  UNL     1      -0.662  -2.169  -0.070  1.00  0.00    -0.333 N 
ATOM     21  H52 UNL     1      -1.109  -3.078   0.047  1.00  0.00     0.177 HD
ATOM     22  H51 UNL     1       0.330  -2.123  -0.303  1.00  0.00     0.177 HD
ENDBRANCH  12  20
TORSDOF 4
