REMARK  15 active torsions:
REMARK  status: ('A' for Active; 'I' for Inactive)
REMARK    1  A    between atoms: N1_1  and  C1_5 
REMARK    2  A    between atoms: C1_5  and  C2_6 
REMARK    3  A    between atoms: C2_6  and  N2_7 
REMARK    4  A    between atoms: N2_7  and  C3_10 
REMARK    5  A    between atoms: C3_10  and  C4_11 
REMARK    6  A    between atoms: C4_11  and  C5_12 
REMARK    7  A    between atoms: C5_12  and  C6_13 
REMARK    8  A    between atoms: C6_13  and  C7_14 
REMARK    9  A    between atoms: C7_14  and  C8_15 
REMARK   10  A    between atoms: C9_18  and  O1_19 
REMARK   11  A    between atoms: O1_19  and  C10_20 
REMARK   12  A    between atoms: C11_23  and  N6_24 
REMARK   13  A    between atoms: C12_28  and  O2_29 
REMARK   14  A    between atoms: C13_31  and  O3_32 
REMARK   15  A    between atoms: C14_34  and  O4_35 
ROOT
HETATM    1  C8  UNL     1      -1.075  -0.377   1.130  1.00  0.00     0.114 C 
HETATM    2  N3  UNL     1      -2.422   0.160   1.178  1.00  0.00    -0.365 N 
ATOM      3  H3  UNL     1      -2.514   1.157   1.375  1.00  0.00     0.161 HD
HETATM    4  C9  UNL     1      -3.496  -0.489   0.999  1.00  0.00     0.148 C 
HETATM    5  C12 UNL     1      -3.382  -1.930   0.712  1.00  0.00     0.223 C 
HETATM    6  C13 UNL     1      -2.227  -2.211  -0.187  1.00  0.00     0.185 C 
HETATM    7  C14 UNL     1      -1.009  -1.385   0.022  1.00  0.00     0.172 C 
ENDROOT
BRANCH   1   8
HETATM    8  C7  UNL     1      -0.188   0.806   0.770  1.00  0.00     0.028 C 
BRANCH   8   9
HETATM    9  C6  UNL     1       1.269   0.444   0.666  1.00  0.00     0.002 C 
BRANCH   9  10
HETATM   10  C5  UNL     1       2.058   1.684   0.324  1.00  0.00     0.002 C 
BRANCH  10  11
HETATM   11  C4  UNL     1       3.526   1.470   0.192  1.00  0.00     0.027 C 
BRANCH  11  12
HETATM   12  C3  UNL     1       3.843   0.483  -0.900  1.00  0.00     0.232 C 
BRANCH  12  13
HETATM   13  N2  UNL     1       5.265   0.264  -1.058  1.00  0.00    -0.074 N 
ATOM     14  H22 UNL     1       5.763   1.136  -1.236  1.00  0.00     0.277 HD
ATOM     15  H21 UNL     1       5.477  -0.216  -1.932  1.00  0.00     0.277 HD
BRANCH  13  16
HETATM   16  C2  UNL     1       5.805  -0.434   0.076  1.00  0.00     0.259 C 
BRANCH  16  17
HETATM   17  C1  UNL     1       7.300  -0.648  -0.138  1.00  0.00     0.257 C 
BRANCH  17  18
HETATM   18  N1  UNL     1       7.519  -1.425  -1.337  1.00  0.00    -0.078 N 
ATOM     19  H13 UNL     1       7.004  -2.306  -1.322  1.00  0.00     0.274 HD
ATOM     20  H12 UNL     1       7.072  -1.006  -2.152  1.00  0.00     0.274 HD
ATOM     21  H11 UNL     1       8.519  -1.568  -1.480  1.00  0.00     0.274 HD
ENDBRANCH  17  18
ENDBRANCH  16  17
ENDBRANCH  13  16
ENDBRANCH  12  13
ENDBRANCH  11  12
ENDBRANCH  10  11
ENDBRANCH   9  10
ENDBRANCH   8   9
ENDBRANCH   1   8
BRANCH   7  22
HETATM   22  O4  UNL     1       0.097  -2.238   0.162  1.00  0.00    -0.391 OA
ATOM     23  H4  UNL     1       0.139  -2.877  -0.540  1.00  0.00     0.210 HD
ENDBRANCH   7  22
BRANCH   4  24
HETATM   24  O1  UNL     1      -4.720   0.199   1.083  1.00  0.00    -0.310 OA
BRANCH  24  25
HETATM   25  C10 UNL     1      -4.746   1.577   0.706  1.00  0.00     0.286 A 
HETATM   26  N4  UNL     1      -4.358   1.806  -0.649  1.00  0.00    -0.110 NA
HETATM   27  N5  UNL     1      -5.608   2.237  -0.979  1.00  0.00    -0.108 NA
HETATM   28  C11 UNL     1      -6.067   2.131   0.369  1.00  0.00     0.337 A 
BRANCH  28  29
HETATM   29  N6  UNL     1      -7.118   1.135   0.497  1.00  0.00    -0.056 N 
ATOM     30  H63 UNL     1      -6.911   0.304  -0.057  1.00  0.00     0.276 HD
ATOM     31  H62 UNL     1      -7.118   0.712   1.425  1.00  0.00     0.276 HD
ATOM     32  H61 UNL     1      -8.034   1.519   0.263  1.00  0.00     0.276 HD
ENDBRANCH  28  29
ENDBRANCH  24  25
ENDBRANCH   4  24
BRANCH   6  33
HETATM   33  O3  UNL     1      -1.913  -3.595  -0.193  1.00  0.00    -0.390 OA
ATOM     34  H3  UNL     1      -1.177  -3.774  -0.766  1.00  0.00     0.210 HD
ENDBRANCH   6  33
BRANCH   5  35
HETATM   35  O2  UNL     1      -4.593  -2.357   0.120  1.00  0.00    -0.385 OA
ATOM     36  H2  UNL     1      -4.520  -3.286  -0.065  1.00  0.00     0.210 HD
ENDBRANCH   5  35
TORSDOF 15
