REMARK  15 active torsions:
REMARK  status: ('A' for Active; 'I' for Inactive)
REMARK    1  A    between atoms: N1_2  and  N2_4 
REMARK    2  A    between atoms: N3_6  and  N4_8 
REMARK    3  A    between atoms: N4_8  and  C2_10 
REMARK    4  A    between atoms: C2_10  and  C3_11 
REMARK    5  A    between atoms: C3_11  and  N5_12 
REMARK    6  A    between atoms: N5_12  and  C4_14 
REMARK    7  A    between atoms: C4_14  and  C5_15 
REMARK    8  A    between atoms: C5_15  and  N6_16 
REMARK    9  A    between atoms: N6_16  and  C6_18 
REMARK   10  A    between atoms: C8_22  and  C9_23 
REMARK   11  A    between atoms: C9_23  and  O1_24 
REMARK   12  A    between atoms: C10_26  and  O2_27 
REMARK   13  A    between atoms: C10_26  and  C11_29 
REMARK   14  A    between atoms: C11_29  and  O3_30 
REMARK   15  A    between atoms: C12_32  and  O4_33 
ROOT
HETATM    1  C6  UNL     1      -1.619  -0.006   0.179  1.00  0.00     0.105 C 
HETATM    2  N7  UNL     1      -1.820  -1.207   0.528  1.00  0.00    -0.377 N 
ATOM      3  H7  UNL     1      -1.051  -1.748   0.924  1.00  0.00     0.160 HD
HETATM    4  C7  UNL     1      -3.091  -1.814   0.380  1.00  0.00     0.131 C 
HETATM    5  C8  UNL     1      -4.244  -0.818   0.492  1.00  0.00     0.067 C 
HETATM    6  C10 UNL     1      -4.010   0.292  -0.509  1.00  0.00     0.118 C 
HETATM    7  C12 UNL     1      -2.632   0.847  -0.389  1.00  0.00     0.222 C 
ENDROOT
BRANCH   1   8
HETATM    8  N6  UNL     1      -0.287   0.515   0.374  1.00  0.00    -0.376 N 
ATOM      9  H6  UNL     1       0.039   1.289  -0.205  1.00  0.00     0.160 HD
BRANCH   8  10
HETATM   10  C5  UNL     1       0.579  -0.036   1.363  1.00  0.00     0.140 C 
BRANCH  10  11
HETATM   11  C4  UNL     1       1.970   0.454   1.408  1.00  0.00     0.133 C 
BRANCH  11  12
HETATM   12  N5  UNL     1       2.806   0.200   0.291  1.00  0.00    -0.418 N 
ATOM     13  H5  UNL     1       3.601  -0.433   0.375  1.00  0.00     0.153 HD
BRANCH  12  14
HETATM   14  C3  UNL     1       2.523   0.837  -0.944  1.00  0.00     0.135 C 
BRANCH  14  15
HETATM   15  C2  UNL     1       3.628   0.517  -1.956  1.00  0.00     0.160 C 
BRANCH  15  16
HETATM   16  N4  UNL     1       4.883   0.990  -1.435  1.00  0.00    -0.319 N 
ATOM     17  H4  UNL     1       5.409   1.703  -1.940  1.00  0.00     0.181 HD
BRANCH  16  18
HETATM   18  N3  UNL     1       5.383   0.468  -0.229  1.00  0.00    -0.233 N 
HETATM   19  N2  UNL     1       6.440  -0.214  -0.303  1.00  0.00    -0.233 N 
ATOM     20  H2  UNL     1       6.851  -0.335  -1.229  1.00  0.00     0.209 HD
ATOM     21  H3  UNL     1       4.914   0.633   0.661  1.00  0.00     0.209 HD
BRANCH  19  22
HETATM   22  N1  UNL     1       7.089  -0.810   0.753  1.00  0.00    -0.325 N 
HETATM   23  C1  UNL     1       7.840  -0.076   1.758  1.00  0.00     0.169 C 
ATOM     24  H1  UNL     1       7.041  -1.825   0.836  1.00  0.00     0.181 HD
ENDBRANCH  19  22
ENDBRANCH  16  18
ENDBRANCH  15  16
ENDBRANCH  14  15
ENDBRANCH  12  14
ENDBRANCH  11  12
ENDBRANCH  10  11
ENDBRANCH   8  10
ENDBRANCH   1   8
BRANCH   7  25
HETATM   25  O4  UNL     1      -2.202   1.297  -1.654  1.00  0.00    -0.385 OA
ATOM     26  H4  UNL     1      -2.870   1.859  -2.028  1.00  0.00     0.210 HD
ENDBRANCH   7  25
BRANCH   6  27
HETATM   27  O2  UNL     1      -4.158  -0.279  -1.778  1.00  0.00    -0.384 OA
ATOM     28  H2  UNL     1      -4.011   0.418  -2.407  1.00  0.00     0.210 HD
ENDBRANCH   6  27
BRANCH   6  29
HETATM   29  C11 UNL     1      -4.961   1.451  -0.328  1.00  0.00     0.205 C 
BRANCH  29  30
HETATM   30  O3  UNL     1      -6.285   1.155  -0.445  1.00  0.00    -0.398 OA
ATOM     31  H3  UNL     1      -6.883   1.884  -0.331  1.00  0.00     0.209 HD
ENDBRANCH  29  30
ENDBRANCH   6  29
BRANCH   5  32
HETATM   32  C9  UNL     1      -5.488  -1.613   0.228  1.00  0.00     0.173 C 
BRANCH  32  33
HETATM   33  O1  UNL     1      -5.469  -2.193  -1.045  1.00  0.00    -0.400 OA
ATOM     34  H1  UNL     1      -6.257  -2.697  -1.212  1.00  0.00     0.209 HD
ENDBRANCH  32  33
ENDBRANCH   5  32
TORSDOF 15
