REMARK  14 active torsions:
REMARK  status: ('A' for Active; 'I' for Inactive)
REMARK    1  A    between atoms: N1_1  and  C1_4 
REMARK    2  A    between atoms: C3_6  and  N2_7 
REMARK    3  A    between atoms: N2_7  and  C4_9 
REMARK    4  A    between atoms: C4_9  and  C5_10 
REMARK    5  A    between atoms: C5_10  and  O1_11 
REMARK    6  A    between atoms: O1_11  and  C6_12 
REMARK    7  A    between atoms: C6_12  and  C7_13 
REMARK    8  A    between atoms: C7_13  and  N3_14 
REMARK    9  A    between atoms: N3_14  and  C8_16 
REMARK   10  A    between atoms: C9_17  and  O2_18 
REMARK   11  A    between atoms: N4_20  and  O3_21 
REMARK   12  A    between atoms: C10_23  and  C11_24 
REMARK   13  A    between atoms: C11_24  and  O4_25 
REMARK   14  A    between atoms: C12_29  and  N6_30 
ROOT
HETATM    1  C4  UNL     1       2.293   0.639   0.169  1.00  0.00     0.147 C 
ENDROOT
BRANCH   1   2
HETATM    2  N2  UNL     1       3.176  -0.475   0.315  1.00  0.00    -0.374 N 
ATOM      3  H2  UNL     1       2.810  -1.328   0.738  1.00  0.00     0.161 HD
BRANCH   2   4
HETATM    4  C3  UNL     1       4.519  -0.460  -0.091  1.00  0.00     0.120 A 
HETATM    5  C2  UNL     1       5.350  -1.548   0.061  1.00  0.00     0.097 A 
HETATM    6  C1  UNL     1       6.659  -1.492  -0.350  1.00  0.00     0.118 A 
HETATM    7  N7  UNL     1       7.178  -0.388  -0.910  1.00  0.00    -0.177 N 
HETATM    8  C12 UNL     1       6.356   0.667  -1.052  1.00  0.00     0.678 A 
ATOM      9  H7  UNL     1       8.151  -0.351  -1.214  1.00  0.00     0.185 HD
HETATM   10  N5  UNL     1       5.070   0.644  -0.661  1.00  0.00    -0.177 N 
ATOM     11  H5  UNL     1       4.494   1.475  -0.795  1.00  0.00     0.185 HD
BRANCH   6  12
HETATM   12  N1  UNL     1       7.382  -2.538  -0.181  1.00  0.00    -0.385 N 
ATOM     13  H12 UNL     1       6.988  -3.377   0.245  1.00  0.00     0.157 HD
ATOM     14  H11 UNL     1       8.354  -2.496  -0.486  1.00  0.00     0.157 HD
ENDBRANCH   6  12
BRANCH   8  15
HETATM   15  N6  UNL     1       6.865   1.730  -1.595  1.00  0.00    -0.234 N 
ATOM     16  H62 UNL     1       6.242   2.530  -1.703  1.00  0.00     0.174 HD
ATOM     17  H61 UNL     1       7.841   1.747  -1.892  1.00  0.00     0.174 HD
ENDBRANCH   8  15
ENDBRANCH   2   4
ENDBRANCH   1   2
BRANCH   1  18
HETATM   18  C5  UNL     1       0.891   0.306   0.708  1.00  0.00     0.187 C 
BRANCH  18  19
HETATM   19  O1  UNL     1       0.148   1.457   0.506  1.00  0.00    -0.388 OA
BRANCH  19  20
HETATM   20  C6  UNL     1      -1.132   1.358   0.947  1.00  0.00     0.186 C 
BRANCH  20  21
HETATM   21  C7  UNL     1      -1.972   0.281   0.302  1.00  0.00     0.140 C 
BRANCH  21  22
HETATM   22  N3  UNL     1      -3.300   0.302   0.864  1.00  0.00    -0.410 N 
ATOM     23  H3  UNL     1      -3.575   0.972   1.582  1.00  0.00     0.153 HD
BRANCH  22  24
HETATM   24  C8  UNL     1      -4.203  -0.672   0.352  1.00  0.00     0.144 C 
HETATM   25  C9  UNL     1      -4.598  -0.630  -1.080  1.00  0.00     0.242 C 
HETATM   26  N4  UNL     1      -6.014  -0.474  -0.751  1.00  0.00    -0.160 NA
HETATM   27  C10 UNL     1      -5.644  -0.294   0.629  1.00  0.00     0.138 C 
BRANCH  25  28
HETATM   28  O2  UNL     1      -4.115   0.450  -1.815  1.00  0.00    -0.377 OA
ATOM     29  H2  UNL     1      -4.368   0.477  -2.730  1.00  0.00     0.211 HD
ENDBRANCH  25  28
BRANCH  26  30
HETATM   30  O3  UNL     1      -6.787  -1.531  -1.029  1.00  0.00    -0.310 OA
ATOM     31  H3  UNL     1      -7.707  -1.430  -0.815  1.00  0.00     0.237 HD
ENDBRANCH  26  30
BRANCH  27  32
HETATM   32  C11 UNL     1      -5.884   1.117   1.078  1.00  0.00     0.188 C 
BRANCH  32  33
HETATM   33  O4  UNL     1      -5.462   2.059   0.146  1.00  0.00    -0.399 OA
ATOM     34  H4  UNL     1      -5.614   2.953   0.430  1.00  0.00     0.209 HD
ENDBRANCH  32  33
ENDBRANCH  27  32
ENDBRANCH  22  24
ENDBRANCH  21  22
ENDBRANCH  20  21
ENDBRANCH  19  20
ENDBRANCH  18  19
ENDBRANCH   1  18
TORSDOF 14
