REMARK  14 active torsions:
REMARK  status: ('A' for Active; 'I' for Inactive)
REMARK    1  A    between atoms: N1_1  and  C1_5 
REMARK    2  A    between atoms: C1_5  and  C2_6 
REMARK    3  A    between atoms: C2_6  and  N2_7 
REMARK    4  A    between atoms: N2_7  and  C3_9 
REMARK    5  A    between atoms: C4_10  and  C5_11 
REMARK    6  A    between atoms: C5_11  and  N3_12 
REMARK    7  A    between atoms: C6_16  and  N4_17 
REMARK    8  A    between atoms: N4_17  and  O1_19 
REMARK    9  A    between atoms: O1_19  and  C7_20 
REMARK   10  A    between atoms: C8_22  and  C9_23 
REMARK   11  A    between atoms: C9_23  and  N5_24 
REMARK   12  A    between atoms: C10_29  and  C11_30 
REMARK   13  A    between atoms: C11_30  and  O4_31 
REMARK   14  A    between atoms: C12_33  and  O5_34 
ROOT
HETATM    1  N4  UNL     1       0.229  -0.538  -0.829  1.00  0.00    -0.292 N 
ATOM      2  H4  UNL     1       0.353  -0.465  -1.839  1.00  0.00     0.188 HD
ENDROOT
BRANCH   1   3
HETATM    3  C6  UNL     1       1.368  -0.514   0.013  1.00  0.00     0.136 A 
HETATM    4  C3  UNL     1       2.705  -0.248  -0.524  1.00  0.00     0.109 A 
HETATM    5  C4  UNL     1       2.394  -1.646  -0.279  1.00  0.00     0.062 A 
BRANCH   4   6
HETATM    6  N2  UNL     1       3.713   0.557   0.046  1.00  0.00    -0.413 N 
ATOM      7  H2  UNL     1       3.500   1.288   0.725  1.00  0.00     0.153 HD
BRANCH   6   8
HETATM    8  C2  UNL     1       5.047   0.291  -0.380  1.00  0.00     0.141 C 
BRANCH   8   9
HETATM    9  C1  UNL     1       5.992   1.074   0.523  1.00  0.00     0.248 C 
BRANCH   9  10
HETATM   10  N1  UNL     1       5.684   2.480   0.407  1.00  0.00    -0.078 N 
ATOM     11  H13 UNL     1       5.708   2.806  -0.559  1.00  0.00     0.274 HD
ATOM     12  H12 UNL     1       4.703   2.682   0.600  1.00  0.00     0.274 HD
ATOM     13  H11 UNL     1       6.317   3.004   1.012  1.00  0.00     0.274 HD
ENDBRANCH   9  10
ENDBRANCH   8   9
ENDBRANCH   6   8
ENDBRANCH   4   6
BRANCH   5  14
HETATM   14  C5  UNL     1       2.682  -2.439   0.947  1.00  0.00     0.238 C 
BRANCH  14  15
HETATM   15  N3  UNL     1       4.077  -2.582   1.288  1.00  0.00    -0.079 N 
ATOM     16  H33 UNL     1       4.591  -2.968   0.496  1.00  0.00     0.274 HD
ATOM     17  H32 UNL     1       4.514  -1.663   1.358  1.00  0.00     0.274 HD
ATOM     18  H31 UNL     1       4.274  -3.125   2.128  1.00  0.00     0.274 HD
ENDBRANCH  14  15
ENDBRANCH   5  14
ENDBRANCH   1   3
BRANCH   1  19
HETATM   19  O1  UNL     1      -0.973  -0.652  -0.340  1.00  0.00    -0.249 OA
BRANCH  19  20
HETATM   20  C7  UNL     1      -1.795   0.440  -0.610  1.00  0.00     0.322 C 
HETATM   21  O2  UNL     1      -2.542   0.254  -1.774  1.00  0.00    -0.325 OA
HETATM   22  C8  UNL     1      -3.837  -0.111  -1.621  1.00  0.00     0.289 C 
HETATM   23  O3  UNL     1      -4.546   0.575  -0.670  1.00  0.00    -0.349 OA
HETATM   24  C10 UNL     1      -3.838   1.556  -0.021  1.00  0.00     0.181 C 
HETATM   25  C12 UNL     1      -2.582   0.907   0.561  1.00  0.00     0.206 C 
BRANCH  22  26
HETATM   26  C9  UNL     1      -3.981  -1.635  -1.467  1.00  0.00     0.290 C 
BRANCH  26  27
HETATM   27  N5  UNL     1      -5.382  -1.988  -1.309  1.00  0.00    -0.075 N 
ATOM     28  H53 UNL     1      -5.819  -1.483  -0.538  1.00  0.00     0.274 HD
ATOM     29  H52 UNL     1      -5.956  -1.625  -2.070  1.00  0.00     0.274 HD
ATOM     30  H51 UNL     1      -5.477  -2.998  -1.207  1.00  0.00     0.274 HD
ENDBRANCH  26  27
ENDBRANCH  22  26
BRANCH  24  31
HETATM   31  C11 UNL     1      -4.642   2.211   1.039  1.00  0.00     0.199 C 
BRANCH  31  32
HETATM   32  O4  UNL     1      -5.777   2.804   0.463  1.00  0.00    -0.398 OA
ATOM     33  H4  UNL     1      -6.292   3.224   1.142  1.00  0.00     0.209 HD
ENDBRANCH  31  32
ENDBRANCH  24  31
BRANCH  25  34
HETATM   34  O5  UNL     1      -2.942  -0.086   1.464  1.00  0.00    -0.388 OA
ATOM     35  H5  UNL     1      -3.445   0.213   2.213  1.00  0.00     0.210 HD
ENDBRANCH  25  34
ENDBRANCH  19  20
ENDBRANCH   1  19
TORSDOF 14
