REMARK  7 active torsions:
REMARK  status: ('A' for Active; 'I' for Inactive)
REMARK    1  A    between atoms: C2_2  and  C3_4 
REMARK    2  A    between atoms: C3_4  and  C4_5 
REMARK    3  A    between atoms: C4_5  and  N1_6 
REMARK    4  A    between atoms: C4_5  and  C11_20 
REMARK    5  A    between atoms: N1_6  and  S1_8 
REMARK    6  A    between atoms: S1_8  and  C5_11 
REMARK    7  A    between atoms: C20_33  and  C21_34 
ROOT
HETATM    1  C11 UNL     1       0.183   1.271  -0.696  1.00  0.00     0.049 A 
HETATM    2  C12 UNL     1      -0.388   2.342  -0.034  1.00  0.00     0.115 A 
HETATM    3  N2  UNL     1      -1.352   2.086   0.854  1.00  0.00    -0.361 N 
ATOM      4  H2  UNL     1      -1.783   2.866   1.351  1.00  0.00     0.165 HD
HETATM    5  C13 UNL     1      -1.785   0.807   1.123  1.00  0.00     0.073 A 
HETATM    6  C14 UNL     1      -2.833   0.584   2.081  1.00  0.00     0.032 A 
HETATM    7  C15 UNL     1      -4.055   0.123   1.681  1.00  0.00     0.020 A 
HETATM    8  C16 UNL     1      -5.087  -0.100   2.570  1.00  0.00     0.043 A 
HETATM    9  C17 UNL     1      -4.891   0.147   3.895  1.00  0.00     0.119 A 
HETATM   10  F2  UNL     1      -5.917  -0.074   4.791  1.00  0.00    -0.206 F 
HETATM   11  C18 UNL     1      -3.674   0.613   4.339  1.00  0.00     0.085 A 
HETATM   12  C19 UNL     1      -2.640   0.832   3.416  1.00  0.00     0.131 A 
HETATM   13  F3  UNL     1      -1.472   1.291   3.921  1.00  0.00    -0.205 F 
HETATM   14  C20 UNL     1      -1.212  -0.248   0.463  1.00  0.00     0.070 A 
HETATM   15  N3  UNL     1      -0.238   0.026  -0.432  1.00  0.00    -0.354 N 
ATOM     16  H3  UNL     1       0.197  -0.750  -0.930  1.00  0.00     0.166 HD
ENDROOT
BRANCH   1  17
HETATM   17  C4  UNL     1       1.254   1.513  -1.664  1.00  0.00     0.151 C 
BRANCH  17  18
HETATM   18  C3  UNL     1       0.712   2.237  -2.909  1.00  0.00     0.110 C 
BRANCH  18  19
HETATM   19  C2  UNL     1      -0.392   1.529  -3.576  1.00  0.00     0.125 C 
HETATM   20  C1  UNL     1      -1.010   2.199  -4.762  1.00  0.00     0.091 C 
HETATM   21  O1  UNL     1      -0.842   0.455  -3.248  1.00  0.00    -0.298 OA
ENDBRANCH  18  19
ENDBRANCH  17  18
BRANCH  17  22
HETATM   22  N1  UNL     1       2.324   2.348  -1.178  1.00  0.00    -0.304 N 
ATOM     23  H1  UNL     1       2.123   3.220  -0.688  1.00  0.00     0.173 HD
BRANCH  22  24
HETATM   24  S1  UNL     1       3.895   1.858  -1.435  1.00  0.00     0.262 S 
HETATM   25  O2  UNL     1       4.908   2.899  -0.931  1.00  0.00    -0.200 OA
HETATM   26  O3  UNL     1       4.247   1.714  -2.907  1.00  0.00    -0.200 OA
BRANCH  24  27
HETATM   27  C5  UNL     1       4.369   0.363  -0.691  1.00  0.00     0.119 A 
HETATM   28  C6  UNL     1       3.613  -0.374   0.186  1.00  0.00     0.030 A 
HETATM   29  C7  UNL     1       4.120  -1.558   0.742  1.00  0.00     0.027 A 
HETATM   30  C8  UNL     1       5.377  -2.020   0.434  1.00  0.00     0.059 A 
HETATM   31 CL1  UNL     1       6.041  -3.499   1.114  1.00  0.00    -0.082 Cl
HETATM   32  C9  UNL     1       6.138  -1.301  -0.432  1.00  0.00     0.095 A 
HETATM   33 CL2  UNL     1       7.762  -1.804  -0.892  1.00  0.00    -0.079 Cl
HETATM   34  C10 UNL     1       5.643  -0.153  -0.970  1.00  0.00     0.163 A 
HETATM   35  F1  UNL     1       6.418   0.567  -1.843  1.00  0.00    -0.203 F 
ENDBRANCH  24  27
ENDBRANCH  22  24
ENDBRANCH  17  22
ENDBRANCH   1  17
BRANCH  14  36
HETATM   36  C21 UNL     1      -1.651  -1.602   0.747  1.00  0.00    -0.005 A 
HETATM   37  C22 UNL     1      -1.411  -2.180   1.991  1.00  0.00     0.014 A 
HETATM   38  C23 UNL     1      -1.805  -3.467   2.314  1.00  0.00     0.003 A 
HETATM   39  C24 UNL     1      -2.464  -4.190   1.345  1.00  0.00     0.024 A 
HETATM   40  C25 UNL     1      -2.705  -3.625   0.112  1.00  0.00     0.035 A 
HETATM   41 CL3  UNL     1      -3.544  -4.557  -1.114  1.00  0.00    -0.084 Cl
HETATM   42  C26 UNL     1      -2.318  -2.359  -0.209  1.00  0.00     0.037 A 
ENDBRANCH  14  36
TORSDOF 7
