REMARK  8 active torsions:
REMARK  status: ('A' for Active; 'I' for Inactive)
REMARK    1  A    between atoms: C2_2  and  C3_3 
REMARK    2  A    between atoms: C3_3  and  C4_4 
REMARK    3  A    between atoms: C4_4  and  C5_5 
REMARK    4  A    between atoms: C5_5  and  S1_6 
REMARK    5  A    between atoms: S1_6  and  N1_9 
REMARK    6  A    between atoms: N1_9  and  C6_11 
REMARK    7  A    between atoms: C17_29  and  C18_30 
REMARK    8  A    between atoms: C18_30  and  C19_31 
ROOT
HETATM    1  C6  UNL     1       0.532  -1.057  -1.098  1.00  0.00     0.130 A 
HETATM    2  N2  UNL     1       1.172  -1.459  -2.222  1.00  0.00    -0.337 N 
ATOM      3  H2  UNL     1       2.176  -1.631  -2.166  1.00  0.00     0.168 HD
HETATM    4  C7  UNL     1       0.566  -1.644  -3.404  1.00  0.00     0.183 A 
HETATM    5  N3  UNL     1      -0.751  -1.414  -3.455  1.00  0.00    -0.338 N 
ATOM      6  H3  UNL     1      -1.227  -1.552  -4.346  1.00  0.00     0.168 HD
HETATM    7  C8  UNL     1      -1.483  -1.013  -2.405  1.00  0.00     0.126 A 
HETATM    8  C9  UNL     1      -0.823  -0.825  -1.178  1.00  0.00     0.065 A 
HETATM    9  C10 UNL     1      -1.560  -0.419  -0.097  1.00  0.00     0.009 A 
HETATM   10  C11 UNL     1      -1.007  -0.181   1.217  1.00  0.00     0.036 A 
HETATM   11  C12 UNL     1      -0.959  -1.157   2.189  1.00  0.00     0.132 A 
HETATM   12  F1  UNL     1      -1.399  -2.430   1.941  1.00  0.00    -0.205 F 
HETATM   13  C13 UNL     1      -0.468  -0.913   3.452  1.00  0.00     0.085 A 
HETATM   14  C14 UNL     1      -0.004   0.330   3.788  1.00  0.00     0.120 A 
HETATM   15  F2  UNL     1       0.486   0.585   5.041  1.00  0.00    -0.206 F 
HETATM   16  C15 UNL     1      -0.057   1.296   2.808  1.00  0.00     0.067 A 
HETATM   17  C16 UNL     1      -0.543   1.074   1.540  1.00  0.00     0.051 A 
HETATM   18 CL1  UNL     1      -0.517   2.433   0.438  1.00  0.00    -0.083 Cl
HETATM   19  C17 UNL     1      -2.947  -0.214  -0.279  1.00  0.00     0.027 A 
HETATM   20  C24 UNL     1      -3.546  -0.408  -1.482  1.00  0.00     0.256 A 
HETATM   21  O3  UNL     1      -4.775  -0.233  -1.653  1.00  0.00    -0.267 OA
HETATM   22  N5  UNL     1      -2.802  -0.810  -2.549  1.00  0.00    -0.303 N 
HETATM   23  C25 UNL     1      -3.421  -1.018  -3.845  1.00  0.00     0.161 C 
ENDROOT
BRANCH   1  24
HETATM   24  N1  UNL     1       1.173  -0.911   0.002  1.00  0.00    -0.269 N 
ATOM     25  H1  UNL     1       0.685  -0.608   0.845  1.00  0.00     0.180 HD
BRANCH  24  26
HETATM   26  S1  UNL     1       2.862  -1.229   0.046  1.00  0.00     0.232 S 
HETATM   27  O1  UNL     1       3.178  -1.861   1.386  1.00  0.00    -0.206 OA
HETATM   28  O2  UNL     1       3.209  -2.141  -1.079  1.00  0.00    -0.206 OA
BRANCH  26  29
HETATM   29  C5  UNL     1       3.750   0.299  -0.004  1.00  0.00     0.163 C 
BRANCH  29  30
HETATM   30  C4  UNL     1       5.239  -0.054   0.006  1.00  0.00     0.017 C 
BRANCH  30  31
HETATM   31  C3  UNL     1       6.040   1.221  -0.026  1.00  0.00     0.001 C 
BRANCH  31  32
HETATM   32  C2  UNL     1       7.498   0.836  -0.038  1.00  0.00    -0.005 C 
HETATM   33  C1  UNL     1       7.837   0.031   1.197  1.00  0.00     0.005 C 
ENDBRANCH  31  32
ENDBRANCH  30  31
ENDBRANCH  29  30
ENDBRANCH  26  29
ENDBRANCH  24  26
ENDBRANCH   1  24
BRANCH  19  34
HETATM   34  C18 UNL     1      -3.682   0.184   0.915  1.00  0.00     0.087 C 
BRANCH  34  35
HETATM   35  C19 UNL     1      -5.099   0.550   0.765  1.00  0.00    -0.007 A 
HETATM   36  C20 UNL     1      -5.505   1.787   0.338  1.00  0.00     0.057 A 
HETATM   37 CL2  UNL     1      -4.341   3.010  -0.044  1.00  0.00    -0.082 Cl
HETATM   38  C21 UNL     1      -6.850   2.131   0.194  1.00  0.00     0.112 A 
HETATM   39  N4  UNL     1      -7.784   1.236   0.480  1.00  0.00    -0.372 N 
HETATM   40  C22 UNL     1      -7.438   0.010   0.903  1.00  0.00     0.112 A 
ATOM     41  H4  UNL     1      -8.769   1.479   0.378  1.00  0.00     0.164 HD
HETATM   42  C23 UNL     1      -6.124  -0.368   1.057  1.00  0.00     0.057 A 
HETATM   43 CL3  UNL     1      -5.649  -1.943   1.602  1.00  0.00    -0.082 Cl
ENDBRANCH  34  35
ENDBRANCH  19  34
TORSDOF 8
