REMARK  9 active torsions:
REMARK  status: ('A' for Active; 'I' for Inactive)
REMARK    1  A    between atoms: O1_2  and  C2_3 
REMARK    2  A    between atoms: C5_7  and  S1_8 
REMARK    3  A    between atoms: S1_8  and  N1_11 
REMARK    4  A    between atoms: N1_11  and  C6_13 
REMARK    5  A    between atoms: C9_16  and  S2_17 
REMARK    6  A    between atoms: S2_17  and  O4_18 
REMARK    7  A    between atoms: S2_17  and  C10_22 
REMARK    8  A    between atoms: C10_22  and  C11_23 
REMARK    9  A    between atoms: C10_22  and  C17_30 
ROOT
HETATM    1  C6  UNL     1       0.849   0.446  -0.076  1.00  0.00     0.042 A 
HETATM    2  C7  UNL     1       0.732  -0.897  -0.208  1.00  0.00     0.031 A 
HETATM    3  C8  UNL     1      -0.487  -1.591  -0.062  1.00  0.00     0.025 A 
HETATM    4  C9  UNL     1      -1.590  -0.868   0.222  1.00  0.00     0.051 A 
HETATM    5  C18 UNL     1      -1.559   0.465   0.370  1.00  0.00     0.025 A 
HETATM    6  C19 UNL     1      -0.354   1.124   0.223  1.00  0.00     0.031 A 
ENDROOT
BRANCH   4   7
HETATM    7  S2  UNL     1      -3.404  -1.756   0.349  1.00  0.00     0.115 SA
HETATM    8  F1  UNL     1      -2.599  -1.884   2.366  1.00  0.00    -0.138 F 
HETATM    9  F2  UNL     1      -3.190  -3.613   0.864  1.00  0.00    -0.138 F 
BRANCH   7  10
HETATM   10  O4  UNL     1      -3.583  -1.977  -0.789  1.00  0.00    -0.307 OA
ATOM     11  H4  UNL     1      -4.435  -2.394  -0.729  1.00  0.00     0.230 HD
ENDBRANCH   7  10
BRANCH   7  12
HETATM   12  C10 UNL     1      -4.736  -0.789   1.176  1.00  0.00     0.170 C 
BRANCH  12  13
HETATM   13  C11 UNL     1      -5.667  -0.097   0.192  1.00  0.00    -0.037 A 
HETATM   14  C12 UNL     1      -6.016   1.221   0.409  1.00  0.00     0.010 A 
HETATM   15  C13 UNL     1      -6.856   1.837  -0.488  1.00  0.00     0.024 A 
HETATM   16  C14 UNL     1      -7.369   1.206  -1.597  1.00  0.00     0.034 A 
HETATM   17 CL2  UNL     1      -8.448   2.055  -2.717  1.00  0.00    -0.084 Cl
HETATM   18  C15 UNL     1      -7.013  -0.101  -1.798  1.00  0.00     0.024 A 
HETATM   19  C16 UNL     1      -6.166  -0.756  -0.912  1.00  0.00     0.010 A 
ENDBRANCH  12  13
BRANCH  12  20
HETATM   20  C17 UNL     1      -5.660  -1.602   2.054  1.00  0.00     0.201 C 
HETATM   21 CL3  UNL     1      -4.800  -2.413   3.395  1.00  0.00    -0.106 Cl
HETATM   22 CL4  UNL     1      -6.627  -2.793   1.156  1.00  0.00    -0.106 Cl
ENDBRANCH  12  20
ENDBRANCH   7  12
ENDBRANCH   4   7
BRANCH   1  23
HETATM   23  N1  UNL     1       2.034   1.190  -0.260  1.00  0.00    -0.281 N 
ATOM     24  H1  UNL     1       2.128   2.026   0.317  1.00  0.00     0.179 HD
BRANCH  23  25
HETATM   25  S1  UNL     1       3.328   0.872  -1.321  1.00  0.00     0.265 S 
HETATM   26  O2  UNL     1       3.000  -0.415  -2.085  1.00  0.00    -0.200 OA
HETATM   27  O3  UNL     1       3.291   1.966  -2.377  1.00  0.00    -0.200 OA
BRANCH  25  28
HETATM   28  C5  UNL     1       4.891   0.717  -0.633  1.00  0.00     0.103 A 
HETATM   29  C4  UNL     1       5.304  -0.189   0.288  1.00  0.00     0.060 A 
HETATM   30  C3  UNL     1       6.626  -0.193   0.763  1.00  0.00     0.064 A 
HETATM   31 CL1  UNL     1       4.263  -1.404   0.953  1.00  0.00    -0.083 Cl
HETATM   32  C2  UNL     1       7.553   0.718   0.315  1.00  0.00     0.091 A 
HETATM   33  C21 UNL     1       7.152   1.641  -0.617  1.00  0.00     0.069 A 
HETATM   34  C20 UNL     1       5.864   1.644  -1.079  1.00  0.00     0.053 A 
HETATM   35 CL5  UNL     1       8.310   2.823  -1.214  1.00  0.00    -0.081 Cl
BRANCH  32  36
HETATM   36  O1  UNL     1       8.851   0.739   0.761  1.00  0.00    -0.354 OA
HETATM   37  C1  UNL     1       9.386  -0.146   1.708  1.00  0.00     0.210 C 
ENDBRANCH  32  36
ENDBRANCH  25  28
ENDBRANCH  23  25
ENDBRANCH   1  23
TORSDOF 9
