REMARK  10 active torsions:
REMARK  status: ('A' for Active; 'I' for Inactive)
REMARK    1  A    between atoms: C5_5  and  C6_6 
REMARK    2  A    between atoms: C6_6  and  N1_7 
REMARK    3  A    between atoms: C8_11  and  N3_12 
REMARK    4  A    between atoms: N3_12  and  C9_13 
REMARK    5  A    between atoms: N3_12  and  S1_19 
REMARK    6  A    between atoms: C9_13  and  C10_14 
REMARK    7  A    between atoms: C10_14  and  C11_15 
REMARK    8  A    between atoms: S1_19  and  C12_22 
REMARK    9  A    between atoms: C15_25  and  N4_26 
REMARK   10  A    between atoms: N4_26  and  C16_28 
ROOT
HETATM    1  N3  UNL     1      -0.562  -2.422   0.759  1.00  0.00    -0.267 N 
ENDROOT
BRANCH   1   2
HETATM    2  C8  UNL     1      -1.945  -2.203   0.560  1.00  0.00     0.102 A 
HETATM    3  C7  UNL     1      -2.950  -2.731   1.385  1.00  0.00     0.141 A 
HETATM    4  N2  UNL     1      -4.137  -2.329   0.887  1.00  0.00    -0.306 N 
HETATM    5  N1  UNL     1      -3.951  -1.589  -0.186  1.00  0.00    -0.275 N 
ATOM      6  H2  UNL     1      -5.047  -2.564   1.284  1.00  0.00     0.186 HD
HETATM    7  C23 UNL     1      -2.629  -1.503  -0.397  1.00  0.00     0.149 A 
HETATM    8 CL2  UNL     1      -1.892  -0.605  -1.705  1.00  0.00    -0.060 Cl
BRANCH   5   9
HETATM    9  C6  UNL     1      -4.980  -0.991  -0.975  1.00  0.00     0.190 C 
BRANCH   9  10
HETATM   10  C5  UNL     1      -5.340   0.346  -0.524  1.00  0.00    -0.017 A 
HETATM   11  C4  UNL     1      -4.725   0.922   0.548  1.00  0.00     0.011 A 
HETATM   12  C3  UNL     1      -5.059   2.186   0.981  1.00  0.00     0.007 A 
HETATM   13  C2  UNL     1      -6.039   2.910   0.329  1.00  0.00    -0.060 A 
HETATM   14  C1  UNL     1      -6.375   4.268   0.821  1.00  0.00     0.048 C 
HETATM   15  C25 UNL     1      -6.663   2.348  -0.745  1.00  0.00     0.031 A 
HETATM   16  C24 UNL     1      -6.314   1.066  -1.172  1.00  0.00     0.042 A 
HETATM   17 CL3  UNL     1      -7.176   0.438  -2.561  1.00  0.00    -0.084 Cl
ENDBRANCH   9  10
ENDBRANCH   5   9
ENDBRANCH   1   2
BRANCH   1  18
HETATM   18  C9  UNL     1       0.073  -3.574   0.186  1.00  0.00     0.151 C 
BRANCH  18  19
HETATM   19  C10 UNL     1       0.588  -3.421  -1.201  1.00  0.00     0.138 C 
BRANCH  19  20
HETATM   20  C11 UNL     1       1.231  -4.759  -1.577  1.00  0.00     0.389 C 
HETATM   21  F1  UNL     1       1.738  -4.683  -2.875  1.00  0.00    -0.171 F 
HETATM   22  F2  UNL     1       2.298  -5.023  -0.751  1.00  0.00    -0.171 F 
HETATM   23  F3  UNL     1       0.248  -5.726  -1.489  1.00  0.00    -0.171 F 
ENDBRANCH  19  20
ENDBRANCH  18  19
ENDBRANCH   1  18
BRANCH   1  24
HETATM   24  S1  UNL     1       0.371  -1.338   1.715  1.00  0.00     0.265 S 
HETATM   25  O1  UNL     1      -0.526  -0.280   2.346  1.00  0.00    -0.200 OA
HETATM   26  O2  UNL     1       0.944  -2.105   2.901  1.00  0.00    -0.200 OA
BRANCH  24  27
HETATM   27  C12 UNL     1       1.678  -0.590   0.836  1.00  0.00     0.080 A 
HETATM   28  C13 UNL     1       2.965  -1.099   0.792  1.00  0.00     0.027 A 
HETATM   29  C14 UNL     1       3.978  -0.490   0.092  1.00  0.00     0.031 A 
HETATM   30  C15 UNL     1       3.756   0.674  -0.610  1.00  0.00     0.033 A 
HETATM   31  C21 UNL     1       2.483   1.199  -0.581  1.00  0.00     0.031 A 
HETATM   32  C22 UNL     1       1.479   0.575   0.126  1.00  0.00     0.027 A 
BRANCH  30  33
HETATM   33  N4  UNL     1       4.779   1.331  -1.345  1.00  0.00    -0.343 N 
ATOM     34  H4  UNL     1       4.692   1.360  -2.361  1.00  0.00     0.167 HD
BRANCH  33  35
HETATM   35  C16 UNL     1       5.798   1.886  -0.820  1.00  0.00     0.105 A 
HETATM   36  C17 UNL     1       6.706   2.487  -1.682  1.00  0.00     0.050 A 
HETATM   37  C18 UNL     1       7.847   3.119  -1.234  1.00  0.00     0.029 A 
HETATM   38  C19 UNL     1       8.104   3.163   0.102  1.00  0.00     0.049 A 
HETATM   39 CL1  UNL     1       9.546   3.961   0.683  1.00  0.00    -0.083 Cl
HETATM   40  C20 UNL     1       7.189   2.558   0.963  1.00  0.00     0.113 A 
HETATM   41  N5  UNL     1       6.074   1.944   0.483  1.00  0.00    -0.351 N 
ATOM     42  H5  UNL     1       5.427   1.513   1.143  1.00  0.00     0.166 HD
ENDBRANCH  33  35
ENDBRANCH  30  33
ENDBRANCH  24  27
ENDBRANCH   1  24
TORSDOF 10
