REMARK  10 active torsions:
REMARK  status: ('A' for Active; 'I' for Inactive)
REMARK    1  A    between atoms: N1_1  and  C1_5 
REMARK    2  A    between atoms: C1_5  and  C2_6 
REMARK    3  A    between atoms: C3_9  and  S1_10 
REMARK    4  A    between atoms: S1_10  and  C4_11 
REMARK    5  A    between atoms: C4_11  and  C5_12 
REMARK    6  A    between atoms: C5_12  and  O1_13 
REMARK    7  A    between atoms: O1_13  and  C6_14 
REMARK    8  A    between atoms: C6_14  and  C7_15 
REMARK    9  A    between atoms: C7_15  and  S2_16 
REMARK   10  A    between atoms: S2_16  and  N3_17 
ROOT
HETATM    1  C2  UNL     1      -3.287   0.065  -0.422  1.00  0.00     0.078 A 
HETATM    2  N2  UNL     1      -2.004  -0.018  -0.841  1.00  0.00    -0.336 N 
ATOM      3  H2  UNL     1      -1.556   0.642  -1.477  1.00  0.00     0.168 HD
HETATM    4  C3  UNL     1      -1.418  -1.065  -0.316  1.00  0.00     0.146 A 
HETATM    5  N4  UNL     1      -2.317  -1.718   0.463  1.00  0.00    -0.324 N 
ATOM      6  H4  UNL     1      -2.148  -2.573   0.993  1.00  0.00     0.169 HD
HETATM    7  C8  UNL     1      -3.467  -1.035   0.408  1.00  0.00     0.142 A 
HETATM    8  N5  UNL     1      -4.662  -1.443   1.103  1.00  0.00    -0.081 NA
ENDROOT
BRANCH   4   9
HETATM    9  S1  UNL     1       0.291  -1.636  -0.326  1.00  0.00    -0.092 SA
BRANCH   9  10
HETATM   10  C4  UNL     1       1.120  -0.624   0.999  1.00  0.00     0.108 C 
BRANCH  10  11
HETATM   11  C5  UNL     1       1.289   0.735   0.409  1.00  0.00     0.178 C 
BRANCH  11  12
HETATM   12  O1  UNL     1       2.187   0.600  -0.706  1.00  0.00    -0.390 OA
BRANCH  12  13
HETATM   13  C6  UNL     1       3.422   0.223  -0.229  1.00  0.00     0.179 C 
BRANCH  13  14
HETATM   14  C7  UNL     1       4.450   0.124  -1.315  1.00  0.00     0.123 C 
BRANCH  14  15
HETATM   15  S2  UNL     1       6.067  -0.345  -0.581  1.00  0.00    -0.061 SA
BRANCH  15  16
HETATM   16  N3  UNL     1       6.637   0.932   0.494  1.00  0.00    -0.374 N 
ATOM     17  H32 UNL     1       6.131   1.799   0.672  1.00  0.00     0.164 HD
ATOM     18  H31 UNL     1       7.535   0.672   0.902  1.00  0.00     0.164 HD
ENDBRANCH  15  16
ENDBRANCH  14  15
ENDBRANCH  13  14
ENDBRANCH  12  13
ENDBRANCH  11  12
ENDBRANCH  10  11
ENDBRANCH   9  10
ENDBRANCH   4   9
BRANCH   1  19
HETATM   19  C1  UNL     1      -4.288   1.124  -0.606  1.00  0.00     0.290 C 
BRANCH  19  20
HETATM   20  N1  UNL     1      -5.559   0.564  -1.073  1.00  0.00    -0.074 N 
ATOM     21  H13 UNL     1      -5.438   0.008  -1.920  1.00  0.00     0.274 HD
ATOM     22  H12 UNL     1      -5.898  -0.172  -0.453  1.00  0.00     0.274 HD
ATOM     23  H11 UNL     1      -6.254   1.299  -1.201  1.00  0.00     0.274 HD
ENDBRANCH  19  20
ENDBRANCH   1  19
TORSDOF 10
