REMARK  11 active torsions:
REMARK  status: ('A' for Active; 'I' for Inactive)
REMARK    1  A    between atoms: C2_2  and  N1_4 
REMARK    2  A    between atoms: N1_4  and  C4_6 
REMARK    3  A    between atoms: C5_9  and  C6_10 
REMARK    4  A    between atoms: C6_10  and  N3_12 
REMARK    5  A    between atoms: N5_18  and  C8_19 
REMARK    6  A    between atoms: C8_19  and  O1_20 
REMARK    7  A    between atoms: O1_20  and  C9_21 
REMARK    8  A    between atoms: C9_21  and  C10_22 
REMARK    9  A    between atoms: C10_22  and  C11_23 
REMARK   10  A    between atoms: C11_23  and  N6_24 
REMARK   11  A    between atoms: C11_23  and  N7_28 
ROOT
HETATM    1  C4  UNL     1      -1.845   0.359   0.438  1.00  0.00     0.698 A 
HETATM    2  N2  UNL     1      -2.654   1.452   0.201  1.00  0.00    -0.176 N 
ATOM      3  H2  UNL     1      -3.647   1.500   0.431  1.00  0.00     0.185 HD
HETATM    4  C5  UNL     1      -1.963   2.433  -0.368  1.00  0.00     0.142 A 
HETATM    5  N4  UNL     1      -0.716   1.974  -0.497  1.00  0.00    -0.268 N 
ATOM      6  H4  UNL     1       0.065   2.490  -0.902  1.00  0.00     0.189 HD
HETATM    7  N5  UNL     1      -0.655   0.715  -0.005  1.00  0.00    -0.099 N 
ENDROOT
BRANCH   7   8
HETATM    8  C8  UNL     1       0.611  -0.000  -0.056  1.00  0.00     0.335 C 
BRANCH   8   9
HETATM    9  O1  UNL     1       0.808  -0.645  -1.247  1.00  0.00    -0.370 OA
BRANCH   9  10
HETATM   10  C9  UNL     1       2.012  -1.315  -1.232  1.00  0.00     0.173 C 
BRANCH  10  11
HETATM   11  C10 UNL     1       3.223  -0.468  -1.033  1.00  0.00     0.088 C 
BRANCH  11  12
HETATM   12  C11 UNL     1       4.502  -1.313  -1.047  1.00  0.00     0.380 C 
BRANCH  12  13
HETATM   13  N6  UNL     1       4.465  -2.312   0.023  1.00  0.00    -0.050 N 
ATOM     14  H63 UNL     1       4.301  -1.886   0.935  1.00  0.00     0.276 HD
ATOM     15  H62 UNL     1       3.627  -2.891  -0.026  1.00  0.00     0.276 HD
ATOM     16  H61 UNL     1       5.316  -2.874   0.014  1.00  0.00     0.276 HD
ENDBRANCH  12  13
BRANCH  12  17
HETATM   17  N7  UNL     1       5.594  -0.414  -0.740  1.00  0.00    -0.050 N 
ATOM     18  H73 UNL     1       5.638   0.394  -1.361  1.00  0.00     0.276 HD
ATOM     19  H72 UNL     1       5.460   0.101   0.130  1.00  0.00     0.276 HD
ATOM     20  H71 UNL     1       6.445  -0.976  -0.749  1.00  0.00     0.276 HD
ENDBRANCH  12  17
ENDBRANCH  11  12
ENDBRANCH  10  11
ENDBRANCH   9  10
ENDBRANCH   8   9
ENDBRANCH   7   8
BRANCH   1  21
HETATM   21  N1  UNL     1      -2.360  -0.785   1.060  1.00  0.00    -0.221 N 
ATOM     22  H1  UNL     1      -3.341  -0.712   1.331  1.00  0.00     0.178 HD
BRANCH  21  23
HETATM   23  C2  UNL     1      -1.752  -2.036   1.381  1.00  0.00     0.091 C 
HETATM   24  C1  UNL     1      -1.414  -2.918   0.231  1.00  0.00     0.032 C 
HETATM   25  C3  UNL     1      -2.708  -2.871   2.280  1.00  0.00     0.032 C 
ENDBRANCH  21  23
ENDBRANCH   1  21
BRANCH   4  26
HETATM   26  C6  UNL     1      -2.474   3.777  -0.781  1.00  0.00     0.248 C 
HETATM   27  C7  UNL     1      -2.585   4.632   0.472  1.00  0.00     0.048 C 
BRANCH  26  28
HETATM   28  N3  UNL     1      -3.737   3.670  -1.473  1.00  0.00    -0.069 N 
ATOM     29  H33 UNL     1      -3.675   3.033  -2.267  1.00  0.00     0.275 HD
ATOM     30  H32 UNL     1      -4.426   3.163  -0.918  1.00  0.00     0.275 HD
ATOM     31  H31 UNL     1      -4.085   4.586  -1.755  1.00  0.00     0.275 HD
ENDBRANCH  26  28
ENDBRANCH   4  26
TORSDOF 11
