REMARK  10 active torsions:
REMARK  status: ('A' for Active; 'I' for Inactive)
REMARK    1  A    between atoms: C2_2  and  C3_3 
REMARK    2  A    between atoms: C3_3  and  N1_4 
REMARK    3  A    between atoms: N1_4  and  C4_7 
REMARK    4  A    between atoms: C4_7  and  C5_8 
REMARK    5  A    between atoms: C5_8  and  N2_9 
REMARK    6  A    between atoms: N2_9  and  C6_11 
REMARK    7  A    between atoms: C9_14  and  N3_15 
REMARK    8  A    between atoms: C10_18  and  C11_19 
REMARK    9  A    between atoms: N4_20  and  N5_22 
REMARK   10  A    between atoms: N5_22  and  N6_24 
ROOT
HETATM    1  C6  UNL     1      -0.307   0.213  -0.373  1.00  0.00     0.029 A 
HETATM    2  C7  UNL     1      -0.016   1.384   0.270  1.00  0.00     0.031 A 
HETATM    3  C8  UNL     1      -0.971   2.128   0.915  1.00  0.00     0.039 A 
HETATM    4  C9  UNL     1      -2.321   1.724   0.950  1.00  0.00     0.114 A 
HETATM    5  C10 UNL     1      -2.613   0.549   0.302  1.00  0.00     0.016 A 
HETATM    6  C12 UNL     1      -1.618  -0.197  -0.349  1.00  0.00     0.044 A 
ENDROOT
BRANCH   1   7
HETATM    7  N2  UNL     1       0.672  -0.588  -1.076  1.00  0.00    -0.388 N 
ATOM      8  H2  UNL     1       0.890  -0.371  -2.049  1.00  0.00     0.159 HD
BRANCH   7   9
HETATM    9  C5  UNL     1       1.335  -1.669  -0.439  1.00  0.00     0.147 C 
BRANCH   9  10
HETATM   10  C4  UNL     1       2.499  -1.297   0.443  1.00  0.00     0.252 C 
BRANCH  10  11
HETATM   11  N1  UNL     1       3.480  -0.637  -0.423  1.00  0.00    -0.071 N 
ATOM     12  H12 UNL     1       3.188   0.284  -0.749  1.00  0.00     0.277 HD
ATOM     13  H11 UNL     1       3.570  -1.065  -1.345  1.00  0.00     0.277 HD
BRANCH  11  14
HETATM   14  C3  UNL     1       4.719  -0.625   0.344  1.00  0.00     0.259 C 
BRANCH  14  15
HETATM   15  C2  UNL     1       5.779  -0.050  -0.509  1.00  0.00    -0.010 C 
HETATM   16  C1  UNL     1       6.451   1.016  -0.096  1.00  0.00     0.008 C 
ENDBRANCH  14  15
ENDBRANCH  11  14
ENDBRANCH  10  11
ENDBRANCH   9  10
ENDBRANCH   7   9
ENDBRANCH   1   7
BRANCH   5  17
HETATM   17  C11 UNL     1      -3.982   0.066   0.248  1.00  0.00     0.122 C 
HETATM   18  N4  UNL     1      -4.279  -1.054  -0.348  1.00  0.00    -0.297 N 
ATOM     19  H4  UNL     1      -3.525  -1.589  -0.780  1.00  0.00     0.187 HD
BRANCH  18  20
HETATM   20  N5  UNL     1      -5.559  -1.550  -0.423  1.00  0.00    -0.250 N 
ATOM     21  H5  UNL     1      -5.684  -2.462  -0.862  1.00  0.00     0.207 HD
BRANCH  20  22
HETATM   22  N6  UNL     1      -6.695  -0.907   0.052  1.00  0.00    -0.331 N 
ATOM     23  H62 UNL     1      -6.550   0.004   0.488  1.00  0.00     0.178 HD
ATOM     24  H61 UNL     1      -7.645  -1.275  -0.004  1.00  0.00     0.178 HD
ENDBRANCH  20  22
ENDBRANCH  18  20
ENDBRANCH   5  17
BRANCH   4  25
HETATM   25  N3  UNL     1      -3.241   2.555   1.624  1.00  0.00    -0.115 N 
HETATM   26  O1  UNL     1      -3.026   3.780   1.660  1.00  0.00    -0.532 OA
HETATM   27  O2  UNL     1      -4.343   2.087   2.247  1.00  0.00    -0.532 OA
ENDBRANCH   4  25
TORSDOF 10
