REMARK  13 active torsions:
REMARK  status: ('A' for Active; 'I' for Inactive)
REMARK    1  A    between atoms: O1_1  and  C1_3 
REMARK    2  A    between atoms: C1_3  and  C2_4 
REMARK    3  A    between atoms: C3_6  and  C4_7 
REMARK    4  A    between atoms: C4_7  and  O3_8 
REMARK    5  A    between atoms: O3_8  and  C5_9 
REMARK    6  A    between atoms: C5_9  and  C6_10 
REMARK    7  A    between atoms: C9_13  and  C10_14 
REMARK    8  A    between atoms: C11_15  and  C12_16 
REMARK    9  A    between atoms: C15_19  and  O4_20 
REMARK   10  A    between atoms: O4_20  and  C16_21 
REMARK   11  A    between atoms: C26_31  and  O5_32 
REMARK   12  A    between atoms: C27_34  and  O6_35 
REMARK   13  A    between atoms: C28_37  and  O7_38 
ROOT
HETATM    1  C6  UNL     1      -1.856  -1.160   0.626  1.00  0.00    -0.035 A 
HETATM    2  C7  UNL     1      -1.174  -1.853  -0.338  1.00  0.00     0.011 A 
HETATM    3  C8  UNL     1       0.210  -1.754  -0.320  1.00  0.00     0.021 A 
HETATM    4  C9  UNL     1       0.904  -1.006   0.604  1.00  0.00     0.018 A 
HETATM    5  C24 UNL     1       0.179  -0.321   1.561  1.00  0.00     0.021 A 
HETATM    6  C25 UNL     1      -1.220  -0.400   1.571  1.00  0.00     0.011 A 
ENDROOT
BRANCH   1   7
HETATM    7  C5  UNL     1      -3.367  -1.199   0.696  1.00  0.00     0.206 C 
BRANCH   7   8
HETATM    8  O3  UNL     1      -3.893  -1.976  -0.281  1.00  0.00    -0.384 OA
BRANCH   8   9
HETATM    9  C4  UNL     1      -5.247  -2.111  -0.212  1.00  0.00     0.202 C 
BRANCH   9  10
HETATM   10  C3  UNL     1      -6.109  -0.917  -0.302  1.00  0.00     0.177 C 
HETATM   11  O2  UNL     1      -5.933  -0.026   0.712  1.00  0.00    -0.371 OA
HETATM   12  C2  UNL     1      -6.675   1.117   0.633  1.00  0.00     0.177 C 
HETATM   13  C28 UNL     1      -8.120   0.920   0.327  1.00  0.00     0.180 C 
HETATM   14  C27 UNL     1      -8.422  -0.222  -0.579  1.00  0.00     0.180 C 
HETATM   15  C26 UNL     1      -7.564  -1.404  -0.182  1.00  0.00     0.180 C 
BRANCH  12  16
HETATM   16  C1  UNL     1      -6.081   2.146  -0.334  1.00  0.00     0.198 C 
BRANCH  16  17
HETATM   17  O1  UNL     1      -4.792   2.498   0.099  1.00  0.00    -0.398 OA
ATOM     18  H1  UNL     1      -4.424   3.136  -0.501  1.00  0.00     0.209 HD
ENDBRANCH  16  17
ENDBRANCH  12  16
BRANCH  13  19
HETATM   19  O7  UNL     1      -8.577   2.094  -0.311  1.00  0.00    -0.390 OA
ATOM     20  H7  UNL     1      -9.498   1.968  -0.506  1.00  0.00     0.210 HD
ENDBRANCH  13  19
BRANCH  14  21
HETATM   21  O6  UNL     1      -8.278   0.046  -1.918  1.00  0.00    -0.390 OA
ATOM     22  H6  UNL     1      -8.817   0.788  -2.167  1.00  0.00     0.210 HD
ENDBRANCH  14  21
BRANCH  15  23
HETATM   23  O5  UNL     1      -7.842  -1.663   1.170  1.00  0.00    -0.390 OA
ATOM     24  H5  UNL     1      -8.740  -1.964   1.244  1.00  0.00     0.210 HD
ENDBRANCH  15  23
ENDBRANCH   9  10
ENDBRANCH   8   9
ENDBRANCH   7   8
ENDBRANCH   1   7
BRANCH   4  25
HETATM   25  C10 UNL     1       2.337  -0.921   0.600  1.00  0.00    -0.061 C 
HETATM   26  C11 UNL     1       3.544  -0.843   0.576  1.00  0.00    -0.061 C 
BRANCH  26  27
HETATM   27  C12 UNL     1       4.992  -0.775   0.545  1.00  0.00     0.018 A 
HETATM   28  C13 UNL     1       5.732  -0.502   1.671  1.00  0.00     0.023 A 
HETATM   29  C14 UNL     1       7.121  -0.448   1.582  1.00  0.00     0.039 A 
HETATM   30  C15 UNL     1       7.769  -0.664   0.383  1.00  0.00     0.076 A 
HETATM   31  C22 UNL     1       7.031  -0.939  -0.754  1.00  0.00     0.039 A 
HETATM   32  C23 UNL     1       5.644  -0.989  -0.649  1.00  0.00     0.023 A 
BRANCH  30  33
HETATM   33  O4  UNL     1       9.150  -0.620   0.248  1.00  0.00    -0.311 OA
BRANCH  33  34
HETATM   34  C16 UNL     1       9.802   0.555  -0.061  1.00  0.00     0.076 A 
HETATM   35  C17 UNL     1      10.060   0.966  -1.350  1.00  0.00     0.037 A 
HETATM   36  C18 UNL     1      10.718   2.158  -1.552  1.00  0.00     0.003 A 
HETATM   37  C19 UNL     1      11.136   2.969  -0.513  1.00  0.00     0.000 A 
HETATM   38  C20 UNL     1      10.877   2.559   0.778  1.00  0.00     0.003 A 
HETATM   39  C21 UNL     1      10.211   1.352   0.979  1.00  0.00     0.037 A 
ENDBRANCH  33  34
ENDBRANCH  30  33
ENDBRANCH  26  27
ENDBRANCH   4  25
TORSDOF 13
