REMARK  7 active torsions:
REMARK  status: ('A' for Active; 'I' for Inactive)
REMARK    1  A    between atoms: C3_8  and  C4_9 
REMARK    2  A    between atoms: C17_27  and  C18_28 
REMARK    3  A    between atoms: C18_28  and  C19_29 
REMARK    4  A    between atoms: C19_29  and  C20_30 
REMARK    5  A    between atoms: C20_30  and  C21_31 
REMARK    6  A    between atoms: C21_31  and  C22_32 
REMARK    7  A    between atoms: C22_32  and  C23_33 
ROOT
HETATM    1  N1  UNL     1       1.540   3.444  -1.169  1.00  0.00    -0.398 N 
ATOM      2  H11 UNL     1       2.075   3.308  -2.027  1.00  0.00     0.156 HD
ATOM      3  H12 UNL     1       1.395   4.357  -0.738  1.00  0.00     0.156 HD
HETATM    4  C1  UNL     1       1.045   2.370  -0.650  1.00  0.00     0.069 C 
HETATM    5  C2  UNL     1       0.257   2.571   0.613  1.00  0.00     0.175 C 
HETATM    6  N2  UNL     1      -0.562   3.739   0.593  1.00  0.00    -0.403 N 
ATOM      7  H2  UNL     1      -0.379   4.536   1.203  1.00  0.00     0.154 HD
HETATM    8  C3  UNL     1      -1.652   3.730  -0.329  1.00  0.00     0.179 C 
HETATM    9  C5  UNL     1      -2.951   3.336   0.368  1.00  0.00     0.036 C 
HETATM   10  C6  UNL     1      -3.142   1.851   0.375  1.00  0.00     0.002 C 
HETATM   11  C7  UNL     1      -4.429   1.394  -0.270  1.00  0.00     0.000 C 
HETATM   12  C8  UNL     1      -4.836   0.080   0.357  1.00  0.00     0.000 C 
HETATM   13  C9  UNL     1      -5.378  -0.858  -0.675  1.00  0.00     0.000 C 
HETATM   14  C10 UNL     1      -4.925  -2.291  -0.471  1.00  0.00     0.000 C 
HETATM   15  C11 UNL     1      -3.543  -2.366   0.087  1.00  0.00     0.000 C 
HETATM   16  C12 UNL     1      -2.839  -3.659  -0.279  1.00  0.00     0.000 C 
HETATM   17  C13 UNL     1      -1.610  -3.785   0.570  1.00  0.00     0.000 C 
HETATM   18  C14 UNL     1      -0.472  -4.383  -0.246  1.00  0.00     0.009 C 
HETATM   19  C15 UNL     1       0.715  -3.469  -0.148  1.00  0.00     0.103 C 
HETATM   20  C16 UNL     1       0.767  -2.592  -1.338  1.00  0.00     0.218 C 
HETATM   21  O3  UNL     1       0.173  -3.041  -2.381  1.00  0.00    -0.274 OA
HETATM   22  N3  UNL     1       1.402  -1.334  -1.417  1.00  0.00    -0.349 N 
ATOM     23  H3  UNL     1       2.034  -1.195  -2.205  1.00  0.00     0.163 HD
HETATM   24  C17 UNL     1       1.258  -0.223  -0.509  1.00  0.00     0.160 C 
HETATM   25  C24 UNL     1       1.250   1.078  -1.260  1.00  0.00     0.195 C 
HETATM   26  O6  UNL     1       1.435   1.033  -2.515  1.00  0.00    -0.289 OA
ENDROOT
BRANCH  24  27
HETATM   27  C18 UNL     1       2.417  -0.278   0.467  1.00  0.00     0.033 C 
BRANCH  27  28
HETATM   28  C19 UNL     1       3.687  -0.181  -0.352  1.00  0.00     0.002 C 
BRANCH  28  29
HETATM   29  C20 UNL     1       4.923  -0.229   0.519  1.00  0.00     0.001 C 
BRANCH  29  30
HETATM   30  C21 UNL     1       6.118  -0.149  -0.434  1.00  0.00     0.010 C 
BRANCH  30  31
HETATM   31  C22 UNL     1       7.427  -0.222   0.343  1.00  0.00     0.113 C 
BRANCH  31  32
HETATM   32  C23 UNL     1       8.529  -0.133  -0.640  1.00  0.00     0.172 C 
HETATM   33  O4  UNL     1       9.197   0.903  -0.809  1.00  0.00    -0.648 OA
HETATM   34  O5  UNL     1       8.819  -1.255  -1.404  1.00  0.00    -0.648 OA
ENDBRANCH  31  32
ENDBRANCH  30  31
ENDBRANCH  29  30
ENDBRANCH  28  29
ENDBRANCH  27  28
ENDBRANCH  24  27
BRANCH   8  35
HETATM   35  C4  UNL     1      -1.907   5.128  -0.836  1.00  0.00     0.196 C 
HETATM   36  O1  UNL     1      -1.219   6.113  -0.453  1.00  0.00    -0.646 OA
HETATM   37  O2  UNL     1      -2.916   5.389  -1.751  1.00  0.00    -0.646 OA
ENDBRANCH   8  35
TORSDOF 7
