REMARK  11 active torsions:
REMARK  status: ('A' for Active; 'I' for Inactive)
REMARK    1  A    between atoms: O1_2  and  C2_3 
REMARK    2  A    between atoms: C2_3  and  C3_5 
REMARK    3  A    between atoms: C3_5  and  C4_6 
REMARK    4  A    between atoms: C6_8  and  O3_9 
REMARK    5  A    between atoms: C6_8  and  C7_11 
REMARK    6  A    between atoms: C7_11  and  C8_12 
REMARK    7  A    between atoms: C15_20  and  C16_21 
REMARK    8  A    between atoms: C16_21  and  C18_23 
REMARK    9  A    between atoms: C18_23  and  C19_24 
REMARK   10  A    between atoms: C24_31  and  O7_32 
REMARK   11  A    between atoms: C25_34  and  O8_35 
ROOT
HETATM    1  C4  UNL     1      -2.559  -1.325   1.069  1.00  0.00     0.029 C 
HETATM    2  C5  UNL     1      -2.790  -0.114   0.244  1.00  0.00     0.046 C 
HETATM    3  C6  UNL     1      -1.970   1.117   0.693  1.00  0.00     0.069 C 
HETATM    4  C10 UNL     1      -0.600   1.048   0.070  1.00  0.00     0.027 C 
HETATM    5  C11 UNL     1       0.353   1.931   0.778  1.00  0.00     0.009 C 
HETATM    6  C12 UNL     1       1.821   1.488   0.722  1.00  0.00     0.010 C 
HETATM    7  C13 UNL     1       2.136   1.010  -0.619  1.00  0.00    -0.036 C 
HETATM    8  C14 UNL     1       1.798   2.078  -1.675  1.00  0.00     0.016 C 
HETATM    9  C15 UNL     1       3.453   0.533  -1.006  1.00  0.00    -0.002 C 
HETATM   10  C20 UNL     1       3.110  -0.214  -2.316  1.00  0.00     0.006 C 
HETATM   11  C21 UNL     1       1.630  -0.581  -2.214  1.00  0.00     0.006 C 
HETATM   12  C22 UNL     1       1.324  -0.241  -0.804  1.00  0.00     0.001 C 
HETATM   13  C23 UNL     1      -0.077  -0.274  -0.347  1.00  0.00     0.029 C 
HETATM   14  C24 UNL     1      -0.248  -1.470   0.507  1.00  0.00     0.152 C 
HETATM   15  C25 UNL     1      -1.601  -2.174   0.315  1.00  0.00     0.152 C 
ENDROOT
BRANCH   3  16
HETATM   16  O3  UNL     1      -1.995   1.299   2.056  1.00  0.00    -0.389 OA
ATOM     17  H3  UNL     1      -1.491   2.056   2.332  1.00  0.00     0.210 HD
ENDBRANCH   3  16
BRANCH   3  18
HETATM   18  C7  UNL     1      -2.869   2.208   0.149  1.00  0.00     0.115 C 
BRANCH  18  19
HETATM   19  C8  UNL     1      -2.587   3.587   0.386  1.00  0.00     0.126 C 
HETATM   20  C9  UNL     1      -3.371   4.592  -0.462  1.00  0.00     0.091 C 
HETATM   21  O4  UNL     1      -1.826   4.080   1.153  1.00  0.00    -0.298 OA
ENDBRANCH  18  19
ENDBRANCH   3  18
BRANCH   1  22
HETATM   22  C3  UNL     1      -3.772  -2.047   1.535  1.00  0.00     0.118 C 
BRANCH  22  23
HETATM   23  C2  UNL     1      -4.702  -2.548   0.541  1.00  0.00     0.258 C 
HETATM   24  O2  UNL     1      -4.593  -2.398  -0.692  1.00  0.00    -0.265 OA
BRANCH  23  25
HETATM   25  O1  UNL     1      -5.818  -3.257   0.970  1.00  0.00    -0.326 OA
HETATM   26  C1  UNL     1      -6.766  -3.769   0.023  1.00  0.00     0.213 C 
ENDBRANCH  23  25
ENDBRANCH  22  23
ENDBRANCH   1  22
BRANCH  15  27
HETATM   27  O8  UNL     1      -1.862  -2.335  -1.029  1.00  0.00    -0.393 OA
ATOM     28  H8  UNL     1      -1.249  -2.878  -1.511  1.00  0.00     0.210 HD
ENDBRANCH  15  27
BRANCH  14  29
HETATM   29  O7  UNL     1       0.042  -1.433   1.816  1.00  0.00    -0.393 OA
ATOM     30  H7  UNL     1      -0.068  -2.201   2.364  1.00  0.00     0.210 HD
ENDBRANCH  14  29
BRANCH   9  31
HETATM   31  C16 UNL     1       4.349  -0.308  -0.264  1.00  0.00    -0.004 C 
HETATM   32  C17 UNL     1       5.594  -0.502  -1.168  1.00  0.00     0.011 C 
BRANCH  31  33
HETATM   33  C18 UNL     1       4.921   0.145   1.042  1.00  0.00     0.117 C 
BRANCH  33  34
HETATM   34  C19 UNL     1       5.832  -0.864   1.647  1.00  0.00     0.172 C 
HETATM   35  O5  UNL     1       6.864  -1.316   1.097  1.00  0.00    -0.648 OA
HETATM   36  O6  UNL     1       5.580  -1.398   2.929  1.00  0.00    -0.648 OA
ENDBRANCH  33  34
ENDBRANCH  31  33
ENDBRANCH   9  31
TORSDOF 11
