REMARK  9 active torsions:
REMARK  status: ('A' for Active; 'I' for Inactive)
REMARK    1  A    between atoms: C2_2  and  C5_5 
REMARK    2  A    between atoms: C5_5  and  C6_7 
REMARK    3  A    between atoms: C6_7  and  O2_8 
REMARK    4  A    between atoms: C6_7  and  N1_10 
REMARK    5  A    between atoms: N1_10  and  C7_12 
REMARK    6  A    between atoms: C9_14  and  C10_15 
REMARK    7  A    between atoms: C10_15  and  N2_16 
REMARK    8  A    between atoms: C10_15  and  C22_30 
REMARK       I    between atoms: N2_16  and  C11_18 
REMARK    9  A    between atoms: C11_18  and  C12_20 
ROOT
HETATM    1  C10 UNL     1      -0.275  -1.087   1.354  1.00  0.00     0.214 C 
ENDROOT
BRANCH   1   2
HETATM    2  C9  UNL     1       0.871  -1.142   0.399  1.00  0.00     0.158 C 
HETATM    3  C8  UNL     1       1.506   0.176   0.095  1.00  0.00     0.070 C 
HETATM    4  C7  UNL     1       2.587  -0.076  -0.969  1.00  0.00     0.146 C 
HETATM    5  S1  UNL     1       1.576  -0.396  -2.485  1.00  0.00    -0.118 SA
HETATM    6  C23 UNL     1       0.098  -1.239  -1.789  1.00  0.00     0.244 C 
HETATM    7  O6  UNL     1       0.519  -1.912  -0.676  1.00  0.00    -0.373 OA
BRANCH   4   8
HETATM    8  N1  UNL     1       3.446   1.037  -1.176  1.00  0.00    -0.378 N 
ATOM      9  H1  UNL     1       3.490   1.510  -2.079  1.00  0.00     0.157 HD
BRANCH   8  10
HETATM   10  C6  UNL     1       4.242   1.468  -0.080  1.00  0.00     0.286 C 
BRANCH  10  11
HETATM   11  C5  UNL     1       5.235   0.507   0.422  1.00  0.00     0.182 C 
HETATM   12  O1  UNL     1       4.887  -0.577   0.843  1.00  0.00    -0.292 OA
BRANCH  11  13
HETATM   13  C2  UNL     1       6.704   0.792   0.448  1.00  0.00     0.014 C 
HETATM   14  C1  UNL     1       7.238   1.064  -0.938  1.00  0.00     0.023 C 
HETATM   15  C3  UNL     1       6.899   2.017   1.315  1.00  0.00     0.023 C 
HETATM   16  C4  UNL     1       7.485  -0.344   1.068  1.00  0.00     0.023 C 
ENDBRANCH  11  13
ENDBRANCH  10  11
BRANCH  10  17
HETATM   17  O2  UNL     1       4.872   2.687  -0.459  1.00  0.00    -0.370 OA
ATOM     18  H2  UNL     1       4.230   3.308  -0.783  1.00  0.00     0.212 HD
ENDBRANCH  10  17
ENDBRANCH   8  10
ENDBRANCH   4   8
ENDBRANCH   1   2
BRANCH   1  19
HETATM   19  N2  UNL     1      -1.490  -0.542   0.840  1.00  0.00    -0.344 N 
HETATM   20  C11 UNL     1      -2.689  -1.312   0.823  1.00  0.00     0.227 C 
HETATM   21  O3  UNL     1      -2.624  -2.484   1.279  1.00  0.00    -0.273 OA
ATOM     22  H2  UNL     1      -1.500   0.412   0.480  1.00  0.00     0.163 HD
BRANCH  20  23
HETATM   23  C12 UNL     1      -3.971  -0.778   0.296  1.00  0.00     0.042 C 
HETATM   24  C13 UNL     1      -3.819  -0.391  -1.161  1.00  0.00     0.024 C 
HETATM   25  C14 UNL     1      -5.123   0.021  -1.757  1.00  0.00    -0.013 C 
HETATM   26  C15 UNL     1      -5.707   1.186  -0.997  1.00  0.00     0.009 C 
HETATM   27  C19 UNL     1      -6.093  -1.134  -1.688  1.00  0.00     0.009 C 
HETATM   28  C16 UNL     1      -5.809   0.807   0.446  1.00  0.00    -0.013 C 
HETATM   29  C17 UNL     1      -6.846  -0.305   0.544  1.00  0.00     0.009 C 
HETATM   30  C21 UNL     1      -4.495   0.396   1.061  1.00  0.00     0.024 C 
HETATM   31  C18 UNL     1      -6.308  -1.489  -0.253  1.00  0.00    -0.013 C 
HETATM   32  C20 UNL     1      -5.001  -1.877   0.365  1.00  0.00     0.024 C 
ENDBRANCH  20  23
ENDBRANCH   1  19
BRANCH   1  33
HETATM   33  C22 UNL     1       0.143  -0.328   2.580  1.00  0.00     0.199 C 
HETATM   34  O4  UNL     1      -0.513   0.633   3.042  1.00  0.00    -0.646 OA
HETATM   35  O5  UNL     1       1.303  -0.694   3.246  1.00  0.00    -0.646 OA
ENDBRANCH   1  33
TORSDOF 9
