REMARK  13 active torsions:
REMARK  status: ('A' for Active; 'I' for Inactive)
REMARK    1  A    between atoms: C3_3  and  C4_4 
REMARK    2  A    between atoms: C5_6  and  C6_7 
REMARK    3  A    between atoms: C6_7  and  C7_8 
REMARK    4  A    between atoms: C7_8  and  O2_9 
REMARK    5  A    between atoms: O2_9  and  C8_10 
REMARK    6  A    between atoms: C10_13  and  N1_14 
REMARK    7  A    between atoms: N1_14  and  C11_17 
REMARK    8  A    between atoms: C11_17  and  C12_18 
REMARK    9  A    between atoms: C14_20  and  C15_21 
REMARK   10  A    between atoms: C18_24  and  O4_25 
REMARK   11  A    between atoms: C19_27  and  C20_28 
REMARK   12  A    between atoms: C25_33  and  O5_34 
REMARK   13  A    between atoms: C26_36  and  O6_37 
ROOT
HETATM    1  C1  UNL     1       7.905   0.871  -3.091  1.00  0.00     0.112 C 
HETATM    2  C2  UNL     1       6.612   0.470  -2.524  1.00  0.00    -0.108 C 
HETATM    3  C3  UNL     1       5.549   0.126  -2.073  1.00  0.00    -0.072 C 
ENDROOT
BRANCH   3   4
HETATM    4  C4  UNL     1       4.251  -0.314  -1.535  1.00  0.00     0.231 C 
HETATM    5  O1  UNL     1       3.571   0.806  -1.080  1.00  0.00    -0.363 OA
HETATM    6  C5  UNL     1       2.494   0.446  -0.325  1.00  0.00     0.158 C 
HETATM    7  C10 UNL     1       1.753  -0.775  -0.718  1.00  0.00     0.246 C 
HETATM    8  C25 UNL     1       2.120  -1.391  -2.026  1.00  0.00     0.183 C 
HETATM    9  C26 UNL     1       3.393  -0.900  -2.640  1.00  0.00     0.190 C 
BRANCH   6  10
HETATM   10  C6  UNL     1       3.015   0.268   1.112  1.00  0.00     0.061 C 
BRANCH  10  11
HETATM   11  C7  UNL     1       3.607   1.558   1.611  1.00  0.00     0.181 C 
BRANCH  11  12
HETATM   12  O2  UNL     1       4.070   1.398   2.918  1.00  0.00    -0.322 OA
BRANCH  12  13
HETATM   13  C8  UNL     1       5.059   0.569   3.354  1.00  0.00     0.254 C 
HETATM   14  C9  UNL     1       5.400   0.545   4.817  1.00  0.00     0.126 C 
HETATM   15  O3  UNL     1       5.668  -0.156   2.543  1.00  0.00    -0.266 OA
ENDBRANCH  12  13
ENDBRANCH  11  12
ENDBRANCH  10  11
ENDBRANCH   6  10
BRANCH   7  16
HETATM   16  N1  UNL     1       0.292  -0.568  -0.764  1.00  0.00    -0.062 N 
ATOM     17  H12 UNL     1       0.039   0.124  -1.469  1.00  0.00     0.278 HD
ATOM     18  H11 UNL     1      -0.184  -1.380  -1.157  1.00  0.00     0.278 HD
BRANCH  16  19
HETATM   19  C11 UNL     1      -0.249  -0.220   0.524  1.00  0.00     0.271 C 
BRANCH  19  20
HETATM   20  C12 UNL     1      -1.732  -0.052   0.434  1.00  0.00    -0.032 A 
HETATM   21  C13 UNL     1      -2.275   1.173   0.116  1.00  0.00     0.019 A 
HETATM   22  C14 UNL     1      -3.661   1.349   0.027  1.00  0.00    -0.020 A 
HETATM   23  C18 UNL     1      -4.439   0.257   0.271  1.00  0.00     0.079 A 
HETATM   24  C19 UNL     1      -3.933  -0.987   0.593  1.00  0.00    -0.016 A 
HETATM   25  C24 UNL     1      -2.567  -1.135   0.674  1.00  0.00     0.019 A 
BRANCH  22  26
HETATM   26  C15 UNL     1      -4.268   2.657  -0.325  1.00  0.00     0.013 C 
HETATM   27  C16 UNL     1      -3.114   3.671  -0.339  1.00  0.00     0.015 C 
HETATM   28  C17 UNL     1      -4.947   2.621  -1.673  1.00  0.00     0.015 C 
ENDBRANCH  22  26
BRANCH  23  29
HETATM   29  O4  UNL     1      -5.808   0.322   0.212  1.00  0.00    -0.360 OA
ATOM     30  H4  UNL     1      -6.350  -0.439   0.382  1.00  0.00     0.217 HD
ENDBRANCH  23  29
BRANCH  24  31
HETATM   31  C20 UNL     1      -4.776  -2.148   0.850  1.00  0.00    -0.021 C 
HETATM   32  C21 UNL     1      -3.939  -3.392   1.184  1.00  0.00     0.019 C 
HETATM   33  C22 UNL     1      -5.643  -1.845   2.053  1.00  0.00     0.019 C 
HETATM   34  C23 UNL     1      -5.675  -2.546  -0.276  1.00  0.00     0.019 C 
ENDBRANCH  24  31
ENDBRANCH  19  20
ENDBRANCH  16  19
ENDBRANCH   7  16
BRANCH   8  35
HETATM   35  O5  UNL     1       1.097  -1.236  -2.986  1.00  0.00    -0.391 OA
ATOM     36  H5  UNL     1       1.331  -1.628  -3.819  1.00  0.00     0.210 HD
ENDBRANCH   8  35
BRANCH   9  37
HETATM   37  O6  UNL     1       4.072  -1.895  -3.340  1.00  0.00    -0.389 OA
ATOM     38  H6  UNL     1       3.535  -2.262  -4.032  1.00  0.00     0.210 HD
ENDBRANCH   9  37
ENDBRANCH   3   4
TORSDOF 13
