REMARK  3 active torsions:
REMARK  status: ('A' for Active; 'I' for Inactive)
REMARK    1  A    between atoms: N1_1  and  C1_5 
REMARK    2  A    between atoms: C4_8  and  N2_9 
REMARK    3  A    between atoms: N2_9  and  C5_12 
ROOT
HETATM    1  C1  UNL     1       2.937  -0.159   0.412  1.00  0.00     0.217 C 
HETATM    2  C2  UNL     1       1.990  -1.023   1.162  1.00  0.00     0.038 C 
HETATM    3  C3  UNL     1       0.611  -1.106   0.697  1.00  0.00     0.035 C 
HETATM    4  C4  UNL     1       0.205  -0.528  -0.595  1.00  0.00     0.189 C 
HETATM    5  C9  UNL     1       1.184   0.564  -1.087  1.00  0.00     0.072 C 
HETATM    6  C10 UNL     1       2.550   0.012  -1.053  1.00  0.00     0.202 C 
HETATM    7  F1  UNL     1       3.451   0.890  -1.617  1.00  0.00    -0.247 F 
ENDROOT
BRANCH   4   8
HETATM    8  N2  UNL     1      -1.034   0.209  -0.540  1.00  0.00    -0.067 N 
ATOM      9  H22 UNL     1      -0.927   1.040   0.041  1.00  0.00     0.278 HD
ATOM     10  H21 UNL     1      -1.226   0.648  -1.441  1.00  0.00     0.278 HD
BRANCH   8  11
HETATM   11  C5  UNL     1      -2.166  -0.559  -0.108  1.00  0.00     0.186 C 
HETATM   12  C6  UNL     1      -3.392  -0.149  -0.888  1.00  0.00     0.033 C 
HETATM   13  C7  UNL     1      -3.346   1.134  -0.042  1.00  0.00     0.004 C 
HETATM   14  C8  UNL     1      -2.787   0.233   1.056  1.00  0.00     0.033 C 
ENDBRANCH   8  11
ENDBRANCH   4   8
BRANCH   1  15
HETATM   15  N1  UNL     1       3.096   1.135   1.063  1.00  0.00    -0.072 N 
ATOM     16  H13 UNL     1       2.198   1.597   1.204  1.00  0.00     0.274 HD
ATOM     17  H12 UNL     1       3.374   1.033   2.039  1.00  0.00     0.274 HD
ATOM     18  H11 UNL     1       3.746   1.728   0.548  1.00  0.00     0.274 HD
ENDBRANCH   1  15
TORSDOF 3
