REMARK  3 active torsions:
REMARK  status: ('A' for Active; 'I' for Inactive)
REMARK    1  A    between atoms: C1_2  and  N2_4 
REMARK    2  A    between atoms: N2_4  and  N3_6 
REMARK    3  A    between atoms: C2_8  and  C3_9 
ROOT
HETATM    1  N3  UNL     1       1.519  -1.077   0.702  1.00  0.00    -0.314 N 
ATOM      2  H3  UNL     1       2.119  -1.897   0.790  1.00  0.00     0.185 HD
HETATM    3  C2  UNL     1       0.266  -1.166   0.962  1.00  0.00     0.084 C 
ENDROOT
BRANCH   1   4
HETATM    4  N2  UNL     1       2.053   0.127   0.304  1.00  0.00    -0.279 N 
ATOM      5  H2  UNL     1       1.602   1.006   0.555  1.00  0.00     0.189 HD
BRANCH   4   6
HETATM    6  C1  UNL     1       3.246   0.117  -0.464  1.00  0.00     0.199 C 
HETATM    7  N1  UNL     1       3.786   1.365  -0.868  1.00  0.00    -0.068 NA
HETATM    8  S1  UNL     1       4.008  -1.255  -0.895  1.00  0.00    -0.043 SA
ENDBRANCH   4   6
ENDBRANCH   1   4
BRANCH   3   9
HETATM    9  C3  UNL     1      -0.608   0.018   0.836  1.00  0.00     0.025 C 
HETATM   10  C4  UNL     1      -0.725   0.378  -0.631  1.00  0.00     0.010 C 
HETATM   11  C5  UNL     1      -2.209   0.287  -0.942  1.00  0.00     0.001 C 
HETATM   12  C6  UNL     1      -2.642  -0.832  -0.017  1.00  0.00     0.001 C 
HETATM   13  C7  UNL     1      -1.994  -0.374   1.294  1.00  0.00     0.010 C 
ENDBRANCH   3   9
TORSDOF 3
