REMARK  3 active torsions:
REMARK  status: ('A' for Active; 'I' for Inactive)
REMARK    1  A    between atoms: C2_2  and  C3_3 
REMARK    2  A    between atoms: C3_3  and  C4_4 
REMARK    3  A    between atoms: C4_4  and  N1_5 
ROOT
HETATM    1  C4  UNL     1      -0.026  -0.582   0.774  1.00  0.00     0.176 C 
HETATM    2  C5  UNL     1       0.689  -0.690  -0.559  1.00  0.00     0.129 C 
HETATM    3  C6  UNL     1       2.199  -0.771  -0.359  1.00  0.00     0.247 C 
HETATM    4  F1  UNL     1       2.515  -1.609   0.699  1.00  0.00    -0.206 F 
HETATM    5  F2  UNL     1       2.734  -1.345  -1.497  1.00  0.00    -0.206 F 
HETATM    6  C7  UNL     1       2.802   0.600  -0.195  1.00  0.00     0.089 C 
HETATM    7  C8  UNL     1       1.938   1.501   0.682  1.00  0.00     0.082 C 
HETATM    8  S1  UNL     1       1.140   0.337   1.862  1.00  0.00    -0.130 SA
ENDROOT
BRANCH   1   9
HETATM    9  C3  UNL     1      -1.210   0.351   0.636  1.00  0.00     0.050 C 
BRANCH   9  10
HETATM   10  C2  UNL     1      -2.286  -0.199  -0.245  1.00  0.00    -0.001 C 
HETATM   11  C1  UNL     1      -3.404   0.824  -0.298  1.00  0.00     0.005 C 
ENDBRANCH   9  10
ENDBRANCH   1   9
BRANCH   1  12
HETATM   12  N1  UNL     1      -0.363  -1.853   1.332  1.00  0.00    -0.061 N 
ATOM     13  H13 UNL     1      -0.839  -1.739   2.227  1.00  0.00     0.276 HD
ATOM     14  H12 UNL     1      -1.110  -2.295   0.797  1.00  0.00     0.276 HD
ATOM     15  H11 UNL     1       0.435  -2.482   1.425  1.00  0.00     0.276 HD
ENDBRANCH   1  12
TORSDOF 3
