REMARK  12 active torsions:
REMARK  status: ('A' for Active; 'I' for Inactive)
REMARK    1  A    between atoms: C1_2  and  C2_3 
REMARK       I    between atoms: C1_2  and  N3_20 
REMARK    2  A    between atoms: C2_3  and  C3_4 
REMARK    3  A    between atoms: C7_8  and  C8_9 
REMARK    4  A    between atoms: C8_9  and  C9_10 
REMARK    5  A    between atoms: N3_20  and  C13_22 
REMARK    6  A    between atoms: C16_25  and  C17_26 
REMARK    7  A    between atoms: C17_26  and  C18_27 
REMARK    8  A    between atoms: C18_27  and  C19_28 
REMARK    9  A    between atoms: C19_28  and  C20_29 
REMARK   10  A    between atoms: C20_29  and  C21_30 
REMARK   11  A    between atoms: C23_36  and  C24_37 
REMARK   12  A    between atoms: C28_44  and  C29_45 
ROOT
HETATM    1  C17 UNL     1      -1.427   3.213  -1.891  1.00  0.00     0.027 C 
ENDROOT
BRANCH   1   2
HETATM    2  C16 UNL     1      -0.328   2.290  -2.039  1.00  0.00     0.048 A 
HETATM    3  C15 UNL     1       0.157   1.958  -3.294  1.00  0.00     0.035 A 
HETATM    4  C14 UNL     1       1.248   1.164  -3.417  1.00  0.00     0.052 A 
HETATM    5  C13 UNL     1       1.883   0.684  -2.285  1.00  0.00     0.122 A 
HETATM    6  N12 UNL     1       1.403   1.012  -1.090  1.00  0.00    -0.285 N 
HETATM    7  N11 UNL     1       0.343   1.782  -0.972  1.00  0.00    -0.299 N 
ATOM      8  H12 UNL     1       1.864   0.661  -0.251  1.00  0.00     0.188 HD
ATOM      9  H11 UNL     1       0.009   2.008  -0.035  1.00  0.00     0.187 HD
BRANCH   5  10
HETATM   10  N3  UNL     1       2.916  -0.061  -2.365  1.00  0.00    -0.312 N 
HETATM   11  C1  UNL     1       3.566  -0.552  -1.203  1.00  0.00     0.227 C 
HETATM   12  O1  UNL     1       3.259  -1.684  -0.780  1.00  0.00    -0.273 OA
ATOM     13  H3  UNL     1       3.282  -0.309  -3.284  1.00  0.00     0.170 HD
BRANCH  11  14
HETATM   14  C2  UNL     1       4.605   0.281  -0.502  1.00  0.00     0.141 C 
BRANCH  14  15
HETATM   15  C3  UNL     1       5.845  -0.527  -0.465  1.00  0.00    -0.049 A 
HETATM   16  C4  UNL     1       6.576  -0.571  -1.654  1.00  0.00     0.007 A 
HETATM   17  C5  UNL     1       7.749  -1.289  -1.700  1.00  0.00     0.001 A 
HETATM   18  C6  UNL     1       8.204  -1.966  -0.578  1.00  0.00     0.007 A 
HETATM   19  C7  UNL     1       7.494  -1.938   0.617  1.00  0.00    -0.055 A 
HETATM   20  C12 UNL     1       6.319  -1.205   0.626  1.00  0.00     0.014 A 
BRANCH  19  21
HETATM   21  C8  UNL     1       8.028  -2.676   1.786  1.00  0.00     0.073 C 
BRANCH  21  22
HETATM   22  C9  UNL     1       8.977  -1.887   2.630  1.00  0.00     0.183 C 
HETATM   23  N1  UNL     1       8.456  -0.699   3.207  1.00  0.00    -0.329 N 
HETATM   24  C10 UNL     1       8.960   0.377   2.433  1.00  0.00     0.323 C 
ATOM     25  H1  UNL     1       7.841  -0.633   4.018  1.00  0.00     0.165 HD
HETATM   26  O2  UNL     1       8.586   1.561   2.462  1.00  0.00    -0.247 OA
HETATM   27  N2  UNL     1      10.001  -0.096   1.579  1.00  0.00    -0.278 N 
HETATM   28  C11 UNL     1      10.155  -1.468   1.813  1.00  0.00     0.248 C 
ATOM     29  H2  UNL     1      10.537   0.465   0.917  1.00  0.00     0.173 HD
HETATM   30  O3  UNL     1      11.057  -2.240   1.446  1.00  0.00    -0.271 OA
ENDBRANCH  21  22
ENDBRANCH  19  21
ENDBRANCH  14  15
ENDBRANCH  11  14
ENDBRANCH   5  10
ENDBRANCH   1   2
BRANCH   1  31
HETATM   31  C18 UNL     1      -2.818   2.841  -2.071  1.00  0.00    -0.024 C 
BRANCH  31  32
HETATM   32  C19 UNL     1      -3.543   1.826  -1.314  1.00  0.00     0.035 C 
BRANCH  32  33
HETATM   33  C20 UNL     1      -3.077   0.428  -1.440  1.00  0.00     0.084 C 
BRANCH  33  34
HETATM   34  C21 UNL     1      -3.933  -0.557  -0.713  1.00  0.00     0.120 A 
HETATM   35  N4  UNL     1      -3.707  -1.878  -0.679  1.00  0.00    -0.286 N 
HETATM   36  N5  UNL     1      -4.646  -2.471   0.014  1.00  0.00    -0.281 N 
ATOM     37  H4  UNL     1      -2.921  -2.350  -1.126  1.00  0.00     0.188 HD
HETATM   38  C22 UNL     1      -5.507  -1.545   0.448  1.00  0.00     0.172 A 
ATOM     39  H5  UNL     1      -4.710  -3.473   0.193  1.00  0.00     0.188 HD
HETATM   40  C23 UNL     1      -6.633  -1.586   1.179  1.00  0.00     0.099 A 
HETATM   41  N10 UNL     1      -5.051  -0.336  -0.013  1.00  0.00    -0.221 N 
HETATM   42  N6  UNL     1      -7.326  -0.459   1.471  1.00  0.00    -0.334 N 
HETATM   43  C28 UNL     1      -6.889   0.726   1.027  1.00  0.00     0.166 A 
ATOM     44  H6  UNL     1      -8.179  -0.513   2.028  1.00  0.00     0.168 HD
HETATM   45  N9  UNL     1      -5.747   0.722   0.291  1.00  0.00    -0.273 N 
ATOM     46  H9  UNL     1      -5.407   1.621  -0.051  1.00  0.00     0.189 HD
BRANCH  40  47
HETATM   47  C24 UNL     1      -7.199  -2.843   1.691  1.00  0.00     0.035 A 
HETATM   48  C25 UNL     1      -6.789  -4.135   1.578  1.00  0.00     0.022 A 
HETATM   49  C26 UNL     1      -7.528  -5.094   2.152  1.00  0.00     0.008 A 
HETATM   50  C27 UNL     1      -8.658  -4.703   2.822  1.00  0.00     0.050 A 
HETATM   51  S1  UNL     1      -8.650  -3.012   2.628  1.00  0.00    -0.100 SA
ENDBRANCH  40  47
BRANCH  43  52
HETATM   52  C29 UNL     1      -7.591   1.968   1.284  1.00  0.00     0.151 A 
HETATM   53  N7  UNL     1      -7.109   3.123   0.820  1.00  0.00    -0.349 N 
HETATM   54  C30 UNL     1      -7.686   4.318   0.989  1.00  0.00     0.091 A 
ATOM     55  H7  UNL     1      -6.234   3.092   0.297  1.00  0.00     0.167 HD
HETATM   56  C31 UNL     1      -8.878   4.352   1.703  1.00  0.00     0.034 A 
HETATM   57  C32 UNL     1      -9.398   3.169   2.194  1.00  0.00     0.091 A 
HETATM   58  N8  UNL     1      -8.740   1.986   1.975  1.00  0.00    -0.349 N 
ATOM     59  H8  UNL     1      -9.127   1.115   2.340  1.00  0.00     0.167 HD
ENDBRANCH  43  52
ENDBRANCH  33  34
ENDBRANCH  32  33
ENDBRANCH  31  32
ENDBRANCH   1  31
TORSDOF 12
