REMARK  12 active torsions:
REMARK  status: ('A' for Active; 'I' for Inactive)
REMARK    1  A    between atoms: C2_2  and  N1_3 
REMARK    2  A    between atoms: N1_3  and  C3_4 
REMARK    3  A    between atoms: N1_3  and  S2_36 
REMARK    4  A    between atoms: C6_7  and  C7_8 
REMARK    5  A    between atoms: C8_9  and  C9_10 
REMARK    6  A    between atoms: C8_9  and  C17_25 
REMARK    7  A    between atoms: C9_10  and  S1_11 
REMARK    8  A    between atoms: S1_11  and  C10_12 
REMARK    9  A    between atoms: N5_18  and  C11_19 
REMARK   10  A    between atoms: S2_36  and  C23_39 
REMARK   11  A    between atoms: C25_43  and  S3_44 
REMARK   12  A    between atoms: S3_44  and  N9_45 
ROOT
HETATM    1  C7  UNL     1       1.653   0.214   1.004  1.00  0.00     0.020 C 
HETATM    2  C8  UNL     1       2.633   1.019   0.853  1.00  0.00    -0.030 C 
ENDROOT
BRANCH   1   3
HETATM    3  C6  UNL     1       0.255   0.475   0.872  1.00  0.00    -0.035 A 
HETATM    4  C5  UNL     1      -0.554  -0.399   0.136  1.00  0.00     0.013 A 
HETATM    5  C4  UNL     1      -1.901  -0.158   0.097  1.00  0.00     0.031 A 
HETATM    6  C3  UNL     1      -2.510   0.886   0.734  1.00  0.00     0.045 A 
HETATM    7  C22 UNL     1      -1.695   1.734   1.452  1.00  0.00     0.031 A 
HETATM    8  C21 UNL     1      -0.337   1.562   1.541  1.00  0.00     0.013 A 
BRANCH   6   9
HETATM    9  N1  UNL     1      -3.901   1.103   0.673  1.00  0.00    -0.272 N 
BRANCH   9  10
HETATM   10  C2  UNL     1      -4.408   1.937  -0.398  1.00  0.00     0.137 C 
HETATM   11  C1  UNL     1      -4.432   3.397   0.005  1.00  0.00     0.028 C 
ENDBRANCH   9  10
BRANCH   9  12
HETATM   12  S2  UNL     1      -4.930   0.399   1.831  1.00  0.00     0.273 S 
HETATM   13  O2  UNL     1      -5.695   1.463   2.598  1.00  0.00    -0.199 OA
HETATM   14  O3  UNL     1      -4.087  -0.341   2.853  1.00  0.00    -0.199 OA
BRANCH  12  15
HETATM   15  C23 UNL     1      -6.090  -0.704   1.117  1.00  0.00     0.138 A 
HETATM   16  C24 UNL     1      -7.458  -0.624   1.151  1.00  0.00     0.122 A 
HETATM   17  N8  UNL     1      -8.129  -1.556   0.553  1.00  0.00    -0.348 N 
HETATM   18  C25 UNL     1      -7.509  -2.537  -0.061  1.00  0.00     0.192 A 
ATOM     19  H8  UNL     1      -9.149  -1.528   0.559  1.00  0.00     0.166 HD
HETATM   20  S4  UNL     1      -5.855  -2.134   0.215  1.00  0.00    -0.044 SA
BRANCH  18  21
HETATM   21  S3  UNL     1      -8.179  -3.918  -0.945  1.00  0.00     0.279 S 
HETATM   22  O4  UNL     1      -9.558  -4.139  -0.352  1.00  0.00    -0.199 OA
HETATM   23  O5  UNL     1      -7.291  -5.086  -0.765  1.00  0.00    -0.199 OA
BRANCH  21  24
HETATM   24  N9  UNL     1      -8.390  -3.581  -2.597  1.00  0.00    -0.323 N 
ATOM     25  H92 UNL     1      -8.153  -2.682  -3.016  1.00  0.00     0.169 HD
ATOM     26  H91 UNL     1      -8.776  -4.376  -3.106  1.00  0.00     0.169 HD
ENDBRANCH  21  24
ENDBRANCH  18  21
ENDBRANCH  12  15
ENDBRANCH   9  12
ENDBRANCH   6   9
ENDBRANCH   1   3
BRANCH   2  27
HETATM   27  C9  UNL     1       4.015   0.405   1.090  1.00  0.00     0.122 C 
BRANCH  27  28
HETATM   28  S1  UNL     1       4.979   0.555  -0.426  1.00  0.00    -0.086 SA
BRANCH  28  29
HETATM   29  C10 UNL     1       4.227  -0.511  -1.666  1.00  0.00     0.180 A 
HETATM   30  N2  UNL     1       3.264  -0.184  -2.517  1.00  0.00    -0.261 N 
HETATM   31  N3  UNL     1       2.992  -1.237  -3.266  1.00  0.00    -0.004 NA
ATOM     32  H2  UNL     1       2.810   0.727  -2.582  1.00  0.00     0.186 HD
HETATM   33  N4  UNL     1       3.798  -2.207  -2.864  1.00  0.00    -0.217 N 
HETATM   34  N5  UNL     1       4.564  -1.781  -1.883  1.00  0.00    -0.220 N 
ATOM     35  H4  UNL     1       3.822  -3.148  -3.258  1.00  0.00     0.206 HD
BRANCH  34  36
HETATM   36  C11 UNL     1       5.550  -2.549  -1.215  1.00  0.00     0.060 A 
HETATM   37  C12 UNL     1       6.850  -2.086  -1.210  1.00  0.00     0.031 A 
HETATM   38  C13 UNL     1       7.852  -2.777  -0.586  1.00  0.00     0.002 A 
HETATM   39  C14 UNL     1       7.622  -3.980   0.074  1.00  0.00     0.000 A 
HETATM   40  C15 UNL     1       6.310  -4.432   0.059  1.00  0.00     0.002 A 
HETATM   41  C16 UNL     1       5.292  -3.733  -0.572  1.00  0.00     0.031 A 
ENDBRANCH  34  36
ENDBRANCH  28  29
ENDBRANCH  27  28
ENDBRANCH   2  27
BRANCH   2  42
HETATM   42  C17 UNL     1       2.597   2.362   0.318  1.00  0.00     0.064 A 
HETATM   43  C18 UNL     1       3.446   3.417   0.680  1.00  0.00     0.038 A 
HETATM   44  C19 UNL     1       4.416   3.423   1.792  1.00  0.00     0.071 C 
HETATM   45  N6  UNL     1       3.215   4.449  -0.127  1.00  0.00    -0.301 N 
HETATM   46  N7  UNL     1       2.288   4.121  -0.966  1.00  0.00    -0.266 N 
ATOM     47  H6  UNL     1       3.691   5.350  -0.090  1.00  0.00     0.186 HD
HETATM   48  C20 UNL     1       1.874   2.855  -0.740  1.00  0.00     0.272 A 
ATOM     49  H7  UNL     1       1.921   4.732  -1.696  1.00  0.00     0.190 HD
HETATM   50  O1  UNL     1       0.977   2.348  -1.460  1.00  0.00    -0.266 OA
ENDBRANCH   2  42
TORSDOF 12
