REMARK  13 active torsions:
REMARK  status: ('A' for Active; 'I' for Inactive)
REMARK       I    between atoms: C2_2  and  N1_4 
REMARK    1  A    between atoms: N1_4  and  C3_5 
REMARK    2  A    between atoms: C3_5  and  C4_6 
REMARK    3  A    between atoms: C3_5  and  C13_30 
REMARK       I    between atoms: C4_6  and  N2_8 
REMARK    4  A    between atoms: C5_10  and  C6_11 
REMARK    5  A    between atoms: C5_10  and  C10_18 
REMARK    6  A    between atoms: C6_11  and  C7_12 
REMARK    7  A    between atoms: C11_20  and  N4_21 
REMARK    8  A    between atoms: C12_26  and  N6_27 
REMARK    9  A    between atoms: C16_33  and  C17_34 
REMARK   10  A    between atoms: C17_34  and  C18_35 
REMARK   11  A    between atoms: C17_34  and  S3_38 
REMARK   12  A    between atoms: S3_38  and  C19_41 
REMARK   13  A    between atoms: C19_41  and  C20_42 
ROOT
HETATM    1  C3  UNL     1      -1.694  -0.881  -0.275  1.00  0.00     0.195 C 
ENDROOT
BRANCH   1   2
HETATM    2  N1  UNL     1      -2.304  -1.815   0.123  1.00  0.00    -0.364 NA
HETATM    3  C2  UNL     1      -3.010  -2.849   0.558  1.00  0.00     0.288 C 
HETATM    4  C1  UNL     1      -2.581  -4.294   0.407  1.00  0.00     0.135 C 
HETATM    5  O1  UNL     1      -4.138  -2.669   1.152  1.00  0.00    -0.258 OA
ENDBRANCH   1   2
BRANCH   1   6
HETATM    6  C4  UNL     1      -2.378   0.207  -1.026  1.00  0.00     0.288 C 
HETATM    7  O2  UNL     1      -1.650   1.175  -1.419  1.00  0.00    -0.264 OA
HETATM    8  N2  UNL     1      -3.692   0.160  -1.275  1.00  0.00    -0.323 N 
HETATM    9  C5  UNL     1      -4.788   0.643  -0.800  1.00  0.00     0.039 C 
ATOM     10  H2  UNL     1      -3.883  -0.436  -2.081  1.00  0.00     0.169 HD
BRANCH   9  11
HETATM   11  C6  UNL     1      -6.013   0.216  -1.536  1.00  0.00     0.116 C 
BRANCH  11  12
HETATM   12  C7  UNL     1      -5.571  -0.707  -2.688  1.00  0.00     0.021 A 
HETATM   13  C8  UNL     1      -5.194  -0.200  -3.900  1.00  0.00     0.076 A 
HETATM   14  S1  UNL     1      -4.808  -1.642  -4.761  1.00  0.00    -0.095 SA
HETATM   15  C9  UNL     1      -5.153  -2.772  -3.527  1.00  0.00     0.138 A 
HETATM   16  N3  UNL     1      -5.541  -1.991  -2.531  1.00  0.00    -0.363 N 
ATOM     17  H3  UNL     1      -5.817  -2.402  -1.639  1.00  0.00     0.165 HD
ENDBRANCH  11  12
ENDBRANCH   9  11
BRANCH   9  18
HETATM   18  C10 UNL     1      -4.666   1.500   0.366  1.00  0.00     0.081 A 
HETATM   19  S2  UNL     1      -3.106   1.766   1.162  1.00  0.00    -0.049 SA
HETATM   20  C11 UNL     1      -3.609   2.762   2.404  1.00  0.00     0.144 A 
HETATM   21  N5  UNL     1      -4.898   2.871   2.202  1.00  0.00    -0.317 N 
HETATM   22  C12 UNL     1      -5.479   2.239   1.167  1.00  0.00     0.195 A 
ATOM     23  H5  UNL     1      -5.464   3.438   2.833  1.00  0.00     0.169 HD
BRANCH  20  24
HETATM   24  N4  UNL     1      -2.914   3.329   3.377  1.00  0.00    -0.380 N 
ATOM     25  H42 UNL     1      -1.910   3.244   3.534  1.00  0.00     0.158 HD
ATOM     26  H41 UNL     1      -3.221   3.937   4.136  1.00  0.00     0.158 HD
ENDBRANCH  20  24
BRANCH  22  27
HETATM   27  N6  UNL     1      -6.897   2.408   0.975  1.00  0.00    -0.096 N 
HETATM   28  O3  UNL     1      -7.577   1.962   0.104  1.00  0.00    -0.530 OA
HETATM   29  O4  UNL     1      -7.616   3.195   1.893  1.00  0.00    -0.530 OA
ENDBRANCH  22  27
ENDBRANCH   9  18
ENDBRANCH   1   6
BRANCH   1  30
HETATM   30  C13 UNL     1      -0.218  -0.733  -0.080  1.00  0.00     0.051 A 
HETATM   31  C14 UNL     1       0.639  -1.624   0.497  1.00  0.00     0.023 A 
HETATM   32  C15 UNL     1       1.928  -1.268   0.580  1.00  0.00     0.018 A 
HETATM   33  C16 UNL     1       2.274  -0.037   0.077  1.00  0.00     0.012 A 
HETATM   34  S4  UNL     1       0.787   0.571  -0.489  1.00  0.00    -0.089 SA
BRANCH  33  35
HETATM   35  C17 UNL     1       3.660   0.559   0.050  1.00  0.00     0.249 C 
BRANCH  35  36
HETATM   36  C18 UNL     1       3.620   1.741  -0.801  1.00  0.00     0.197 C 
HETATM   37  O5  UNL     1       4.278   1.842  -1.864  1.00  0.00    -0.647 OA
HETATM   38  O6  UNL     1       2.832   2.835  -0.464  1.00  0.00    -0.647 OA
ENDBRANCH  35  36
BRANCH  35  39
HETATM   39  S3  UNL     1       4.115   0.886   1.739  1.00  0.00     0.167 S 
HETATM   40  O7  UNL     1       3.259   2.000   2.312  1.00  0.00    -0.226 OA
HETATM   41  O8  UNL     1       3.846  -0.324   2.594  1.00  0.00    -0.226 OA
BRANCH  39  42
HETATM   42  C19 UNL     1       5.781   1.405   1.810  1.00  0.00     0.180 C 
BRANCH  42  43
HETATM   43  C20 UNL     1       6.770   0.467   1.275  1.00  0.00    -0.044 A 
HETATM   44  C21 UNL     1       7.203   0.665  -0.044  1.00  0.00     0.008 A 
HETATM   45  C22 UNL     1       8.121  -0.170  -0.639  1.00  0.00     0.001 A 
HETATM   46  C23 UNL     1       8.654  -1.233   0.030  1.00  0.00     0.000 A 
HETATM   47  C24 UNL     1       8.235  -1.446   1.343  1.00  0.00     0.001 A 
HETATM   48  C25 UNL     1       7.312  -0.608   1.945  1.00  0.00     0.008 A 
ENDBRANCH  42  43
ENDBRANCH  39  42
ENDBRANCH  35  39
ENDBRANCH  33  35
ENDBRANCH   1  30
TORSDOF 13
