REMARK  11 active torsions:
REMARK  status: ('A' for Active; 'I' for Inactive)
REMARK    1  A    between atoms: N1_2  and  C3_4 
REMARK    2  A    between atoms: C5_8  and  S1_9 
REMARK    3  A    between atoms: S1_9  and  C6_12 
REMARK    4  A    between atoms: C7_13  and  C8_14 
REMARK    5  A    between atoms: C10_17  and  N3_18 
REMARK       I    between atoms: N3_18  and  C11_20 
REMARK    6  A    between atoms: C11_20  and  C12_22 
REMARK    7  A    between atoms: C14_24  and  C15_25 
REMARK    8  A    between atoms: C18_30  and  N4_31 
REMARK    9  A    between atoms: N4_31  and  S3_33 
REMARK   10  A    between atoms: S3_33  and  C19_36 
REMARK   11  A    between atoms: C23_40  and  N5_41 
ROOT
HETATM    1  N3  UNL     1      -1.460  -3.717   2.262  1.00  0.00    -0.303 N 
ATOM      2  H3  UNL     1      -2.205  -4.378   2.481  1.00  0.00     0.171 HD
HETATM    3  C11 UNL     1      -1.769  -2.397   1.841  1.00  0.00     0.259 C 
HETATM    4  O3  UNL     1      -1.390  -1.463   2.574  1.00  0.00    -0.267 OA
ENDROOT
BRANCH   3   5
HETATM    5  C12 UNL     1      -2.496  -2.110   0.619  1.00  0.00     0.060 A 
HETATM    6  C13 UNL     1      -2.896  -3.169  -0.211  1.00  0.00     0.037 A 
HETATM    7  C14 UNL     1      -3.579  -2.943  -1.381  1.00  0.00     0.042 A 
HETATM    8  C16 UNL     1      -3.864  -1.630  -1.721  1.00  0.00     0.021 A 
HETATM    9  C17 UNL     1      -3.473  -0.586  -0.907  1.00  0.00     0.032 A 
HETATM   10  C18 UNL     1      -2.779  -0.815   0.282  1.00  0.00     0.058 A 
BRANCH   7  11
HETATM   11  C15 UNL     1      -3.994  -4.054  -2.233  1.00  0.00     0.209 C 
HETATM   12  O4  UNL     1      -3.711  -5.219  -1.867  1.00  0.00    -0.644 OA
HETATM   13  O5  UNL     1      -4.682  -3.863  -3.418  1.00  0.00    -0.644 OA
ENDBRANCH   7  11
BRANCH  10  14
HETATM   14  N4  UNL     1      -2.362   0.247   1.113  1.00  0.00    -0.280 N 
ATOM     15  H4  UNL     1      -1.374   0.491   1.176  1.00  0.00     0.179 HD
BRANCH  14  16
HETATM   16  S3  UNL     1      -3.525   1.125   2.015  1.00  0.00     0.263 S 
HETATM   17  O6  UNL     1      -2.883   2.143   2.916  1.00  0.00    -0.200 OA
HETATM   18  O7  UNL     1      -4.316   0.156   2.880  1.00  0.00    -0.200 OA
BRANCH  16  19
HETATM   19  C19 UNL     1      -4.672   1.911   0.976  1.00  0.00     0.082 A 
HETATM   20  C20 UNL     1      -5.917   1.370   0.680  1.00  0.00     0.025 A 
HETATM   21  C21 UNL     1      -6.775   2.047  -0.146  1.00  0.00     0.004 A 
HETATM   22  C22 UNL     1      -6.460   3.268  -0.713  1.00  0.00     0.036 A 
HETATM   23  C23 UNL     1      -5.234   3.812  -0.427  1.00  0.00     0.104 A 
HETATM   24  C24 UNL     1      -4.359   3.134   0.408  1.00  0.00     0.061 A 
BRANCH  23  25
HETATM   25  N5  UNL     1      -4.830   5.070  -0.969  1.00  0.00    -0.116 N 
HETATM   26  O8  UNL     1      -3.729   5.579  -0.721  1.00  0.00    -0.532 OA
HETATM   27  O9  UNL     1      -5.700   5.724  -1.789  1.00  0.00    -0.532 OA
ENDBRANCH  23  25
ENDBRANCH  16  19
ENDBRANCH  14  16
ENDBRANCH  10  14
ENDBRANCH   3   5
BRANCH   1  28
HETATM   28  C10 UNL     1      -0.201  -4.075   2.365  1.00  0.00     0.151 A 
HETATM   29  S2  UNL     1       0.389  -5.584   2.847  1.00  0.00    -0.063 SA
HETATM   30  C9  UNL     1       2.053  -5.261   2.720  1.00  0.00     0.082 A 
HETATM   31  C8  UNL     1       2.080  -3.925   2.286  1.00  0.00     0.041 A 
HETATM   32  N6  UNL     1       0.906  -3.373   2.123  1.00  0.00    -0.336 N 
ATOM     33  H6  UNL     1       0.837  -2.405   1.810  1.00  0.00     0.168 HD
BRANCH  31  34
HETATM   34  C7  UNL     1       3.386  -3.284   2.082  1.00  0.00     0.042 C 
HETATM   35  C6  UNL     1       3.757  -2.155   1.618  1.00  0.00     0.116 C 
BRANCH  35  36
HETATM   36  S1  UNL     1       2.966  -0.782   0.982  1.00  0.00     0.199 S 
HETATM   37  O1  UNL     1       2.163  -0.022   1.992  1.00  0.00    -0.218 OA
HETATM   38  O2  UNL     1       2.076  -1.104  -0.188  1.00  0.00    -0.218 OA
BRANCH  36  39
HETATM   39  C5  UNL     1       4.168   0.365   0.292  1.00  0.00     0.095 A 
HETATM   40  C4  UNL     1       4.535   0.267  -1.026  1.00  0.00     0.131 A 
HETATM   41  N2  UNL     1       5.456   1.139  -1.532  1.00  0.00    -0.200 N 
HETATM   42  C3  UNL     1       6.023   2.098  -0.784  1.00  0.00     0.679 A 
ATOM     43  H2  UNL     1       5.722   1.059  -2.513  1.00  0.00     0.183 HD
HETATM   44  N7  UNL     1       5.659   2.188   0.506  1.00  0.00    -0.200 N 
HETATM   45  C25 UNL     1       4.743   1.342   1.061  1.00  0.00     0.131 A 
ATOM     46  H7  UNL     1       6.080   2.911   1.089  1.00  0.00     0.183 HD
BRANCH  42  47
HETATM   47  N1  UNL     1       6.982   2.983  -1.361  1.00  0.00    -0.226 N 
HETATM   48  C1  UNL     1       6.530   4.220  -1.962  1.00  0.00     0.168 C 
HETATM   49  C2  UNL     1       8.399   2.700  -1.376  1.00  0.00     0.168 C 
ENDBRANCH  42  47
ENDBRANCH  36  39
ENDBRANCH  35  36
ENDBRANCH  31  34
ENDBRANCH   1  28
TORSDOF 11
