REMARK  5 active torsions:
REMARK  status: ('A' for Active; 'I' for Inactive)
REMARK    1  A    between atoms: C5_6  and  C6_7 
REMARK    2  A    between atoms: N1_8  and  O1_10 
REMARK    3  A    between atoms: C13_18  and  C14_19 
REMARK    4  A    between atoms: C14_19  and  N2_20 
REMARK    5  A    between atoms: N2_20  and  S2_22 
ROOT
HETATM    1  C1  UNL     1       4.168  -1.848   2.514  1.00  0.00     0.057 C 
HETATM    2  C2  UNL     1       3.239  -1.257   1.477  1.00  0.00    -0.009 A 
HETATM    3  S1  UNL     1       1.564  -0.999   1.613  1.00  0.00    -0.097 SA
HETATM    4  C3  UNL     1       1.260  -0.325   0.079  1.00  0.00    -0.001 A 
HETATM    5  C4  UNL     1       2.484  -0.317  -0.509  1.00  0.00    -0.032 A 
HETATM    6  C5  UNL     1       3.534  -0.804   0.214  1.00  0.00     0.001 A 
HETATM    7  C7  UNL     1       2.562   0.245  -1.933  1.00  0.00     0.040 C 
HETATM    8  C8  UNL     1       1.624   1.458  -1.867  1.00  0.00     0.006 C 
HETATM    9  C9  UNL     1       0.244   0.900  -1.825  1.00  0.00     0.015 C 
HETATM   10  C10 UNL     1       0.004   0.167  -0.567  1.00  0.00    -0.006 C 
HETATM   11  C11 UNL     1      -0.709   1.066   0.422  1.00  0.00     0.015 C 
HETATM   12  C12 UNL     1      -1.634   0.331   1.339  1.00  0.00     0.007 C 
HETATM   13  C13 UNL     1      -2.636  -0.519   0.631  1.00  0.00     0.004 C 
HETATM   14  C15 UNL     1      -2.296  -0.769  -0.811  1.00  0.00     0.007 C 
HETATM   15  C16 UNL     1      -0.818  -1.077  -0.880  1.00  0.00     0.015 C 
ENDROOT
BRANCH   6  16
HETATM   16  C6  UNL     1       4.937  -0.871  -0.269  1.00  0.00     0.126 C 
HETATM   17  N1  UNL     1       5.878  -1.334   0.444  1.00  0.00    -0.280 N 
ATOM     18  H1  UNL     1       5.642  -1.667   1.379  1.00  0.00     0.193 HD
BRANCH  17  19
HETATM   19  O1  UNL     1       7.168  -1.419   0.057  1.00  0.00    -0.290 OA
ATOM     20  H1  UNL     1       7.873  -1.766   0.591  1.00  0.00     0.244 HD
ENDBRANCH  17  19
ENDBRANCH   6  16
BRANCH  13  21
HETATM   21  C14 UNL     1      -4.042   0.032   0.729  1.00  0.00     0.139 C 
BRANCH  21  22
HETATM   22  N2  UNL     1      -4.086   1.361   0.134  1.00  0.00    -0.301 N 
ATOM     23  H2  UNL     1      -3.291   1.844  -0.283  1.00  0.00     0.174 HD
BRANCH  22  24
HETATM   24  S2  UNL     1      -5.695   1.996   0.243  1.00  0.00     0.204 S 
HETATM   25  O2  UNL     1      -5.602   3.485   0.390  1.00  0.00    -0.578 OA
HETATM   26  O3  UNL     1      -6.304   1.441   1.511  1.00  0.00    -0.578 OA
HETATM   27  O4  UNL     1      -6.604   1.573  -1.113  1.00  0.00    -0.578 OA
ENDBRANCH  22  24
ENDBRANCH  21  22
ENDBRANCH  13  21
TORSDOF 5
