REMARK  12 active torsions:
REMARK  status: ('A' for Active; 'I' for Inactive)
REMARK    1  A    between atoms: O1_2  and  C2_3 
REMARK    2  A    between atoms: C3_4  and  O2_5 
REMARK    3  A    between atoms: C4_7  and  N1_8 
REMARK    4  A    between atoms: C5_11  and  N2_12 
REMARK    5  A    between atoms: C6_15  and  C7_16 
REMARK    6  A    between atoms: C10_23  and  C11_24 
REMARK    7  A    between atoms: C11_24  and  O8_25 
REMARK    8  A    between atoms: C11_24  and  O9_27 
REMARK    9  A    between atoms: C12_29  and  N5_30 
REMARK   10  A    between atoms: N5_30  and  S1_32 
REMARK   11  A    between atoms: S1_32  and  N6_33 
REMARK   12  A    between atoms: C13_38  and  N7_39 
ROOT
HETATM    1  C7  UNL     1      -0.381  -0.632   0.860  1.00  0.00     0.079 A 
HETATM    2  N3  UNL     1      -0.182  -1.737   1.663  1.00  0.00    -0.319 N 
ATOM      3  H3  UNL     1       0.696  -1.821   2.176  1.00  0.00     0.169 HD
HETATM    4  C8  UNL     1      -1.088  -2.690   1.791  1.00  0.00     0.271 A 
HETATM    5  O7  UNL     1      -0.822  -3.686   2.557  1.00  0.00    -0.266 OA
HETATM    6  C9  UNL     1      -2.274  -2.607   1.119  1.00  0.00     0.127 A 
HETATM    7  N4  UNL     1      -3.226  -3.633   1.268  1.00  0.00    -0.096 NA
HETATM    8  C10 UNL     1      -2.490  -1.506   0.310  1.00  0.00     0.055 A 
HETATM    9  C12 UNL     1      -1.562  -0.505   0.158  1.00  0.00     0.085 A 
ENDROOT
BRANCH   1  10
HETATM   10  C6  UNL     1       0.768   0.232   0.805  1.00  0.00     0.065 A 
HETATM   11  C5  UNL     1       0.787   1.504   1.260  1.00  0.00     0.153 A 
HETATM   12  C4  UNL     1       1.951   2.305   1.081  1.00  0.00     0.172 A 
HETATM   13  C3  UNL     1       3.029   1.731   0.443  1.00  0.00     0.137 A 
HETATM   14  C2  UNL     1       3.046   0.441  -0.029  1.00  0.00     0.138 A 
HETATM   15  C13 UNL     1       1.882  -0.289   0.174  1.00  0.00     0.154 A 
BRANCH  11  16
HETATM   16  N2  UNL     1      -0.209   2.185   1.997  1.00  0.00    -0.112 N 
HETATM   17  O5  UNL     1      -0.033   2.090   3.273  1.00  0.00    -0.532 OA
HETATM   18  O6  UNL     1      -1.278   2.879   1.637  1.00  0.00    -0.532 OA
ENDBRANCH  11  16
BRANCH  12  19
HETATM   19  N1  UNL     1       2.001   3.649   1.538  1.00  0.00    -0.110 N 
HETATM   20  O3  UNL     1       1.919   4.624   0.770  1.00  0.00    -0.532 OA
HETATM   21  O4  UNL     1       2.146   3.893   2.875  1.00  0.00    -0.532 OA
ENDBRANCH  12  19
BRANCH  13  22
HETATM   22  O2  UNL     1       4.190   2.488   0.250  1.00  0.00    -0.356 OA
ATOM     23  H2  UNL     1       4.178   3.380   0.576  1.00  0.00     0.218 HD
ENDBRANCH  13  22
BRANCH  14  24
HETATM   24  O1  UNL     1       4.128  -0.142  -0.670  1.00  0.00    -0.351 OA
HETATM   25  C1  UNL     1       4.307  -0.089  -2.069  1.00  0.00     0.210 C 
ENDBRANCH  14  24
BRANCH  15  26
HETATM   26  N7  UNL     1       1.924  -1.636  -0.274  1.00  0.00    -0.112 N 
HETATM   27  O12 UNL     1       2.678  -2.490   0.271  1.00  0.00    -0.532 OA
HETATM   28  O13 UNL     1       1.173  -2.061  -1.315  1.00  0.00    -0.532 OA
ENDBRANCH  15  26
ENDBRANCH   1  10
BRANCH   9  29
HETATM   29  N5  UNL     1      -1.765   0.533  -0.730  1.00  0.00    -0.265 N 
ATOM     30  H5  UNL     1      -2.305   1.303  -0.334  1.00  0.00     0.180 HD
BRANCH  29  31
HETATM   31  S1  UNL     1      -1.306   0.794  -2.334  1.00  0.00     0.317 S 
HETATM   32  O10 UNL     1      -0.980  -0.371  -3.168  1.00  0.00    -0.183 OA
HETATM   33  O11 UNL     1      -2.352   1.595  -3.113  1.00  0.00    -0.183 OA
BRANCH  31  34
HETATM   34  N6  UNL     1       0.122   1.821  -2.408  1.00  0.00    -0.311 N 
ATOM     35  H62 UNL     1       0.595   2.198  -1.587  1.00  0.00     0.170 HD
ATOM     36  H61 UNL     1       0.399   1.979  -3.377  1.00  0.00     0.170 HD
ENDBRANCH  31  34
ENDBRANCH  29  31
ENDBRANCH   9  29
BRANCH   8  37
HETATM   37  C11 UNL     1      -3.809  -1.416  -0.326  1.00  0.00     0.292 C 
BRANCH  37  38
HETATM   38  O8  UNL     1      -3.723  -1.092  -1.644  1.00  0.00    -0.367 OA
ATOM     39  H8  UNL     1      -4.577  -1.034  -2.056  1.00  0.00     0.213 HD
ENDBRANCH  37  38
BRANCH  37  40
HETATM   40  O9  UNL     1      -4.675  -0.567   0.374  1.00  0.00    -0.367 OA
ATOM     41  H9  UNL     1      -5.529  -0.509  -0.038  1.00  0.00     0.213 HD
ENDBRANCH  37  40
ENDBRANCH   8  37
TORSDOF 12
