REMARK  16 active torsions:
REMARK  status: ('A' for Active; 'I' for Inactive)
REMARK    1  A    between atoms: C4_4  and  N1_5 
REMARK    2  A    between atoms: C6_12  and  C7_13 
REMARK    3  A    between atoms: C7_13  and  C8_14 
REMARK    4  A    between atoms: C8_14  and  S1_15 
REMARK    5  A    between atoms: S1_15  and  C9_16 
REMARK    6  A    between atoms: C9_16  and  C10_17 
REMARK    7  A    between atoms: C10_17  and  N4_19 
REMARK    8  A    between atoms: N4_19  and  C11_21 
REMARK    9  A    between atoms: C11_21  and  N5_22 
REMARK   10  A    between atoms: C11_21  and  C14_36 
REMARK   11  A    between atoms: N5_22  and  N6_24 
REMARK   12  A    between atoms: N6_24  and  C12_26 
REMARK   13  A    between atoms: N9_32  and  N10_33 
REMARK   14  A    between atoms: C15_39  and  C16_40 
REMARK   15  A    between atoms: C16_40  and  N12_41 
REMARK   16  A    between atoms: C17_45  and  O1_46 
ROOT
HETATM    1  C11 UNL     1      -3.451  -0.423  -0.118  1.00  0.00     0.174 C 
ENDROOT
BRANCH   1   2
HETATM    2  N4  UNL     1      -2.091  -0.688  -0.397  1.00  0.00    -0.332 N 
ATOM      3  H4  UNL     1      -1.861  -1.070  -1.314  1.00  0.00     0.168 HD
BRANCH   2   4
HETATM    4  C10 UNL     1      -1.035  -0.463   0.499  1.00  0.00     0.088 C 
HETATM    5  S2  UNL     1      -1.397   0.147   1.972  1.00  0.00    -0.065 SA
BRANCH   4   6
HETATM    6  C9  UNL     1       0.352  -0.763   0.130  1.00  0.00     0.143 C 
BRANCH   6   7
HETATM    7  S1  UNL     1       1.531  -0.408   1.445  1.00  0.00    -0.162 SA
BRANCH   7   8
HETATM    8  C8  UNL     1       3.215  -0.806   0.839  1.00  0.00     0.079 C 
BRANCH   8   9
HETATM    9  C7  UNL     1       3.604   0.137  -0.276  1.00  0.00     0.054 C 
BRANCH   9  10
HETATM   10  C6  UNL     1       4.943  -0.130  -0.809  1.00  0.00     0.005 A 
HETATM   11  C5  UNL     1       5.239  -0.753  -2.004  1.00  0.00     0.118 A 
HETATM   12  N3  UNL     1       6.565  -0.804  -2.126  1.00  0.00    -0.301 N 
HETATM   13  N2  UNL     1       7.161  -0.252  -1.084  1.00  0.00    -0.224 N 
ATOM     14  H3  UNL     1       7.056  -1.215  -2.920  1.00  0.00     0.186 HD
HETATM   15  C4  UNL     1       8.457  -0.076  -0.773  1.00  0.00     0.124 A 
HETATM   16  C18 UNL     1       6.184   0.178  -0.243  1.00  0.00     0.137 A 
HETATM   17  C3  UNL     1       8.757   0.548   0.415  1.00  0.00     0.074 A 
HETATM   18  C2  UNL     1       7.761   0.980   1.259  1.00  0.00     0.010 A 
HETATM   19  C1  UNL     1       8.141   1.653   2.540  1.00  0.00     0.068 C 
HETATM   20  N13 UNL     1       6.486   0.785   0.910  1.00  0.00    -0.344 N 
ATOM     21  H13 UNL     1       5.738   1.101   1.527  1.00  0.00     0.167 HD
BRANCH  15  22
HETATM   22  N1  UNL     1       9.379  -0.489  -1.580  1.00  0.00    -0.384 N 
ATOM     23  H12 UNL     1      10.362  -0.355  -1.344  1.00  0.00     0.157 HD
ATOM     24  H11 UNL     1       9.156  -0.952  -2.461  1.00  0.00     0.157 HD
ENDBRANCH  15  22
ENDBRANCH   9  10
ENDBRANCH   8   9
ENDBRANCH   7   8
ENDBRANCH   6   7
ENDBRANCH   4   6
ENDBRANCH   2   4
ENDBRANCH   1   2
BRANCH   1  25
HETATM   25  N5  UNL     1      -3.796   0.753   0.221  1.00  0.00    -0.268 N 
ATOM     26  H5  UNL     1      -3.062   1.459   0.277  1.00  0.00     0.189 HD
BRANCH  25  27
HETATM   27  N6  UNL     1      -5.095   1.155   0.522  1.00  0.00    -0.127 N 
ATOM     28  H6  UNL     1      -5.730   0.450   0.896  1.00  0.00     0.206 HD
BRANCH  27  29
HETATM   29  C12 UNL     1      -5.549   2.323   0.369  1.00  0.00     0.733 A 
HETATM   30  N7  UNL     1      -6.787   2.744   0.647  1.00  0.00    -0.128 N 
HETATM   31  N8  UNL     1      -6.920   4.040   0.362  1.00  0.00    -0.279 N 
ATOM     32  H7  UNL     1      -7.528   2.155   1.025  1.00  0.00     0.205 HD
HETATM   33  C13 UNL     1      -5.737   4.443  -0.107  1.00  0.00     0.241 A 
ATOM     34  H8  UNL     1      -7.758   4.609   0.479  1.00  0.00     0.188 HD
HETATM   35  N9  UNL     1      -4.879   3.382  -0.105  1.00  0.00    -0.085 N 
BRANCH  35  36
HETATM   36  N10 UNL     1      -3.555   3.486  -0.541  1.00  0.00    -0.323 N 
ATOM     37 2H10 UNL     1      -2.914   2.693  -0.540  1.00  0.00     0.178 HD
ATOM     38 1H10 UNL     1      -3.045   4.292  -0.902  1.00  0.00     0.178 HD
ENDBRANCH  35  36
ENDBRANCH  27  29
ENDBRANCH  25  27
ENDBRANCH   1  25
BRANCH   1  39
HETATM   39  C14 UNL     1      -4.494  -1.454  -0.204  1.00  0.00     0.196 A 
HETATM   40  N11 UNL     1      -5.795  -1.288  -0.525  1.00  0.00    -0.332 N 
HETATM   41  C15 UNL     1      -6.392  -2.490  -0.485  1.00  0.00     0.095 A 
ATOM     42  H11 UNL     1      -6.246  -0.403  -0.757  1.00  0.00     0.168 HD
HETATM   43  C17 UNL     1      -5.414  -3.390  -0.129  1.00  0.00     0.210 A 
HETATM   44  O2  UNL     1      -4.278  -2.718   0.032  1.00  0.00    -0.265 OA
BRANCH  41  45
HETATM   45  C16 UNL     1      -7.826  -2.786  -0.768  1.00  0.00     0.291 C 
BRANCH  45  46
HETATM   46  N12 UNL     1      -8.546  -1.574  -1.112  1.00  0.00    -0.074 N 
ATOM     47 3H12 UNL     1      -8.444  -0.858  -0.393  1.00  0.00     0.274 HD
ATOM     48 2H12 UNL     1      -8.103  -1.079  -1.886  1.00  0.00     0.274 HD
ATOM     49 1H12 UNL     1      -9.527  -1.776  -1.306  1.00  0.00     0.274 HD
ENDBRANCH  45  46
ENDBRANCH  41  45
BRANCH  43  50
HETATM   50  O1  UNL     1      -5.544  -4.754   0.043  1.00  0.00    -0.339 OA
ATOM     51  H1  UNL     1      -4.869  -5.375   0.289  1.00  0.00     0.220 HD
ENDBRANCH  43  50
ENDBRANCH   1  39
TORSDOF 16
