REMARK  9 active torsions:
REMARK  status: ('A' for Active; 'I' for Inactive)
REMARK    1  A    between atoms: C3_3  and  C4_4 
REMARK    2  A    between atoms: C4_4  and  C5_5 
REMARK    3  A    between atoms: C4_4  and  S2_21 
REMARK    4  A    between atoms: C5_5  and  S1_6 
REMARK    5  A    between atoms: S1_6  and  C6_7 
REMARK    6  A    between atoms: N2_10  and  N3_12 
REMARK    7  A    between atoms: N3_12  and  C8_14 
REMARK    8  A    between atoms: S2_21  and  C11_22 
REMARK    9  A    between atoms: C12_27  and  N8_28 
ROOT
HETATM    1  C6  UNL     1       3.049   1.057  -0.840  1.00  0.00     0.166 C 
HETATM    2  C7  UNL     1       2.299   1.305  -2.072  1.00  0.00     0.126 C 
HETATM    3  N1  UNL     1       1.712   1.525  -3.039  1.00  0.00    -0.189 NA
HETATM    4  N2  UNL     1       4.133   1.715  -0.702  1.00  0.00    -0.282 N 
ATOM      5  H2  UNL     1       4.401   2.381  -1.426  1.00  0.00     0.188 HD
ENDROOT
BRANCH   1   6
HETATM    6  S1  UNL     1       2.497  -0.123   0.364  1.00  0.00    -0.098 SA
BRANCH   6   7
HETATM    7  C5  UNL     1       1.145  -1.205  -0.350  1.00  0.00     0.103 C 
BRANCH   7   8
HETATM    8  C4  UNL     1       0.762  -2.126   0.755  1.00  0.00     0.115 C 
BRANCH   8   9
HETATM    9  C3  UNL     1      -0.219  -3.189   0.540  1.00  0.00     0.040 A 
HETATM   10  C2  UNL     1       0.278  -4.352  -0.082  1.00  0.00     0.030 A 
HETATM   11  C1  UNL     1       1.670  -4.351  -0.625  1.00  0.00     0.056 C 
HETATM   12  C18 UNL     1      -0.538  -5.446  -0.171  1.00  0.00     0.257 A 
HETATM   13  N12 UNL     1      -1.798  -5.435   0.319  1.00  0.00    -0.275 N 
HETATM   14  O2  UNL     1      -0.068  -6.480  -0.734  1.00  0.00    -0.267 OA
HETATM   15  C17 UNL     1      -2.276  -4.341   0.909  1.00  0.00     0.327 A 
ATOM     16  H12 UNL     1      -2.384  -6.266   0.237  1.00  0.00     0.173 HD
HETATM   17  N11 UNL     1      -1.475  -3.244   1.006  1.00  0.00    -0.310 N 
HETATM   18  O1  UNL     1      -3.460  -4.298   1.384  1.00  0.00    -0.247 OA
ATOM     19  H11 UNL     1      -1.854  -2.413   1.461  1.00  0.00     0.170 HD
ENDBRANCH   8   9
BRANCH   8  20
HETATM   20  S2  UNL     1      -0.286  -0.890   1.792  1.00  0.00    -0.080 SA
BRANCH  20  21
HETATM   21  C11 UNL     1      -1.549  -0.315   0.656  1.00  0.00     0.175 A 
HETATM   22  N6  UNL     1      -1.838  -0.602  -0.615  1.00  0.00    -0.265 N 
HETATM   23  N7  UNL     1      -2.905   0.017  -1.035  1.00  0.00    -0.130 N 
ATOM     24  H6  UNL     1      -1.285  -1.235  -1.193  1.00  0.00     0.189 HD
HETATM   25  C12 UNL     1      -3.361   0.747  -0.020  1.00  0.00     0.697 A 
ATOM     26  H7  UNL     1      -3.314  -0.046  -1.967  1.00  0.00     0.205 HD
HETATM   27  N10 UNL     1      -2.544   0.559   1.019  1.00  0.00    -0.168 N 
ATOM     28  H10 UNL     1      -2.643   0.995   1.936  1.00  0.00     0.186 HD
BRANCH  25  29
HETATM   29  N8  UNL     1      -4.567   1.514  -0.085  1.00  0.00    -0.213 N 
HETATM   30  C13 UNL     1      -5.726   0.870   0.527  1.00  0.00     0.168 C 
HETATM   31  C14 UNL     1      -6.813   1.868   0.668  1.00  0.00     0.252 C 
HETATM   32  N9  UNL     1      -6.201   3.117   1.119  1.00  0.00    -0.072 N 
HETATM   33  C15 UNL     1      -5.635   3.730  -0.087  1.00  0.00     0.252 C 
ATOM     34  H92 UNL     1      -6.840   3.727   1.629  1.00  0.00     0.277 HD
ATOM     35  H91 UNL     1      -5.526   2.995   1.873  1.00  0.00     0.277 HD
HETATM   36  C16 UNL     1      -4.643   2.803  -0.710  1.00  0.00     0.168 C 
ENDBRANCH  25  29
ENDBRANCH  20  21
ENDBRANCH   8  20
ENDBRANCH   7   8
ENDBRANCH   6   7
ENDBRANCH   1   6
BRANCH   4  37
HETATM   37  N3  UNL     1       4.960   1.553   0.403  1.00  0.00    -0.270 N 
ATOM     38  H3  UNL     1       4.590   1.075   1.225  1.00  0.00     0.190 HD
BRANCH  37  39
HETATM   39  C8  UNL     1       6.307   2.029   0.435  1.00  0.00     0.190 A 
HETATM   40  N4  UNL     1       7.039   2.037   1.482  1.00  0.00    -0.360 N 
HETATM   41  C9  UNL     1       8.350   2.555   1.281  1.00  0.00     0.142 A 
ATOM     42  H4  UNL     1       6.711   1.700   2.387  1.00  0.00     0.162 HD
HETATM   43  C10 UNL     1       8.429   2.827  -0.208  1.00  0.00     0.142 A 
HETATM   44  N5  UNL     1       7.079   2.553  -0.638  1.00  0.00    -0.360 N 
ATOM     45  H5  UNL     1       6.727   2.713  -1.582  1.00  0.00     0.162 HD
ENDBRANCH  37  39
ENDBRANCH   4  37
TORSDOF 9
