REMARK  14 active torsions:
REMARK  status: ('A' for Active; 'I' for Inactive)
REMARK    1  A    between atoms: C2_2  and  C3_3 
REMARK    2  A    between atoms: C3_3  and  N1_4 
REMARK    3  A    between atoms: C3_3  and  C19_44 
REMARK    4  A    between atoms: C4_6  and  O1_7 
REMARK    5  A    between atoms: C4_6  and  C5_9 
REMARK    6  A    between atoms: C8_16  and  C9_17 
REMARK    7  A    between atoms: C9_17  and  O2_18 
REMARK    8  A    between atoms: C9_17  and  N5_20 
REMARK    9  A    between atoms: N5_20  and  C10_22 
REMARK   10  A    between atoms: C10_22  and  C11_23 
REMARK   11  A    between atoms: C15_31  and  C16_32 
REMARK   12  A    between atoms: C17_41  and  N12_42 
REMARK   13  A    between atoms: C19_44  and  N13_45 
REMARK   14  A    between atoms: C19_44  and  O3_49 
ROOT
HETATM    1  C5  UNL     1      -2.605   1.208  -0.949  1.00  0.00     0.098 A 
HETATM    2  C6  UNL     1      -2.964   2.072  -2.007  1.00  0.00     0.135 A 
HETATM    3  N2  UNL     1      -4.335   2.332  -2.333  1.00  0.00    -0.082 NA
HETATM    4  N3  UNL     1      -1.997   2.647  -2.712  1.00  0.00    -0.332 N 
ATOM      5  H3  UNL     1      -2.256   3.271  -3.476  1.00  0.00     0.168 HD
HETATM    6  C7  UNL     1      -0.710   2.446  -2.468  1.00  0.00     0.135 A 
HETATM    7  N4  UNL     1       0.206   3.136  -3.306  1.00  0.00    -0.082 NA
HETATM    8  C8  UNL     1      -0.247   1.614  -1.448  1.00  0.00     0.097 A 
HETATM    9  C17 UNL     1      -1.237   0.980  -0.670  1.00  0.00     0.141 A 
ENDROOT
BRANCH   8  10
HETATM   10  C9  UNL     1       1.169   1.497  -1.317  1.00  0.00     0.153 C 
BRANCH  10  11
HETATM   11  O2  UNL     1       1.876   2.202  -2.183  1.00  0.00    -0.346 OA
ATOM     12  H2  UNL     1       2.819   2.124  -2.096  1.00  0.00     0.219 HD
ENDBRANCH  10  11
BRANCH  10  13
HETATM   13  N5  UNL     1       1.999   0.787  -0.458  1.00  0.00    -0.364 N 
ATOM     14  H5  UNL     1       1.603   0.193   0.270  1.00  0.00     0.162 HD
BRANCH  13  15
HETATM   15  C10 UNL     1       3.463   0.904  -0.614  1.00  0.00     0.181 C 
BRANCH  15  16
HETATM   16  C11 UNL     1       4.146   0.099   0.433  1.00  0.00     0.060 A 
HETATM   17  N6  UNL     1       3.589  -0.633   1.417  1.00  0.00    -0.336 N 
HETATM   18  C12 UNL     1       4.613  -1.185   2.141  1.00  0.00     0.155 A 
ATOM     19  H6  UNL     1       2.591  -0.754   1.591  1.00  0.00     0.168 HD
HETATM   20  S1  UNL     1       5.013  -2.179   3.464  1.00  0.00    -0.064 SA
HETATM   21  N7  UNL     1       5.798  -0.831   1.653  1.00  0.00    -0.297 N 
HETATM   22  C13 UNL     1       6.711  -2.101   3.340  1.00  0.00     0.071 A 
HETATM   23  C14 UNL     1       6.877  -1.287   2.250  1.00  0.00     0.107 A 
HETATM   24  C15 UNL     1       5.510  -0.020   0.575  1.00  0.00     0.112 A 
BRANCH  24  25
HETATM   25  C16 UNL     1       6.449   0.641  -0.322  1.00  0.00     0.167 A 
HETATM   26  N8  UNL     1       6.217   1.430  -1.376  1.00  0.00    -0.267 N 
HETATM   27  N9  UNL     1       7.380   1.811  -1.897  1.00  0.00    -0.227 N 
ATOM     28  H8  UNL     1       5.296   1.697  -1.725  1.00  0.00     0.190 HD
HETATM   29  N10 UNL     1       8.345   1.271  -1.183  1.00  0.00    -0.227 N 
ATOM     30  H9  UNL     1       7.503   2.416  -2.709  1.00  0.00     0.210 HD
HETATM   31  N11 UNL     1       7.782   0.556  -0.220  1.00  0.00    -0.267 N 
ATOM     32  H10 UNL     1       9.346   1.383  -1.342  1.00  0.00     0.210 HD
ATOM     33  H11 UNL     1       8.286   0.023   0.489  1.00  0.00     0.190 HD
ENDBRANCH  24  25
ENDBRANCH  15  16
ENDBRANCH  13  15
ENDBRANCH  10  13
ENDBRANCH   8  10
BRANCH   9  34
HETATM   34  N12 UNL     1      -0.889   0.274   0.241  1.00  0.00    -0.427 NA
HETATM   35  C18 UNL     1      -0.809  -0.546   1.304  1.00  0.00     0.229 C 
ENDBRANCH   9  34
BRANCH   1  36
HETATM   36  C4  UNL     1      -3.722   0.665  -0.242  1.00  0.00     0.157 C 
HETATM   37  N1  UNL     1      -3.805  -0.251   0.766  1.00  0.00    -0.339 N 
ATOM     38  H1  UNL     1      -3.230  -0.004   1.571  1.00  0.00     0.167 HD
BRANCH  37  39
HETATM   39  C3  UNL     1      -4.431  -1.334   0.929  1.00  0.00     0.044 C 
BRANCH  39  40
HETATM   40  C2  UNL     1      -4.230  -2.053   2.255  1.00  0.00     0.052 C 
HETATM   41  C1  UNL     1      -5.534  -2.174   2.989  1.00  0.00     0.011 C 
ENDBRANCH  39  40
BRANCH  39  42
HETATM   42  C19 UNL     1      -5.353  -2.037   0.015  1.00  0.00     0.363 C 
BRANCH  42  43
HETATM   43  N13 UNL     1      -5.311  -1.635  -1.351  1.00  0.00    -0.048 N 
ATOM     44 3H13 UNL     1      -5.458  -0.628  -1.419  1.00  0.00     0.277 HD
ATOM     45 2H13 UNL     1      -4.356  -1.706  -1.702  1.00  0.00     0.277 HD
ATOM     46 1H13 UNL     1      -5.948  -2.121  -1.982  1.00  0.00     0.277 HD
ENDBRANCH  42  43
BRANCH  42  47
HETATM   47  O3  UNL     1      -6.673  -1.885   0.460  1.00  0.00    -0.366 OA
ATOM     48  H3  UNL     1      -7.266  -2.337  -0.128  1.00  0.00     0.212 HD
ENDBRANCH  42  47
ENDBRANCH  39  42
ENDBRANCH  37  39
BRANCH  36  49
HETATM   49  O1  UNL     1      -4.905   1.104  -0.604  1.00  0.00    -0.345 OA
ATOM     50  H1  UNL     1      -4.847   1.742  -1.306  1.00  0.00     0.219 HD
ENDBRANCH  36  49
ENDBRANCH   1  36
TORSDOF 14
