REMARK  10 active torsions:
REMARK  status: ('A' for Active; 'I' for Inactive)
REMARK       I    between atoms: C1_4  and  N2_5 
REMARK       I    between atoms: C1_4  and  N13_48 
REMARK       I    between atoms: N2_5  and  C2_7 
REMARK    1  A    between atoms: C2_7  and  C3_9 
REMARK    2  A    between atoms: C4_12  and  C5_13 
REMARK    3  A    between atoms: N7_25  and  N8_26 
REMARK    4  A    between atoms: N8_26  and  C10_28 
REMARK    5  A    between atoms: C10_28  and  C11_29 
REMARK    6  A    between atoms: N11_34  and  C12_35 
REMARK    7  A    between atoms: C12_35  and  C13_36 
REMARK    8  A    between atoms: C13_36  and  C14_38 
REMARK    9  A    between atoms: C17_41  and  O3_42 
REMARK   10  A    between atoms: N13_48  and  N14_50 
ROOT
HETATM    1  C3  UNL     1      -2.977   1.169  -0.151  1.00  0.00     0.215 A 
HETATM    2  N3  UNL     1      -3.622  -0.012   0.146  1.00  0.00    -0.319 N 
ATOM      3  H3  UNL     1      -4.362  -0.114   0.840  1.00  0.00     0.169 HD
HETATM    4  C4  UNL     1      -3.137  -1.006  -0.608  1.00  0.00     0.135 A 
HETATM    5  N6  UNL     1      -2.195  -0.439  -1.367  1.00  0.00    -0.262 N 
ATOM      6  H6  UNL     1      -1.632  -0.937  -2.056  1.00  0.00     0.191 HD
HETATM    7  N7  UNL     1      -2.088   0.865  -1.104  1.00  0.00    -0.176 N 
ENDROOT
BRANCH   7   8
HETATM    8  N8  UNL     1      -1.205   1.745  -1.727  1.00  0.00    -0.306 N 
ATOM      9  H8  UNL     1      -1.206   2.732  -1.469  1.00  0.00     0.182 HD
BRANCH   8  10
HETATM   10  C10 UNL     1      -0.285   1.266  -2.739  1.00  0.00     0.220 C 
BRANCH  10  11
HETATM   11  C11 UNL     1       0.653   0.304  -2.157  1.00  0.00     0.132 A 
HETATM   12  N9  UNL     1       0.716  -1.029  -2.254  1.00  0.00    -0.271 N 
HETATM   13  N10 UNL     1       1.748  -1.449  -1.545  1.00  0.00    -0.224 N 
ATOM     14  H9  UNL     1       0.076  -1.620  -2.785  1.00  0.00     0.190 HD
HETATM   15  N11 UNL     1       2.345  -0.424  -0.999  1.00  0.00    -0.211 N 
ATOM     16  H10 UNL     1       2.034  -2.422  -1.440  1.00  0.00     0.210 HD
HETATM   17  N12 UNL     1       1.699   0.653  -1.356  1.00  0.00    -0.268 N 
ATOM     18  H12 UNL     1       1.939   1.605  -1.079  1.00  0.00     0.190 HD
BRANCH  15  19
HETATM   19  C12 UNL     1       3.516  -0.444  -0.146  1.00  0.00     0.254 C 
BRANCH  19  20
HETATM   20  C13 UNL     1       4.757  -0.332  -0.945  1.00  0.00     0.180 C 
HETATM   21  O2  UNL     1       4.711  -0.237  -2.189  1.00  0.00    -0.290 OA
BRANCH  20  22
HETATM   22  C14 UNL     1       6.031  -0.335  -0.257  1.00  0.00     0.012 A 
HETATM   23  C15 UNL     1       7.197  -0.232  -0.981  1.00  0.00     0.018 A 
HETATM   24  C16 UNL     1       8.438  -0.231  -0.352  1.00  0.00     0.037 A 
HETATM   25  C17 UNL     1       8.524  -0.334   1.005  1.00  0.00     0.065 A 
HETATM   26  C18 UNL     1       7.379  -0.437   1.746  1.00  0.00     0.037 A 
HETATM   27  C19 UNL     1       6.164  -0.437   1.114  1.00  0.00     0.018 A 
BRANCH  25  28
HETATM   28  O3  UNL     1       9.763  -0.334   1.639  1.00  0.00    -0.361 OA
ATOM     29  H3  UNL     1       9.823  -0.406   2.584  1.00  0.00     0.217 HD
ENDBRANCH  25  28
ENDBRANCH  20  22
ENDBRANCH  19  20
ENDBRANCH  15  19
ENDBRANCH  10  11
ENDBRANCH   8  10
ENDBRANCH   7   8
BRANCH   1  30
HETATM   30  C2  UNL     1      -3.257   2.449   0.483  1.00  0.00     0.307 C 
HETATM   31  N2  UNL     1      -4.271   2.540   1.498  1.00  0.00    -0.152 N 
HETATM   32  C1  UNL     1      -4.575   3.757   2.138  1.00  0.00     0.698 C 
ATOM     33  H2  UNL     1      -4.785   1.699   1.762  1.00  0.00     0.188 HD
HETATM   34  N1  UNL     1      -5.491   3.793   3.041  1.00  0.00    -0.233 N 
HETATM   35  N13 UNL     1      -3.907   4.975   1.831  1.00  0.00    -0.072 N 
ATOM     36  H12 UNL     1      -5.970   2.920   3.261  1.00  0.00     0.174 HD
ATOM     37  H11 UNL     1      -5.711   4.674   3.505  1.00  0.00     0.174 HD
ATOM     38  H13 UNL     1      -2.908   5.093   2.002  1.00  0.00     0.212 HD
HETATM   39  O1  UNL     1      -2.647   3.485   0.182  1.00  0.00    -0.263 OA
BRANCH  35  40
HETATM   40  N14 UNL     1      -4.681   6.001   1.285  1.00  0.00    -0.024 N 
HETATM   41  O4  UNL     1      -4.759   7.074   1.927  1.00  0.00    -0.516 OA
HETATM   42  O5  UNL     1      -5.354   5.895   0.094  1.00  0.00    -0.516 OA
ENDBRANCH  35  40
ENDBRANCH   1  30
BRANCH   4  43
HETATM   43  C5  UNL     1      -3.569  -2.409  -0.581  1.00  0.00     0.025 A 
HETATM   44  C6  UNL     1      -4.569  -2.791   0.286  1.00  0.00     0.020 A 
HETATM   45  C7  UNL     1      -4.951  -4.122   0.283  1.00  0.00     0.049 A 
HETATM   46  C8  UNL     1      -4.377  -5.066  -0.542  1.00  0.00     0.098 A 
HETATM   47  N4  UNL     1      -4.753  -6.307  -0.525  1.00  0.00    -0.385 N 
HETATM   48  N5  UNL     1      -3.404  -4.656  -1.376  1.00  0.00    -0.352 N 
ATOM     49  H42 UNL     1      -5.491  -6.618   0.107  1.00  0.00     0.157 HD
ATOM     50  H41 UNL     1      -4.328  -7.005  -1.135  1.00  0.00     0.157 HD
HETATM   51  C9  UNL     1      -3.005  -3.359  -1.400  1.00  0.00     0.105 A 
ATOM     52  H5  UNL     1      -2.960  -5.330  -1.999  1.00  0.00     0.166 HD
ENDBRANCH   4  43
TORSDOF 10
