REMARK  10 active torsions:
REMARK  status: ('A' for Active; 'I' for Inactive)
REMARK    1  A    between atoms: C4_7  and  N3_8 
REMARK    2  A    between atoms: N3_8  and  C5_10 
REMARK    3  A    between atoms: C5_10  and  C7_12 
REMARK    4  A    between atoms: C7_12  and  N4_13 
REMARK    5  A    between atoms: C7_12  and  C8_17 
REMARK    6  A    between atoms: C8_17  and  O1_19 
REMARK    7  A    between atoms: O1_19  and  N5_20 
REMARK    8  A    between atoms: N5_20  and  C10_21 
REMARK    9  A    between atoms: C10_21  and  C11_22 
REMARK   10  A    between atoms: N6_24  and  C13_25 
ROOT
HETATM    1  C7  UNL     1      -2.471  -1.360  -1.208  1.00  0.00     0.235 C 
ENDROOT
BRANCH   1   2
HETATM    2  C5  UNL     1      -2.978  -1.052   0.191  1.00  0.00     0.112 C 
HETATM    3  C6  UNL     1      -2.900  -2.438   0.922  1.00  0.00     0.034 C 
BRANCH   2   4
HETATM    4  N3  UNL     1      -4.333  -0.723   0.097  1.00  0.00    -0.366 N 
ATOM      5  H3  UNL     1      -4.877  -1.568  -0.075  1.00  0.00     0.161 HD
BRANCH   4   6
HETATM    6  C4  UNL     1      -5.091   0.251   0.153  1.00  0.00     0.157 A 
HETATM    7  N2  UNL     1      -6.449   0.094  -0.007  1.00  0.00    -0.221 N 
HETATM    8  N1  UNL     1      -7.096  -1.037  -0.233  1.00  0.00    -0.301 N 
HETATM    9  C23 UNL     1      -7.319   1.103   0.048  1.00  0.00     0.141 A 
HETATM   10  C3  UNL     1      -8.422  -0.748  -0.327  1.00  0.00     0.122 A 
ATOM     11  H1  UNL     1      -6.675  -1.962  -0.321  1.00  0.00     0.186 HD
HETATM   12  C2  UNL     1      -8.596   0.607  -0.152  1.00  0.00     0.018 A 
HETATM   13  C1  UNL     1      -9.724   1.293  -0.170  1.00  0.00     0.029 C 
HETATM   14  N10 UNL     1      -6.916   2.370   0.268  1.00  0.00    -0.324 N 
HETATM   15  C22 UNL     1      -5.607   2.589   0.432  1.00  0.00     0.152 A 
ATOM     16  H10 UNL     1      -7.587   3.137   0.308  1.00  0.00     0.169 HD
HETATM   17  C21 UNL     1      -4.679   1.538   0.376  1.00  0.00     0.137 A 
HETATM   18  N11 UNL     1      -4.921   3.814   0.683  1.00  0.00    -0.267 N 
HETATM   19  N13 UNL     1      -3.440   2.173   0.575  1.00  0.00    -0.277 N 
HETATM   20  N12 UNL     1      -3.635   3.463   1.136  1.00  0.00    -0.020 NA
ATOM     21  H13 UNL     1      -2.532   1.766   0.349  1.00  0.00     0.184 HD
ATOM     22  H11 UNL     1      -5.289   4.757   0.559  1.00  0.00     0.186 HD
ENDBRANCH   4   6
ENDBRANCH   2   4
ENDBRANCH   1   2
BRANCH   1  23
HETATM   23  N4  UNL     1      -2.680  -0.211  -2.118  1.00  0.00    -0.071 N 
ATOM     24  H43 UNL     1      -3.656   0.086  -2.130  1.00  0.00     0.274 HD
ATOM     25  H42 UNL     1      -2.262   0.642  -1.747  1.00  0.00     0.274 HD
ATOM     26  H41 UNL     1      -2.340  -0.418  -3.057  1.00  0.00     0.274 HD
ENDBRANCH   1  23
BRANCH   1  27
HETATM   27  C8  UNL     1      -1.013  -1.651  -1.303  1.00  0.00     0.175 C 
HETATM   28  C9  UNL     1      -0.817  -2.099  -2.792  1.00  0.00     0.044 C 
BRANCH  27  29
HETATM   29  O1  UNL     1      -0.595  -2.666  -0.492  1.00  0.00    -0.279 OA
BRANCH  29  30
HETATM   30  N5  UNL     1       0.697  -2.479  -0.168  1.00  0.00    -0.095 NA
BRANCH  30  31
HETATM   31  C10 UNL     1       0.832  -1.465   0.834  1.00  0.00     0.202 C 
BRANCH  31  32
HETATM   32  C11 UNL     1       2.240  -1.222   1.217  1.00  0.00     0.061 A 
HETATM   33  C12 UNL     1       3.153  -0.309   0.727  1.00  0.00     0.146 A 
HETATM   34  N6  UNL     1       4.318  -0.457   1.383  1.00  0.00    -0.251 N 
HETATM   35  N8  UNL     1       4.130  -1.431   2.251  1.00  0.00    -0.236 N 
HETATM   36  N9  UNL     1       2.897  -1.902   2.170  1.00  0.00    -0.287 N 
ATOM     37  H8  UNL     1       4.840  -1.775   2.898  1.00  0.00     0.209 HD
ATOM     38  H9  UNL     1       2.510  -2.656   2.737  1.00  0.00     0.188 HD
BRANCH  34  39
HETATM   39  C13 UNL     1       5.527   0.262   1.211  1.00  0.00     0.065 A 
HETATM   40  C14 UNL     1       5.901   1.321   2.012  1.00  0.00     0.033 A 
HETATM   41  C15 UNL     1       7.085   2.004   1.822  1.00  0.00     0.011 A 
HETATM   42  C16 UNL     1       7.949   1.648   0.809  1.00  0.00    -0.037 A 
HETATM   43  C17 UNL     1       9.228   2.396   0.614  1.00  0.00     0.050 C 
HETATM   44  C18 UNL     1       7.587   0.591   0.001  1.00  0.00     0.060 A 
HETATM   45  N7  UNL     1       8.462   0.213  -1.044  1.00  0.00    -0.101 NA
HETATM   46  C19 UNL     1       6.403  -0.090   0.193  1.00  0.00    -0.009 A 
HETATM   47  C20 UNL     1       6.001  -1.239  -0.681  1.00  0.00     0.052 C 
ENDBRANCH  34  39
ENDBRANCH  31  32
ENDBRANCH  30  31
ENDBRANCH  29  30
ENDBRANCH  27  29
ENDBRANCH   1  27
TORSDOF 10
