REMARK  4 active torsions:
REMARK  status: ('A' for Active; 'I' for Inactive)
REMARK    1  A    between atoms: C2_2  and  C3_3 
REMARK    2  A    between atoms: C13_13  and  S1_14 
REMARK    3  A    between atoms: S1_14  and  C14_15 
REMARK    4  A    between atoms: C17_22  and  O1_23 
ROOT
HETATM    1  C3  UNL     1      -2.142  -0.874   0.467  1.00  0.00    -0.039 C 
HETATM    2  C4  UNL     1      -3.194  -0.245  -0.359  1.00  0.00     0.014 C 
HETATM    3  C5  UNL     1      -2.751   0.496  -1.554  1.00  0.00    -0.008 C 
HETATM    4  C6  UNL     1      -1.740  -0.207  -2.483  1.00  0.00     0.015 C 
HETATM    5  C7  UNL     1      -0.807  -0.104  -1.386  1.00  0.00    -0.030 C 
HETATM    6  C8  UNL     1      -1.102  -1.285  -0.545  1.00  0.00     0.020 C 
HETATM    7  C9  UNL     1      -1.504   1.207  -1.167  1.00  0.00    -0.001 C 
HETATM    8  C10 UNL     1      -1.365   1.865   0.097  1.00  0.00     0.012 C 
HETATM    9  C11 UNL     1      -0.472   0.960   0.939  1.00  0.00     0.009 C 
HETATM   10  C12 UNL     1      -1.402  -0.078   1.463  1.00  0.00     0.015 C 
HETATM   11  C13 UNL     1       0.754   0.525   0.246  1.00  0.00     0.050 A 
HETATM   12  C17 UNL     1       1.515   1.766  -0.248  1.00  0.00     0.141 A 
HETATM   13  C19 UNL     1       1.282   1.363  -1.706  1.00  0.00     0.040 A 
HETATM   14  C20 UNL     1       0.594   0.158  -1.239  1.00  0.00     0.019 A 
ENDROOT
BRANCH  11  15
HETATM   15  S1  UNL     1       1.773  -0.473   1.257  1.00  0.00    -0.080 SA
BRANCH  15  16
HETATM   16  C14 UNL     1       3.251  -1.089   0.555  1.00  0.00     0.144 A 
HETATM   17  N1  UNL     1       3.797  -0.956  -0.668  1.00  0.00    -0.345 N 
HETATM   18  C15 UNL     1       4.944  -1.604  -0.767  1.00  0.00     0.107 A 
ATOM     19  H1  UNL     1       3.376  -0.420  -1.427  1.00  0.00     0.167 HD
HETATM   20  C16 UNL     1       5.157  -2.186   0.446  1.00  0.00     0.107 A 
HETATM   21  N2  UNL     1       4.120  -1.861   1.230  1.00  0.00    -0.345 N 
ATOM     22  H2  UNL     1       4.006  -2.157   2.200  1.00  0.00     0.167 HD
ENDBRANCH  15  16
ENDBRANCH  11  15
BRANCH  12  23
HETATM   23  O1  UNL     1       2.857   1.787   0.131  1.00  0.00    -0.389 OA
HETATM   24  C18 UNL     1       3.221   3.000   0.707  1.00  0.00     0.202 C 
ENDBRANCH  12  23
BRANCH   1  25
HETATM   25  C2  UNL     1      -2.647  -2.150   1.123  1.00  0.00     0.005 C 
HETATM   26  C1  UNL     1      -3.813  -1.795   1.991  1.00  0.00     0.006 C 
ENDBRANCH   1  25
TORSDOF 4
