REMARK  7 active torsions:
REMARK  status: ('A' for Active; 'I' for Inactive)
REMARK    1  A    between atoms: C2_2  and  C3_3 
REMARK    2  A    between atoms: C3_3  and  O1_4 
REMARK    3  A    between atoms: O1_4  and  C4_5 
REMARK    4  A    between atoms: C11_12  and  O2_13 
REMARK    5  A    between atoms: C16_19  and  O3_20 
REMARK    6  A    between atoms: O3_20  and  C17_21 
REMARK    7  A    between atoms: C17_21  and  C18_23 
ROOT
HETATM    1  C4  UNL     1      -0.717   0.602   0.224  1.00  0.00     0.156 C 
HETATM    2  C5  UNL     1      -1.529  -0.439   0.852  1.00  0.00     0.024 C 
HETATM    3  C6  UNL     1      -2.731   0.156   1.536  1.00  0.00     0.008 C 
HETATM    4  C7  UNL     1      -3.731  -0.918   1.943  1.00  0.00     0.000 C 
HETATM    5  C8  UNL     1      -4.366  -1.547   0.751  1.00  0.00     0.001 C 
HETATM    6  C9  UNL     1      -3.466  -1.281  -0.439  1.00  0.00     0.008 C 
HETATM    7  C10 UNL     1      -2.006  -1.547  -0.033  1.00  0.00     0.027 C 
HETATM    8  C11 UNL     1      -1.257  -1.781  -1.268  1.00  0.00     0.072 C 
HETATM    9  C12 UNL     1      -1.684  -0.983  -2.494  1.00  0.00     0.040 C 
HETATM   10  C13 UNL     1      -0.221  -1.020  -2.889  1.00  0.00     0.018 C 
HETATM   11  C14 UNL     1       0.080  -1.193  -1.395  1.00  0.00     0.017 C 
HETATM   12  C15 UNL     1       1.174  -2.251  -1.273  1.00  0.00     0.021 C 
HETATM   13  C16 UNL     1       0.370   0.065  -0.706  1.00  0.00     0.172 C 
ENDROOT
BRANCH  13  14
HETATM   14  O3  UNL     1       1.601  -0.092   0.011  1.00  0.00    -0.312 OA
BRANCH  14  15
HETATM   15  C17 UNL     1       2.727   0.681  -0.261  1.00  0.00     0.267 C 
HETATM   16  O4  UNL     1       2.602   1.530  -1.178  1.00  0.00    -0.264 OA
BRANCH  15  17
HETATM   17  C18 UNL     1       4.001   0.560   0.439  1.00  0.00     0.037 C 
HETATM   18  C19 UNL     1       3.873   0.826   1.924  1.00  0.00     0.025 C 
HETATM   19  C20 UNL     1       5.014   1.496  -0.179  1.00  0.00     0.025 C 
HETATM   20  C21 UNL     1       4.509  -0.869   0.209  1.00  0.00     0.025 C 
ENDBRANCH  15  17
ENDBRANCH  14  15
ENDBRANCH  13  14
BRANCH   1  21
HETATM   21  O1  UNL     1      -0.005   1.304   1.189  1.00  0.00    -0.379 OA
BRANCH  21  22
HETATM   22  C3  UNL     1      -0.058   2.657   1.141  1.00  0.00     0.195 C 
BRANCH  22  23
HETATM   23  C2  UNL     1      -1.381   3.296   1.267  1.00  0.00    -0.011 C 
HETATM   24  C1  UNL     1      -1.896   4.070   0.323  1.00  0.00     0.009 C 
ENDBRANCH  22  23
ENDBRANCH  21  22
ENDBRANCH   1  21
BRANCH   8  25
HETATM   25  O2  UNL     1      -1.242  -3.146  -1.639  1.00  0.00    -0.389 OA
ATOM     26  H2  UNL     1      -0.756  -3.298  -2.441  1.00  0.00     0.210 HD
ENDBRANCH   8  25
TORSDOF 7
