REMARK  7 active torsions:
REMARK  status: ('A' for Active; 'I' for Inactive)
REMARK    1  A    between atoms: C17_21  and  C18_22 
REMARK    2  A    between atoms: C18_22  and  C19_23 
REMARK    3  A    between atoms: C18_22  and  C22_26 
REMARK    4  A    between atoms: C22_26  and  O2_27 
REMARK    5  A    between atoms: C22_26  and  C23_29 
REMARK    6  A    between atoms: C23_29  and  O4_31 
REMARK    7  A    between atoms: O4_31  and  C24_32 
ROOT
HETATM    1  C1  UNL     1      -4.287   0.705   2.174  1.00  0.00     0.015 C 
HETATM    2  C2  UNL     1      -3.611   1.088   1.101  1.00  0.00    -0.078 C 
HETATM    3  C3  UNL     1      -4.192   2.220   0.268  1.00  0.00     0.044 C 
HETATM    4  C4  UNL     1      -5.531   1.771  -0.216  1.00  0.00     0.241 C 
HETATM    5  N1  UNL     1      -6.151   2.787  -1.051  1.00  0.00    -0.074 N 
ATOM      6  H11 UNL     1      -6.784   3.375  -0.508  1.00  0.00     0.277 HD
ATOM      7  H12 UNL     1      -6.826   2.374  -1.695  1.00  0.00     0.277 HD
HETATM    8  C5  UNL     1      -5.169   3.588  -1.761  1.00  0.00     0.232 C 
HETATM    9  C6  UNL     1      -3.933   2.746  -2.095  1.00  0.00     0.033 C 
HETATM   10  C7  UNL     1      -3.199   2.535  -0.788  1.00  0.00     0.002 C 
HETATM   11  C8  UNL     1      -2.244   1.395  -0.793  1.00  0.00    -0.001 C 
HETATM   12  C9  UNL     1      -2.451   0.445  -1.949  1.00  0.00     0.006 C 
HETATM   13  C10 UNL     1      -1.162  -0.392  -1.897  1.00  0.00     0.006 C 
HETATM   14  C11 UNL     1      -1.339  -1.341  -0.733  1.00  0.00     0.003 C 
HETATM   15  C12 UNL     1      -0.052  -2.115  -0.464  1.00  0.00    -0.035 C 
HETATM   16  C13 UNL     1       0.562  -2.250  -1.856  1.00  0.00     0.016 C 
HETATM   17  C14 UNL     1      -0.261  -3.462   0.124  1.00  0.00     0.017 C 
HETATM   18  C15 UNL     1       0.785  -3.846   1.145  1.00  0.00     0.079 C 
HETATM   19  C16 UNL     1       2.080  -3.244   0.633  1.00  0.00     0.132 C 
HETATM   20  O1  UNL     1       2.862  -4.077   0.267  1.00  0.00    -0.298 OA
HETATM   21  C17 UNL     1       2.212  -1.761   0.648  1.00  0.00     0.067 C 
HETATM   22  C26 UNL     1       0.864  -1.219   0.346  1.00  0.00     0.006 C 
HETATM   23  C27 UNL     1       0.192  -0.823   1.653  1.00  0.00     0.007 C 
HETATM   24  C28 UNL     1      -1.259  -1.101   1.747  1.00  0.00     0.011 C 
HETATM   25  C29 UNL     1      -2.039  -0.792   0.456  1.00  0.00    -0.032 C 
HETATM   26  C30 UNL     1      -3.342  -1.576   0.600  1.00  0.00     0.016 C 
HETATM   27  C31 UNL     1      -2.332   0.655   0.501  1.00  0.00     0.027 C 
ENDROOT
BRANCH  21  28
HETATM   28  C18 UNL     1       3.338  -1.239  -0.218  1.00  0.00     0.039 C 
BRANCH  28  29
HETATM   29  C19 UNL     1       4.641  -1.786   0.303  1.00  0.00    -0.015 C 
HETATM   30  C20 UNL     1       5.879  -1.342  -0.453  1.00  0.00     0.010 C 
HETATM   31  C21 UNL     1       4.837  -1.656   1.784  1.00  0.00     0.010 C 
ENDBRANCH  28  29
BRANCH  28  32
HETATM   32  C22 UNL     1       3.314   0.180  -0.594  1.00  0.00     0.222 C 
BRANCH  32  33
HETATM   33  O2  UNL     1       4.428   0.345  -1.495  1.00  0.00    -0.385 OA
ATOM     34  H2  UNL     1       4.412   1.263  -1.738  1.00  0.00     0.210 HD
ENDBRANCH  32  33
BRANCH  32  35
HETATM   35  C23 UNL     1       3.588   1.253   0.351  1.00  0.00     0.288 C 
HETATM   36  O3  UNL     1       2.823   1.490   1.299  1.00  0.00    -0.262 OA
BRANCH  35  37
HETATM   37  O4  UNL     1       4.671   2.126   0.351  1.00  0.00    -0.320 OA
BRANCH  37  38
HETATM   38  C24 UNL     1       4.895   3.148   1.284  1.00  0.00     0.174 C 
HETATM   39  C25 UNL     1       3.705   4.111   1.223  1.00  0.00     0.034 C 
ENDBRANCH  37  38
ENDBRANCH  35  37
ENDBRANCH  32  35
ENDBRANCH  28  32
ENDBRANCH  21  28
TORSDOF 7
