REMARK  17 active torsions:
REMARK  status: ('A' for Active; 'I' for Inactive)
REMARK    1  A    between atoms: C2_2  and  N1_3 
REMARK    2  A    between atoms: N1_3  and  C3_4 
REMARK    3  A    between atoms: N1_3  and  C5_6 
REMARK    4  A    between atoms: C5_6  and  C6_7 
REMARK    5  A    between atoms: C6_7  and  O1_8 
REMARK    6  A    between atoms: C6_7  and  N2_10 
REMARK    7  A    between atoms: N2_10  and  C7_11 
REMARK    8  A    between atoms: N2_10  and  C13_19 
REMARK    9  A    between atoms: C7_11  and  C8_12 
REMARK   10  A    between atoms: C8_12  and  C9_13 
REMARK   11  A    between atoms: C9_13  and  O3_15 
REMARK   12  A    between atoms: O3_15  and  C10_16 
REMARK   13  A    between atoms: C13_19  and  N3_20 
REMARK   14  A    between atoms: C15_25  and  C16_26 
REMARK   15  A    between atoms: C19_29  and  O5_30 
REMARK   16  A    between atoms: C21_32  and  C23_34 
REMARK   17  A    between atoms: C31_42  and  C32_43 
ROOT
HETATM    1  N3  UNL     1      -0.752  -0.718  -0.096  1.00  0.00    -0.183 N 
HETATM    2  O4  UNL     1       0.621  -0.702  -0.531  1.00  0.00    -0.209 OA
HETATM    3  C14 UNL     1       1.720  -0.380   0.256  1.00  0.00     0.179 C 
HETATM    4  N4  UNL     1       2.560  -1.382   0.052  1.00  0.00    -0.339 N 
ATOM      5  H4  UNL     1       2.269  -2.090  -0.622  1.00  0.00     0.167 HD
HETATM    6  C15 UNL     1       3.807  -1.575   0.663  1.00  0.00     0.022 C 
HETATM    7  C19 UNL     1       4.699  -0.378   0.972  1.00  0.00     0.179 C 
HETATM    8  C21 UNL     1       4.259   0.906   0.486  1.00  0.00     0.019 C 
HETATM    9  C22 UNL     1       5.430   1.932   0.765  1.00  0.00     0.024 C 
HETATM   10  C29 UNL     1       3.148   1.377   1.412  1.00  0.00     0.062 C 
HETATM   11  C30 UNL     1       1.828   0.754   1.207  1.00  0.00     0.019 C 
HETATM   12  C31 UNL     1       0.868   0.668   2.357  1.00  0.00     0.025 C 
HETATM   13  N5  UNL     1      -0.251   0.115   2.159  1.00  0.00    -0.334 N 
ATOM     14  H5  UNL     1      -0.751   0.158   3.047  1.00  0.00     0.168 HD
HETATM   15  C35 UNL     1      -1.117  -0.537   1.251  1.00  0.00     0.204 C 
HETATM   16  S1  UNL     1      -2.580  -0.958   1.722  1.00  0.00    -0.038 SA
ENDROOT
BRANCH   1  17
HETATM   17  C13 UNL     1      -1.549  -0.776  -1.248  1.00  0.00     0.221 C 
BRANCH  17  18
HETATM   18  N2  UNL     1      -2.899  -0.463  -1.392  1.00  0.00    -0.321 N 
BRANCH  18  19
HETATM   19  C6  UNL     1      -3.975  -1.281  -1.541  1.00  0.00     0.153 C 
BRANCH  19  20
HETATM   20  C5  UNL     1      -5.137  -1.526  -0.759  1.00  0.00     0.116 C 
BRANCH  20  21
HETATM   21  N1  UNL     1      -5.855  -2.777  -0.971  1.00  0.00    -0.290 NA
BRANCH  21  22
HETATM   22  C2  UNL     1      -4.839  -3.871  -1.019  1.00  0.00     0.090 C 
HETATM   23  C1  UNL     1      -5.058  -4.520  -2.397  1.00  0.00     0.021 C 
ENDBRANCH  21  22
BRANCH  21  24
HETATM   24  C3  UNL     1      -6.475  -3.067   0.391  1.00  0.00     0.090 C 
HETATM   25  C4  UNL     1      -5.523  -3.055   1.499  1.00  0.00     0.021 C 
ENDBRANCH  21  24
ENDBRANCH  20  21
ENDBRANCH  19  20
BRANCH  19  26
HETATM   26  O1  UNL     1      -3.761  -2.038  -2.643  1.00  0.00    -0.345 OA
ATOM     27  H1  UNL     1      -2.985  -1.874  -3.165  1.00  0.00     0.219 HD
ENDBRANCH  19  26
ENDBRANCH  18  19
BRANCH  18  28
HETATM   28  C7  UNL     1      -3.246   0.947  -0.991  1.00  0.00     0.141 C 
BRANCH  28  29
HETATM   29  C8  UNL     1      -3.464   1.516  -2.447  1.00  0.00     0.131 C 
BRANCH  29  30
HETATM   30  C9  UNL     1      -4.043   2.800  -2.172  1.00  0.00     0.260 C 
HETATM   31  O2  UNL     1      -5.046   3.158  -2.875  1.00  0.00    -0.265 OA
BRANCH  30  32
HETATM   32  O3  UNL     1      -3.573   3.622  -1.171  1.00  0.00    -0.317 OA
BRANCH  32  33
HETATM   33  C10 UNL     1      -4.189   4.818  -0.843  1.00  0.00     0.123 C 
HETATM   34  C11 UNL     1      -4.413   5.828  -1.872  1.00  0.00     0.040 C 
HETATM   35  C12 UNL     1      -5.589   4.418  -0.283  1.00  0.00     0.040 C 
ENDBRANCH  32  33
ENDBRANCH  30  32
ENDBRANCH  29  30
ENDBRANCH  28  29
ENDBRANCH  18  28
ENDBRANCH  17  18
ENDBRANCH   1  17
BRANCH  12  36
HETATM   36  C32 UNL     1       1.204   1.079   3.714  1.00  0.00     0.028 C 
HETATM   37  C33 UNL     1       2.207   0.192   4.439  1.00  0.00     0.016 C 
HETATM   38  C34 UNL     1       1.628   2.558   3.771  1.00  0.00     0.016 C 
ENDBRANCH  12  36
BRANCH   6  39
HETATM   39  C16 UNL     1       4.591  -2.717   0.063  1.00  0.00     0.026 C 
HETATM   40  C17 UNL     1       4.580  -3.975   0.897  1.00  0.00     0.016 C 
HETATM   41  C18 UNL     1       3.777  -3.196  -1.200  1.00  0.00     0.016 C 
ENDBRANCH   6  39
BRANCH   7  42
HETATM   42  O5  UNL     1       6.017  -0.796   0.685  1.00  0.00    -0.384 OA
HETATM   43  C20 UNL     1       6.825  -1.111   1.715  1.00  0.00     0.202 C 
ENDBRANCH   7  42
BRANCH   8  44
HETATM   44  C23 UNL     1       4.068   1.155  -0.926  1.00  0.00    -0.047 A 
HETATM   45  C24 UNL     1       4.693   0.416  -1.869  1.00  0.00     0.008 A 
HETATM   46  C25 UNL     1       4.613   0.704  -3.232  1.00  0.00     0.001 A 
HETATM   47  C26 UNL     1       3.808   1.746  -3.633  1.00  0.00     0.000 A 
HETATM   48  C27 UNL     1       3.174   2.501  -2.674  1.00  0.00     0.001 A 
HETATM   49  C28 UNL     1       3.328   2.234  -1.317  1.00  0.00     0.008 A 
ENDBRANCH   8  44
TORSDOF 17
