REMARK  17 active torsions:
REMARK  status: ('A' for Active; 'I' for Inactive)
REMARK    1  A    between atoms: C2_2  and  O1_4 
REMARK    2  A    between atoms: O1_4  and  C4_5 
REMARK       I    between atoms: C4_5  and  N1_7 
REMARK    3  A    between atoms: N2_12  and  C9_13 
REMARK    4  A    between atoms: C9_13  and  C10_14 
REMARK    5  A    between atoms: C10_14  and  C11_15 
REMARK    6  A    between atoms: C11_15  and  N3_16 
REMARK    7  A    between atoms: N3_16  and  C14_19 
REMARK    8  A    between atoms: C14_19  and  C15_20 
REMARK    9  A    between atoms: C15_20  and  C16_21 
REMARK   10  A    between atoms: C16_21  and  C17_22 
REMARK   11  A    between atoms: C17_22  and  C18_23 
REMARK   12  A    between atoms: C18_23  and  C19_24 
REMARK   13  A    between atoms: C19_24  and  N4_25 
REMARK       I    between atoms: N4_25  and  C20_26 
REMARK   14  A    between atoms: N4_25  and  C25_35 
REMARK   15  A    between atoms: C20_26  and  O4_28 
REMARK   16  A    between atoms: O4_28  and  C21_29 
REMARK   17  A    between atoms: C21_29  and  C22_30 
ROOT
HETATM    1  C14 UNL     1       0.266   0.201   0.294  1.00  0.00     0.201 C 
ENDROOT
BRANCH   1   2
HETATM    2  N3  UNL     1      -0.375  -0.380  -0.800  1.00  0.00    -0.055 N 
HETATM    3  C12 UNL     1       0.193   0.183  -2.042  1.00  0.00     0.277 C 
HETATM    4  C13 UNL     1      -0.208  -1.840  -0.915  1.00  0.00     0.277 C 
BRANCH   2   5
HETATM    5  C11 UNL     1      -1.813  -0.087  -0.931  1.00  0.00     0.243 C 
BRANCH   5   6
HETATM    6  C10 UNL     1      -2.434   0.700   0.164  1.00  0.00     0.056 C 
BRANCH   6   7
HETATM    7  C9  UNL     1      -3.861   1.069   0.015  1.00  0.00     0.241 C 
BRANCH   7   8
HETATM    8  N2  UNL     1      -4.870   0.071  -0.065  1.00  0.00    -0.051 N 
HETATM    9  C8  UNL     1      -4.666  -1.124   0.667  1.00  0.00     0.240 C 
HETATM   10  C7  UNL     1      -5.238  -2.336  -0.009  1.00  0.00     0.034 C 
HETATM   11  C6  UNL     1      -6.595  -2.034  -0.630  1.00  0.00     0.007 C 
HETATM   12  C5  UNL     1      -7.439  -1.462   0.484  1.00  0.00     0.134 C 
HETATM   13  C30 UNL     1      -6.441  -0.959  -1.685  1.00  0.00     0.034 C 
HETATM   14  N1  UNL     1      -7.236  -0.046   0.533  1.00  0.00    -0.303 N 
HETATM   15  C4  UNL     1      -8.455   0.716   0.521  1.00  0.00     0.364 C 
HETATM   16  C31 UNL     1      -6.048   0.722   0.602  1.00  0.00     0.366 C 
HETATM   17  O2  UNL     1      -9.574   0.146   0.478  1.00  0.00    -0.238 OA
HETATM   18  C29 UNL     1      -5.183  -0.157  -1.435  1.00  0.00     0.240 C 
BRANCH  15  19
HETATM   19  O1  UNL     1      -8.455   2.107   0.557  1.00  0.00    -0.299 OA
BRANCH  19  20
HETATM   20  C2  UNL     1      -9.607   2.892   0.548  1.00  0.00     0.125 C 
HETATM   21  C1  UNL     1      -9.656   3.798  -0.682  1.00  0.00     0.040 C 
HETATM   22  C3  UNL     1      -9.596   3.796   1.758  1.00  0.00     0.040 C 
ENDBRANCH  19  20
ENDBRANCH  15  19
ENDBRANCH   7   8
ENDBRANCH   6   7
ENDBRANCH   5   6
ENDBRANCH   2   5
ENDBRANCH   1   2
BRANCH   1  23
HETATM   23  C15 UNL     1       1.409  -0.325   1.016  1.00  0.00     0.021 C 
BRANCH  23  24
HETATM   24  C16 UNL     1       2.775  -0.515   0.522  1.00  0.00    -0.025 C 
BRANCH  24  25
HETATM   25  C17 UNL     1       3.122  -1.444  -0.560  1.00  0.00     0.029 C 
BRANCH  25  26
HETATM   26  C18 UNL     1       4.643  -1.423  -0.815  1.00  0.00     0.024 C 
BRANCH  26  27
HETATM   27  C19 UNL     1       5.385  -1.859   0.388  1.00  0.00     0.134 C 
BRANCH  27  28
HETATM   28  N4  UNL     1       6.854  -1.861   0.085  1.00  0.00    -0.297 N 
HETATM   29  C20 UNL     1       7.501  -0.652   0.348  1.00  0.00     0.367 C 
HETATM   30  O3  UNL     1       8.718  -0.510   0.155  1.00  0.00    -0.238 OA
BRANCH  29  31
HETATM   31  O4  UNL     1       6.802   0.428   0.835  1.00  0.00    -0.299 OA
BRANCH  31  32
HETATM   32  C21 UNL     1       7.461   1.655   1.098  1.00  0.00     0.241 C 
BRANCH  32  33
HETATM   33  C22 UNL     1       6.438   2.643   1.632  1.00  0.00     0.283 C 
HETATM   34  O5  UNL     1       5.422   2.865   0.737  1.00  0.00    -0.357 OA
HETATM   35  C23 UNL     1       5.823   3.920  -0.068  1.00  0.00     0.197 C 
HETATM   36  C24 UNL     1       7.024   4.497   0.632  1.00  0.00     0.197 C 
HETATM   37  O6  UNL     1       7.037   3.872   1.876  1.00  0.00    -0.357 OA
ENDBRANCH  32  33
ENDBRANCH  31  32
ENDBRANCH  29  31
BRANCH  28  38
HETATM   38  C25 UNL     1       7.405  -3.082  -0.427  1.00  0.00     0.024 C 
HETATM   39  C26 UNL     1       7.822  -3.135  -1.830  1.00  0.00     0.010 C 
HETATM   40  C27 UNL     1       9.062  -2.546  -2.331  1.00  0.00     0.115 C 
HETATM   41  S1  UNL     1      10.555  -3.156  -1.479  1.00  0.00    -0.093 SA
HETATM   42  S2  UNL     1       9.997  -3.393   0.571  1.00  0.00    -0.091 SA
HETATM   43  C28 UNL     1       8.266  -3.819   0.575  1.00  0.00     0.143 C 
ENDBRANCH  28  38
ENDBRANCH  27  28
ENDBRANCH  26  27
ENDBRANCH  25  26
ENDBRANCH  24  25
ENDBRANCH  23  24
ENDBRANCH   1  23
TORSDOF 17
