REMARK  13 active torsions:
REMARK  status: ('A' for Active; 'I' for Inactive)
REMARK    1  A    between atoms: O1_2  and  C2_3 
REMARK    2  A    between atoms: C2_3  and  C3_4 
REMARK    3  A    between atoms: C3_4  and  N1_5 
REMARK    4  A    between atoms: N1_5  and  C5_7 
REMARK    5  A    between atoms: C5_7  and  C6_8 
REMARK    6  A    between atoms: C6_8  and  C7_9 
REMARK    7  A    between atoms: N2_12  and  C10_13 
REMARK    8  A    between atoms: C10_13  and  C11_14 
REMARK    9  A    between atoms: C11_14  and  C12_15 
REMARK   10  A    between atoms: C12_15  and  N3_16 
REMARK       I    between atoms: N3_16  and  C14_18 
REMARK   11  A    between atoms: C14_18  and  C15_20 
REMARK   12  A    between atoms: C27_34  and  C28_35 
REMARK   13  A    between atoms: C28_35  and  C29_36 
ROOT
HETATM    1  C15 UNL     1      -1.875  -0.099   0.272  1.00  0.00     0.219 C 
HETATM    2  C16 UNL     1      -2.626  -0.522   1.545  1.00  0.00     0.078 C 
HETATM    3  C17 UNL     1      -4.093  -0.086   1.309  1.00  0.00     0.151 C 
HETATM    4  C18 UNL     1      -4.677   0.121   2.626  1.00  0.00     0.007 C 
HETATM    5  C19 UNL     1      -5.867  -0.151   3.103  1.00  0.00    -0.085 C 
HETATM    6  C20 UNL     1      -6.180   0.196   4.557  1.00  0.00     0.043 C 
HETATM    7  C21 UNL     1      -7.010  -0.774   2.395  1.00  0.00     0.033 C 
HETATM    8  C22 UNL     1      -7.935   0.333   1.951  1.00  0.00     0.005 C 
HETATM    9  C23 UNL     1      -9.176  -0.124   1.270  1.00  0.00     0.014 C 
HETATM   10  C24 UNL     1      -8.985  -0.996   0.075  1.00  0.00     0.081 C 
HETATM   11  C25 UNL     1     -10.116  -2.039   0.030  1.00  0.00     0.020 C 
HETATM   12  C26 UNL     1      -8.977  -0.284  -1.210  1.00  0.00     0.263 C 
HETATM   13  O3  UNL     1     -10.029   0.379  -1.506  1.00  0.00    -0.265 OA
HETATM   14  O4  UNL     1      -7.948  -0.261  -2.126  1.00  0.00    -0.315 OA
HETATM   15  C27 UNL     1      -6.578  -0.126  -1.842  1.00  0.00     0.139 C 
HETATM   16  C32 UNL     1      -5.909  -1.478  -2.013  1.00  0.00     0.116 C 
HETATM   17  C33 UNL     1      -4.452  -1.416  -1.848  1.00  0.00     0.183 C 
HETATM   18  O5  UNL     1      -3.725  -1.511  -2.842  1.00  0.00    -0.292 OA
HETATM   19  C34 UNL     1      -3.738  -1.243  -0.550  1.00  0.00     0.332 C 
HETATM   20  O6  UNL     1      -4.629  -1.048   0.505  1.00  0.00    -0.345 OA
HETATM   21  O7  UNL     1      -2.885  -0.169  -0.724  1.00  0.00    -0.339 OA
ENDROOT
BRANCH   1  22
HETATM   22  C14 UNL     1      -0.757  -0.981  -0.058  1.00  0.00     0.248 C 
HETATM   23  N3  UNL     1       0.473  -0.950   0.630  1.00  0.00    -0.354 N 
HETATM   24  C13 UNL     1       0.782  -0.040   1.707  1.00  0.00     0.152 C 
HETATM   25  O2  UNL     1      -0.907  -1.803  -1.005  1.00  0.00    -0.270 OA
BRANCH  23  26
HETATM   26  C12 UNL     1       1.509  -1.920   0.214  1.00  0.00     0.127 C 
BRANCH  26  27
HETATM   27  C11 UNL     1       2.349  -1.405  -0.924  1.00  0.00     0.050 C 
BRANCH  27  28
HETATM   28  C10 UNL     1       3.122  -0.174  -0.672  1.00  0.00     0.274 C 
BRANCH  28  29
HETATM   29  N2  UNL     1       4.084  -0.383   0.383  1.00  0.00     0.088 N 
HETATM   30  C9  UNL     1       4.825   0.809   0.688  1.00  0.00     0.272 C 
HETATM   31  C8  UNL     1       6.118   0.950  -0.092  1.00  0.00     0.035 C 
HETATM   32  C7  UNL     1       6.934  -0.309  -0.045  1.00  0.00    -0.010 C 
HETATM   33  C36 UNL     1       6.238  -1.312   0.861  1.00  0.00     0.035 C 
HETATM   34  C35 UNL     1       4.880  -1.559   0.188  1.00  0.00     0.272 C 
BRANCH  32  35
HETATM   35  C6  UNL     1       8.382  -0.071   0.379  1.00  0.00     0.035 C 
BRANCH  35  36
HETATM   36  C5  UNL     1       8.983   0.835  -0.614  1.00  0.00     0.272 C 
BRANCH  36  37
HETATM   37  N1  UNL     1      10.338   1.279  -0.415  1.00  0.00     0.086 N 
HETATM   38  C4  UNL     1      10.576   2.042  -1.709  1.00  0.00     0.310 C 
BRANCH  37  39
HETATM   39  C3  UNL     1      11.343   0.226  -0.516  1.00  0.00     0.297 C 
BRANCH  39  40
HETATM   40  C2  UNL     1      11.608  -0.462   0.783  1.00  0.00     0.197 C 
BRANCH  40  41
HETATM   41  O1  UNL     1      12.541  -1.456   0.652  1.00  0.00    -0.394 OA
HETATM   42  C1  UNL     1      13.749  -0.966   0.223  1.00  0.00     0.201 C 
ENDBRANCH  40  41
ENDBRANCH  39  40
ENDBRANCH  37  39
ENDBRANCH  36  37
ENDBRANCH  35  36
ENDBRANCH  32  35
ENDBRANCH  28  29
ENDBRANCH  27  28
ENDBRANCH  26  27
ENDBRANCH  23  26
ENDBRANCH   1  22
BRANCH  15  43
HETATM   43  C28 UNL     1      -5.895   0.837  -2.787  1.00  0.00     0.037 C 
BRANCH  43  44
HETATM   44  C29 UNL     1      -6.487   2.219  -2.720  1.00  0.00    -0.020 C 
HETATM   45  C30 UNL     1      -6.397   2.835  -1.359  1.00  0.00     0.009 C 
HETATM   46  C31 UNL     1      -5.766   3.172  -3.671  1.00  0.00     0.009 C 
ENDBRANCH  43  44
ENDBRANCH  15  43
TORSDOF 13
