REMARK  9 active torsions:
REMARK  status: ('A' for Active; 'I' for Inactive)
REMARK    1  A    between atoms: C2_2  and  C3_3 
REMARK    2  A    between atoms: C3_3  and  C4_4 
REMARK    3  A    between atoms: C4_4  and  C5_5 
REMARK    4  A    between atoms: C5_5  and  C6_6 
REMARK    5  A    between atoms: C6_6  and  C7_7 
REMARK    6  A    between atoms: C7_7  and  C8_8 
REMARK    7  A    between atoms: C8_8  and  N1_9 
REMARK       I    between atoms: N1_9  and  C9_11 
REMARK       I    between atoms: C9_11  and  N3_29 
REMARK    8  A    between atoms: N2_12  and  C10_14 
REMARK    9  A    between atoms: C14_19  and  O2_20 
ROOT
HETATM    1  N1  UNL     1       0.655  -2.014  -0.734  1.00  0.00    -0.226 N 
ATOM      2  H1  UNL     1       0.068  -1.885  -1.558  1.00  0.00     0.177 HD
HETATM    3  C9  UNL     1       0.022  -2.153   0.521  1.00  0.00     0.683 C 
HETATM    4  N2  UNL     1      -1.162  -1.848   0.701  1.00  0.00    -0.221 N 
ATOM      5  H2  UNL     1      -1.486  -2.000   1.656  1.00  0.00     0.178 HD
HETATM    6  N3  UNL     1       0.788  -2.663   1.602  1.00  0.00    -0.126 N 
ATOM      7  H3  UNL     1       1.215  -1.995   2.244  1.00  0.00     0.197 HD
HETATM    8  C23 UNL     1       0.991  -4.014   1.838  1.00  0.00     0.196 C 
HETATM    9  N4  UNL     1       1.181  -5.139   2.029  1.00  0.00    -0.171 NA
ENDROOT
BRANCH   1  10
HETATM   10  C8  UNL     1       2.080  -2.044  -0.914  1.00  0.00     0.138 C 
BRANCH  10  11
HETATM   11  C7  UNL     1       2.795  -0.851  -0.333  1.00  0.00     0.020 C 
BRANCH  11  12
HETATM   12  C6  UNL     1       4.284  -0.966  -0.546  1.00  0.00     0.002 C 
BRANCH  12  13
HETATM   13  C5  UNL     1       5.003   0.228   0.028  1.00  0.00     0.000 C 
BRANCH  13  14
HETATM   14  C4  UNL     1       6.499   0.079  -0.186  1.00  0.00     0.000 C 
BRANCH  14  15
HETATM   15  C3  UNL     1       7.193   1.285   0.387  1.00  0.00    -0.000 C 
BRANCH  15  16
HETATM   16  C2  UNL     1       8.683   1.110   0.169  1.00  0.00    -0.005 C 
HETATM   17  C1  UNL     1       9.456   2.285   0.716  1.00  0.00     0.005 C 
ENDBRANCH  15  16
ENDBRANCH  14  15
ENDBRANCH  13  14
ENDBRANCH  12  13
ENDBRANCH  11  12
ENDBRANCH  10  11
ENDBRANCH   1  10
BRANCH   4  18
HETATM   18  C10 UNL     1      -2.173  -1.318  -0.180  1.00  0.00     0.106 C 
HETATM   19  C11 UNL     1      -3.419  -2.098   0.273  1.00  0.00     0.052 C 
HETATM   20  C12 UNL     1      -4.615  -1.887  -0.562  1.00  0.00     0.170 C 
HETATM   21  O1  UNL     1      -5.003  -0.564  -0.628  1.00  0.00    -0.383 OA
HETATM   22  C13 UNL     1      -4.818   0.022   0.589  1.00  0.00     0.155 C 
HETATM   23  C14 UNL     1      -5.759   1.200   0.773  1.00  0.00     0.150 C 
HETATM   24  C22 UNL     1      -3.494   0.556   0.880  1.00  0.00     0.028 C 
HETATM   25  C16 UNL     1      -4.904   2.407   1.073  1.00  0.00     0.039 C 
HETATM   26  C17 UNL     1      -3.506   2.052   0.645  1.00  0.00    -0.005 C 
HETATM   27  C18 UNL     1      -3.290   2.156  -0.836  1.00  0.00     0.010 C 
HETATM   28  C19 UNL     1      -2.329   1.013  -1.207  1.00  0.00    -0.012 C 
HETATM   29  C20 UNL     1      -2.745   0.503  -2.520  1.00  0.00     0.010 C 
HETATM   30  C21 UNL     1      -2.347   0.153  -0.020  1.00  0.00     0.019 C 
BRANCH  23  31
HETATM   31  O2  UNL     1      -6.624   1.042   1.851  1.00  0.00    -0.388 OA
HETATM   32  C15 UNL     1      -7.954   1.115   1.503  1.00  0.00     0.202 C 
ENDBRANCH  23  31
ENDBRANCH   4  18
TORSDOF 9
