REMARK  9 active torsions:
REMARK  status: ('A' for Active; 'I' for Inactive)
REMARK    1  A    between atoms: N1_1  and  C1_4 
REMARK    2  A    between atoms: C2_9  and  C3_10 
REMARK    3  A    between atoms: C3_10  and  C4_11 
REMARK    4  A    between atoms: C4_11  and  N4_12 
REMARK    5  A    between atoms: N4_12  and  C5_13 
REMARK    6  A    between atoms: C5_13  and  C6_14 
REMARK    7  A    between atoms: C6_14  and  C7_15 
REMARK    8  A    between atoms: C7_15  and  C8_16 
REMARK    9  A    between atoms: C8_16  and  C9_17 
ROOT
HETATM    1  N4  UNL     1      -0.585   1.286   0.526  1.00  0.00    -0.067 N 
HETATM    2  C12 UNL     1      -1.044   2.392   1.392  1.00  0.00     0.237 C 
HETATM    3  C13 UNL     1      -0.730   3.663   0.621  1.00  0.00     0.029 C 
HETATM    4  C14 UNL     1      -1.162   3.172  -0.771  1.00  0.00     0.029 C 
HETATM    5  C15 UNL     1      -0.427   1.845  -0.786  1.00  0.00     0.237 C 
ENDROOT
BRANCH   1   6
HETATM    6  C4  UNL     1      -1.724   0.397   0.491  1.00  0.00     0.245 C 
BRANCH   6   7
HETATM    7  C3  UNL     1      -1.604  -0.866  -0.245  1.00  0.00     0.106 C 
BRANCH   7   8
HETATM    8  C2  UNL     1      -2.942  -1.565  -0.128  1.00  0.00     0.114 A 
HETATM    9  N3  UNL     1      -3.311  -2.425   0.834  1.00  0.00    -0.274 N 
HETATM   10  N2  UNL     1      -4.556  -2.802   0.562  1.00  0.00    -0.131 N 
ATOM     11  H3  UNL     1      -2.743  -2.731   1.624  1.00  0.00     0.189 HD
HETATM   12  C1  UNL     1      -5.009  -2.208  -0.554  1.00  0.00     0.691 A 
ATOM     13  H2  UNL     1      -5.097  -3.457   1.127  1.00  0.00     0.205 HD
HETATM   14  N7  UNL     1      -3.977  -1.434  -0.973  1.00  0.00    -0.178 N 
ATOM     15  H7  UNL     1      -3.986  -0.842  -1.804  1.00  0.00     0.185 HD
BRANCH  12  16
HETATM   16  N1  UNL     1      -6.131  -2.290  -1.159  1.00  0.00    -0.233 N 
ATOM     17  H12 UNL     1      -6.907  -2.872  -0.844  1.00  0.00     0.174 HD
ATOM     18  H11 UNL     1      -6.475  -1.839  -2.007  1.00  0.00     0.174 HD
ENDBRANCH  12  16
ENDBRANCH   7   8
ENDBRANCH   6   7
ENDBRANCH   1   6
BRANCH   1  19
HETATM   19  C5  UNL     1       0.570   0.668   1.029  1.00  0.00     0.237 C 
BRANCH  19  20
HETATM   20  C6  UNL     1       1.781   0.470   0.240  1.00  0.00     0.028 C 
BRANCH  20  21
HETATM   21  C7  UNL     1       1.744  -0.391  -0.974  1.00  0.00     0.008 C 
BRANCH  21  22
HETATM   22  C8  UNL     1       3.132  -0.453  -1.639  1.00  0.00     0.058 C 
BRANCH  22  23
HETATM   23  C9  UNL     1       4.141  -1.012  -0.720  1.00  0.00     0.025 A 
HETATM   24  C10 UNL     1       4.487  -2.345  -0.543  1.00  0.00     0.113 A 
HETATM   25  N5  UNL     1       5.473  -2.418   0.395  1.00  0.00    -0.360 N 
HETATM   26  C11 UNL     1       5.728  -1.162   0.785  1.00  0.00     0.180 A 
ATOM     27  H5  UNL     1       5.929  -3.265   0.734  1.00  0.00     0.166 HD
HETATM   28  N6  UNL     1       4.929  -0.331   0.115  1.00  0.00    -0.355 N 
ATOM     29  H6  UNL     1       4.921   0.683   0.225  1.00  0.00     0.166 HD
ENDBRANCH  22  23
ENDBRANCH  21  22
ENDBRANCH  20  21
ENDBRANCH  19  20
ENDBRANCH   1  19
TORSDOF 9
