REMARK  10 active torsions:
REMARK  status: ('A' for Active; 'I' for Inactive)
REMARK       I    between atoms: C2_4  and  N2_5 
REMARK       I    between atoms: C2_4  and  N4_25 
REMARK    1  A    between atoms: N2_5  and  C3_7 
REMARK    2  A    between atoms: C3_7  and  C4_8 
REMARK    3  A    between atoms: C4_8  and  C5_9 
REMARK    4  A    between atoms: C5_9  and  N3_10 
REMARK       I    between atoms: N3_10  and  C6_12 
REMARK    5  A    between atoms: C6_12  and  C7_14 
REMARK    6  A    between atoms: C7_14  and  C8_15 
REMARK    7  A    between atoms: C8_15  and  C9_16 
REMARK    8  A    between atoms: C9_16  and  C10_17 
REMARK    9  A    between atoms: C10_17  and  C11_18 
REMARK   10  A    between atoms: N4_25  and  C17_27 
ROOT
HETATM    1  C5  UNL     1       3.265   0.514   0.875  1.00  0.00     0.124 C 
ENDROOT
BRANCH   1   2
HETATM    2  C4  UNL     1       3.563  -0.091   2.194  1.00  0.00     0.040 C 
BRANCH   2   3
HETATM    3  C3  UNL     1       4.970  -0.557   2.409  1.00  0.00     0.139 C 
BRANCH   3   4
HETATM    4  N2  UNL     1       5.398  -1.577   1.530  1.00  0.00    -0.226 N 
HETATM    5  C2  UNL     1       5.668  -1.417   0.161  1.00  0.00     0.674 C 
HETATM    6  N1  UNL     1       5.309  -2.342  -0.683  1.00  0.00    -0.231 N 
HETATM    7  N4  UNL     1       6.348  -0.262  -0.293  1.00  0.00    -0.182 N 
HETATM    8  C1  UNL     1       5.598  -2.152  -2.076  1.00  0.00     0.165 C 
ATOM      9  H1  UNL     1       4.832  -3.184  -0.361  1.00  0.00     0.177 HD
ATOM     10  H4  UNL     1       5.857   0.414  -0.878  1.00  0.00     0.185 HD
ATOM     11  H2  UNL     1       5.522  -2.510   1.924  1.00  0.00     0.177 HD
BRANCH   7  12
HETATM   12  C17 UNL     1       7.696  -0.035   0.054  1.00  0.00     0.087 C 
HETATM   13  C18 UNL     1       8.531   0.865  -0.782  1.00  0.00     0.089 C 
HETATM   14  N5  UNL     1       8.203  -0.606   1.090  1.00  0.00    -0.389 N 
ATOM     15  H52 UNL     1       7.630  -1.224   1.664  1.00  0.00     0.157 HD
ATOM     16  H51 UNL     1       9.178  -0.442   1.341  1.00  0.00     0.157 HD
ENDBRANCH   7  12
ENDBRANCH   3   4
ENDBRANCH   2   3
ENDBRANCH   1   2
BRANCH   1  17
HETATM   17  N3  UNL     1       1.896   0.969   0.803  1.00  0.00    -0.361 N 
HETATM   18  C6  UNL     1       0.817   0.068   0.904  1.00  0.00     0.217 C 
HETATM   19  O1  UNL     1       0.993  -1.145   1.050  1.00  0.00    -0.274 OA
ATOM     20  H3  UNL     1       1.706   1.963   0.676  1.00  0.00     0.162 HD
BRANCH  18  21
HETATM   21  C7  UNL     1      -0.597   0.560   0.835  1.00  0.00     0.103 C 
BRANCH  21  22
HETATM   22  C8  UNL     1      -1.529  -0.606   0.933  1.00  0.00     0.009 C 
BRANCH  22  23
HETATM   23  C9  UNL     1      -2.942  -0.138   0.869  1.00  0.00     0.001 C 
BRANCH  23  24
HETATM   24  C10 UNL     1      -3.279   0.591  -0.410  1.00  0.00     0.005 C 
BRANCH  24  25
HETATM   25  C11 UNL     1      -4.755   0.984  -0.305  1.00  0.00    -0.006 C 
HETATM   26  C12 UNL     1      -5.094   1.706  -1.564  1.00  0.00     0.014 C 
HETATM   27  C13 UNL     1      -6.593   1.841  -1.666  1.00  0.00     0.054 C 
HETATM   28  S1  UNL     1      -7.117   0.238  -1.044  1.00  0.00    -0.261 SA
HETATM   29  C14 UNL     1      -7.549  -0.861  -2.368  1.00  0.00     0.068 C 
HETATM   30  C15 UNL     1      -8.399   0.387   0.190  1.00  0.00     0.068 C 
HETATM   31  C16 UNL     1      -5.548  -0.301  -0.293  1.00  0.00     0.058 C 
ENDBRANCH  24  25
ENDBRANCH  23  24
ENDBRANCH  22  23
ENDBRANCH  21  22
ENDBRANCH  18  21
ENDBRANCH   1  17
TORSDOF 10
