REMARK  9 active torsions:
REMARK  status: ('A' for Active; 'I' for Inactive)
REMARK    1  A    between atoms: C2_2  and  C3_3 
REMARK    2  A    between atoms: C9_10  and  C10_11 
REMARK    3  A    between atoms: C10_11  and  N2_12 
REMARK       I    between atoms: N2_12  and  C11_13 
REMARK       I    between atoms: C11_13  and  N3_15 
REMARK    4  A    between atoms: N3_15  and  C12_17 
REMARK    5  A    between atoms: C12_17  and  C13_18 
REMARK    6  A    between atoms: C13_18  and  C14_19 
REMARK    7  A    between atoms: C14_19  and  N4_20 
REMARK       I    between atoms: N4_20  and  C15_22 
REMARK       I    between atoms: C15_22  and  N5_23 
REMARK    8  A    between atoms: C16_27  and  C17_28 
REMARK    9  A    between atoms: C17_28  and  C18_29 
ROOT
HETATM    1  C10 UNL     1      -0.414  -2.201  -0.147  1.00  0.00     0.196 C 
ENDROOT
BRANCH   1   2
HETATM    2  C9  UNL     1      -1.351  -1.313   0.669  1.00  0.00     0.275 C 
HETATM    3  N1  UNL     1      -0.728  -0.299   1.423  1.00  0.00     0.100 N 
HETATM    4  C4  UNL     1      -0.829   1.049   0.929  1.00  0.00     0.282 C 
HETATM    5  C5  UNL     1      -1.299  -0.210   2.773  1.00  0.00     0.278 C 
HETATM    6  C3  UNL     1      -2.177   1.685   0.966  1.00  0.00     0.040 C 
HETATM    7  C16 UNL     1      -3.255   0.941   1.583  1.00  0.00     0.001 C 
HETATM    8  C6  UNL     1      -2.768  -0.116   2.574  1.00  0.00     0.019 C 
HETATM    9  C7  UNL     1      -3.265  -1.518   2.176  1.00  0.00     0.009 C 
HETATM   10  C8  UNL     1      -2.169  -2.293   1.513  1.00  0.00     0.043 C 
BRANCH   6  11
HETATM   11  C2  UNL     1      -2.444   2.037  -0.494  1.00  0.00    -0.030 C 
HETATM   12  C1  UNL     1      -3.484   1.669  -1.180  1.00  0.00     0.007 C 
ENDBRANCH   6  11
BRANCH   7  13
HETATM   13  C17 UNL     1      -4.279   1.694   2.382  1.00  0.00     0.005 C 
BRANCH  13  14
HETATM   14  C18 UNL     1      -5.093   2.771   1.867  1.00  0.00    -0.004 C 
HETATM   15  C19 UNL     1      -4.413   4.067   1.573  1.00  0.00     0.005 C 
ENDBRANCH  13  14
ENDBRANCH   7  13
ENDBRANCH   1   2
BRANCH   1  16
HETATM   16  N2  UNL     1       0.358  -1.685  -1.083  1.00  0.00    -0.367 NA
HETATM   17  C11 UNL     1       1.154  -1.127  -2.091  1.00  0.00     0.393 C 
HETATM   18  O1  UNL     1       0.775  -0.557  -3.093  1.00  0.00    -0.230 OA
HETATM   19  N3  UNL     1       2.576  -1.254  -1.895  1.00  0.00    -0.331 N 
ATOM     20  H3  UNL     1       2.933  -1.729  -1.066  1.00  0.00     0.165 HD
BRANCH  19  21
HETATM   21  C12 UNL     1       3.491  -0.719  -2.856  1.00  0.00     0.127 C 
BRANCH  21  22
HETATM   22  C13 UNL     1       4.924  -0.991  -2.386  1.00  0.00     0.039 C 
BRANCH  22  23
HETATM   23  C14 UNL     1       5.901  -0.446  -3.397  1.00  0.00     0.126 C 
BRANCH  23  24
HETATM   24  N4  UNL     1       7.262  -0.631  -2.977  1.00  0.00    -0.343 N 
HETATM   25  C15 UNL     1       7.800  -1.914  -2.755  1.00  0.00     0.313 C 
HETATM   26  N5  UNL     1       9.065  -2.075  -2.321  1.00  0.00    -0.352 N 
HETATM   27  O2  UNL     1       7.077  -2.929  -2.961  1.00  0.00    -0.248 OA
ATOM     28  H52 UNL     1       9.649  -1.255  -2.155  1.00  0.00     0.160 HD
ATOM     29  H51 UNL     1       9.455  -3.004  -2.160  1.00  0.00     0.160 HD
ATOM     30  H4  UNL     1       7.854   0.187  -2.836  1.00  0.00     0.164 HD
ENDBRANCH  23  24
ENDBRANCH  22  23
ENDBRANCH  21  22
ENDBRANCH  19  21
ENDBRANCH   1  16
TORSDOF 9
