REMARK  10 active torsions:
REMARK  status: ('A' for Active; 'I' for Inactive)
REMARK    1  A    between atoms: C2_2  and  C4_4 
REMARK    2  A    between atoms: C4_4  and  C5_5 
REMARK    3  A    between atoms: C5_5  and  N1_6 
REMARK    4  A    between atoms: C5_5  and  C19_29 
REMARK       I    between atoms: N1_6  and  C6_8 
REMARK    5  A    between atoms: C6_8  and  C7_10 
REMARK    6  A    between atoms: C7_10  and  N2_11 
REMARK    7  A    between atoms: C7_10  and  C13_23 
REMARK       I    between atoms: N2_11  and  C8_13 
REMARK    8  A    between atoms: C8_13  and  C9_15 
REMARK    9  A    between atoms: C9_15  and  N3_16 
REMARK   10  A    between atoms: C9_15  and  C10_20 
ROOT
HETATM    1  C7  UNL     1      -0.608  -0.604   0.226  1.00  0.00     0.180 C 
ENDROOT
BRANCH   1   2
HETATM    2  C6  UNL     1       0.726  -0.642  -0.446  1.00  0.00     0.241 C 
HETATM    3  N1  UNL     1       1.835  -1.165   0.284  1.00  0.00    -0.346 N 
ATOM      4  H1  UNL     1       1.697  -1.499   1.238  1.00  0.00     0.163 HD
HETATM    5  O1  UNL     1       0.904  -0.233  -1.620  1.00  0.00    -0.271 OA
BRANCH   3   6
HETATM    6  C5  UNL     1       3.182  -1.230  -0.323  1.00  0.00     0.174 C 
BRANCH   6   7
HETATM    7  C4  UNL     1       4.113  -0.325   0.411  1.00  0.00     0.038 C 
BRANCH   7   8
HETATM    8  C2  UNL     1       5.509  -0.246  -0.068  1.00  0.00    -0.020 C 
HETATM    9  C1  UNL     1       6.254   0.751   0.847  1.00  0.00     0.009 C 
HETATM   10  C3  UNL     1       5.533   0.329  -1.477  1.00  0.00     0.009 C 
ENDBRANCH   7   8
ENDBRANCH   6   7
BRANCH   6  11
HETATM   11  C19 UNL     1       3.541  -2.652  -0.326  1.00  0.00     0.254 C 
HETATM   12  N4  UNL     1       4.753  -3.098  -0.884  1.00  0.00    -0.060 NA
HETATM   13  O3  UNL     1       2.779  -3.521   0.167  1.00  0.00    -0.275 OA
ENDBRANCH   6  11
ENDBRANCH   3   6
ENDBRANCH   1   2
BRANCH   1  14
HETATM   14  N2  UNL     1      -1.535  -0.045  -0.707  1.00  0.00    -0.346 N 
HETATM   15  C8  UNL     1      -2.658  -0.775  -1.171  1.00  0.00     0.249 C 
HETATM   16  O2  UNL     1      -2.881  -1.953  -0.772  1.00  0.00    -0.271 OA
ATOM     17  H2  UNL     1      -1.385   0.904  -1.048  1.00  0.00     0.163 HD
BRANCH  15  18
HETATM   18  C9  UNL     1      -3.622  -0.193  -2.140  1.00  0.00     0.278 C 
BRANCH  18  19
HETATM   19  N3  UNL     1      -3.194   1.141  -2.537  1.00  0.00    -0.066 N 
ATOM     20  H33 UNL     1      -3.049   1.750  -1.732  1.00  0.00     0.275 HD
ATOM     21  H32 UNL     1      -2.241   1.143  -2.900  1.00  0.00     0.275 HD
ATOM     22  H31 UNL     1      -3.856   1.541  -3.202  1.00  0.00     0.275 HD
ENDBRANCH  18  19
BRANCH  18  23
HETATM   23  C10 UNL     1      -4.980  -0.175  -1.491  1.00  0.00     0.017 C 
HETATM   24  C11 UNL     1      -6.017   0.426  -2.440  1.00  0.00     0.012 C 
HETATM   25  C12 UNL     1      -5.408  -1.618  -1.298  1.00  0.00     0.012 C 
ENDBRANCH  18  23
ENDBRANCH  15  18
ENDBRANCH   1  14
BRANCH   1  26
HETATM   26  C13 UNL     1      -0.519   0.232   1.514  1.00  0.00     0.018 C 
HETATM   27  C14 UNL     1      -0.104   1.627   1.247  1.00  0.00     0.007 C 
HETATM   28  C15 UNL     1      -0.958   2.671   1.928  1.00  0.00     0.000 C 
HETATM   29  C16 UNL     1      -1.189   2.190   3.353  1.00  0.00     0.000 C 
HETATM   30  C17 UNL     1      -2.189   1.061   3.235  1.00  0.00     0.000 C 
HETATM   31  C18 UNL     1      -1.813   0.055   2.218  1.00  0.00     0.007 C 
ENDBRANCH   1  26
TORSDOF 10
