REMARK  10 active torsions:
REMARK  status: ('A' for Active; 'I' for Inactive)
REMARK    1  A    between atoms: N1_2  and  C3_4 
REMARK    2  A    between atoms: C3_4  and  C4_5 
REMARK    3  A    between atoms: C9_10  and  N2_11 
REMARK       I    between atoms: N2_11  and  C10_13 
REMARK    4  A    between atoms: C10_13  and  C11_15 
REMARK    5  A    between atoms: C11_15  and  C12_16 
REMARK    6  A    between atoms: C11_15  and  N3_23 
REMARK    7  A    between atoms: C12_16  and  C13_17 
REMARK    8  A    between atoms: N3_23  and  C19_25 
REMARK    9  A    between atoms: C19_25  and  C20_29 
REMARK   10  A    between atoms: C20_29  and  N5_30 
ROOT
HETATM    1  C11 UNL     1      -1.505   0.407   0.187  1.00  0.00     0.175 C 
ENDROOT
BRANCH   1   2
HETATM    2  C10 UNL     1      -0.073   0.761   0.108  1.00  0.00     0.240 C 
HETATM    3  N2  UNL     1       0.880  -0.053  -0.505  1.00  0.00    -0.354 N 
ATOM      4  H2  UNL     1       0.561  -0.929  -0.919  1.00  0.00     0.162 HD
HETATM    5  O1  UNL     1       0.307   1.836   0.608  1.00  0.00    -0.271 OA
BRANCH   3   6
HETATM    6  C9  UNL     1       2.295   0.262  -0.593  1.00  0.00     0.090 C 
HETATM    7  C4  UNL     1       3.152  -0.780   0.100  1.00  0.00     0.036 C 
HETATM    8  C5  UNL     1       3.156  -1.992  -0.800  1.00  0.00     0.008 C 
HETATM    9  C6  UNL     1       3.903  -1.622  -2.040  1.00  0.00     0.001 C 
HETATM   10  C7  UNL     1       3.379  -0.444  -2.778  1.00  0.00     0.002 C 
HETATM   11  C8  UNL     1       2.763   0.615  -1.960  1.00  0.00     0.026 C 
BRANCH   7  12
HETATM   12  C3  UNL     1       4.545  -0.246   0.318  1.00  0.00     0.278 C 
BRANCH  12  13
HETATM   13  N1  UNL     1       4.473   0.911   1.195  1.00  0.00     0.080 N 
HETATM   14  C1  UNL     1       4.087   0.552   2.534  1.00  0.00     0.309 C 
HETATM   15  C2  UNL     1       5.773   1.537   1.240  1.00  0.00     0.309 C 
ENDBRANCH  12  13
ENDBRANCH   7  12
ENDBRANCH   3   6
ENDBRANCH   1   2
BRANCH   1  16
HETATM   16  C12 UNL     1      -1.799  -0.696  -0.724  1.00  0.00     0.039 C 
BRANCH  16  17
HETATM   17  C13 UNL     1      -3.180  -1.236  -0.838  1.00  0.00    -0.012 C 
HETATM   18  C14 UNL     1      -4.230  -0.275  -1.330  1.00  0.00     0.005 C 
HETATM   19  C15 UNL     1      -5.362  -1.088  -2.006  1.00  0.00     0.000 C 
HETATM   20  C16 UNL     1      -5.581  -2.291  -1.119  1.00  0.00     0.000 C 
HETATM   21  C17 UNL     1      -5.183  -2.000   0.318  1.00  0.00     0.000 C 
HETATM   22  C18 UNL     1      -3.694  -1.813   0.465  1.00  0.00     0.005 C 
ENDBRANCH  16  17
ENDBRANCH   1  16
BRANCH   1  23
HETATM   23  N3  UNL     1      -2.302   1.580   0.196  1.00  0.00    -0.365 N 
ATOM     24  H3  UNL     1      -2.955   1.780  -0.562  1.00  0.00     0.161 HD
BRANCH  23  25
HETATM   25  C19 UNL     1      -2.158   2.479   1.311  1.00  0.00     0.097 C 
HETATM   26  N4  UNL     1      -1.958   3.732   1.107  1.00  0.00    -0.388 N 
ATOM     27  H42 UNL     1      -1.898   4.071   0.147  1.00  0.00     0.157 HD
ATOM     28  H41 UNL     1      -1.856   4.369   1.897  1.00  0.00     0.157 HD
BRANCH  25  29
HETATM   29  C20 UNL     1      -2.245   1.989   2.700  1.00  0.00     0.304 C 
BRANCH  29  30
HETATM   30  N5  UNL     1      -2.059   3.102   3.635  1.00  0.00    -0.073 N 
ATOM     31  H53 UNL     1      -1.190   3.607   3.461  1.00  0.00     0.274 HD
ATOM     32  H52 UNL     1      -2.712   3.865   3.457  1.00  0.00     0.274 HD
ATOM     33  H51 UNL     1      -2.119   2.763   4.595  1.00  0.00     0.274 HD
ENDBRANCH  29  30
ENDBRANCH  25  29
ENDBRANCH  23  25
ENDBRANCH   1  23
TORSDOF 10
