REMARK  4 active torsions:
REMARK  status: ('A' for Active; 'I' for Inactive)
REMARK    1  A    between atoms: N1_1  and  S1_4 
REMARK    2  A    between atoms: S1_4  and  C1_7 
REMARK    3  A    between atoms: C4_10  and  N2_11 
REMARK    4  A    between atoms: N2_11  and  C5_13 
ROOT
HETATM    1  C5  UNL     1      -0.486  -0.783   0.075  1.00  0.00     0.119 A 
HETATM    2  N3  UNL     1      -0.191  -2.094   0.189  1.00  0.00    -0.338 N 
ATOM      3  H3  UNL     1       0.790  -2.373   0.176  1.00  0.00     0.168 HD
HETATM    4  C6  UNL     1      -1.127  -3.052   0.319  1.00  0.00     0.182 A 
HETATM    5  N4  UNL     1      -2.419  -2.647   0.331  1.00  0.00    -0.352 N 
ATOM      6  H4  UNL     1      -3.151  -3.351   0.427  1.00  0.00     0.166 HD
HETATM    7  C7  UNL     1      -2.779  -1.355   0.222  1.00  0.00     0.048 A 
HETATM    8  C8  UNL     1      -4.095  -0.938   0.234  1.00  0.00     0.042 A 
HETATM    9  C9  UNL     1      -4.458   0.393   0.120  1.00  0.00    -0.024 A 
HETATM   10  C10 UNL     1      -5.778   0.804   0.133  1.00  0.00     0.012 A 
HETATM   11  C11 UNL     1      -6.122   2.140   0.019  1.00  0.00     0.001 A 
HETATM   12  C12 UNL     1      -5.154   3.115  -0.114  1.00  0.00     0.001 A 
HETATM   13  C13 UNL     1      -3.835   2.696  -0.126  1.00  0.00     0.012 A 
HETATM   14  C14 UNL     1      -3.488   1.358  -0.011  1.00  0.00    -0.025 A 
HETATM   15  C15 UNL     1      -2.161   0.950  -0.025  1.00  0.00     0.029 A 
HETATM   16  C16 UNL     1      -1.806  -0.383   0.089  1.00  0.00     0.036 A 
ENDROOT
BRANCH   1  17
HETATM   17  N2  UNL     1       0.417   0.107  -0.046  1.00  0.00    -0.342 N 
ATOM     18  H2  UNL     1       0.102   1.074  -0.125  1.00  0.00     0.167 HD
BRANCH  17  19
HETATM   19  C4  UNL     1       1.802  -0.111  -0.081  1.00  0.00     0.033 A 
HETATM   20  C3  UNL     1       2.486  -0.402   1.075  1.00  0.00     0.031 A 
HETATM   21  C2  UNL     1       3.856  -0.606   0.967  1.00  0.00     0.027 A 
HETATM   22  C1  UNL     1       4.528  -0.526  -0.234  1.00  0.00     0.079 A 
HETATM   23  C18 UNL     1       3.830  -0.231  -1.395  1.00  0.00     0.027 A 
HETATM   24  C17 UNL     1       2.474  -0.029  -1.293  1.00  0.00     0.031 A 
BRANCH  22  25
HETATM   25  S1  UNL     1       6.261  -0.784  -0.363  1.00  0.00     0.256 S 
HETATM   26  O1  UNL     1       6.645  -1.723   0.757  1.00  0.00    -0.201 OA
HETATM   27  O2  UNL     1       6.612  -1.402  -1.683  1.00  0.00    -0.201 OA
BRANCH  25  28
HETATM   28  N1  UNL     1       7.089   0.738  -0.154  1.00  0.00    -0.324 N 
ATOM     29  H12 UNL     1       7.730   0.946   0.611  1.00  0.00     0.169 HD
ATOM     30  H11 UNL     1       6.830   1.372  -0.910  1.00  0.00     0.169 HD
ENDBRANCH  25  28
ENDBRANCH  22  25
ENDBRANCH  17  19
ENDBRANCH   1  17
TORSDOF 4
