REMARK  1 active torsions:
REMARK  status: ('A' for Active; 'I' for Inactive)
REMARK    1  A    between atoms: C13_23  and  C14_24 
ROOT
HETATM    1  N1  UNL     1      -1.662  -3.070   1.214  1.00  0.00    -0.191 NA
HETATM    2  C1  UNL     1      -1.018  -2.169   0.878  1.00  0.00     0.102 C 
HETATM    3  C2  UNL     1      -0.195  -1.063   0.457  1.00  0.00     0.085 C 
HETATM    4  C3  UNL     1       1.171  -1.334   0.524  1.00  0.00     0.070 A 
HETATM    5  N2  UNL     1       1.531  -2.589   0.862  1.00  0.00    -0.321 N 
ATOM      6  H2  UNL     1       0.877  -3.344   1.069  1.00  0.00     0.169 HD
HETATM    7  C4  UNL     1       2.862  -2.708   0.889  1.00  0.00     0.257 A 
HETATM    8  O1  UNL     1       3.454  -3.777   1.176  1.00  0.00    -0.267 OA
HETATM    9  C5  UNL     1       3.476  -1.503   0.561  1.00  0.00     0.047 A 
HETATM   10  C6  UNL     1       4.798  -1.160   0.462  1.00  0.00     0.018 A 
HETATM   11  C7  UNL     1       5.075   0.155   0.105  1.00  0.00     0.003 A 
HETATM   12  C8  UNL     1       4.071   1.068  -0.139  1.00  0.00     0.030 A 
HETATM   13  C9  UNL     1       2.743   0.681  -0.028  1.00  0.00     0.047 A 
HETATM   14  N3  UNL     1       2.008   1.785  -0.323  1.00  0.00    -0.340 N 
ATOM     15  H3  UNL     1       2.585   2.592  -0.559  1.00  0.00     0.167 HD
HETATM   16  C10 UNL     1       0.687   2.054  -0.374  1.00  0.00     0.135 A 
HETATM   17  N4  UNL     1       0.369   3.335  -0.647  1.00  0.00    -0.337 N 
ATOM     18  H4  UNL     1       1.036   4.089  -0.812  1.00  0.00     0.168 HD
HETATM   19  C11 UNL     1      -0.970   3.457  -0.666  1.00  0.00     0.182 A 
HETATM   20  N5  UNL     1      -1.517   2.258  -0.406  1.00  0.00    -0.349 N 
ATOM     21  H5  UNL     1      -2.514   2.049  -0.356  1.00  0.00     0.167 HD
HETATM   22  C12 UNL     1      -0.512   1.384  -0.224  1.00  0.00     0.090 A 
HETATM   23  C13 UNL     1      -0.865   0.068   0.059  1.00  0.00     0.028 C 
HETATM   24  C20 UNL     1       2.432  -0.625   0.327  1.00  0.00     0.035 A 
ENDROOT
BRANCH  23  25
HETATM   25  C14 UNL     1      -2.286  -0.215  -0.098  1.00  0.00    -0.022 A 
HETATM   26  C15 UNL     1      -3.146  -0.245   0.984  1.00  0.00     0.012 A 
HETATM   27  C16 UNL     1      -4.509  -0.521   0.840  1.00  0.00     0.001 A 
HETATM   28  C17 UNL     1      -4.998  -0.770  -0.426  1.00  0.00     0.000 A 
HETATM   29  C18 UNL     1      -4.160  -0.744  -1.517  1.00  0.00     0.001 A 
HETATM   30  C19 UNL     1      -2.822  -0.471  -1.355  1.00  0.00     0.012 A 
ENDBRANCH  23  25
TORSDOF 1
