REMARK  1 active torsions:
REMARK  status: ('A' for Active; 'I' for Inactive)
REMARK    1  A    between atoms: C8_8  and  C9_9 
ROOT
HETATM    1  C1  UNL     1      -4.591  -0.754   1.047  1.00  0.00     0.015 C 
HETATM    2  C2  UNL     1      -3.510  -0.304   0.078  1.00  0.00    -0.043 C 
HETATM    3  C3  UNL     1      -4.086  -0.240  -1.332  1.00  0.00     0.015 C 
HETATM    4  C4  UNL     1      -3.012   1.037   0.523  1.00  0.00     0.013 C 
HETATM    5  C5  UNL     1      -1.903   1.523  -0.398  1.00  0.00     0.040 C 
HETATM    6  C6  UNL     1      -0.735   0.594  -0.059  1.00  0.00    -0.044 A 
HETATM    7  C7  UNL     1       0.556   0.950   0.036  1.00  0.00     0.025 A 
HETATM    8  C8  UNL     1       1.459  -0.028   0.353  1.00  0.00     0.019 A 
HETATM    9  S1  UNL     1       0.480  -1.411   0.509  1.00  0.00    -0.096 SA
HETATM   10  C13 UNL     1      -1.045  -0.715   0.168  1.00  0.00    -0.010 A 
HETATM   11  C14 UNL     1      -2.419  -1.302   0.109  1.00  0.00     0.055 C 
ENDROOT
BRANCH   8  12
HETATM   12  C9  UNL     1       2.941   0.051   0.529  1.00  0.00     0.300 A 
HETATM   13  C10 UNL     1       3.710  -0.644  -0.568  1.00  0.00     0.289 A 
HETATM   14  C11 UNL     1       5.092  -1.120  -0.210  1.00  0.00     0.272 C 
HETATM   15  N2  UNL     1       3.710   0.789  -0.448  1.00  0.00     0.134 N 
HETATM   16  N1  UNL     1       5.903   0.079  -0.206  1.00  0.00    -0.046 N 
HETATM   17  C12 UNL     1       5.021   1.190  -0.000  1.00  0.00     0.504 C 
ATOM     18  H12 UNL     1       6.664   0.043   0.472  1.00  0.00     0.279 HD
ATOM     19  H11 UNL     1       6.477   0.175  -1.044  1.00  0.00     0.279 HD
ENDBRANCH   8  12
TORSDOF 1
