REMARK  3 active torsions:
REMARK  status: ('A' for Active; 'I' for Inactive)
REMARK    1  A    between atoms: C7_15  and  N5_16 
REMARK    2  A    between atoms: N5_16  and  C8_18 
REMARK    3  A    between atoms: C8_18  and  C11_21 
ROOT
HETATM    1  C1  UNL     1       1.423  -0.414   2.824  1.00  0.00     0.072 C 
HETATM    2  C2  UNL     1       1.795  -0.306   1.395  1.00  0.00     0.050 C 
HETATM    3  N1  UNL     1       2.916   0.298   1.088  1.00  0.00    -0.341 N 
ATOM      4  H1  UNL     1       3.449   0.652   1.883  1.00  0.00     0.167 HD
HETATM    5  C3  UNL     1       3.502   0.535  -0.184  1.00  0.00     0.131 A 
HETATM    6  N2  UNL     1       4.428   1.439  -0.518  1.00  0.00    -0.337 N 
ATOM      7  H2  UNL     1       4.851   2.103   0.130  1.00  0.00     0.168 HD
HETATM    8  C4  UNL     1       4.726   1.352  -1.827  1.00  0.00     0.182 A 
HETATM    9  N3  UNL     1       3.965   0.361  -2.345  1.00  0.00    -0.351 N 
ATOM     10  H3  UNL     1       3.962   0.053  -3.317  1.00  0.00     0.166 HD
HETATM   11  C5  UNL     1       3.201  -0.155  -1.337  1.00  0.00     0.072 A 
HETATM   12  C6  UNL     1       2.254  -1.260  -1.574  1.00  0.00     0.182 C 
HETATM   13  N4  UNL     1       1.107  -1.269  -0.730  1.00  0.00    -0.369 N 
ATOM     14  H4  UNL     1       0.294  -1.665  -1.202  1.00  0.00     0.161 HD
HETATM   15  C7  UNL     1       0.832  -0.909   0.467  1.00  0.00     0.120 C 
ENDROOT
BRANCH  15  16
HETATM   16  N5  UNL     1      -0.500  -1.115   0.936  1.00  0.00    -0.366 N 
ATOM     17  H5  UNL     1      -0.597  -1.539   1.859  1.00  0.00     0.162 HD
BRANCH  16  18
HETATM   18  C8  UNL     1      -1.703  -0.795   0.259  1.00  0.00     0.031 C 
HETATM   19  C9  UNL     1      -2.875  -1.270   1.135  1.00  0.00     0.039 C 
HETATM   20  C10 UNL     1      -1.815  -1.597  -1.022  1.00  0.00     0.039 C 
BRANCH  18  21
HETATM   21  C11 UNL     1      -1.921   0.675  -0.000  1.00  0.00    -0.027 C 
HETATM   22  C12 UNL     1      -3.260   0.883  -0.727  1.00  0.00     0.017 C 
HETATM   23  C13 UNL     1      -0.889   1.315  -0.874  1.00  0.00     0.017 C 
HETATM   24  C14 UNL     1      -2.015   1.468   1.277  1.00  0.00     0.017 C 
ENDBRANCH  18  21
ENDBRANCH  16  18
ENDBRANCH  15  16
TORSDOF 3
