REMARK  4 active torsions:
REMARK  status: ('A' for Active; 'I' for Inactive)
REMARK    1  A    between atoms: C2_2  and  O1_5 
REMARK    2  A    between atoms: O1_5  and  C5_6 
REMARK    3  A    between atoms: N1_7  and  N2_9 
REMARK    4  A    between atoms: C6_10  and  C7_11 
ROOT
HETATM    1  N2  UNL     1      -0.798   0.506   0.966  1.00  0.00    -0.213 N 
HETATM    2  C6  UNL     1      -2.139   0.431   0.733  1.00  0.00     0.128 A 
HETATM    3  N3  UNL     1      -2.797   1.197   1.658  1.00  0.00    -0.284 N 
ATOM      4  H3  UNL     1      -3.807   1.324   1.715  1.00  0.00     0.188 HD
HETATM    5  N4  UNL     1      -1.932   1.727   2.439  1.00  0.00    -0.273 N 
ATOM      6  H4  UNL     1      -2.131   2.347   3.224  1.00  0.00     0.189 HD
HETATM    7  C11 UNL     1      -0.699   1.316   2.035  1.00  0.00     0.213 A 
HETATM    8  S1  UNL     1       0.667   1.787   2.812  1.00  0.00    -0.037 SA
ENDROOT
BRANCH   1   9
HETATM    9  N1  UNL     1       0.218  -0.025   0.308  1.00  0.00    -0.280 N 
HETATM   10  C5  UNL     1       0.663  -0.853  -0.455  1.00  0.00     0.243 C 
ATOM     11  H1  UNL     1       1.023   0.542   0.574  1.00  0.00     0.189 HD
BRANCH  10  12
HETATM   12  O1  UNL     1       2.035  -0.778  -0.730  1.00  0.00    -0.335 OA
BRANCH  12  13
HETATM   13  C2  UNL     1       3.040  -0.026  -0.292  1.00  0.00     0.057 C 
HETATM   14  C1  UNL     1       4.262  -0.492  -1.175  1.00  0.00     0.045 C 
HETATM   15  C3  UNL     1       3.010   1.465  -0.487  1.00  0.00     0.045 C 
HETATM   16  C4  UNL     1       3.534  -0.432   1.079  1.00  0.00     0.045 C 
ENDBRANCH  12  13
ENDBRANCH  10  12
ENDBRANCH   1   9
BRANCH   2  17
HETATM   17  C7  UNL     1      -2.773  -0.368  -0.341  1.00  0.00     0.011 C 
HETATM   18  C8  UNL     1      -2.663  -1.851  -0.091  1.00  0.00     0.023 C 
HETATM   19  C9  UNL     1      -2.397   0.060  -1.737  1.00  0.00     0.023 C 
HETATM   20  C10 UNL     1      -4.278  -0.069  -0.238  1.00  0.00     0.023 C 
ENDBRANCH   2  17
TORSDOF 4
