REMARK  2 active torsions:
REMARK  status: ('A' for Active; 'I' for Inactive)
REMARK    1  A    between atoms: C6_6  and  C7_7 
REMARK    2  A    between atoms: C8_10  and  N2_11 
ROOT
HETATM    1  C1  UNL     1      -3.587  -0.048  -0.840  1.00  0.00     0.045 C 
HETATM    2  C2  UNL     1      -2.193   0.229  -0.258  1.00  0.00     0.055 C 
HETATM    3  C3  UNL     1      -2.461   0.760   1.158  1.00  0.00     0.045 C 
HETATM    4  C4  UNL     1      -1.605   1.349  -1.038  1.00  0.00     0.038 C 
HETATM    5  C5  UNL     1      -0.185   1.530  -0.484  1.00  0.00     0.017 C 
HETATM    6  C6  UNL     1       0.503   0.218  -0.883  1.00  0.00     0.079 C 
HETATM    7  C9  UNL     1      -0.194  -0.980  -0.381  1.00  0.00     0.064 C 
HETATM    8  C10 UNL     1       0.033  -2.114  -1.400  1.00  0.00     0.046 C 
HETATM    9  C11 UNL     1       0.410  -1.531   0.917  1.00  0.00     0.046 C 
HETATM   10  O1  UNL     1      -1.522  -0.911  -0.176  1.00  0.00    -0.370 OA
ENDROOT
BRANCH   6  11
HETATM   11  C7  UNL     1       1.922   0.329  -0.475  1.00  0.00     0.091 A 
HETATM   12  N1  UNL     1       2.508   0.372   0.703  1.00  0.00    -0.187 N 
HETATM   13  C8  UNL     1       3.810   0.475   0.780  1.00  0.00     0.682 A 
ATOM     14  H1  UNL     1       1.948   0.325   1.554  1.00  0.00     0.184 HD
HETATM   15  N3  UNL     1       4.492   0.532  -0.373  1.00  0.00    -0.159 N 
HETATM   16  S1  UNL     1       3.260   0.437  -1.518  1.00  0.00     0.016 SA
ATOM     17  H3  UNL     1       5.498   0.612  -0.519  1.00  0.00     0.193 HD
BRANCH  13  18
HETATM   18  N2  UNL     1       4.423   0.521   1.965  1.00  0.00    -0.234 N 
ATOM     19  H22 UNL     1       3.904   0.478   2.842  1.00  0.00     0.174 HD
ATOM     20  H21 UNL     1       5.438   0.601   2.025  1.00  0.00     0.174 HD
ENDBRANCH  13  18
ENDBRANCH   6  11
TORSDOF 2
