REMARK  6 active torsions:
REMARK  status: ('A' for Active; 'I' for Inactive)
REMARK    1  A    between atoms: O1_2  and  C2_3 
REMARK    2  A    between atoms: C7_9  and  O2_10 
REMARK    3  A    between atoms: C10_14  and  C12_16 
REMARK    4  A    between atoms: C12_16  and  O3_19 
REMARK    5  A    between atoms: C16_22  and  O4_23 
REMARK    6  A    between atoms: C17_25  and  O5_26 
ROOT
HETATM    1  C2  UNL     1       1.691  -1.189  -0.373  1.00  0.00     0.160 C 
HETATM    2  C3  UNL     1       0.467  -0.748  -1.139  1.00  0.00     0.205 C 
HETATM    3  F1  UNL     1       0.791  -0.159  -2.366  1.00  0.00    -0.246 F 
HETATM    4  C4  UNL     1      -0.604  -0.043  -0.385  1.00  0.00     0.044 C 
HETATM    5  C5  UNL     1      -0.560   1.428  -0.581  1.00  0.00     0.001 C 
HETATM    6  C6  UNL     1      -1.412   2.273   0.297  1.00  0.00     0.050 C 
HETATM    7  C7  UNL     1      -2.407   2.400  -0.840  1.00  0.00     0.059 C 
HETATM    8  C8  UNL     1      -3.443   1.357  -0.477  1.00  0.00     0.038 C 
HETATM    9  C9  UNL     1      -3.095   0.032  -0.937  1.00  0.00     0.016 C 
HETATM   10  C10 UNL     1      -1.940  -0.730  -0.396  1.00  0.00    -0.006 C 
HETATM   11  C11 UNL     1      -1.952  -1.868  -1.455  1.00  0.00     0.019 C 
HETATM   12  C15 UNL     1      -1.349   1.938  -1.771  1.00  0.00     0.050 C 
HETATM   13  C16 UNL     1       0.783   2.084  -0.597  1.00  0.00     0.156 C 
HETATM   14  C17 UNL     1       1.656   1.914   0.592  1.00  0.00     0.152 C 
HETATM   15  C18 UNL     1       2.701   0.902   0.235  1.00  0.00     0.032 A 
HETATM   16  C19 UNL     1       2.145  -0.389   0.751  1.00  0.00     0.033 A 
HETATM   17  C20 UNL     1       3.485   0.071   1.112  1.00  0.00    -0.035 A 
HETATM   18  C21 UNL     1       3.730   0.621   2.509  1.00  0.00     0.016 C 
HETATM   19  C22 UNL     1       4.718  -0.602   0.558  1.00  0.00     0.016 C 
ENDROOT
BRANCH  10  20
HETATM   20  C12 UNL     1      -2.332  -1.441   0.860  1.00  0.00     0.058 C 
HETATM   21  C13 UNL     1      -1.417  -2.552   1.325  1.00  0.00     0.046 C 
HETATM   22  C14 UNL     1      -3.700  -2.122   0.802  1.00  0.00     0.046 C 
BRANCH  20  23
HETATM   23  O3  UNL     1      -2.512  -0.624   1.977  1.00  0.00    -0.390 OA
ATOM     24  H3  UNL     1      -2.761  -1.076   2.775  1.00  0.00     0.210 HD
ENDBRANCH  20  23
ENDBRANCH  10  20
BRANCH   1  25
HETATM   25  O1  UNL     1       2.677  -1.489  -1.318  1.00  0.00    -0.387 OA
HETATM   26  C1  UNL     1       2.941  -2.868  -1.396  1.00  0.00     0.202 C 
ENDBRANCH   1  25
BRANCH  13  27
HETATM   27  O4  UNL     1       0.570   3.494  -0.703  1.00  0.00    -0.392 OA
ATOM     28  H4  UNL     1       1.424   3.911  -0.713  1.00  0.00     0.210 HD
ENDBRANCH  13  27
BRANCH   7  29
HETATM   29  O2  UNL     1      -2.921   3.643  -1.092  1.00  0.00    -0.390 OA
ATOM     30  H2  UNL     1      -3.544   3.723  -1.804  1.00  0.00     0.210 HD
ENDBRANCH   7  29
BRANCH  14  31
HETATM   31  O5  UNL     1       2.348   3.067   0.961  1.00  0.00    -0.393 OA
ATOM     32  H5  UNL     1       2.907   2.958   1.722  1.00  0.00     0.210 HD
ENDBRANCH  14  31
TORSDOF 6
