REMARK  6 active torsions:
REMARK  status: ('A' for Active; 'I' for Inactive)
REMARK    1  A    between atoms: C2_2  and  N1_3 
REMARK       I    between atoms: N1_3  and  C3_5 
REMARK       I    between atoms: C3_5  and  N2_7 
REMARK    2  A    between atoms: N2_7  and  C4_9 
REMARK    3  A    between atoms: C7_14  and  C8_15 
REMARK    4  A    between atoms: C9_16  and  C10_17 
REMARK       I    between atoms: C10_17  and  N4_19 
REMARK    5  A    between atoms: N4_19  and  C11_21 
REMARK    6  A    between atoms: C16_27  and  N5_28 
ROOT
HETATM    1  N5  UNL     1       1.879  -2.882   1.231  1.00  0.00    -0.289 N 
ATOM      2  H5  UNL     1       1.984  -3.715   0.652  1.00  0.00     0.178 HD
HETATM    3  C17 UNL     1       2.290  -2.862   2.573  1.00  0.00     0.182 C 
HETATM    4  N6  UNL     1       2.620  -2.830   3.697  1.00  0.00    -0.172 NA
ENDROOT
BRANCH   1   5
HETATM    5  C16 UNL     1       1.310  -1.688   0.718  1.00  0.00     0.101 A 
HETATM    6  C15 UNL     1      -0.030  -1.407   0.769  1.00  0.00     0.163 A 
HETATM    7  C7  UNL     1      -0.435  -0.213   0.233  1.00  0.00     0.061 A 
HETATM    8  F1  UNL     1      -0.896  -2.256   1.314  1.00  0.00    -0.202 F 
HETATM    9  C6  UNL     1       0.419   0.683  -0.333  1.00  0.00     0.054 A 
HETATM   10  C5  UNL     1       1.802   0.412  -0.395  1.00  0.00     0.055 A 
HETATM   11  N3  UNL     1       2.722   1.200  -0.917  1.00  0.00    -0.335 N 
HETATM   12  C18 UNL     1       2.213  -0.775   0.137  1.00  0.00     0.065 A 
HETATM   13  C4  UNL     1       3.988   0.792  -0.894  1.00  0.00     0.153 A 
ATOM     14  H3  UNL     1       2.469   2.099  -1.328  1.00  0.00     0.168 HD
HETATM   15  S1  UNL     1       3.897  -0.727  -0.126  1.00  0.00    -0.049 SA
BRANCH   7  16
HETATM   16  C8  UNL     1      -1.861   0.103   0.278  1.00  0.00    -0.053 C 
HETATM   17  C9  UNL     1      -3.041   0.344   0.316  1.00  0.00     0.000 C 
BRANCH  17  18
HETATM   18  C10 UNL     1      -4.441   0.637   0.385  1.00  0.00     0.297 C 
HETATM   19  O2  UNL     1      -4.764   1.691   1.007  1.00  0.00    -0.258 OA
HETATM   20  N4  UNL     1      -5.431  -0.188  -0.201  1.00  0.00    -0.342 N 
ATOM     21  H4  UNL     1      -5.131  -1.029  -0.694  1.00  0.00     0.164 HD
BRANCH  20  22
HETATM   22  C11 UNL     1      -6.843   0.101  -0.136  1.00  0.00     0.023 C 
HETATM   23  C12 UNL     1      -7.220   0.134   1.337  1.00  0.00     0.037 C 
HETATM   24  C13 UNL     1      -7.100   1.477  -0.714  1.00  0.00     0.037 C 
HETATM   25  C14 UNL     1      -7.669  -0.908  -0.873  1.00  0.00     0.037 C 
ENDBRANCH  20  22
ENDBRANCH  17  18
ENDBRANCH   7  16
BRANCH  13  26
HETATM   26  N2  UNL     1       5.046   1.430  -1.361  1.00  0.00    -0.289 N 
HETATM   27  C3  UNL     1       6.324   0.880  -1.269  1.00  0.00     0.322 C 
HETATM   28  N1  UNL     1       7.374   1.599  -0.651  1.00  0.00    -0.343 N 
HETATM   29  O1  UNL     1       6.555  -0.259  -1.734  1.00  0.00    -0.247 OA
ATOM     30  H1  UNL     1       7.184   2.527  -0.272  1.00  0.00     0.164 HD
ATOM     31  H2  UNL     1       4.926   2.344  -1.798  1.00  0.00     0.172 HD
BRANCH  28  32
HETATM   32  C2  UNL     1       8.713   1.053  -0.541  1.00  0.00     0.120 C 
HETATM   33  C1  UNL     1       8.677  -0.222   0.244  1.00  0.00     0.026 C 
ENDBRANCH  28  32
ENDBRANCH  13  26
ENDBRANCH   1   5
TORSDOF 6
