REMARK  5 active torsions:
REMARK  status: ('A' for Active; 'I' for Inactive)
REMARK    1  A    between atoms: N1_1  and  N2_4 
REMARK    2  A    between atoms: N2_4  and  N3_5 
REMARK    3  A    between atoms: N3_5  and  C1_7 
REMARK    4  A    between atoms: C8_17  and  C9_18 
REMARK    5  A    between atoms: C9_18  and  O4_19 
ROOT
HETATM    1  C1  UNL     1      -1.756   0.457  -0.175  1.00  0.00     0.148 C 
HETATM    2  C2  UNL     1      -0.504   1.234   0.256  1.00  0.00     0.078 C 
HETATM    3  C3  UNL     1       0.586   0.244  -0.088  1.00  0.00     0.145 C 
HETATM    4  C4  UNL     1       1.608   0.870  -1.010  1.00  0.00     0.213 C 
HETATM    5  O1  UNL     1       2.716   1.319  -0.297  1.00  0.00    -0.387 OA
HETATM    6  C5  UNL     1       3.501   0.304   0.201  1.00  0.00     0.175 C 
HETATM    7  C6  UNL     1       2.691  -0.769   0.904  1.00  0.00     0.108 C 
HETATM    8  C7  UNL     1       1.334  -0.194   1.138  1.00  0.00     0.165 C 
HETATM    9  O2  UNL     1       0.842  -0.078   2.247  1.00  0.00    -0.294 OA
HETATM   10  O3  UNL     1      -0.015  -0.873  -0.617  1.00  0.00    -0.360 OA
HETATM   11  C8  UNL     1      -1.260  -0.950   0.027  1.00  0.00     0.172 C 
ENDROOT
BRANCH   1  12
HETATM   12  N3  UNL     1      -2.862   0.791   0.670  1.00  0.00    -0.245 N 
ATOM     13  H3  UNL     1      -3.154   0.170   1.424  1.00  0.00     0.197 HD
BRANCH  12  14
HETATM   14  N2  UNL     1      -3.449   1.851   0.458  1.00  0.00    -0.248 NA
BRANCH  14  15
HETATM   15  N1  UNL     1      -4.067   2.880   0.135  1.00  0.00    -0.261 N 
ATOM     16  H12 UNL     1      -4.175   2.353  -0.732  1.00  0.00     0.193 HD
ATOM     17  H11 UNL     1      -4.554   3.759  -0.041  1.00  0.00     0.193 HD
ENDBRANCH  14  15
ENDBRANCH  12  14
ENDBRANCH   1  12
BRANCH  11  18
HETATM   18  C9  UNL     1      -2.151  -1.984  -0.606  1.00  0.00     0.198 C 
BRANCH  18  19
HETATM   19  O4  UNL     1      -2.361  -1.654  -1.928  1.00  0.00    -0.398 OA
ATOM     20  H4  UNL     1      -2.924  -2.307  -2.328  1.00  0.00     0.209 HD
ENDBRANCH  18  19
ENDBRANCH  11  18
TORSDOF 5
