REMARK  3 active torsions:
REMARK  status: ('A' for Active; 'I' for Inactive)
REMARK    1  A    between atoms: O1_1  and  C1_3 
REMARK    2  A    between atoms: C3_6  and  C4_7 
REMARK    3  A    between atoms: C4_7  and  N1_8 
ROOT
HETATM    1  C1  UNL     1       4.174  -0.334  -0.144  1.00  0.00     0.165 C 
HETATM    2  C2  UNL     1       3.289   0.829   0.233  1.00  0.00     0.205 C 
HETATM    3  O2  UNL     1       2.008   0.507   0.536  1.00  0.00    -0.357 OA
HETATM    4  C3  UNL     1       1.407  -0.482  -0.241  1.00  0.00     0.287 C 
HETATM    5  O3  UNL     1       2.140  -1.625  -0.387  1.00  0.00    -0.357 OA
HETATM    6  C11 UNL     1       3.395  -1.399  -0.888  1.00  0.00     0.205 C 
ENDROOT
BRANCH   4   7
HETATM    7  C4  UNL     1       0.136  -0.836   0.564  1.00  0.00     0.332 C 
BRANCH   7   8
HETATM    8  N1  UNL     1      -0.629   0.383   0.630  1.00  0.00     0.093 N 
HETATM    9  C5  UNL     1      -1.694   0.354   1.578  1.00  0.00     0.272 C 
HETATM   10  C6  UNL     1      -2.722  -0.710   1.413  1.00  0.00     0.030 C 
HETATM   11  C7  UNL     1      -3.915  -0.062   0.695  1.00  0.00     0.002 C 
HETATM   12  C8  UNL     1      -3.449   0.129  -0.727  1.00  0.00     0.002 C 
HETATM   13  C9  UNL     1      -2.463   1.277  -0.780  1.00  0.00     0.030 C 
HETATM   14  C10 UNL     1      -1.037   0.843  -0.676  1.00  0.00     0.272 C 
ENDBRANCH   7   8
ENDBRANCH   4   7
BRANCH   1  15
HETATM   15  O1  UNL     1       5.169   0.135  -0.998  1.00  0.00    -0.391 OA
ATOM     16  H1  UNL     1       5.726  -0.597  -1.235  1.00  0.00     0.210 HD
ENDBRANCH   1  15
TORSDOF 3
