REMARK  2 active torsions:
REMARK  status: ('A' for Active; 'I' for Inactive)
REMARK    1  A    between atoms: S1_2  and  O4_5 
REMARK    2  A    between atoms: O4_5  and  C1_6 
ROOT
HETATM    1  C1  UNL     1       1.143  -0.555   0.091  1.00  0.00     0.285 C 
HETATM    2  O5  UNL     1       0.640  -0.966   1.326  1.00  0.00    -0.359 OA
HETATM    3  C2  UNL     1      -0.333  -1.885   0.954  1.00  0.00     0.176 C 
HETATM    4  C3  UNL     1      -1.142  -1.062  -0.059  1.00  0.00     0.018 C 
HETATM    5  C4  UNL     1      -2.304  -0.463   0.618  1.00  0.00     0.007 C 
HETATM    6  C5  UNL     1      -2.704   0.839  -0.049  1.00  0.00     0.000 C 
HETATM    7  C6  UNL     1      -1.524   1.761   0.173  1.00  0.00     0.001 C 
HETATM    8  C7  UNL     1      -0.395   1.276  -0.678  1.00  0.00     0.010 C 
HETATM    9  C8  UNL     1      -0.147  -0.177  -0.654  1.00  0.00     0.048 C 
ENDROOT
BRANCH   1  10
HETATM   10  O4  UNL     1       1.931   0.564   0.161  1.00  0.00    -0.224 OA
BRANCH  10  11
HETATM   11  S1  UNL     1       3.444   0.358  -0.525  1.00  0.00     0.254 S 
HETATM   12  O1  UNL     1       3.496  -0.818  -1.445  1.00  0.00    -0.572 OA
HETATM   13  O2  UNL     1       3.741   1.592  -1.329  1.00  0.00    -0.572 OA
HETATM   14  O3  UNL     1       4.562   0.255   0.709  1.00  0.00    -0.572 OA
ENDBRANCH  10  11
ENDBRANCH   1  10
TORSDOF 2
