REMARK  3 active torsions:
REMARK  status: ('A' for Active; 'I' for Inactive)
REMARK    1  A    between atoms: C2_2  and  O1_4 
REMARK    2  A    between atoms: C2_2  and  C4_6 
REMARK    3  A    between atoms: C5_7  and  C6_8 
ROOT
HETATM    1  C6  UNL     1       0.227   0.167  -0.658  1.00  0.00     0.142 C 
HETATM    2  C7  UNL     1       0.088  -0.401  -2.049  1.00  0.00     0.063 C 
HETATM    3  C8  UNL     1       0.911   1.481  -0.633  1.00  0.00     0.171 C 
HETATM    4  N1  UNL     1       2.308   1.417  -0.285  1.00  0.00    -0.382 N 
ATOM      5  H1  UNL     1       2.805   2.291  -0.115  1.00  0.00     0.160 HD
HETATM    6  C9  UNL     1       3.043   0.172  -0.164  1.00  0.00     0.095 A 
HETATM    7  C10 UNL     1       4.405   0.067  -0.247  1.00  0.00     0.117 A 
HETATM    8  N2  UNL     1       5.390   1.069  -0.458  1.00  0.00    -0.092 NA
HETATM    9  S1  UNL     1       4.653  -1.626  -0.028  1.00  0.00    -0.059 SA
HETATM   10  C11 UNL     1       3.036  -2.119   0.158  1.00  0.00     0.122 A 
HETATM   11  C12 UNL     1       2.578  -3.471   0.381  1.00  0.00     0.110 C 
HETATM   12  N3  UNL     1       2.190  -4.550   0.560  1.00  0.00    -0.191 NA
HETATM   13  C13 UNL     1       2.338  -0.942   0.043  1.00  0.00     0.127 A 
HETATM   14  O2  UNL     1       0.927  -0.782   0.122  1.00  0.00    -0.322 OA
ENDROOT
BRANCH   1  15
HETATM   15  C5  UNL     1      -1.142   0.233  -0.095  1.00  0.00    -0.063 C 
HETATM   16  C4  UNL     1      -2.257   0.307   0.359  1.00  0.00    -0.066 C 
BRANCH  16  17
HETATM   17  C2  UNL     1      -3.613   0.418   0.926  1.00  0.00     0.114 C 
HETATM   18  C1  UNL     1      -3.594   0.220   2.417  1.00  0.00     0.060 C 
HETATM   19  C3  UNL     1      -4.443  -0.660   0.273  1.00  0.00     0.060 C 
BRANCH  17  20
HETATM   20  O1  UNL     1      -4.179   1.662   0.664  1.00  0.00    -0.378 OA
ATOM     21  H1  UNL     1      -4.191   1.787  -0.278  1.00  0.00     0.211 HD
ENDBRANCH  17  20
ENDBRANCH  16  17
ENDBRANCH   1  15
TORSDOF 3
