REMARK  5 active torsions:
REMARK  status: ('A' for Active; 'I' for Inactive)
REMARK    1  A    between atoms: C2_2  and  O1_4 
REMARK    2  A    between atoms: O1_4  and  C4_5 
REMARK       I    between atoms: C4_5  and  N1_7 
REMARK       I    between atoms: N1_7  and  C5_8 
REMARK       I    between atoms: C5_8  and  N2_9 
REMARK       I    between atoms: C5_8  and  N4_19 
REMARK    3  A    between atoms: N2_9  and  N3_11 
REMARK    4  A    between atoms: C6_13  and  C7_14 
REMARK    5  A    between atoms: N4_19  and  C11_21 
ROOT
HETATM    1  C4  UNL     1       1.685  -1.772   0.692  1.00  0.00     0.443 C 
HETATM    2  O2  UNL     1       1.221  -2.357   1.740  1.00  0.00    -0.221 OA
HETATM    3  N1  UNL     1       1.102  -0.714   0.193  1.00  0.00    -0.309 NA
HETATM    4  C5  UNL     1       0.543   0.248  -0.227  1.00  0.00     0.276 C 
HETATM    5  N2  UNL     1       0.947   0.926  -1.423  1.00  0.00    -0.260 N 
ATOM      6  H2  UNL     1       0.699   0.517  -2.324  1.00  0.00     0.191 HD
HETATM    7  N4  UNL     1      -0.602   0.824   0.436  1.00  0.00    -0.340 N 
ATOM      8  H4  UNL     1      -0.455   1.590   1.094  1.00  0.00     0.164 HD
ENDROOT
BRANCH   5   9
HETATM    9  N3  UNL     1       1.667   2.124  -1.406  1.00  0.00    -0.307 N 
HETATM   10  C6  UNL     1       2.552   2.359  -0.516  1.00  0.00     0.126 C 
ATOM     11  H3  UNL     1       1.481   2.827  -2.121  1.00  0.00     0.186 HD
BRANCH  10  12
HETATM   12  C7  UNL     1       3.262   3.651  -0.576  1.00  0.00     0.021 A 
HETATM   13  C8  UNL     1       3.111   4.674  -1.474  1.00  0.00     0.021 A 
HETATM   14  C9  UNL     1       3.883   5.753  -1.311  1.00  0.00     0.008 A 
HETATM   15  C10 UNL     1       4.762   5.751  -0.262  1.00  0.00     0.050 A 
HETATM   16  S1  UNL     1       4.478   4.233   0.465  1.00  0.00    -0.101 SA
ENDBRANCH  10  12
ENDBRANCH   5   9
BRANCH   7  17
HETATM   17  C11 UNL     1      -1.935   0.362   0.206  1.00  0.00     0.035 C 
HETATM   18  C12 UNL     1      -2.883   1.175   1.055  1.00  0.00     0.035 C 
HETATM   19  C13 UNL     1      -4.291   0.644   0.970  1.00  0.00    -0.012 C 
HETATM   20  C14 UNL     1      -4.265  -0.794   1.432  1.00  0.00     0.009 C 
HETATM   21  C18 UNL     1      -4.751   0.781  -0.462  1.00  0.00     0.009 C 
HETATM   22  C15 UNL     1      -3.433  -1.619   0.498  1.00  0.00    -0.012 C 
HETATM   23  C16 UNL     1      -3.901  -1.454  -0.937  1.00  0.00     0.009 C 
HETATM   24  C20 UNL     1      -2.006  -1.114   0.549  1.00  0.00     0.035 C 
HETATM   25  C17 UNL     1      -3.784  -0.000  -1.354  1.00  0.00    -0.012 C 
HETATM   26  C19 UNL     1      -2.374   0.521  -1.232  1.00  0.00     0.035 C 
ENDBRANCH   7  17
BRANCH   1  27
HETATM   27  O1  UNL     1       2.846  -2.422   0.207  1.00  0.00    -0.288 OA
BRANCH  27  28
HETATM   28  C2  UNL     1       3.404  -3.553   0.803  1.00  0.00     0.126 C 
HETATM   29  C1  UNL     1       3.394  -4.674  -0.212  1.00  0.00     0.040 C 
HETATM   30  C3  UNL     1       4.846  -3.329   1.226  1.00  0.00     0.040 C 
ENDBRANCH  27  28
ENDBRANCH   1  27
TORSDOF 5
