REMARK  3 active torsions:
REMARK  status: ('A' for Active; 'I' for Inactive)
REMARK    1  A    between atoms: C17_22  and  O3_23 
REMARK    2  A    between atoms: O3_23  and  C18_24 
REMARK    3  A    between atoms: C18_24  and  C19_26 
ROOT
HETATM    1  C1  UNL     1       4.354   1.147  -2.652  1.00  0.00     0.027 C 
HETATM    2  C2  UNL     1       3.750   1.468  -1.539  1.00  0.00     0.038 C 
HETATM    3  C3  UNL     1       2.984   2.712  -1.505  1.00  0.00     0.292 C 
HETATM    4  O1  UNL     1       3.308   3.732  -2.141  1.00  0.00    -0.259 OA
HETATM    5  O2  UNL     1       1.823   2.660  -0.675  1.00  0.00    -0.279 OA
HETATM    6  C4  UNL     1       1.693   1.350  -0.164  1.00  0.00     0.363 C 
HETATM    7  N1  UNL     1       2.939   1.171   0.621  1.00  0.00    -0.036 N 
ATOM      8  H11 UNL     1       2.829   0.631   1.479  1.00  0.00     0.281 HD
ATOM      9  H12 UNL     1       3.282   2.017   1.076  1.00  0.00     0.281 HD
HETATM   10  C5  UNL     1       3.858   0.586  -0.357  1.00  0.00     0.227 C 
HETATM   11  C6  UNL     1       3.345  -0.823  -0.573  1.00  0.00     0.042 C 
HETATM   12  C7  UNL     1       2.635  -1.389   0.602  1.00  0.00     0.036 C 
HETATM   13  C8  UNL     1       1.253  -1.990   0.314  1.00  0.00    -0.078 C 
HETATM   14  C9  UNL     1       1.142  -2.392  -1.101  1.00  0.00     0.044 C 
HETATM   15  C10 UNL     1       0.144  -1.320   1.016  1.00  0.00    -0.035 C 
HETATM   16  C11 UNL     1      -1.006  -2.164   1.438  1.00  0.00     0.039 C 
HETATM   17  C12 UNL     1      -1.936  -2.704   0.446  1.00  0.00     0.012 C 
HETATM   18  C13 UNL     1      -2.715  -1.755  -0.392  1.00  0.00     0.004 C 
HETATM   19  C14 UNL     1      -3.521  -2.609  -1.383  1.00  0.00     0.014 C 
HETATM   20  C15 UNL     1      -1.941  -0.806  -1.195  1.00  0.00    -0.023 C 
HETATM   21  C16 UNL     1      -0.905  -0.014  -0.841  1.00  0.00     0.017 C 
HETATM   22  C17 UNL     1      -0.361   0.005   0.534  1.00  0.00     0.139 C 
HETATM   23  C22 UNL     1       0.621   1.098   0.787  1.00  0.00     0.010 C 
HETATM   24  C23 UNL     1       0.594   1.849   1.870  1.00  0.00     0.022 C 
ENDROOT
BRANCH  22  25
HETATM   25  O3  UNL     1      -1.491   0.304   1.335  1.00  0.00    -0.293 OA
BRANCH  25  26
HETATM   26  C18 UNL     1      -2.232   1.474   1.070  1.00  0.00     0.284 C 
HETATM   27  O4  UNL     1      -1.856   2.194   0.122  1.00  0.00    -0.260 OA
BRANCH  26  28
HETATM   28  C19 UNL     1      -3.373   1.758   1.911  1.00  0.00     0.078 C 
HETATM   29  C20 UNL     1      -4.119   2.816   1.741  1.00  0.00    -0.025 C 
HETATM   30  C21 UNL     1      -3.869   3.810   0.686  1.00  0.00     0.036 C 
ENDBRANCH  26  28
ENDBRANCH  25  26
ENDBRANCH  22  25
TORSDOF 3
