REMARK  12 active torsions:
REMARK  status: ('A' for Active; 'I' for Inactive)
REMARK    1  A    between atoms: C2_2  and  O2_4 
REMARK    2  A    between atoms: O2_4  and  N1_5 
REMARK    3  A    between atoms: N1_5  and  C3_6 
REMARK    4  A    between atoms: C3_6  and  C4_7 
REMARK    5  A    between atoms: C3_6  and  C5_10 
REMARK    6  A    between atoms: C5_10  and  C6_11 
REMARK    7  A    between atoms: C5_10  and  C15_36 
REMARK       I    between atoms: C6_11  and  N2_13 
REMARK    8  A    between atoms: N2_13  and  C7_15 
REMARK    9  A    between atoms: C9_22  and  O6_23 
REMARK   10  A    between atoms: O6_23  and  C10_24 
REMARK   11  A    between atoms: C12_28  and  N6_29 
REMARK   12  A    between atoms: N6_29  and  O7_30 
ROOT
HETATM    1  C7  UNL     1       0.075  -1.693  -0.253  1.00  0.00     0.232 A 
HETATM    2  N3  UNL     1       1.210  -2.042   0.376  1.00  0.00    -0.306 N 
ATOM      3  H3  UNL     1       1.147  -2.460   1.304  1.00  0.00     0.171 HD
HETATM    4  C8  UNL     1       2.446  -1.859  -0.179  1.00  0.00     0.139 A 
HETATM    5  N4  UNL     1       3.520  -2.203   0.448  1.00  0.00    -0.383 N 
ATOM      6  H41 UNL     1       4.442  -2.066   0.034  1.00  0.00     0.157 HD
ATOM      7  H42 UNL     1       3.456  -2.620   1.377  1.00  0.00     0.157 HD
HETATM    8  C9  UNL     1       2.532  -1.296  -1.433  1.00  0.00     0.152 A 
HETATM    9  C13 UNL     1       1.348  -0.951  -2.049  1.00  0.00     0.090 A 
HETATM   10  C14 UNL     1       1.427  -0.340  -3.406  1.00  0.00     0.080 C 
HETATM   11  O9  UNL     1       0.177  -1.158  -1.446  1.00  0.00    -0.281 OA
ENDROOT
BRANCH   1  12
HETATM   12  N2  UNL     1      -1.061  -1.893   0.327  1.00  0.00    -0.292 N 
HETATM   13  C6  UNL     1      -2.303  -1.555  -0.266  1.00  0.00     0.236 C 
HETATM   14  O5  UNL     1      -2.308  -1.416  -1.519  1.00  0.00    -0.272 OA
ATOM     15  H2  UNL     1      -1.065  -2.314   1.256  1.00  0.00     0.172 HD
BRANCH  13  16
HETATM   16  C5  UNL     1      -3.549  -1.361   0.476  1.00  0.00     0.160 C 
BRANCH  16  17
HETATM   17  C3  UNL     1      -3.327  -0.226   1.447  1.00  0.00     0.226 C 
BRANCH  17  18
HETATM   18  N1  UNL     1      -2.981   0.938   0.614  1.00  0.00    -0.074 NA
BRANCH  18  19
HETATM   19  O2  UNL     1      -2.641   2.003   1.410  1.00  0.00    -0.206 OA
BRANCH  19  20
HETATM   20  C2  UNL     1      -2.691   3.316   0.966  1.00  0.00     0.273 C 
HETATM   21  C1  UNL     1      -2.295   4.385   1.930  1.00  0.00     0.127 C 
HETATM   22  O1  UNL     1      -3.056   3.552  -0.193  1.00  0.00    -0.264 OA
ENDBRANCH  19  20
ENDBRANCH  18  19
ENDBRANCH  17  18
BRANCH  17  23
HETATM   23  C4  UNL     1      -4.458   0.057   2.324  1.00  0.00     0.196 C 
HETATM   24  O3  UNL     1      -5.002   1.187   2.297  1.00  0.00    -0.647 OA
HETATM   25  O4  UNL     1      -4.960  -0.887   3.197  1.00  0.00    -0.647 OA
ENDBRANCH  17  23
ENDBRANCH  16  17
BRANCH  16  26
HETATM   26  C15 UNL     1      -3.939  -2.627   1.221  1.00  0.00     0.035 A 
HETATM   27  C16 UNL     1      -5.084  -3.305   0.939  1.00  0.00     0.081 A 
HETATM   28  S1  UNL     1      -5.027  -4.607   2.038  1.00  0.00    -0.039 SA
HETATM   29  C17 UNL     1      -3.553  -4.223   2.796  1.00  0.00     0.288 A 
HETATM   30  O10 UNL     1      -2.936  -4.837   3.742  1.00  0.00    -0.260 OA
HETATM   31  N7  UNL     1      -3.161  -3.111   2.178  1.00  0.00    -0.320 N 
ATOM     32  H7  UNL     1      -2.290  -2.646   2.433  1.00  0.00     0.169 HD
ENDBRANCH  16  26
ENDBRANCH  13  16
ENDBRANCH   1  12
BRANCH   8  33
HETATM   33  O6  UNL     1       3.741  -1.076  -2.067  1.00  0.00    -0.268 OA
BRANCH  33  34
HETATM   34  C10 UNL     1       4.411   0.153  -1.879  1.00  0.00     0.267 C 
HETATM   35  N5  UNL     1       3.903   1.124  -1.241  1.00  0.00    -0.346 N 
HETATM   36  C11 UNL     1       4.780   2.263  -1.187  1.00  0.00     0.175 C 
ATOM     37  H5  UNL     1       2.977   1.100  -0.814  1.00  0.00     0.163 HD
HETATM   38  C12 UNL     1       6.109   1.676  -1.614  1.00  0.00     0.269 C 
HETATM   39  O8  UNL     1       5.656   0.511  -2.319  1.00  0.00    -0.290 OA
BRANCH  38  40
HETATM   40  N6  UNL     1       6.721   2.612  -2.540  1.00  0.00    -0.069 NA
BRANCH  40  41
HETATM   41  O7  UNL     1       6.928   3.810  -1.994  1.00  0.00    -0.294 OA
ATOM     42  H7  UNL     1       7.328   4.422  -2.600  1.00  0.00     0.238 HD
ENDBRANCH  40  41
ENDBRANCH  38  40
ENDBRANCH  33  34
ENDBRANCH   8  33
TORSDOF 12
