REMARK  11 active torsions:
REMARK  status: ('A' for Active; 'I' for Inactive)
REMARK    1  A    between atoms: N1_1  and  C1_4 
REMARK    2  A    between atoms: C2_7  and  O1_8 
REMARK    3  A    between atoms: O1_8  and  C3_9 
REMARK    4  A    between atoms: N5_16  and  C6_18 
REMARK    5  A    between atoms: N7_22  and  C8_23 
REMARK    6  A    between atoms: C8_23  and  N8_24 
REMARK    7  A    between atoms: N13_39  and  C14_41 
REMARK    8  A    between atoms: C14_41  and  C15_42 
REMARK    9  A    between atoms: C15_42  and  C16_43 
REMARK   10  A    between atoms: C18_45  and  O2_46 
REMARK   11  A    between atoms: C20_49  and  O3_50 
ROOT
HETATM    1  C3  UNL     1       0.318  -0.516  -0.102  1.00  0.00     0.246 A 
HETATM    2  N3  UNL     1       0.170  -0.418   1.236  1.00  0.00    -0.317 N 
ATOM      3  H3  UNL     1       0.955  -0.671   1.836  1.00  0.00     0.170 HD
HETATM    4  C4  UNL     1      -0.970  -0.001   1.807  1.00  0.00     0.201 A 
HETATM    5  N4  UNL     1      -1.993   0.325   0.976  1.00  0.00    -0.187 N 
ATOM      6  H4  UNL     1      -2.874   0.646   1.377  1.00  0.00     0.185 HD
HETATM    7  C5  UNL     1      -1.877   0.237  -0.353  1.00  0.00     0.700 A 
HETATM    8  N5  UNL     1      -2.864   0.542  -1.115  1.00  0.00    -0.021 N 
ATOM      9  H5  UNL     1      -2.737   0.464  -2.124  1.00  0.00     0.203 HD
HETATM   10  N11 UNL     1      -0.729  -0.181  -0.896  1.00  0.00    -0.154 N 
ATOM     11  H11 UNL     1      -0.640  -0.248  -1.910  1.00  0.00     0.188 HD
ENDROOT
BRANCH   1  12
HETATM   12  O1  UNL     1       1.476  -0.942  -0.721  1.00  0.00    -0.245 OA
BRANCH  12  13
HETATM   13  C2  UNL     1       2.592  -1.340  -0.005  1.00  0.00     0.260 A 
HETATM   14  N2  UNL     1       2.761  -2.677   0.239  1.00  0.00    -0.154 N 
HETATM   15  C1  UNL     1       3.812  -3.154   0.923  1.00  0.00     0.693 A 
ATOM     16  H2  UNL     1       2.063  -3.333  -0.112  1.00  0.00     0.188 HD
HETATM   17  N14 UNL     1       4.724  -2.285   1.379  1.00  0.00    -0.022 N 
HETATM   18  C13 UNL     1       4.611  -0.932   1.168  1.00  0.00     0.695 A 
ATOM     19  H14 UNL     1       5.527  -2.639   1.899  1.00  0.00     0.203 HD
HETATM   20  N12 UNL     1       3.536  -0.520   0.476  1.00  0.00    -0.153 N 
HETATM   21  N13 UNL     1       5.505  -0.178   1.625  1.00  0.00    -0.225 N 
ATOM     22  H12 UNL     1       3.432   0.480   0.306  1.00  0.00     0.188 HD
ATOM     23  H13 UNL     1       6.249  -0.669   2.120  1.00  0.00     0.177 HD
BRANCH  15  24
HETATM   24  N1  UNL     1       3.881  -4.424   1.101  1.00  0.00    -0.234 N 
ATOM     25  H12 UNL     1       3.187  -5.086   0.754  1.00  0.00     0.174 HD
ATOM     26  H11 UNL     1       4.680  -4.787   1.621  1.00  0.00     0.174 HD
ENDBRANCH  15  24
BRANCH  21  27
HETATM   27  C14 UNL     1       5.673   1.226   1.581  1.00  0.00     0.142 C 
BRANCH  27  28
HETATM   28  C15 UNL     1       7.138   1.630   1.692  1.00  0.00     0.059 C 
BRANCH  28  29
HETATM   29  C16 UNL     1       7.930   1.069   0.571  1.00  0.00    -0.051 A 
HETATM   30  C17 UNL     1       8.433  -0.205   0.731  1.00  0.00     0.043 A 
HETATM   31  C18 UNL     1       9.179  -0.723  -0.309  1.00  0.00     0.068 A 
HETATM   32  C19 UNL     1       9.424  -0.023  -1.466  1.00  0.00     0.073 A 
HETATM   33  C20 UNL     1       8.898   1.268  -1.591  1.00  0.00     0.068 A 
HETATM   34  C21 UNL     1       8.148   1.811  -0.567  1.00  0.00     0.043 A 
BRANCH  31  35
HETATM   35  O2  UNL     1       9.685  -2.003  -0.153  1.00  0.00    -0.361 OA
ATOM     36  H2  UNL     1      10.198  -2.359  -0.869  1.00  0.00     0.217 HD
ENDBRANCH  31  35
BRANCH  33  37
HETATM   37  O3  UNL     1       9.145   1.971  -2.753  1.00  0.00    -0.361 OA
ATOM     38  H3  UNL     1       8.788   2.847  -2.838  1.00  0.00     0.217 HD
ENDBRANCH  33  37
ENDBRANCH  28  29
ENDBRANCH  27  28
ENDBRANCH  21  27
ENDBRANCH  12  13
ENDBRANCH   1  12
BRANCH   8  39
HETATM   39  C6  UNL     1      -4.115   0.979  -0.630  1.00  0.00     0.712 A 
HETATM   40  N6  UNL     1      -4.636   2.211  -0.599  1.00  0.00    -0.184 N 
HETATM   41  C7  UNL     1      -5.865   2.184  -0.055  1.00  0.00     0.220 A 
ATOM     42  H6  UNL     1      -4.168   3.051  -0.939  1.00  0.00     0.185 HD
HETATM   43  N7  UNL     1      -6.108   0.887   0.259  1.00  0.00    -0.245 N 
HETATM   44  N10 UNL     1      -5.049   0.186  -0.093  1.00  0.00    -0.127 N 
ATOM     45  H10 UNL     1      -4.955  -0.822   0.027  1.00  0.00     0.206 HD
BRANCH  43  46
HETATM   46  C8  UNL     1      -7.313   0.389   0.861  1.00  0.00     0.422 C 
BRANCH  46  47
HETATM   47  N8  UNL     1      -8.324  -0.023  -0.078  1.00  0.00     0.110 N 
HETATM   48  C9  UNL     1      -7.899  -1.119  -0.933  1.00  0.00     0.302 C 
HETATM   49  C10 UNL     1      -9.149  -1.564  -1.682  1.00  0.00     0.262 C 
HETATM   50  N9  UNL     1     -10.239  -0.629  -1.522  1.00  0.00    -0.072 N 
HETATM   51  C11 UNL     1      -9.777   0.695  -1.873  1.00  0.00     0.262 C 
ATOM     52  H92 UNL     1     -11.068  -0.904  -2.049  1.00  0.00     0.277 HD
ATOM     53  H91 UNL     1     -10.647  -0.663  -0.588  1.00  0.00     0.277 HD
HETATM   54  C12 UNL     1      -8.626   1.095  -0.969  1.00  0.00     0.302 C 
ENDBRANCH  46  47
ENDBRANCH  43  46
ENDBRANCH   8  39
TORSDOF 11
