REMARK  7 active torsions:
REMARK  status: ('A' for Active; 'I' for Inactive)
REMARK    1  A    between atoms: N1_2  and  C2_4 
REMARK    2  A    between atoms: C3_7  and  N3_8 
REMARK    3  A    between atoms: N3_8  and  C4_10 
REMARK    4  A    between atoms: C10_19  and  N5_20 
REMARK    5  A    between atoms: N5_20  and  C11_22 
REMARK    6  A    between atoms: C14_25  and  C15_26 
REMARK       I    between atoms: C15_26  and  N6_28 
REMARK    7  A    between atoms: N6_28  and  C16_30 
ROOT
HETATM    1  C2  UNL     1      -3.550   1.779  -0.510  1.00  0.00     0.706 A 
HETATM    2  N2  UNL     1      -3.348   0.475  -0.270  1.00  0.00    -0.021 N 
ATOM      3  H2  UNL     1      -4.145  -0.161  -0.264  1.00  0.00     0.203 HD
HETATM    4  C3  UNL     1      -2.097  -0.018  -0.034  1.00  0.00     0.711 A 
HETATM    5  N4  UNL     1      -1.062   0.850  -0.049  1.00  0.00    -0.021 N 
ATOM      6  H4  UNL     1      -0.117   0.508   0.124  1.00  0.00     0.203 HD
HETATM    7  C10 UNL     1      -1.259   2.152  -0.288  1.00  0.00     0.711 A 
HETATM    8  N9  UNL     1      -2.500   2.616  -0.517  1.00  0.00    -0.021 N 
ATOM      9  H9  UNL     1      -2.645   3.609  -0.697  1.00  0.00     0.203 HD
ENDROOT
BRANCH   7  10
HETATM   10  N5  UNL     1      -0.252   2.964  -0.297  1.00  0.00    -0.191 N 
ATOM     11  H5  UNL     1      -0.419   3.953  -0.481  1.00  0.00     0.184 HD
BRANCH  10  12
HETATM   12  C11 UNL     1       1.080   2.526  -0.060  1.00  0.00     0.049 A 
HETATM   13  C12 UNL     1       1.707   2.706   1.157  1.00  0.00     0.031 A 
HETATM   14  C13 UNL     1       2.999   2.282   1.387  1.00  0.00     0.019 A 
HETATM   15  C14 UNL     1       3.728   1.651   0.400  1.00  0.00     0.032 A 
HETATM   16  C19 UNL     1       3.104   1.469  -0.817  1.00  0.00     0.019 A 
HETATM   17  C20 UNL     1       1.808   1.895  -1.047  1.00  0.00     0.031 A 
BRANCH  15  18
HETATM   18  C15 UNL     1       5.094   1.201   0.638  1.00  0.00     0.257 C 
HETATM   19  O1  UNL     1       5.650   1.373   1.752  1.00  0.00    -0.267 OA
HETATM   20  N6  UNL     1       5.839   0.554  -0.378  1.00  0.00    -0.308 N 
ATOM     21  H6  UNL     1       6.342   1.112  -1.067  1.00  0.00     0.170 HD
BRANCH  20  22
HETATM   22  C16 UNL     1       5.887  -0.711  -0.440  1.00  0.00     0.123 A 
HETATM   23  C17 UNL     1       6.559  -1.471  -1.357  1.00  0.00     0.068 A 
HETATM   24  C18 UNL     1       6.330  -2.791  -1.041  1.00  0.00     0.111 A 
HETATM   25  N7  UNL     1       5.526  -2.821   0.059  1.00  0.00    -0.310 N 
HETATM   26  N8  UNL     1       5.275  -1.559   0.397  1.00  0.00    -0.286 N 
ATOM     27  H7  UNL     1       5.181  -3.655   0.534  1.00  0.00     0.186 HD
ATOM     28  H8  UNL     1       4.695  -1.276   1.187  1.00  0.00     0.188 HD
ENDBRANCH  20  22
ENDBRANCH  15  18
ENDBRANCH  10  12
ENDBRANCH   7  10
BRANCH   4  29
HETATM   29  N3  UNL     1      -1.879  -1.267   0.198  1.00  0.00    -0.191 N 
ATOM     30  H3  UNL     1      -0.925  -1.587   0.368  1.00  0.00     0.184 HD
BRANCH  29  31
HETATM   31  C4  UNL     1      -2.940  -2.201   0.221  1.00  0.00     0.049 A 
HETATM   32  C5  UNL     1      -3.426  -2.607   1.440  1.00  0.00     0.033 A 
HETATM   33  C6  UNL     1      -4.463  -3.519   1.537  1.00  0.00     0.044 A 
HETATM   34  C7  UNL     1      -5.039  -4.047   0.400  1.00  0.00     0.116 A 
HETATM   35  F1  UNL     1      -6.056  -4.941   0.518  1.00  0.00    -0.206 F 
HETATM   36  C8  UNL     1      -4.542  -3.631  -0.813  1.00  0.00     0.044 A 
HETATM   37  C9  UNL     1      -3.510  -2.723  -0.918  1.00  0.00     0.033 A 
ENDBRANCH  29  31
ENDBRANCH   4  29
BRANCH   1  38
HETATM   38  N1  UNL     1      -4.719   2.218  -0.726  1.00  0.00    -0.229 N 
HETATM   39  C1  UNL     1      -5.034   3.607  -0.994  1.00  0.00     0.165 C 
ATOM     40  H1  UNL     1      -5.489   1.549  -0.710  1.00  0.00     0.177 HD
ENDBRANCH   1  38
TORSDOF 7
