REMARK  5 active torsions:
REMARK  status: ('A' for Active; 'I' for Inactive)
REMARK    1  A    between atoms: C5_5  and  C6_6 
REMARK    2  A    between atoms: C6_6  and  O1_7 
REMARK    3  A    between atoms: O1_7  and  C7_8 
REMARK    4  A    between atoms: C7_8  and  C8_10 
REMARK    5  A    between atoms: C14_22  and  N4_23 
REMARK       I    between atoms: N4_23  and  C15_25 
ROOT
HETATM    1  C1  UNL     1      -0.760  -0.157   5.124  1.00  0.00     0.018 C 
HETATM    2  C2  UNL     1      -0.928  -0.139   3.925  1.00  0.00    -0.078 C 
HETATM    3  C3  UNL     1      -1.153  -0.120   2.501  1.00  0.00     0.019 A 
HETATM    4  C4  UNL     1      -0.109  -0.064   1.589  1.00  0.00     0.032 A 
HETATM    5  C5  UNL     1      -0.324  -0.046   0.231  1.00  0.00    -0.003 A 
HETATM    6  C13 UNL     1      -1.635  -0.086  -0.210  1.00  0.00     0.085 A 
HETATM    7  N3  UNL     1      -2.197  -0.082  -1.445  1.00  0.00    -0.189 N 
ATOM      8  H3  UNL     1      -1.681  -0.046  -2.324  1.00  0.00     0.184 HD
HETATM    9  C14 UNL     1      -3.543  -0.133  -1.337  1.00  0.00     0.685 A 
HETATM   10  N7  UNL     1      -3.853  -0.169  -0.046  1.00  0.00    -0.189 N 
ATOM     11  H7  UNL     1      -4.796  -0.211   0.341  1.00  0.00     0.184 HD
HETATM   12  C16 UNL     1      -2.702  -0.141   0.669  1.00  0.00     0.078 A 
HETATM   13  C17 UNL     1      -2.453  -0.158   2.030  1.00  0.00     0.053 A 
ENDROOT
BRANCH   5  14
HETATM   14  C6  UNL     1       0.735   0.012  -0.786  1.00  0.00     0.220 C 
BRANCH  14  15
HETATM   15  O1  UNL     1       2.026   0.048  -0.247  1.00  0.00    -0.312 OA
BRANCH  15  16
HETATM   16  C7  UNL     1       3.100   0.104  -1.104  1.00  0.00     0.310 C 
HETATM   17  O2  UNL     1       2.913   0.120  -2.342  1.00  0.00    -0.258 OA
BRANCH  16  18
HETATM   18  C8  UNL     1       4.490   0.145  -0.606  1.00  0.00     0.110 A 
HETATM   19  C9  UNL     1       4.878   0.133   0.717  1.00  0.00     0.061 A 
HETATM   20  C10 UNL     1       6.252   0.182   0.789  1.00  0.00     0.081 A 
HETATM   21  C11 UNL     1       7.097   0.190   1.966  1.00  0.00     0.102 C 
HETATM   22  C12 UNL     1       6.672   0.222  -0.527  1.00  0.00     0.101 A 
HETATM   23  N1  UNL     1       7.790   0.197   2.898  1.00  0.00    -0.191 NA
HETATM   24 BR1  UNL     1       8.497   0.299  -1.075  1.00  0.00    -0.030 Br
HETATM   25  N2  UNL     1       5.605   0.199  -1.346  1.00  0.00    -0.344 N 
ATOM     26  H2  UNL     1       5.640   0.219  -2.365  1.00  0.00     0.167 HD
ENDBRANCH  16  18
ENDBRANCH  15  16
ENDBRANCH  14  15
ENDBRANCH   5  14
BRANCH   9  27
HETATM   27  N4  UNL     1      -4.302  -0.141  -2.391  1.00  0.00    -0.164 N 
HETATM   28  C15 UNL     1      -5.716  -0.195  -2.268  1.00  0.00     0.200 C 
HETATM   29  N5  UNL     1      -6.265  -1.151  -1.609  1.00  0.00    -0.373 N 
HETATM   30  N6  UNL     1      -6.480   0.818  -2.882  1.00  0.00    -0.063 NA
ATOM     31  H52 UNL     1      -5.712  -1.884  -1.165  1.00  0.00     0.158 HD
ATOM     32  H51 UNL     1      -7.280  -1.190  -1.521  1.00  0.00     0.158 HD
ATOM     33  H4  UNL     1      -3.878  -0.108  -3.318  1.00  0.00     0.187 HD
ENDBRANCH   9  27
TORSDOF 5
