REMARK  15 active torsions:
REMARK  status: ('A' for Active; 'I' for Inactive)
REMARK    1  A    between atoms: C2_2  and  C4_4 
REMARK    2  A    between atoms: C4_4  and  C5_5 
REMARK    3  A    between atoms: C5_5  and  C6_6 
REMARK    4  A    between atoms: C5_5  and  C10_16 
REMARK    5  A    between atoms: C6_6  and  N1_7 
REMARK    6  A    between atoms: N1_7  and  C7_9 
REMARK    7  A    between atoms: C10_16  and  N3_17 
REMARK    8  A    between atoms: N3_17  and  C11_20 
REMARK    9  A    between atoms: C11_20  and  O2_21 
REMARK   10  A    between atoms: C11_20  and  C12_23 
REMARK   11  A    between atoms: C12_23  and  O3_24 
REMARK   12  A    between atoms: C12_23  and  C13_26 
REMARK   13  A    between atoms: C13_26  and  N4_27 
REMARK   14  A    between atoms: C13_26  and  C14_31 
REMARK   15  A    between atoms: C14_31  and  C15_32 
ROOT
HETATM    1  N3  UNL     1       0.098   0.987   0.672  1.00  0.00    -0.046 N 
ATOM      2  H31 UNL     1       0.535   0.634  -0.179  1.00  0.00     0.280 HD
ATOM      3  H32 UNL     1       0.278   0.174   1.261  1.00  0.00     0.280 HD
ENDROOT
BRANCH   1   4
HETATM    4  C10 UNL     1      -1.326   1.268   0.507  1.00  0.00     0.241 C 
BRANCH   4   5
HETATM    5  C5  UNL     1      -2.107   0.018   0.097  1.00  0.00     0.029 C 
BRANCH   5   6
HETATM    6  C4  UNL     1      -2.041  -1.040   1.120  1.00  0.00     0.011 C 
BRANCH   6   7
HETATM    7  C2  UNL     1      -2.639  -2.363   0.821  1.00  0.00    -0.022 C 
HETATM    8  C1  UNL     1      -2.040  -3.082  -0.364  1.00  0.00     0.009 C 
HETATM    9  C3  UNL     1      -2.481  -3.242   2.073  1.00  0.00     0.009 C 
ENDBRANCH   6   7
ENDBRANCH   5   6
BRANCH   5  10
HETATM   10  C6  UNL     1      -3.426   0.483  -0.381  1.00  0.00     0.124 C 
BRANCH  10  11
HETATM   11  N1  UNL     1      -4.274  -0.476  -1.000  1.00  0.00    -0.374 N 
ATOM     12  H1  UNL     1      -4.009  -1.457  -1.087  1.00  0.00     0.157 HD
BRANCH  11  13
HETATM   13  C7  UNL     1      -5.516   0.019  -1.491  1.00  0.00     0.424 C 
HETATM   14  N2  UNL     1      -5.364   0.969  -2.616  1.00  0.00    -0.029 N 
HETATM   15  C8  UNL     1      -6.754   1.464  -2.721  1.00  0.00     0.263 C 
ATOM     16  H22 UNL     1      -4.645   1.683  -2.502  1.00  0.00     0.282 HD
ATOM     17  H21 UNL     1      -4.962   0.585  -3.471  1.00  0.00     0.282 HD
HETATM   18  C9  UNL     1      -7.296   1.248  -1.328  1.00  0.00     0.200 C 
HETATM   19  O1  UNL     1      -6.169   0.889  -0.595  1.00  0.00    -0.343 OA
ENDBRANCH  11  13
ENDBRANCH  10  11
ENDBRANCH   5  10
ENDBRANCH   4   5
ENDBRANCH   1   4
BRANCH   1  20
HETATM   20  C11 UNL     1       0.721   2.189   1.168  1.00  0.00     0.349 C 
BRANCH  20  21
HETATM   21  O2  UNL     1      -0.216   2.826   2.013  1.00  0.00    -0.368 OA
ATOM     22  H2  UNL     1       0.194   3.618   2.340  1.00  0.00     0.212 HD
ENDBRANCH  20  21
BRANCH  20  23
HETATM   23  C12 UNL     1       1.957   1.986   1.992  1.00  0.00     0.204 C 
BRANCH  23  24
HETATM   24  O3  UNL     1       2.361   3.311   2.403  1.00  0.00    -0.389 OA
ATOM     25  H3  UNL     1       3.144   3.182   2.925  1.00  0.00     0.210 HD
ENDBRANCH  23  24
BRANCH  23  26
HETATM   26  C13 UNL     1       3.166   1.523   1.207  1.00  0.00     0.216 C 
BRANCH  26  27
HETATM   27  N4  UNL     1       4.312   1.632   2.167  1.00  0.00    -0.072 N 
ATOM     28  H43 UNL     1       4.418   2.558   2.582  1.00  0.00     0.274 HD
ATOM     29  H42 UNL     1       4.169   1.128   3.042  1.00  0.00     0.274 HD
ATOM     30  H41 UNL     1       5.127   1.320   1.638  1.00  0.00     0.274 HD
ENDBRANCH  26  27
BRANCH  26  31
HETATM   31  C14 UNL     1       3.151   0.084   0.820  1.00  0.00     0.040 C 
BRANCH  31  32
HETATM   32  C15 UNL     1       4.388  -0.308   0.040  1.00  0.00    -0.013 C 
HETATM   33  C16 UNL     1       4.278  -1.789  -0.299  1.00  0.00     0.005 C 
HETATM   34  C17 UNL     1       5.474  -2.193  -1.150  1.00  0.00     0.000 C 
HETATM   35  C18 UNL     1       6.541  -1.103  -1.143  1.00  0.00     0.000 C 
HETATM   36  C19 UNL     1       6.025   0.217  -1.656  1.00  0.00     0.000 C 
HETATM   37  C20 UNL     1       4.550   0.408  -1.262  1.00  0.00     0.005 C 
ENDBRANCH  31  32
ENDBRANCH  26  31
ENDBRANCH  23  26
ENDBRANCH  20  23
ENDBRANCH   1  20
TORSDOF 15
