REMARK  13 active torsions:
REMARK  status: ('A' for Active; 'I' for Inactive)
REMARK    1  A    between atoms: C2_2  and  C4_4 
REMARK    2  A    between atoms: C4_4  and  C5_5 
REMARK    3  A    between atoms: C5_5  and  N1_6 
REMARK    4  A    between atoms: C5_5  and  C6_10 
REMARK       I    between atoms: C6_10  and  N2_12 
REMARK    5  A    between atoms: N2_12  and  C7_14 
REMARK    6  A    between atoms: C7_14  and  C8_15 
REMARK    7  A    between atoms: C7_14  and  C12_19 
REMARK    8  A    between atoms: C8_15  and  C9_16 
REMARK    9  A    between atoms: C12_19  and  C13_20 
REMARK   10  A    between atoms: C12_19  and  N3_24 
REMARK   11  A    between atoms: C13_20  and  C14_21 
REMARK   12  A    between atoms: N3_24  and  C17_26 
REMARK   13  A    between atoms: C17_26  and  C18_30 
ROOT
HETATM    1  C12 UNL     1      -1.855  -1.072  -0.556  1.00  0.00     0.133 C 
ENDROOT
BRANCH   1   2
HETATM    2  C7  UNL     1      -0.464  -1.194   0.032  1.00  0.00     0.031 C 
BRANCH   2   3
HETATM    3  N2  UNL     1       0.401  -0.085  -0.184  1.00  0.00    -0.327 N 
HETATM    4  C6  UNL     1       1.469  -0.077  -1.132  1.00  0.00     0.252 C 
HETATM    5  O1  UNL     1       1.667  -1.104  -1.821  1.00  0.00    -0.271 OA
ATOM      6  H2  UNL     1       0.249   0.756   0.373  1.00  0.00     0.168 HD
BRANCH   4   7
HETATM    7  C5  UNL     1       2.353   1.081  -1.340  1.00  0.00     0.275 C 
BRANCH   7   8
HETATM    8  C4  UNL     1       3.072   1.452  -0.064  1.00  0.00     0.046 C 
BRANCH   8   9
HETATM    9  C2  UNL     1       3.984   0.396   0.452  1.00  0.00    -0.020 C 
HETATM   10  C1  UNL     1       4.604   0.939   1.742  1.00  0.00     0.009 C 
HETATM   11  C3  UNL     1       5.145   0.074  -0.459  1.00  0.00     0.009 C 
ENDBRANCH   8   9
ENDBRANCH   7   8
BRANCH   7  12
HETATM   12  N1  UNL     1       3.349   0.831  -2.356  1.00  0.00    -0.066 N 
ATOM     13  H13 UNL     1       3.993   1.613  -2.479  1.00  0.00     0.275 HD
ATOM     14  H12 UNL     1       4.036   0.132  -2.072  1.00  0.00     0.275 HD
ATOM     15  H11 UNL     1       2.864   0.581  -3.217  1.00  0.00     0.275 HD
ENDBRANCH   7  12
ENDBRANCH   4   7
ENDBRANCH   2   3
BRANCH   2  16
HETATM   16  C8  UNL     1      -0.365  -1.826   1.352  1.00  0.00     0.004 C 
BRANCH  16  17
HETATM   17  C9  UNL     1      -0.632  -1.095   2.593  1.00  0.00     0.002 C 
HETATM   18  C10 UNL     1       0.244   0.093   2.890  1.00  0.00     0.013 C 
HETATM   19  C11 UNL     1      -0.341  -2.106   3.728  1.00  0.00     0.013 C 
ENDBRANCH  16  17
ENDBRANCH   2  16
ENDBRANCH   1   2
BRANCH   1  20
HETATM   20  C13 UNL     1      -1.739  -0.924  -2.078  1.00  0.00     0.035 C 
BRANCH  20  21
HETATM   21  C14 UNL     1      -3.045  -0.838  -2.777  1.00  0.00    -0.020 C 
HETATM   22  C15 UNL     1      -3.828  -2.112  -2.496  1.00  0.00     0.009 C 
HETATM   23  C16 UNL     1      -2.735  -0.849  -4.278  1.00  0.00     0.009 C 
ENDBRANCH  20  21
ENDBRANCH   1  20
BRANCH   1  24
HETATM   24  N3  UNL     1      -2.668  -0.050   0.007  1.00  0.00    -0.363 N 
ATOM     25  H3  UNL     1      -3.515  -0.370   0.476  1.00  0.00     0.162 HD
BRANCH  24  26
HETATM   26  C17 UNL     1      -2.462   1.346   0.005  1.00  0.00     0.142 C 
HETATM   27  N4  UNL     1      -2.019   1.980  -1.018  1.00  0.00    -0.383 N 
ATOM     28  H42 UNL     1      -1.807   1.431  -1.851  1.00  0.00     0.157 HD
ATOM     29  H41 UNL     1      -1.870   2.989  -1.019  1.00  0.00     0.157 HD
BRANCH  26  30
HETATM   30  C18 UNL     1      -2.765   2.129   1.193  1.00  0.00     0.178 A 
HETATM   31  N5  UNL     1      -3.235   1.750   2.393  1.00  0.00    -0.264 N 
HETATM   32  N6  UNL     1      -3.346   2.829   3.148  1.00  0.00    -0.005 NA
ATOM     33  H5  UNL     1      -3.466   0.797   2.672  1.00  0.00     0.186 HD
HETATM   34  N7  UNL     1      -2.958   3.912   2.467  1.00  0.00    -0.225 N 
HETATM   35  N8  UNL     1      -2.614   3.458   1.293  1.00  0.00    -0.269 N 
ATOM     36  H7  UNL     1      -2.936   4.878   2.793  1.00  0.00     0.205 HD
ATOM     37  H8  UNL     1      -2.269   4.048   0.536  1.00  0.00     0.190 HD
ENDBRANCH  26  30
ENDBRANCH  24  26
ENDBRANCH   1  24
TORSDOF 13
