REMARK  9 active torsions:
REMARK  status: ('A' for Active; 'I' for Inactive)
REMARK    1  A    between atoms: C3_3  and  C4_4 
REMARK    2  A    between atoms: C9_9  and  N1_10 
REMARK       I    between atoms: N1_10  and  C10_12 
REMARK    3  A    between atoms: C10_12  and  C11_14 
REMARK    4  A    between atoms: C11_14  and  N2_15 
REMARK    5  A    between atoms: C11_14  and  C12_19 
REMARK    6  A    between atoms: C12_19  and  C13_20 
REMARK    7  A    between atoms: C13_20  and  C14_21 
REMARK    8  A    between atoms: C14_21  and  C15_22 
REMARK    9  A    between atoms: C15_22  and  O2_23 
ROOT
HETATM    1  C1  UNL     1      -5.716   1.375   2.749  1.00  0.00     0.012 C 
HETATM    2  C2  UNL     1      -4.570   1.297   2.341  1.00  0.00    -0.117 C 
HETATM    3  C3  UNL     1      -3.189   1.201   1.868  1.00  0.00     0.102 C 
ENDROOT
BRANCH   3   4
HETATM    4  C4  UNL     1      -3.191   0.500   0.512  1.00  0.00    -0.027 C 
HETATM    5  C5  UNL     1      -4.033   1.354  -0.406  1.00  0.00     0.015 C 
HETATM    6  C6  UNL     1      -4.117   0.710  -1.776  1.00  0.00    -0.013 C 
HETATM    7  C7  UNL     1      -2.844   1.037  -2.499  1.00  0.00     0.007 C 
HETATM    8  C19 UNL     1      -4.450  -0.739  -1.735  1.00  0.00     0.009 C 
HETATM    9  C8  UNL     1      -1.804  -0.033  -2.426  1.00  0.00     0.031 C 
HETATM   10  C9  UNL     1      -1.551  -0.592  -1.082  1.00  0.00     0.034 C 
HETATM   11  C17 UNL     1      -2.405  -1.835  -0.928  1.00  0.00     0.035 C 
HETATM   12  C21 UNL     1      -1.788   0.378   0.049  1.00  0.00     0.041 C 
HETATM   13  C18 UNL     1      -3.844  -1.530  -0.634  1.00  0.00    -0.011 C 
HETATM   14  C20 UNL     1      -3.903  -0.796   0.686  1.00  0.00     0.015 C 
BRANCH  10  15
HETATM   15  N1  UNL     1      -0.170  -1.001  -0.980  1.00  0.00    -0.350 N 
HETATM   16  C10 UNL     1       0.959  -0.153  -1.090  1.00  0.00     0.248 C 
HETATM   17  O1  UNL     1       0.796   1.069  -1.290  1.00  0.00    -0.271 OA
ATOM     18  H1  UNL     1       0.009  -1.991  -0.813  1.00  0.00     0.163 HD
BRANCH  16  19
HETATM   19  C11 UNL     1       2.351  -0.647  -0.978  1.00  0.00     0.274 C 
BRANCH  19  20
HETATM   20  N2  UNL     1       2.436  -2.063  -0.748  1.00  0.00    -0.067 N 
ATOM     21  H23 UNL     1       1.890  -2.330   0.071  1.00  0.00     0.275 HD
ATOM     22  H22 UNL     1       1.926  -2.578  -1.466  1.00  0.00     0.275 HD
ATOM     23  H21 UNL     1       3.395  -2.403  -0.671  1.00  0.00     0.275 HD
ENDBRANCH  19  20
BRANCH  19  24
HETATM   24  C12 UNL     1       3.081   0.041   0.183  1.00  0.00     0.042 C 
BRANCH  24  25
HETATM   25  C13 UNL     1       4.495  -0.538   0.206  1.00  0.00     0.004 C 
BRANCH  25  26
HETATM   26  C14 UNL     1       5.246   0.130   1.354  1.00  0.00     0.026 C 
BRANCH  26  27
HETATM   27  C15 UNL     1       6.647  -0.382   1.449  1.00  0.00     0.167 C 
BRANCH  27  28
HETATM   28  O2  UNL     1       7.314   0.200   2.493  1.00  0.00    -0.396 OA
HETATM   29  C16 UNL     1       7.446   1.559   2.425  1.00  0.00     0.201 C 
ENDBRANCH  27  28
ENDBRANCH  26  27
ENDBRANCH  25  26
ENDBRANCH  24  25
ENDBRANCH  19  24
ENDBRANCH  16  19
ENDBRANCH  10  15
ENDBRANCH   3   4
TORSDOF 9
