REMARK  8 active torsions:
REMARK  status: ('A' for Active; 'I' for Inactive)
REMARK    1  A    between atoms: C3_6  and  C4_7 
REMARK    2  A    between atoms: C4_7  and  C5_8 
REMARK    3  A    between atoms: C5_8  and  O2_9 
REMARK    4  A    between atoms: N2_11  and  C6_12 
REMARK    5  A    between atoms: C6_12  and  C7_13 
REMARK    6  A    between atoms: C7_13  and  C8_14 
REMARK    7  A    between atoms: C14_20  and  C15_21 
REMARK    8  A    between atoms: C15_21  and  C16_22 
ROOT
HETATM    1  O1  UNL     1      -1.709   0.800  -3.897  1.00  0.00    -0.267 OA
HETATM    2  C1  UNL     1      -1.543   1.152  -2.704  1.00  0.00     0.258 C 
HETATM    3  N1  UNL     1      -2.007   2.415  -2.249  1.00  0.00    -0.355 N 
ATOM      4  H1  UNL     1      -2.756   2.888  -2.754  1.00  0.00     0.162 HD
HETATM    5  C2  UNL     1      -1.420   3.050  -1.057  1.00  0.00     0.143 C 
HETATM    6  C3  UNL     1      -0.165   2.319  -0.681  1.00  0.00     0.083 C 
HETATM    7  N2  UNL     1      -0.248   0.907  -0.620  1.00  0.00    -0.276 NA
HETATM    8  C14 UNL     1      -0.861   0.274  -1.721  1.00  0.00     0.057 C 
ENDROOT
BRANCH   7   9
HETATM    9  C6  UNL     1       0.946   0.294  -0.172  1.00  0.00     0.096 C 
BRANCH   9  10
HETATM   10  C7  UNL     1       2.141   0.416  -1.082  1.00  0.00     0.019 C 
BRANCH  10  11
HETATM   11  C8  UNL     1       3.344  -0.261  -0.478  1.00  0.00    -0.013 C 
HETATM   12  C9  UNL     1       3.049  -1.751  -0.252  1.00  0.00     0.005 C 
HETATM   13  C10 UNL     1       4.393  -2.404  -0.011  1.00  0.00     0.000 C 
HETATM   14  C11 UNL     1       5.132  -1.807   1.137  1.00  0.00     0.000 C 
HETATM   15  C12 UNL     1       5.088  -0.327   1.230  1.00  0.00     0.000 C 
HETATM   16  C13 UNL     1       3.776   0.294   0.832  1.00  0.00     0.005 C 
ENDBRANCH  10  11
ENDBRANCH   9  10
ENDBRANCH   7   9
BRANCH   6  17
HETATM   17  C4  UNL     1       0.520   2.967   0.438  1.00  0.00     0.047 C 
BRANCH  17  18
HETATM   18  C5  UNL     1      -0.190   3.149   1.723  1.00  0.00     0.165 C 
BRANCH  18  19
HETATM   19  O2  UNL     1      -0.633   2.054   2.390  1.00  0.00    -0.401 OA
ATOM     20  H2  UNL     1      -1.089   2.171   3.215  1.00  0.00     0.209 HD
ENDBRANCH  18  19
ENDBRANCH  17  18
ENDBRANCH   6  17
BRANCH   8  21
HETATM   21  C15 UNL     1      -1.604  -0.947  -1.380  1.00  0.00     0.061 C 
BRANCH  21  22
HETATM   22  C16 UNL     1      -2.959  -0.882  -0.819  1.00  0.00    -0.009 C 
HETATM   23  C17 UNL     1      -3.476  -2.326  -0.591  1.00  0.00     0.005 C 
HETATM   24  C18 UNL     1      -4.762  -2.308   0.164  1.00  0.00     0.000 C 
HETATM   25  C19 UNL     1      -4.431  -1.995   1.618  1.00  0.00     0.000 C 
HETATM   26  C20 UNL     1      -3.124  -1.239   1.644  1.00  0.00     0.000 C 
HETATM   27  C21 UNL     1      -3.095  -0.214   0.515  1.00  0.00     0.005 C 
ENDBRANCH  21  22
ENDBRANCH   8  21
TORSDOF 8
