REMARK  7 active torsions:
REMARK  status: ('A' for Active; 'I' for Inactive)
REMARK    1  A    between atoms: C2_2  and  C3_3 
REMARK    2  A    between atoms: C3_3  and  C4_4 
REMARK    3  A    between atoms: C4_4  and  C5_5 
REMARK    4  A    between atoms: C5_5  and  C6_6 
REMARK    5  A    between atoms: C6_6  and  C7_7 
REMARK    6  A    between atoms: N1_13  and  C13_14 
REMARK    7  A    between atoms: C13_14  and  C14_15 
REMARK       I    between atoms: N3_20  and  C17_21 
ROOT
HETATM    1  C7  UNL     1       0.700  -0.909   0.333  1.00  0.00     0.080 C 
HETATM    2  C8  UNL     1       0.543  -1.941   1.445  1.00  0.00     0.025 C 
HETATM    3  C9  UNL     1       0.477  -3.294   0.860  1.00  0.00     0.008 C 
HETATM    4  C10 UNL     1      -0.374  -3.477  -0.335  1.00  0.00    -0.001 C 
HETATM    5  C11 UNL     1      -1.636  -4.251   0.053  1.00  0.00     0.011 C 
HETATM    6  C12 UNL     1      -0.723  -2.245  -1.086  1.00  0.00     0.122 C 
HETATM    7  N1  UNL     1      -0.414  -0.988  -0.518  1.00  0.00    -0.391 N 
ENDROOT
BRANCH   7   8
HETATM    8  C13 UNL     1      -1.519  -0.100  -0.359  1.00  0.00     0.110 C 
HETATM    9  C15 UNL     1      -2.351  -0.412   0.846  1.00  0.00     0.060 C 
HETATM   10  C16 UNL     1      -3.572   0.478   0.970  1.00  0.00     0.130 C 
HETATM   11  N3  UNL     1      -3.296   1.845   0.673  1.00  0.00    -0.336 N 
HETATM   12  C17 UNL     1      -4.062   2.915   1.272  1.00  0.00     0.330 C 
HETATM   13  C18 UNL     1      -2.252   2.247  -0.233  1.00  0.00     0.130 C 
HETATM   14  N4  UNL     1      -3.820   4.271   1.003  1.00  0.00    -0.040 NA
HETATM   15  O2  UNL     1      -4.973   2.592   2.058  1.00  0.00    -0.251 OA
HETATM   16  C19 UNL     1      -1.063   1.333  -0.158  1.00  0.00     0.060 C 
BRANCH   8  17
HETATM   17  C14 UNL     1      -2.274  -0.080  -1.640  1.00  0.00     0.259 C 
HETATM   18  N2  UNL     1      -1.534  -0.303  -2.840  1.00  0.00    -0.060 NA
HETATM   19  O1  UNL     1      -3.516   0.125  -1.737  1.00  0.00    -0.274 OA
ENDBRANCH   8  17
ENDBRANCH   7   8
BRANCH   1  20
HETATM   20  C6  UNL     1       1.970  -1.311  -0.380  1.00  0.00     0.025 C 
BRANCH  20  21
HETATM   21  C5  UNL     1       2.420  -0.456  -1.499  1.00  0.00     0.002 C 
BRANCH  21  22
HETATM   22  C4  UNL     1       2.773   0.959  -1.139  1.00  0.00     0.000 C 
BRANCH  22  23
HETATM   23  C3  UNL     1       3.899   1.018  -0.121  1.00  0.00    -0.000 C 
BRANCH  23  24
HETATM   24  C2  UNL     1       4.144   2.503   0.142  1.00  0.00    -0.005 C 
HETATM   25  C1  UNL     1       5.233   2.743   1.145  1.00  0.00     0.005 C 
ENDBRANCH  23  24
ENDBRANCH  22  23
ENDBRANCH  21  22
ENDBRANCH  20  21
ENDBRANCH   1  20
TORSDOF 7
