REMARK  7 active torsions:
REMARK  status: ('A' for Active; 'I' for Inactive)
REMARK    1  A    between atoms: C2_2  and  O1_3 
REMARK    2  A    between atoms: O1_3  and  C3_4 
REMARK    3  A    between atoms: N1_12  and  C11_13 
REMARK    4  A    between atoms: C11_13  and  C12_14 
REMARK    5  A    between atoms: C12_14  and  C13_15 
REMARK    6  A    between atoms: C13_15  and  N2_16 
REMARK       I    between atoms: N2_16  and  C14_18 
REMARK       I    between atoms: C14_18  and  N3_20 
REMARK    7  A    between atoms: N3_20  and  C15_22 
ROOT
HETATM    1  C12 UNL     1      -0.461   1.100  -1.757  1.00  0.00     0.064 C 
ENDROOT
BRANCH   1   2
HETATM    2  C11 UNL     1      -0.923  -0.268  -1.323  1.00  0.00     0.060 C 
BRANCH   2   3
HETATM    3  N1  UNL     1      -2.256  -0.234  -0.941  1.00  0.00    -0.384 N 
HETATM    4  C5  UNL     1      -2.849  -1.447  -0.476  1.00  0.00     0.086 C 
HETATM    5  C4  UNL     1      -4.310  -1.583  -0.616  1.00  0.00     0.057 C 
HETATM    6  C6  UNL     1      -2.473  -1.525   1.013  1.00  0.00     0.025 C 
HETATM    7  C3  UNL     1      -5.094  -0.315  -0.648  1.00  0.00     0.125 C 
HETATM    8  C10 UNL     1      -4.334   0.899  -1.017  1.00  0.00     0.057 C 
HETATM    9  C9  UNL     1      -2.898   0.933  -0.518  1.00  0.00     0.086 C 
HETATM   10  C8  UNL     1      -2.856   0.971   0.996  1.00  0.00     0.025 C 
HETATM   11  C7  UNL     1      -2.183  -0.198   1.612  1.00  0.00     0.004 C 
BRANCH   7  12
HETATM   12  O1  UNL     1      -5.786  -0.057   0.534  1.00  0.00    -0.386 OA
BRANCH  12  13
HETATM   13  C2  UNL     1      -7.173  -0.051   0.340  1.00  0.00     0.163 C 
HETATM   14  C1  UNL     1      -7.924   0.227   1.598  1.00  0.00     0.033 C 
ENDBRANCH  12  13
ENDBRANCH   7  12
ENDBRANCH   2   3
ENDBRANCH   1   2
BRANCH   1  15
HETATM   15  C13 UNL     1       0.982   1.107  -2.203  1.00  0.00     0.129 C 
BRANCH  15  16
HETATM   16  N2  UNL     1       1.816   0.694  -1.118  1.00  0.00    -0.343 N 
HETATM   17  C14 UNL     1       3.232   0.588  -1.211  1.00  0.00     0.316 C 
HETATM   18  O2  UNL     1       3.817   0.862  -2.287  1.00  0.00    -0.247 OA
HETATM   19  N3  UNL     1       4.005   0.173  -0.100  1.00  0.00    -0.339 N 
ATOM     20  H3  UNL     1       3.535  -0.050   0.777  1.00  0.00     0.164 HD
ATOM     21  H2  UNL     1       1.372   0.463  -0.229  1.00  0.00     0.164 HD
BRANCH  19  22
HETATM   22  C15 UNL     1       5.453   0.057  -0.179  1.00  0.00     0.086 C 
HETATM   23  C16 UNL     1       6.038   1.085   0.761  1.00  0.00     0.025 C 
HETATM   24  C17 UNL     1       7.540   0.973   0.861  1.00  0.00     0.002 C 
HETATM   25  C18 UNL     1       8.054  -0.283   0.184  1.00  0.00     0.000 C 
HETATM   26  C19 UNL     1       7.262  -1.474   0.675  1.00  0.00     0.002 C 
HETATM   27  C20 UNL     1       5.853  -1.345   0.174  1.00  0.00     0.025 C 
ENDBRANCH  19  22
ENDBRANCH  15  16
ENDBRANCH   1  15
TORSDOF 7
