REMARK  7 active torsions:
REMARK  status: ('A' for Active; 'I' for Inactive)
REMARK       I    between atoms: C1_2  and  N1_3 
REMARK       I    between atoms: C1_2  and  N3_21 
REMARK    1  A    between atoms: N1_3  and  C2_5 
REMARK    2  A    between atoms: C2_5  and  C3_6 
REMARK    3  A    between atoms: C3_6  and  C4_7 
REMARK    4  A    between atoms: C4_7  and  N2_8 
REMARK    5  A    between atoms: C7_12  and  C8_13 
REMARK    6  A    between atoms: C8_13  and  C9_14 
REMARK    7  A    between atoms: N3_21  and  C16_23 
ROOT
HETATM    1  C4  UNL     1      -0.123   0.891   2.186  1.00  0.00     0.065 C 
ENDROOT
BRANCH   1   2
HETATM    2  C3  UNL     1       0.908   0.599   3.198  1.00  0.00     0.064 C 
BRANCH   2   3
HETATM    3  C2  UNL     1       2.316   0.965   2.881  1.00  0.00     0.129 C 
BRANCH   3   4
HETATM    4  N1  UNL     1       2.860   0.312   1.730  1.00  0.00    -0.343 N 
HETATM    5  C1  UNL     1       4.224   0.657   1.388  1.00  0.00     0.316 C 
HETATM    6  O1  UNL     1       4.880   1.476   2.072  1.00  0.00    -0.247 OA
HETATM    7  N3  UNL     1       4.844   0.071   0.270  1.00  0.00    -0.339 N 
ATOM      8  H3  UNL     1       4.310  -0.596  -0.288  1.00  0.00     0.164 HD
ATOM      9  H1  UNL     1       2.319  -0.357   1.183  1.00  0.00     0.164 HD
BRANCH   7  10
HETATM   10  C16 UNL     1       6.201   0.369  -0.125  1.00  0.00     0.086 C 
HETATM   11  C17 UNL     1       6.967  -0.911  -0.226  1.00  0.00     0.025 C 
HETATM   12  C18 UNL     1       7.495  -0.980  -1.628  1.00  0.00     0.002 C 
HETATM   13  C19 UNL     1       6.608  -0.078  -2.465  1.00  0.00     0.002 C 
HETATM   14  C20 UNL     1       6.267   1.014  -1.500  1.00  0.00     0.025 C 
ENDBRANCH   7  10
ENDBRANCH   3   4
ENDBRANCH   2   3
ENDBRANCH   1   2
BRANCH   1  15
HETATM   15  N2  UNL     1      -0.116   0.235   0.946  1.00  0.00    -0.372 N 
HETATM   16  C5  UNL     1      -0.488  -1.154   0.970  1.00  0.00     0.153 C 
HETATM   17  C6  UNL     1      -1.932  -1.441   1.137  1.00  0.00     0.188 C 
HETATM   18  O2  UNL     1      -2.792  -0.384   1.067  1.00  0.00    -0.384 OA
HETATM   19  C7  UNL     1      -2.979   0.188  -0.158  1.00  0.00     0.126 C 
HETATM   20  C14 UNL     1      -1.675   0.321  -0.946  1.00  0.00     0.076 C 
HETATM   21  C15 UNL     1      -0.620   1.013  -0.116  1.00  0.00     0.065 C 
BRANCH  19  22
HETATM   22  C8  UNL     1      -3.968  -0.468  -1.055  1.00  0.00     0.037 C 
BRANCH  22  23
HETATM   23  C9  UNL     1      -5.365  -0.530  -0.500  1.00  0.00    -0.012 C 
HETATM   24  C10 UNL     1      -6.261  -1.212  -1.502  1.00  0.00     0.005 C 
HETATM   25  C11 UNL     1      -7.649  -0.794  -1.018  1.00  0.00     0.000 C 
HETATM   26  C12 UNL     1      -7.452   0.534  -0.325  1.00  0.00     0.000 C 
HETATM   27  C13 UNL     1      -5.975   0.855  -0.425  1.00  0.00     0.005 C 
ENDBRANCH  22  23
ENDBRANCH  19  22
ENDBRANCH   1  15
TORSDOF 7
