REMARK  6 active torsions:
REMARK  status: ('A' for Active; 'I' for Inactive)
REMARK    1  A    between atoms: C2_2  and  C3_3 
REMARK    2  A    between atoms: C3_3  and  N1_4 
REMARK    3  A    between atoms: N1_4  and  C4_6 
REMARK    4  A    between atoms: C5_9  and  N3_10 
REMARK    5  A    between atoms: N4_13  and  C8_14 
REMARK    6  A    between atoms: C8_14  and  C9_15 
ROOT
HETATM    1  C4  UNL     1       3.364  -0.626  -0.726  1.00  0.00     0.708 A 
HETATM    2  N2  UNL     1       2.202  -0.887  -0.074  1.00  0.00    -0.020 N 
ATOM      3  H2  UNL     1       2.044  -1.681   0.546  1.00  0.00     0.203 HD
HETATM    4  C5  UNL     1       1.287   0.059  -0.367  1.00  0.00     0.710 A 
HETATM    5  N5  UNL     1       1.936   0.890  -1.213  1.00  0.00    -0.117 N 
ATOM      6  H5  UNL     1       1.522   1.723  -1.631  1.00  0.00     0.206 HD
HETATM    7  N6  UNL     1       3.175   0.484  -1.429  1.00  0.00    -0.117 N 
ATOM      8  H6  UNL     1       3.862   0.941  -2.028  1.00  0.00     0.206 HD
ENDROOT
BRANCH   4   9
HETATM    9  N3  UNL     1      -0.063   0.168   0.099  1.00  0.00    -0.213 N 
HETATM   10  C6  UNL     1      -0.544  -0.837   0.988  1.00  0.00     0.171 C 
HETATM   11  C7  UNL     1      -2.002  -0.781   1.282  1.00  0.00     0.292 C 
HETATM   12  N4  UNL     1      -2.677   0.369   0.802  1.00  0.00     0.091 N 
HETATM   13  C11 UNL     1      -2.283   0.783  -0.521  1.00  0.00     0.292 C 
HETATM   14  C12 UNL     1      -0.844   1.295  -0.369  1.00  0.00     0.171 C 
BRANCH  12  15
HETATM   15  C8  UNL     1      -4.078   0.320   1.032  1.00  0.00     0.272 C 
BRANCH  15  16
HETATM   16  C9  UNL     1      -4.837  -0.702   0.257  1.00  0.00     0.026 C 
HETATM   17  C10 UNL     1      -6.314  -0.583   0.650  1.00  0.00     0.007 C 
ENDBRANCH  15  16
ENDBRANCH  12  15
ENDBRANCH   4   9
BRANCH   1  18
HETATM   18  N1  UNL     1       4.443  -1.344  -0.657  1.00  0.00    -0.221 N 
ATOM     19  H1  UNL     1       4.449  -2.179  -0.072  1.00  0.00     0.178 HD
BRANCH  18  20
HETATM   20  C3  UNL     1       5.621  -0.992  -1.381  1.00  0.00     0.164 C 
BRANCH  20  21
HETATM   21  C2  UNL     1       6.763  -0.606  -0.498  1.00  0.00    -0.017 C 
HETATM   22  C1  UNL     1       6.616  -0.614   0.809  1.00  0.00     0.008 C 
ENDBRANCH  20  21
ENDBRANCH  18  20
ENDBRANCH   1  18
TORSDOF 6
