REMARK  6 active torsions:
REMARK  status: ('A' for Active; 'I' for Inactive)
REMARK    1  A    between atoms: C2_2  and  C3_3 
REMARK    2  A    between atoms: C3_3  and  N1_4 
REMARK    3  A    between atoms: N1_4  and  C4_6 
REMARK    4  A    between atoms: C5_9  and  N3_10 
REMARK    5  A    between atoms: C10_17  and  N5_18 
REMARK    6  A    between atoms: N5_18  and  C11_20 
ROOT
HETATM    1  C4  UNL     1       1.551  -0.686  -0.476  1.00  0.00     0.707 A 
HETATM    2  N2  UNL     1       0.372  -1.315  -0.363  1.00  0.00    -0.021 N 
ATOM      3  H2  UNL     1       0.343  -2.335  -0.374  1.00  0.00     0.203 HD
HETATM    4  C5  UNL     1      -0.770  -0.621  -0.236  1.00  0.00     0.709 A 
HETATM    5  N4  UNL     1      -0.696   0.721  -0.224  1.00  0.00    -0.021 N 
ATOM      6  H4  UNL     1      -1.560   1.255  -0.127  1.00  0.00     0.203 HD
HETATM    7  C10 UNL     1       0.451   1.384  -0.333  1.00  0.00     0.707 A 
HETATM    8  N6  UNL     1       1.589   0.678  -0.460  1.00  0.00    -0.021 N 
ATOM      9  H6  UNL     1       2.482   1.163  -0.545  1.00  0.00     0.203 HD
ENDROOT
BRANCH   1  10
HETATM   10  N1  UNL     1       2.672  -1.308  -0.600  1.00  0.00    -0.222 N 
ATOM     11  H1  UNL     1       2.673  -2.328  -0.615  1.00  0.00     0.178 HD
BRANCH  10  12
HETATM   12  C3  UNL     1       3.928  -0.603  -0.719  1.00  0.00     0.164 C 
BRANCH  12  13
HETATM   13  C2  UNL     1       5.017  -1.571  -1.020  1.00  0.00    -0.017 C 
HETATM   14  C1  UNL     1       6.053  -1.716  -0.210  1.00  0.00     0.008 C 
ENDBRANCH  12  13
ENDBRANCH  10  12
ENDBRANCH   1  10
BRANCH   4  15
HETATM   15  N3  UNL     1      -2.038  -1.275  -0.115  1.00  0.00    -0.217 N 
HETATM   16  C6  UNL     1      -3.311  -0.599   0.026  1.00  0.00     0.141 C 
HETATM   17  C7  UNL     1      -3.989  -1.502   1.066  1.00  0.00     0.022 C 
HETATM   18  C8  UNL     1      -3.676  -2.865   0.504  1.00  0.00     0.022 C 
HETATM   19  C9  UNL     1      -2.299  -2.696  -0.107  1.00  0.00     0.141 C 
ENDBRANCH   4  15
BRANCH   7  20
HETATM   20  N5  UNL     1       0.532   2.678  -0.323  1.00  0.00    -0.220 N 
ATOM     21  H5  UNL     1       1.457   3.098  -0.412  1.00  0.00     0.178 HD
BRANCH  20  22
HETATM   22  C11 UNL     1      -0.589   3.554  -0.195  1.00  0.00     0.099 A 
HETATM   23  C12 UNL     1      -1.242   3.832   1.099  1.00  0.00     0.028 A 
HETATM   24  C13 UNL     1      -0.278   4.838   0.594  1.00  0.00     0.028 A 
ENDBRANCH  20  22
ENDBRANCH   7  20
TORSDOF 6
