REMARK  4 active torsions:
REMARK  status: ('A' for Active; 'I' for Inactive)
REMARK    1  A    between atoms: C4_9  and  C5_10 
REMARK    2  A    between atoms: N3_11  and  O2_12 
REMARK    3  A    between atoms: N3_11  and  C6_14 
REMARK    4  A    between atoms: C6_14  and  C8_16 
ROOT
HETATM    1  C5  UNL     1       1.290  -0.256  -0.114  1.00  0.00     0.149 C 
HETATM    2  N3  UNL     1       0.247  -0.218  -0.811  1.00  0.00    -0.261 N 
ENDROOT
BRANCH   2   3
HETATM    3  O2  UNL     1      -0.342  -1.314  -1.328  1.00  0.00    -0.287 OA
ATOM      4  H2  UNL     1      -1.132  -1.285  -1.856  1.00  0.00     0.244 HD
ENDBRANCH   2   3
BRANCH   2   5
HETATM    5  C6  UNL     1      -0.397   1.079  -1.136  1.00  0.00     0.150 C 
HETATM    6  C7  UNL     1      -0.213   1.353  -2.615  1.00  0.00     0.040 C 
BRANCH   5   7
HETATM    7  C8  UNL     1      -1.802   1.100  -0.693  1.00  0.00     0.057 A 
HETATM    8  C9  UNL     1      -2.149   1.188   0.656  1.00  0.00     0.023 A 
HETATM    9  C10 UNL     1      -1.116   1.281   1.700  1.00  0.00     0.069 C 
HETATM   10  N4  UNL     1      -3.425   1.192   1.066  1.00  0.00    -0.312 N 
HETATM   11  C11 UNL     1      -4.450   1.109   0.175  1.00  0.00     0.327 A 
ATOM     12  H4  UNL     1      -3.631   1.258   2.063  1.00  0.00     0.170 HD
HETATM   13  O3  UNL     1      -5.621   1.117   0.610  1.00  0.00    -0.247 OA
HETATM   14  N5  UNL     1      -4.171   1.021  -1.134  1.00  0.00    -0.275 N 
HETATM   15  C12 UNL     1      -2.882   1.018  -1.539  1.00  0.00     0.259 A 
ATOM     16  H5  UNL     1      -4.925   0.957  -1.818  1.00  0.00     0.173 HD
HETATM   17  O4  UNL     1      -2.691   0.931  -2.776  1.00  0.00    -0.267 OA
ENDBRANCH   5   7
ENDBRANCH   2   5
BRANCH   1  18
HETATM   18  C4  UNL     1       2.003  -1.466   0.234  1.00  0.00     0.076 A 
HETATM   19  C2  UNL     1       3.179  -1.534   1.010  1.00  0.00     0.038 A 
HETATM   20  C1  UNL     1       3.876  -0.364   1.586  1.00  0.00     0.070 C 
HETATM   21  N1  UNL     1       3.552  -2.804   1.133  1.00  0.00    -0.310 N 
HETATM   22  C3  UNL     1       2.660  -3.535   0.467  1.00  0.00     0.325 A 
ATOM     23  H1  UNL     1       4.366  -3.152   1.640  1.00  0.00     0.170 HD
HETATM   24  O1  UNL     1       2.704  -4.801   0.372  1.00  0.00    -0.247 OA
HETATM   25  N2  UNL     1       1.724  -2.741  -0.077  1.00  0.00    -0.306 N 
ATOM     26  H2  UNL     1       0.931  -3.056  -0.635  1.00  0.00     0.171 HD
ENDBRANCH   1  18
TORSDOF 4
