REMARK  4 active torsions:
REMARK  status: ('A' for Active; 'I' for Inactive)
REMARK    1  A    between atoms: C3_5  and  C4_6 
REMARK    2  A    between atoms: C4_6  and  C5_7 
REMARK    3  A    between atoms: C6_10  and  C7_11 
REMARK    4  A    between atoms: C7_11  and  C9_16 
ROOT
HETATM    1  C7  UNL     1       0.816   0.273   0.436  1.00  0.00     0.072 C 
HETATM    2  N3  UNL     1       1.086   0.979   1.412  1.00  0.00    -0.292 N 
ATOM      3  H3  UNL     1       2.097   0.917   1.535  1.00  0.00     0.178 HD
HETATM    4  C8  UNL     1       0.663   1.752   2.336  1.00  0.00     0.182 C 
HETATM    5  N4  UNL     1       0.304   2.447   3.179  1.00  0.00    -0.172 NA
ENDROOT
BRANCH   1   6
HETATM    6  C6  UNL     1      -0.496   0.061  -0.116  1.00  0.00     0.027 A 
HETATM    7  C3  UNL     1      -1.738   0.646  -0.002  1.00  0.00     0.050 A 
HETATM    8  N1  UNL     1      -2.751  -0.184  -0.172  1.00  0.00    -0.356 N 
HETATM    9  C2  UNL     1      -2.271  -1.411  -0.422  1.00  0.00     0.030 A 
ATOM     10  H1  UNL     1      -3.738   0.067  -0.121  1.00  0.00     0.166 HD
HETATM   11  C1  UNL     1      -2.981  -2.500  -0.651  1.00  0.00     0.043 C 
HETATM   12  C13 UNL     1      -0.894  -1.307  -0.393  1.00  0.00    -0.021 A 
HETATM   13  C14 UNL     1      -0.060  -2.526  -0.402  1.00  0.00     0.051 C 
BRANCH   7  14
HETATM   14  C4  UNL     1      -1.857   1.972   0.184  1.00  0.00     0.101 C 
BRANCH  14  15
HETATM   15  C5  UNL     1      -3.077   2.705   0.237  1.00  0.00     0.256 C 
HETATM   16  N2  UNL     1      -4.381   2.216   0.110  1.00  0.00    -0.058 NA
HETATM   17  O1  UNL     1      -2.967   3.985   0.429  1.00  0.00    -0.272 OA
ENDBRANCH  14  15
ENDBRANCH   7  14
ENDBRANCH   1   6
BRANCH   1  18
HETATM   18  C9  UNL     1       2.066  -0.171  -0.295  1.00  0.00     0.085 A 
HETATM   19  C10 UNL     1       3.349   0.014   0.140  1.00  0.00     0.040 A 
HETATM   20  C11 UNL     1       3.793   0.375   1.524  1.00  0.00     0.071 C 
HETATM   21  N5  UNL     1       4.180  -0.181  -0.889  1.00  0.00    -0.301 N 
HETATM   22  N6  UNL     1       3.498  -0.479  -1.960  1.00  0.00    -0.266 N 
ATOM     23  H5  UNL     1       5.196  -0.108  -0.843  1.00  0.00     0.186 HD
HETATM   24  C12 UNL     1       2.172  -0.478  -1.624  1.00  0.00     0.274 A 
ATOM     25  H6  UNL     1       3.884  -0.677  -2.883  1.00  0.00     0.190 HD
HETATM   26  O2  UNL     1       1.340  -0.725  -2.524  1.00  0.00    -0.266 OA
ENDBRANCH   1  18
TORSDOF 4
