REMARK  6 active torsions:
REMARK  status: ('A' for Active; 'I' for Inactive)
REMARK    1  A    between atoms: C2_2  and  N1_3 
REMARK    2  A    between atoms: N1_3  and  C3_5 
REMARK    3  A    between atoms: C4_8  and  N3_9 
REMARK    4  A    between atoms: C9_18  and  C10_19 
REMARK    5  A    between atoms: C10_19  and  C11_20 
REMARK    6  A    between atoms: C11_20  and  O1_21 
ROOT
HETATM    1  C3  UNL     1      -1.647   0.680   0.092  1.00  0.00     0.133 A 
HETATM    2  N2  UNL     1      -2.676  -0.141   0.427  1.00  0.00    -0.176 N 
ATOM      3  H2  UNL     1      -3.598   0.266   0.586  1.00  0.00     0.186 HD
HETATM    4  C4  UNL     1      -2.524  -1.470   0.557  1.00  0.00     0.680 A 
HETATM    5  N4  UNL     1      -1.308  -1.992   0.346  1.00  0.00    -0.175 N 
ATOM      6  H4  UNL     1      -1.181  -3.000   0.442  1.00  0.00     0.186 HD
HETATM    7  C6  UNL     1      -0.252  -1.235   0.013  1.00  0.00     0.139 A 
HETATM    8  C7  UNL     1      -0.416   0.134  -0.119  1.00  0.00     0.078 A 
HETATM    9  C8  UNL     1       0.695   0.909  -0.468  1.00  0.00     0.072 A 
HETATM   10  N5  UNL     1       0.487   2.305  -0.606  1.00  0.00    -0.101 NA
HETATM   11  C9  UNL     1       1.942   0.342  -0.682  1.00  0.00    -0.008 A 
HETATM   12  C12 UNL     1       2.013  -1.024  -0.529  1.00  0.00     0.017 A 
HETATM   13  C13 UNL     1       3.306  -1.700  -0.713  1.00  0.00     0.069 C 
HETATM   14  N6  UNL     1       0.962  -1.801  -0.194  1.00  0.00    -0.340 N 
HETATM   15  C14 UNL     1       1.131  -3.253  -0.076  1.00  0.00     0.158 C 
ENDROOT
BRANCH   1  16
HETATM   16  N1  UNL     1      -1.810   1.947  -0.031  1.00  0.00    -0.375 N 
ATOM     17  H1  UNL     1      -1.027   2.550  -0.283  1.00  0.00     0.161 HD
BRANCH  16  18
HETATM   18  C2  UNL     1      -3.126   2.504   0.194  1.00  0.00     0.116 C 
HETATM   19  C1  UNL     1      -3.098   4.023   0.152  1.00  0.00     0.026 C 
ENDBRANCH  16  18
ENDBRANCH   1  16
BRANCH   4  20
HETATM   20  N3  UNL     1      -3.525  -2.236   0.878  1.00  0.00    -0.230 N 
HETATM   21  C5  UNL     1      -3.296  -3.659   1.003  1.00  0.00     0.165 C 
ATOM     22  H3  UNL     1      -4.452  -1.842   1.038  1.00  0.00     0.177 HD
ENDBRANCH   4  20
BRANCH  11  23
HETATM   23  C10 UNL     1       3.111   1.128  -1.042  1.00  0.00     0.068 C 
BRANCH  23  24
HETATM   24  C11 UNL     1       3.863   1.789   0.049  1.00  0.00     0.168 C 
BRANCH  24  25
HETATM   25  O1  UNL     1       3.210   2.694   0.823  1.00  0.00    -0.401 OA
ATOM     26  H1  UNL     1       3.692   3.118   1.523  1.00  0.00     0.209 HD
ENDBRANCH  24  25
ENDBRANCH  23  24
ENDBRANCH  11  23
TORSDOF 6
