REMARK  5 active torsions:
REMARK  status: ('A' for Active; 'I' for Inactive)
REMARK       I    between atoms: C2_2  and  N1_4 
REMARK       I    between atoms: C3_6  and  N3_8 
REMARK    1  A    between atoms: N3_8  and  C4_10 
REMARK    2  A    between atoms: C4_10  and  C5_11 
REMARK    3  A    between atoms: C4_10  and  C8_20 
REMARK       I    between atoms: C5_11  and  N4_13 
REMARK    4  A    between atoms: N4_13  and  C6_15 
REMARK    5  A    between atoms: C6_15  and  C7_17 
ROOT
HETATM    1  C4  UNL     1       0.424  -0.077   0.080  1.00  0.00     0.180 C 
ENDROOT
BRANCH   1   2
HETATM    2  N3  UNL     1      -0.411   0.970  -0.473  1.00  0.00    -0.351 N 
HETATM    3  C3  UNL     1      -1.810   0.984  -0.427  1.00  0.00     0.191 C 
HETATM    4  N1  UNL     1      -2.459   1.159   0.701  1.00  0.00    -0.302 N 
HETATM    5  N2  UNL     1      -2.532   0.821  -1.649  1.00  0.00    -0.063 NA
HETATM    6  C2  UNL     1      -3.873   1.176   0.633  1.00  0.00     0.220 C 
ATOM      7  H1  UNL     1      -1.967   1.277   1.586  1.00  0.00     0.171 HD
HETATM    8  C1  UNL     1      -4.681   0.374   1.561  1.00  0.00     0.117 C 
HETATM    9  O1  UNL     1      -4.423   1.902  -0.253  1.00  0.00    -0.274 OA
ATOM     10  H3  UNL     1       0.055   1.754  -0.929  1.00  0.00     0.163 HD
ENDBRANCH   1   2
BRANCH   1  11
HETATM   11  C5  UNL     1       1.817   0.541  -0.019  1.00  0.00     0.246 C 
HETATM   12  O2  UNL     1       1.893   1.744   0.432  1.00  0.00    -0.271 OA
HETATM   13  N4  UNL     1       2.958  -0.054  -0.536  1.00  0.00    -0.311 N 
ATOM     14  H4  UNL     1       2.815  -0.999  -0.892  1.00  0.00     0.170 HD
BRANCH  13  15
HETATM   15  C6  UNL     1       4.275   0.415  -0.656  1.00  0.00     0.180 C 
HETATM   16  S1  UNL     1       5.349  -0.685  -1.367  1.00  0.00    -0.053 SA
BRANCH  15  17
HETATM   17  C7  UNL     1       4.871   1.655  -0.281  1.00  0.00     0.238 C 
HETATM   18  O3  UNL     1       6.137   1.796  -0.525  1.00  0.00    -0.642 OA
HETATM   19  O4  UNL     1       4.289   2.743   0.313  1.00  0.00    -0.642 OA
ENDBRANCH  15  17
ENDBRANCH  13  15
ENDBRANCH   1  11
BRANCH   1  20
HETATM   20  C8  UNL     1       0.328  -1.373  -0.594  1.00  0.00     0.009 C 
HETATM   21  C9  UNL     1       1.170  -2.403   0.175  1.00  0.00     0.012 C 
HETATM   22  C10 UNL     1      -1.024  -1.989  -0.736  1.00  0.00     0.012 C 
ENDBRANCH   1  20
TORSDOF 5
