REMARK  5 active torsions:
REMARK  status: ('A' for Active; 'I' for Inactive)
REMARK    1  A    between atoms: C2_2  and  C3_3 
REMARK       I    between atoms: C3_3  and  N1_5 
REMARK    2  A    between atoms: C5_10  and  C6_11 
REMARK    3  A    between atoms: C6_11  and  N4_15 
REMARK    4  A    between atoms: N4_15  and  C7_17 
REMARK    5  A    between atoms: C7_17  and  C8_18 
ROOT
HETATM    1  C8  UNL     1      -4.455   0.472  -0.557  1.00  0.00    -0.087 C 
HETATM    2  C9  UNL     1      -5.522   0.866  -0.153  1.00  0.00    -0.109 C 
HETATM    3  C10 UNL     1      -6.809   1.351   0.362  1.00  0.00     0.112 C 
ENDROOT
BRANCH   1   4
HETATM    4  C7  UNL     1      -3.150   0.009  -1.030  1.00  0.00     0.215 C 
BRANCH   4   5
HETATM    5  N4  UNL     1      -2.485  -0.809  -0.011  1.00  0.00    -0.364 N 
ATOM      6  H4  UNL     1      -2.953  -0.976   0.880  1.00  0.00     0.162 HD
BRANCH   5   7
HETATM    7  C6  UNL     1      -1.216  -1.367  -0.238  1.00  0.00     0.123 C 
HETATM    8  N3  UNL     1      -1.214  -2.544  -0.807  1.00  0.00    -0.384 N 
ATOM      9  H32 UNL     1      -0.293  -2.949  -0.972  1.00  0.00     0.157 HD
ATOM     10  H31 UNL     1      -2.092  -3.014  -1.028  1.00  0.00     0.157 HD
BRANCH   7  11
HETATM   11  C5  UNL     1       0.025  -0.702   0.075  1.00  0.00     0.089 C 
HETATM   12  N2  UNL     1       1.158  -1.363  -0.340  1.00  0.00    -0.334 N 
HETATM   13  C4  UNL     1       2.377  -0.773  -0.543  1.00  0.00     0.178 C 
ATOM     14  H2  UNL     1       1.085  -2.366  -0.509  1.00  0.00     0.168 HD
HETATM   15  N1  UNL     1       3.374  -1.564  -0.581  1.00  0.00    -0.305 N 
HETATM   16  C14 UNL     1       2.631   0.574  -0.706  1.00  0.00     0.292 C 
HETATM   17  C3  UNL     1       4.729  -1.250  -0.772  1.00  0.00     0.246 C 
ATOM     18  H1  UNL     1       3.161  -2.554  -0.457  1.00  0.00     0.170 HD
HETATM   19  O1  UNL     1       5.276  -1.437  -1.905  1.00  0.00    -0.268 OA
HETATM   20  N5  UNL     1       1.983   1.634  -0.137  1.00  0.00    -0.287 N 
HETATM   21  O3  UNL     1       3.580   0.832  -1.479  1.00  0.00    -0.264 OA
HETATM   22  C13 UNL     1       0.752   1.619   0.459  1.00  0.00     0.256 C 
ATOM     23  H5  UNL     1       2.468   2.531  -0.159  1.00  0.00     0.172 HD
HETATM   24  C11 UNL     1      -0.058   0.505   0.721  1.00  0.00     0.037 C 
HETATM   25  O2  UNL     1       0.276   2.710   0.820  1.00  0.00    -0.267 OA
HETATM   26  C12 UNL     1      -1.054   0.614   1.786  1.00  0.00     0.056 C 
BRANCH  17  27
HETATM   27  C2  UNL     1       5.587  -0.705   0.277  1.00  0.00     0.064 C 
HETATM   28  C1  UNL     1       6.853  -0.415   0.089  1.00  0.00     0.017 C 
ENDBRANCH  17  27
ENDBRANCH   7  11
ENDBRANCH   5   7
ENDBRANCH   4   5
ENDBRANCH   1   4
TORSDOF 5
