REMARK  4 active torsions:
REMARK  status: ('A' for Active; 'I' for Inactive)
REMARK       I    between atoms: N1_2  and  C3_4 
REMARK       I    between atoms: C3_4  and  N2_6 
REMARK    1  A    between atoms: N2_6  and  N3_8 
REMARK       I    between atoms: N3_8  and  C4_10 
REMARK    2  A    between atoms: C4_10  and  C5_12 
REMARK    3  A    between atoms: C5_12  and  N4_13 
REMARK       I    between atoms: N4_13  and  C6_15 
REMARK    4  A    between atoms: C6_15  and  C7_17 
ROOT
HETATM    1  N4  UNL     1       0.019   0.684  -0.024  1.00  0.00    -0.352 N 
ATOM      2  H4  UNL     1       0.131  -0.280   0.291  1.00  0.00     0.162 HD
HETATM    3  C6  UNL     1      -1.256   1.284  -0.077  1.00  0.00     0.224 C 
HETATM    4  O3  UNL     1      -1.370   2.457  -0.462  1.00  0.00    -0.273 OA
ENDROOT
BRANCH   1   5
HETATM    5  C5  UNL     1       1.163   1.469  -0.427  1.00  0.00     0.227 C 
BRANCH   5   6
HETATM    6  C4  UNL     1       2.380   0.657  -0.297  1.00  0.00     0.253 C 
HETATM    7  N3  UNL     1       3.630   1.234  -0.643  1.00  0.00    -0.265 N 
ATOM      8  H3  UNL     1       3.688   2.196  -0.977  1.00  0.00     0.190 HD
HETATM    9  O2  UNL     1       2.297  -0.521   0.112  1.00  0.00    -0.270 OA
BRANCH   7  10
HETATM   10  N2  UNL     1       4.774   0.453  -0.515  1.00  0.00    -0.249 N 
HETATM   11  C3  UNL     1       5.232   0.128   0.789  1.00  0.00     0.336 C 
HETATM   12  N1  UNL     1       6.399  -0.668   0.921  1.00  0.00    -0.342 N 
HETATM   13  O1  UNL     1       4.600   0.548   1.801  1.00  0.00    -0.245 OA
HETATM   14  C1  UNL     1       6.858  -0.993   2.253  1.00  0.00     0.154 C 
HETATM   15  C2  UNL     1       7.087  -1.129  -0.256  1.00  0.00     0.154 C 
ATOM     16  H2  UNL     1       5.273   0.121  -1.340  1.00  0.00     0.192 HD
ENDBRANCH   7  10
ENDBRANCH   5   6
ENDBRANCH   1   5
BRANCH   3  17
HETATM   17  C7  UNL     1      -2.413   0.483   0.334  1.00  0.00     0.115 C 
HETATM   18  C8  UNL     1      -2.458  -0.763  -0.534  1.00  0.00     0.054 C 
HETATM   19  C9  UNL     1      -3.922  -1.130  -0.557  1.00  0.00     0.120 C 
HETATM   20  C10 UNL     1      -4.307  -1.579  -1.927  1.00  0.00     0.046 C 
HETATM   21  C11 UNL     1      -4.114  -2.299   0.411  1.00  0.00     0.046 C 
HETATM   22  N5  UNL     1      -4.683   0.020  -0.132  1.00  0.00    -0.058 N 
HETATM   23  C12 UNL     1      -3.755   1.099   0.153  1.00  0.00     0.131 C 
ATOM     24  H52 UNL     1      -5.401   0.287  -0.805  1.00  0.00     0.279 HD
ATOM     25  H51 UNL     1      -5.300  -0.186   0.654  1.00  0.00     0.279 HD
HETATM   26  C13 UNL     1      -4.184   1.703   1.480  1.00  0.00     0.046 C 
HETATM   27  C14 UNL     1      -3.871   2.151  -0.891  1.00  0.00     0.046 C 
ENDBRANCH   3  17
TORSDOF 4
