REMARK  6 active torsions:
REMARK  status: ('A' for Active; 'I' for Inactive)
REMARK    1  A    between atoms: O1_2  and  C2_3 
REMARK    2  A    between atoms: C2_3  and  N2_8 
REMARK    3  A    between atoms: N1_4  and  O2_6 
REMARK    4  A    between atoms: N2_8  and  O3_9 
REMARK    5  A    between atoms: N2_8  and  C3_11 
REMARK    6  A    between atoms: C9_17  and  O4_18 
ROOT
HETATM    1  N2  UNL     1       1.111  -0.956   0.303  1.00  0.00    -0.215 N 
ENDROOT
BRANCH   1   2
HETATM    2  C2  UNL     1       2.368  -0.293   0.147  1.00  0.00     0.266 C 
HETATM    3  N1  UNL     1       3.444  -0.946  -0.140  1.00  0.00    -0.231 N 
ATOM      4  H1  UNL     1       4.313  -0.422  -0.241  1.00  0.00     0.198 HD
BRANCH   2   5
HETATM    5  O1  UNL     1       2.480   1.075   0.297  1.00  0.00    -0.324 OA
HETATM    6  C1  UNL     1       3.632   1.811  -0.058  1.00  0.00     0.213 C 
ENDBRANCH   2   5
BRANCH   3   7
HETATM    7  O2  UNL     1       3.482  -2.299  -0.316  1.00  0.00    -0.287 OA
ATOM      8  H2  UNL     1       4.274  -2.780  -0.527  1.00  0.00     0.244 HD
ENDBRANCH   3   7
ENDBRANCH   1   2
BRANCH   1   9
HETATM    9  O3  UNL     1       1.116  -2.284   0.423  1.00  0.00    -0.284 OA
ATOM     10  H3  UNL     1       0.281  -2.725   0.527  1.00  0.00     0.245 HD
ENDBRANCH   1   9
BRANCH   1  11
HETATM   11  C3  UNL     1      -0.104  -0.147   0.322  1.00  0.00     0.147 C 
HETATM   12  C4  UNL     1      -0.217   0.593  -0.956  1.00  0.00     0.030 C 
HETATM   13  C5  UNL     1      -1.521   0.474  -1.664  1.00  0.00     0.002 C 
HETATM   14  C6  UNL     1      -2.726   0.699  -0.838  1.00  0.00     0.000 C 
HETATM   15  C7  UNL     1      -2.472   1.128   0.569  1.00  0.00     0.002 C 
HETATM   16  C8  UNL     1      -2.343  -0.154   1.401  1.00  0.00     0.034 C 
HETATM   17  C9  UNL     1      -1.296  -0.999   0.661  1.00  0.00     0.143 C 
BRANCH  17  18
HETATM   18  O4  UNL     1      -0.970  -2.032   1.540  1.00  0.00    -0.393 OA
ATOM     19  H4  UNL     1      -1.723  -2.570   1.754  1.00  0.00     0.210 HD
ENDBRANCH  17  18
ENDBRANCH   1  11
TORSDOF 6
