REMARK  2 active torsions:
REMARK  status: ('A' for Active; 'I' for Inactive)
REMARK    1  A    between atoms: N1_1  and  C1_4 
REMARK    2  A    between atoms: C3_10  and  C4_11 
ROOT
HETATM    1  C1  UNL     1       4.439  -0.961   0.166  1.00  0.00     0.145 A 
HETATM    2  N2  UNL     1       3.453  -0.533  -0.622  1.00  0.00    -0.321 N 
ATOM      3  H2  UNL     1       3.641  -0.259  -1.586  1.00  0.00     0.169 HD
HETATM    4  C2  UNL     1       2.241  -0.471  -0.137  1.00  0.00     0.143 A 
HETATM    5  N3  UNL     1       0.982  -0.114  -0.551  1.00  0.00    -0.325 N 
ATOM      6  H3  UNL     1       0.761   0.225  -1.487  1.00  0.00     0.169 HD
HETATM    7  C3  UNL     1       0.082  -0.265   0.425  1.00  0.00     0.130 A 
HETATM    8  N5  UNL     1       0.750  -0.735   1.524  1.00  0.00    -0.332 N 
ATOM      9  H5  UNL     1       0.348  -0.954   2.436  1.00  0.00     0.168 HD
HETATM   10  C8  UNL     1       2.048  -0.851   1.161  1.00  0.00     0.123 A 
HETATM   11  S1  UNL     1       3.631  -1.286   1.638  1.00  0.00    -0.033 SA
ENDROOT
BRANCH   7  12
HETATM   12  C4  UNL     1      -1.346   0.018   0.340  1.00  0.00     0.053 C 
HETATM   13  N4  UNL     1      -2.156  -0.150   1.321  1.00  0.00    -0.369 N 
HETATM   14  C5  UNL     1      -3.567   0.114   1.282  1.00  0.00     0.290 C 
ATOM     15  H4  UNL     1      -1.767  -0.498   2.197  1.00  0.00     0.161 HD
HETATM   16  O1  UNL     1      -4.001   0.631   0.073  1.00  0.00    -0.372 OA
HETATM   17  C6  UNL     1      -3.074   1.428  -0.553  1.00  0.00     0.176 C 
HETATM   18  C7  UNL     1      -1.895   0.522  -0.931  1.00  0.00     0.087 C 
ENDBRANCH   7  12
BRANCH   1  19
HETATM   19  N1  UNL     1       5.713  -1.097  -0.123  1.00  0.00    -0.380 N 
ATOM     20  H12 UNL     1       6.195  -0.903  -1.001  1.00  0.00     0.158 HD
ATOM     21  H11 UNL     1       6.468  -1.425   0.480  1.00  0.00     0.158 HD
ENDBRANCH   1  19
TORSDOF 2
