REMARK  1 active torsions:
REMARK  status: ('A' for Active; 'I' for Inactive)
REMARK    1  A    between atoms: C2_5  and  C3_6 
ROOT
HETATM    1  N1  UNL     1       3.312  -2.039   0.412  1.00  0.00    -0.081 NA
HETATM    2  C1  UNL     1       2.662  -0.746   0.336  1.00  0.00     0.141 A 
HETATM    3  N2  UNL     1       1.373  -0.586   0.466  1.00  0.00    -0.339 N 
ATOM      4  H2  UNL     1       0.774  -1.395   0.629  1.00  0.00     0.167 HD
HETATM    5  C2  UNL     1       0.845   0.616   0.387  1.00  0.00     0.084 A 
HETATM    6  S1  UNL     1       2.210   1.595   0.115  1.00  0.00    -0.063 SA
HETATM    7  C8  UNL     1       3.416   0.378   0.118  1.00  0.00     0.095 A 
HETATM    8  S2  UNL     1       5.198   0.505  -0.102  1.00  0.00    -0.041 SA
ENDROOT
BRANCH   5   9
HETATM    9  C3  UNL     1      -0.583   1.058   0.500  1.00  0.00     0.242 C 
HETATM   10  C4  UNL     1      -1.329   0.944  -0.769  1.00  0.00     0.040 C 
HETATM   11  C5  UNL     1      -2.277  -0.185  -0.901  1.00  0.00     0.004 C 
HETATM   12  C6  UNL     1      -2.795  -0.763   0.360  1.00  0.00     0.027 C 
HETATM   13  C7  UNL     1      -2.594   0.217   1.492  1.00  0.00     0.233 C 
HETATM   14  N3  UNL     1      -1.155   0.379   1.624  1.00  0.00    -0.065 N 
ATOM     15  H32 UNL     1      -0.696  -0.517   1.787  1.00  0.00     0.278 HD
ATOM     16  H31 UNL     1      -0.915   0.845   2.499  1.00  0.00     0.278 HD
ENDBRANCH   5   9
TORSDOF 1
