REMARK  12 active torsions:
REMARK  status: ('A' for Active; 'I' for Inactive)
REMARK    1  A    between atoms: C2_2  and  C3_3 
REMARK       I    between atoms: C3_3  and  N1_5 
REMARK    2  A    between atoms: N1_5  and  C5_7 
REMARK    3  A    between atoms: C5_7  and  C6_8 
REMARK    4  A    between atoms: C10_12  and  C11_13 
REMARK    5  A    between atoms: C15_19  and  C16_20 
REMARK    6  A    between atoms: C16_20  and  C17_21 
REMARK    7  A    between atoms: C17_21  and  N3_22 
REMARK       I    between atoms: N3_22  and  C18_24 
REMARK    8  A    between atoms: N4_27  and  C20_28 
REMARK    9  A    between atoms: C20_28  and  C21_29 
REMARK   10  A    between atoms: C21_29  and  C22_30 
REMARK   11  A    between atoms: C24_34  and  N6_35 
REMARK   12  A    between atoms: C25_40  and  N8_41 
ROOT
HETATM    1  C6  UNL     1       0.054   1.045  -0.749  1.00  0.00     0.036 A 
HETATM    2  C7  UNL     1       1.075   1.432  -1.565  1.00  0.00    -0.035 A 
HETATM    3  C8  UNL     1       1.401   2.792  -2.063  1.00  0.00     0.050 C 
HETATM    4  C9  UNL     1       1.834   0.299  -1.887  1.00  0.00     0.039 A 
HETATM    5  C10 UNL     1       1.255  -0.787  -1.250  1.00  0.00     0.047 A 
HETATM    6  N4  UNL     1       0.194  -0.339  -0.578  1.00  0.00    -0.347 N 
ENDROOT
BRANCH   6   7
HETATM    7  C20 UNL     1      -0.739  -1.041   0.261  1.00  0.00     0.134 C 
BRANCH   7   8
HETATM    8  C21 UNL     1      -2.044  -1.371  -0.380  1.00  0.00     0.064 C 
BRANCH   8   9
HETATM    9  C22 UNL     1      -2.998  -2.065   0.547  1.00  0.00     0.004 A 
HETATM   10  C23 UNL     1      -2.674  -2.424   1.824  1.00  0.00     0.117 A 
HETATM   11  N5  UNL     1      -3.589  -3.052   2.616  1.00  0.00    -0.202 N 
HETATM   12  C24 UNL     1      -4.822  -3.335   2.171  1.00  0.00     0.677 A 
ATOM     13  H5  UNL     1      -3.330  -3.312   3.568  1.00  0.00     0.183 HD
HETATM   14  N7  UNL     1      -5.139  -2.976   0.905  1.00  0.00    -0.176 N 
HETATM   15  C25 UNL     1      -4.265  -2.348   0.075  1.00  0.00     0.126 A 
ATOM     16  H7  UNL     1      -6.075  -3.186   0.559  1.00  0.00     0.186 HD
BRANCH  12  17
HETATM   17  N6  UNL     1      -5.697  -3.941   2.927  1.00  0.00    -0.234 N 
ATOM     18  H62 UNL     1      -5.458  -4.212   3.881  1.00  0.00     0.174 HD
ATOM     19  H61 UNL     1      -6.635  -4.156   2.589  1.00  0.00     0.174 HD
ENDBRANCH  12  17
BRANCH  15  20
HETATM   20  N8  UNL     1      -4.678  -2.000  -1.231  1.00  0.00    -0.375 N 
HETATM   21  C26 UNL     1      -4.409  -2.879  -2.335  1.00  0.00     0.150 C 
HETATM   22  C27 UNL     1      -5.370  -0.761  -1.457  1.00  0.00     0.150 C 
ENDBRANCH  15  20
ENDBRANCH   8   9
ENDBRANCH   7   8
ENDBRANCH   6   7
BRANCH   1  23
HETATM   23  C5  UNL     1      -1.046   1.799  -0.113  1.00  0.00     0.183 C 
BRANCH  23  24
HETATM   24  N1  UNL     1      -0.693   2.957   0.613  1.00  0.00    -0.351 N 
HETATM   25  C3  UNL     1      -0.795   4.261   0.099  1.00  0.00     0.219 C 
HETATM   26  O1  UNL     1      -1.412   4.554  -0.979  1.00  0.00    -0.273 OA
HETATM   27  C4  UNL     1      -0.086   2.773   1.932  1.00  0.00     0.153 C 
BRANCH  25  28
HETATM   28  C2  UNL     1      -0.185   5.463   0.773  1.00  0.00     0.098 C 
HETATM   29  C1  UNL     1      -1.060   6.688   0.481  1.00  0.00     0.014 C 
ENDBRANCH  25  28
ENDBRANCH  23  24
ENDBRANCH   1  23
BRANCH   5  30
HETATM   30  C11 UNL     1       1.831  -2.151  -1.170  1.00  0.00     0.013 A 
HETATM   31  C12 UNL     1       1.031  -3.289  -1.310  1.00  0.00     0.017 A 
HETATM   32  C13 UNL     1       1.558  -4.533  -1.130  1.00  0.00     0.018 A 
HETATM   33  C14 UNL     1       2.892  -4.668  -0.811  1.00  0.00     0.088 A 
HETATM   34  N2  UNL     1       3.619  -3.576  -0.686  1.00  0.00    -0.368 N 
HETATM   35  C15 UNL     1       3.159  -2.280  -0.850  1.00  0.00     0.023 A 
ATOM     36  H2  UNL     1       4.604  -3.695  -0.448  1.00  0.00     0.165 HD
BRANCH  35  37
HETATM   37  C16 UNL     1       4.095  -1.198  -0.585  1.00  0.00     0.077 C 
BRANCH  37  38
HETATM   38  C17 UNL     1       3.912  -0.555   0.771  1.00  0.00     0.128 C 
BRANCH  38  39
HETATM   39  N3  UNL     1       4.899   0.478   0.955  1.00  0.00    -0.361 N 
HETATM   40  C18 UNL     1       6.292   0.287   1.007  1.00  0.00     0.213 C 
HETATM   41  C19 UNL     1       7.254   1.422   1.188  1.00  0.00     0.117 C 
HETATM   42  O2  UNL     1       6.779  -0.853   0.901  1.00  0.00    -0.274 OA
ATOM     43  H3  UNL     1       4.557   1.434   1.057  1.00  0.00     0.162 HD
ENDBRANCH  38  39
ENDBRANCH  37  38
ENDBRANCH  35  37
ENDBRANCH   5  30
TORSDOF 12
