REMARK  16 active torsions:
REMARK  status: ('A' for Active; 'I' for Inactive)
REMARK    1  A    between atoms: O1_2  and  C2_3 
REMARK    2  A    between atoms: C4_5  and  C5_6 
REMARK    3  A    between atoms: C5_6  and  N1_7 
REMARK    4  A    between atoms: C8_10  and  C9_11 
REMARK    5  A    between atoms: C9_11  and  C10_12 
REMARK    6  A    between atoms: C10_12  and  C11_13 
REMARK    7  A    between atoms: C11_13  and  N2_14 
REMARK    8  A    between atoms: N5_19  and  O2_21 
REMARK    9  A    between atoms: O2_21  and  C13_22 
REMARK   10  A    between atoms: C13_22  and  C14_23 
REMARK   11  A    between atoms: C15_24  and  C16_25 
REMARK   12  A    between atoms: C16_25  and  C17_26 
REMARK   13  A    between atoms: C18_27  and  C20_29 
REMARK   14  A    between atoms: C20_29  and  N6_30 
REMARK   15  A    between atoms: C24_37  and  O3_38 
REMARK   16  A    between atoms: C26_40  and  O4_41 
ROOT
HETATM    1  C10 UNL     1       1.354   0.319   1.257  1.00  0.00     0.079 C 
ENDROOT
BRANCH   1   2
HETATM    2  C9  UNL     1       0.276   0.161   0.243  1.00  0.00     0.012 C 
BRANCH   2   3
HETATM    3  C8  UNL     1      -0.952   0.922   0.716  1.00  0.00    -0.011 C 
HETATM    4  C7  UNL     1      -1.408   0.365   2.034  1.00  0.00     0.024 C 
HETATM    5  C6  UNL     1      -2.777   0.807   2.445  1.00  0.00     0.117 C 
HETATM    6  N1  UNL     1      -3.742   0.606   1.419  1.00  0.00    -0.408 N 
HETATM    7  C22 UNL     1      -3.397   1.174   0.156  1.00  0.00     0.117 C 
HETATM    8  C21 UNL     1      -2.020   0.704  -0.311  1.00  0.00     0.024 C 
BRANCH   6   9
HETATM    9  C5  UNL     1      -5.109   0.711   1.806  1.00  0.00     0.155 C 
BRANCH   9  10
HETATM   10  C4  UNL     1      -6.006   0.495   0.656  1.00  0.00    -0.035 A 
HETATM   11  C3  UNL     1      -6.584   1.602   0.032  1.00  0.00     0.048 A 
HETATM   12  C2  UNL     1      -7.418   1.386  -1.044  1.00  0.00     0.104 A 
HETATM   13  C26 UNL     1      -7.673   0.114  -1.491  1.00  0.00     0.135 A 
HETATM   14  C24 UNL     1      -7.116  -0.996  -0.894  1.00  0.00     0.104 A 
HETATM   15  C23 UNL     1      -6.282  -0.771   0.184  1.00  0.00     0.048 A 
BRANCH  12  16
HETATM   16  O1  UNL     1      -7.998   2.501  -1.670  1.00  0.00    -0.353 OA
HETATM   17  C1  UNL     1      -7.749   3.801  -1.227  1.00  0.00     0.210 C 
ENDBRANCH  12  16
BRANCH  13  18
HETATM   18  O4  UNL     1      -8.530  -0.055  -2.592  1.00  0.00    -0.351 OA
HETATM   19  C27 UNL     1      -9.906  -0.208  -2.315  1.00  0.00     0.210 C 
ENDBRANCH  13  18
BRANCH  14  20
HETATM   20  O3  UNL     1      -7.418  -2.239  -1.397  1.00  0.00    -0.353 OA
HETATM   21  C25 UNL     1      -6.932  -3.452  -0.902  1.00  0.00     0.210 C 
ENDBRANCH  14  20
ENDBRANCH   9  10
ENDBRANCH   6   9
ENDBRANCH   2   3
ENDBRANCH   1   2
BRANCH   1  22
HETATM   22  C11 UNL     1       2.609  -0.414   0.854  1.00  0.00     0.103 C 
HETATM   23  N5  UNL     1       3.670   0.278   0.755  1.00  0.00    -0.254 N 
ATOM     24  H5  UNL     1       3.543   1.268   0.965  1.00  0.00     0.195 HD
BRANCH  22  25
HETATM   25  N2  UNL     1       2.553  -1.793   0.610  1.00  0.00    -0.321 N 
HETATM   26  C12 UNL     1       2.165  -2.722   1.388  1.00  0.00     0.202 C 
HETATM   27  N3  UNL     1       1.712  -2.440   2.694  1.00  0.00    -0.066 NA
HETATM   28  N4  UNL     1       2.185  -4.060   0.952  1.00  0.00    -0.066 NA
ATOM     29  H2  UNL     1       2.865  -2.092  -0.314  1.00  0.00     0.169 HD
ENDBRANCH  22  25
BRANCH  23  30
HETATM   30  O2  UNL     1       4.926  -0.054   0.425  1.00  0.00    -0.267 OA
BRANCH  30  31
HETATM   31  C13 UNL     1       5.314  -1.376   0.188  1.00  0.00     0.294 C 
BRANCH  31  32
HETATM   32  C14 UNL     1       6.769  -1.311  -0.140  1.00  0.00    -0.078 C 
HETATM   33  C15 UNL     1       7.942  -1.279  -0.411  1.00  0.00    -0.101 C 
BRANCH  33  34
HETATM   34  C16 UNL     1       9.362  -1.244  -0.766  1.00  0.00     0.121 C 
BRANCH  34  35
HETATM   35  C17 UNL     1       9.815   0.177  -0.700  1.00  0.00    -0.011 C 
HETATM   36  C18 UNL     1      10.302   0.783  -1.773  1.00  0.00    -0.062 C 
HETATM   37  C19 UNL     1      10.395   0.030  -3.056  1.00  0.00     0.045 C 
BRANCH  36  38
HETATM   38  C20 UNL     1      10.748   2.197  -1.688  1.00  0.00     0.263 C 
BRANCH  38  39
HETATM   39  N6  UNL     1      10.554   2.696  -0.342  1.00  0.00    -0.076 N 
ATOM     40  H63 UNL     1       9.592   2.579  -0.025  1.00  0.00     0.274 HD
ATOM     41  H62 UNL     1      11.012   2.108   0.354  1.00  0.00     0.274 HD
ATOM     42  H61 UNL     1      10.860   3.667  -0.284  1.00  0.00     0.274 HD
ENDBRANCH  38  39
ENDBRANCH  36  38
ENDBRANCH  34  35
ENDBRANCH  33  34
ENDBRANCH  31  32
ENDBRANCH  30  31
ENDBRANCH  23  30
ENDBRANCH   1  22
TORSDOF 16
