REMARK  14 active torsions:
REMARK  status: ('A' for Active; 'I' for Inactive)
REMARK    1  A    between atoms: C5_5  and  N1_6 
REMARK    2  A    between atoms: N1_6  and  C6_8 
REMARK    3  A    between atoms: C7_11  and  N3_12 
REMARK    4  A    between atoms: C10_17  and  N5_18 
REMARK    5  A    between atoms: N5_18  and  C11_20 
REMARK    6  A    between atoms: C11_20  and  C12_21 
REMARK    7  A    between atoms: C12_21  and  C13_22 
REMARK    8  A    between atoms: C13_22  and  N6_23 
REMARK    9  A    between atoms: N6_23  and  C15_25 
REMARK   10  A    between atoms: C15_25  and  C16_26 
REMARK   11  A    between atoms: C16_26  and  C17_27 
REMARK   12  A    between atoms: C17_27  and  N7_28 
REMARK   13  A    between atoms: N7_28  and  C18_29 
REMARK   14  A    between atoms: C18_29  and  C19_30 
ROOT
HETATM    1  N5  UNL     1       1.463  -0.080  -0.424  1.00  0.00    -0.225 N 
ATOM      2  H5  UNL     1       0.800   0.281   0.262  1.00  0.00     0.177 HD
ENDROOT
BRANCH   1   3
HETATM    3  C10 UNL     1       2.759  -0.203  -0.156  1.00  0.00     0.707 A 
HETATM    4  N4  UNL     1       3.646  -0.685  -1.022  1.00  0.00    -0.021 N 
HETATM    5  C7  UNL     1       5.003  -0.649  -0.827  1.00  0.00     0.708 A 
ATOM      6  H4  UNL     1       3.296  -1.107  -1.882  1.00  0.00     0.203 HD
HETATM    7  N2  UNL     1       5.435  -0.093   0.303  1.00  0.00    -0.021 N 
HETATM    8  C6  UNL     1       4.592   0.420   1.237  1.00  0.00     0.711 A 
ATOM      9  H2  UNL     1       6.440  -0.050   0.475  1.00  0.00     0.203 HD
HETATM   10  N9  UNL     1       3.278   0.348   0.978  1.00  0.00    -0.021 N 
ATOM     11  H9  UNL     1       2.630   0.727   1.669  1.00  0.00     0.203 HD
BRANCH   5  12
HETATM   12  N3  UNL     1       5.873  -1.215  -1.796  1.00  0.00    -0.225 N 
HETATM   13  C8  UNL     1       6.342  -2.582  -1.717  1.00  0.00     0.168 C 
HETATM   14  C9  UNL     1       6.292  -0.410  -2.911  1.00  0.00     0.168 C 
ENDBRANCH   5  12
BRANCH   8  15
HETATM   15  N1  UNL     1       5.082   1.036   2.283  1.00  0.00    -0.191 N 
ATOM     16  H1  UNL     1       4.473   1.424   3.003  1.00  0.00     0.184 HD
BRANCH  15  17
HETATM   17  C5  UNL     1       6.498   1.143   2.375  1.00  0.00     0.049 A 
HETATM   18  C4  UNL     1       7.275   0.406   3.216  1.00  0.00     0.030 A 
HETATM   19  C3  UNL     1       8.670   0.562   3.277  1.00  0.00     0.009 A 
HETATM   20  C2  UNL     1       9.325   1.474   2.485  1.00  0.00    -0.062 A 
HETATM   21  C1  UNL     1      10.796   1.688   2.548  1.00  0.00     0.048 C 
HETATM   22  C27 UNL     1       8.531   2.218   1.633  1.00  0.00     0.009 A 
HETATM   23  C26 UNL     1       7.173   2.077   1.565  1.00  0.00     0.030 A 
ENDBRANCH  15  17
ENDBRANCH   8  15
ENDBRANCH   1   3
BRANCH   1  24
HETATM   24  C11 UNL     1       1.049  -0.490  -1.749  1.00  0.00     0.140 C 
BRANCH  24  25
HETATM   25  C12 UNL     1       0.047   0.468  -2.363  1.00  0.00     0.050 C 
BRANCH  25  26
HETATM   26  C13 UNL     1      -1.335   0.435  -1.910  1.00  0.00     0.273 C 
BRANCH  26  27
HETATM   27  N6  UNL     1      -1.792   0.528  -0.593  1.00  0.00     0.084 N 
HETATM   28  C14 UNL     1      -1.620   1.797   0.000  1.00  0.00     0.309 C 
BRANCH  27  29
HETATM   29  C15 UNL     1      -3.210   0.103  -0.542  1.00  0.00     0.278 C 
BRANCH  29  30
HETATM   30  C16 UNL     1      -3.268  -1.369  -0.756  1.00  0.00     0.089 C 
BRANCH  30  31
HETATM   31  C17 UNL     1      -4.612  -1.984  -0.960  1.00  0.00     0.156 C 
BRANCH  31  32
HETATM   32  N7  UNL     1      -5.631  -1.984  -0.161  1.00  0.00    -0.433 NA
BRANCH  32  33
HETATM   33  C18 UNL     1      -6.565  -1.978   0.567  1.00  0.00     0.198 C 
BRANCH  33  34
HETATM   34  C19 UNL     1      -7.654  -0.953   0.597  1.00  0.00     0.067 A 
HETATM   35  C20 UNL     1      -8.713  -1.064   1.493  1.00  0.00    -0.042 A 
HETATM   36  C21 UNL     1      -8.819  -2.187   2.440  1.00  0.00     0.049 C 
HETATM   37  C22 UNL     1      -9.701  -0.091   1.452  1.00  0.00     0.032 A 
HETATM   38  C23 UNL     1      -9.666   0.972   0.560  1.00  0.00     0.009 A 
HETATM   39  C24 UNL     1     -10.729   2.003   0.512  1.00  0.00     0.068 C 
HETATM   40  N8  UNL     1      -8.629   1.041  -0.282  1.00  0.00    -0.327 N 
HETATM   41  C25 UNL     1      -7.650   0.108  -0.266  1.00  0.00     0.258 A 
ATOM     42  H8  UNL     1      -8.576   1.811  -0.948  1.00  0.00     0.169 HD
HETATM   43  O1  UNL     1      -6.705   0.259  -1.106  1.00  0.00    -0.267 OA
ENDBRANCH  33  34
ENDBRANCH  32  33
ENDBRANCH  31  32
ENDBRANCH  30  31
ENDBRANCH  29  30
ENDBRANCH  27  29
ENDBRANCH  26  27
ENDBRANCH  25  26
ENDBRANCH  24  25
ENDBRANCH   1  24
TORSDOF 14
