REMARK  3 active torsions:
REMARK  status: ('A' for Active; 'I' for Inactive)
REMARK    1  A    between atoms: C12_12  and  O1_13 
REMARK    2  A    between atoms: C14_16  and  C16_18 
REMARK    3  A    between atoms: C17_19  and  C18_20 
ROOT
HETATM    1  C1  UNL     1       0.858   0.762   1.712  1.00  0.00     0.011 C 
HETATM    2  C2  UNL     1       0.659   0.729   0.260  1.00  0.00    -0.001 C 
HETATM    3  C3  UNL     1      -0.702   0.410  -0.268  1.00  0.00     0.009 C 
HETATM    4  C4  UNL     1      -1.683   1.516  -0.198  1.00  0.00    -0.043 C 
HETATM    5  C5  UNL     1      -1.608   2.389   1.029  1.00  0.00     0.015 C 
HETATM    6  C6  UNL     1      -1.453   2.476  -1.381  1.00  0.00     0.015 C 
HETATM    7  C7  UNL     1      -3.113   1.065  -0.316  1.00  0.00     0.009 C 
HETATM    8  C8  UNL     1      -3.506  -0.010   0.631  1.00  0.00     0.002 C 
HETATM    9  C9  UNL     1      -2.368  -0.836   1.151  1.00  0.00     0.012 C 
HETATM   10  C10 UNL     1      -1.214  -0.935   0.176  1.00  0.00    -0.013 C 
HETATM   11  C11 UNL     1      -1.775  -1.754  -1.000  1.00  0.00     0.018 C 
HETATM   12  C12 UNL     1      -0.162  -1.799   0.820  1.00  0.00     0.127 C 
HETATM   13  C13 UNL     1       1.192  -1.688   0.220  1.00  0.00     0.046 C 
HETATM   14  C14 UNL     1       1.582  -0.364  -0.305  1.00  0.00    -0.020 C 
HETATM   15  C15 UNL     1       1.645  -0.279  -1.802  1.00  0.00     0.020 C 
ENDROOT
BRANCH  14  16
HETATM   16  C16 UNL     1       2.960  -0.024   0.192  1.00  0.00    -0.010 C 
HETATM   17  C17 UNL     1       3.894  -0.954   0.236  1.00  0.00     0.081 C 
BRANCH  17  18
HETATM   18  C18 UNL     1       5.234  -0.657   0.710  1.00  0.00     0.198 C 
HETATM   19  O2  UNL     1       6.147  -1.520   0.765  1.00  0.00    -0.645 OA
HETATM   20  O3  UNL     1       5.549   0.627   1.127  1.00  0.00    -0.645 OA
ENDBRANCH  17  18
ENDBRANCH  14  16
BRANCH  12  21
HETATM   21  O1  UNL     1      -0.548  -3.155   0.640  1.00  0.00    -0.395 OA
ATOM     22  H1  UNL     1       0.116  -3.700   1.046  1.00  0.00     0.210 HD
ENDBRANCH  12  21
TORSDOF 3
