REMARK  3 active torsions:
REMARK  status: ('A' for Active; 'I' for Inactive)
REMARK    1  A    between atoms: C3_3  and  C4_4 
REMARK    2  A    between atoms: C4_4  and  N1_5 
REMARK    3  A    between atoms: C6_12  and  C7_13 
ROOT
HETATM    1  N1  UNL     1      -0.089   0.458   0.194  1.00  0.00    -0.343 N 
ATOM      2  H1  UNL     1      -0.441  -0.393   0.632  1.00  0.00     0.167 HD
HETATM    3  C5  UNL     1       1.163   0.480  -0.091  1.00  0.00     0.165 A 
HETATM    4  N2  UNL     1       1.979   1.356  -0.648  1.00  0.00    -0.279 N 
ATOM      5  H2  UNL     1       1.610   2.220  -1.044  1.00  0.00     0.189 HD
HETATM    6  N3  UNL     1       3.229   1.117  -0.689  1.00  0.00    -0.295 N 
ATOM      7  H3  UNL     1       3.850   1.802  -1.120  1.00  0.00     0.187 HD
HETATM    8  C6  UNL     1       3.737   0.027  -0.199  1.00  0.00     0.077 A 
HETATM    9  S1  UNL     1       2.323  -0.754   0.387  1.00  0.00    -0.037 SA
ENDROOT
BRANCH   1  10
HETATM   10  C4  UNL     1      -1.024   1.479  -0.032  1.00  0.00     0.120 C 
BRANCH  10  11
HETATM   11  C3  UNL     1      -2.422   0.922  -0.095  1.00  0.00     0.054 A 
HETATM   12  C2  UNL     1      -3.027   0.141   0.873  1.00  0.00    -0.026 A 
HETATM   13  C1  UNL     1      -2.293  -0.326   2.088  1.00  0.00     0.051 C 
HETATM   14  C12 UNL     1      -4.314  -0.097   0.473  1.00  0.00    -0.027 A 
HETATM   15  C11 UNL     1      -4.483   0.541  -0.732  1.00  0.00     0.016 A 
HETATM   16  C13 UNL     1      -5.555  -0.838   0.867  1.00  0.00     0.041 C 
HETATM   17  N4  UNL     1      -3.315   1.148  -1.048  1.00  0.00    -0.358 N 
HETATM   18  C15 UNL     1      -5.888   0.327  -1.197  1.00  0.00     0.058 C 
ATOM     19  H4  UNL     1      -3.148   1.696  -1.892  1.00  0.00     0.166 HD
HETATM   20  C14 UNL     1      -6.246  -0.981  -0.487  1.00  0.00     0.011 C 
ENDBRANCH  10  11
ENDBRANCH   1  10
BRANCH   8  21
HETATM   21  C7  UNL     1       5.160  -0.423  -0.097  1.00  0.00    -0.001 C 
HETATM   22  C8  UNL     1       5.527  -1.282  -1.286  1.00  0.00     0.021 C 
HETATM   23  C9  UNL     1       6.022   0.787   0.088  1.00  0.00     0.021 C 
HETATM   24  C10 UNL     1       5.217  -1.316   1.138  1.00  0.00     0.021 C 
ENDBRANCH   8  21
TORSDOF 3
