REMARK  4 active torsions:
REMARK  status: ('A' for Active; 'I' for Inactive)
REMARK    1  A    between atoms: O1_2  and  C2_3 
REMARK    2  A    between atoms: C2_3  and  C3_5 
REMARK    3  A    between atoms: C3_5  and  C4_6 
REMARK    4  A    between atoms: C14_16  and  O3_17 
ROOT
HETATM    1  C4  UNL     1       1.913  -0.407  -0.104  1.00  0.00    -0.031 C 
HETATM    2  C5  UNL     1       2.304  -1.853  -0.013  1.00  0.00     0.016 C 
HETATM    3  C6  UNL     1       1.801   0.226   1.263  1.00  0.00     0.010 C 
HETATM    4  C7  UNL     1       0.289   0.266   1.519  1.00  0.00     0.006 C 
HETATM    5  C8  UNL     1      -0.223   0.688   0.156  1.00  0.00    -0.001 C 
HETATM    6  C9  UNL     1       0.570  -0.188  -0.741  1.00  0.00    -0.001 C 
HETATM    7  C10 UNL     1      -0.185  -1.405  -1.109  1.00  0.00     0.006 C 
HETATM    8  C11 UNL     1      -1.376  -0.947  -1.919  1.00  0.00     0.006 C 
HETATM    9  C12 UNL     1      -2.279   0.007  -1.165  1.00  0.00    -0.004 C 
HETATM   10  C13 UNL     1      -3.595  -0.686  -0.989  1.00  0.00     0.037 C 
HETATM   11  C14 UNL     1      -4.402  -0.349   0.190  1.00  0.00     0.118 C 
HETATM   12  C15 UNL     1      -3.716   0.293   1.336  1.00  0.00     0.032 C 
HETATM   13  C16 UNL     1      -2.256  -0.075   1.301  1.00  0.00     0.012 C 
HETATM   14  C17 UNL     1      -1.699   0.608   0.043  1.00  0.00    -0.036 C 
HETATM   15  C18 UNL     1      -2.201   2.062   0.158  1.00  0.00     0.016 C 
ENDROOT
BRANCH   1  16
HETATM   16  C3  UNL     1       2.968   0.341  -0.886  1.00  0.00     0.120 C 
BRANCH  16  17
HETATM   17  C2  UNL     1       4.272   0.227  -0.221  1.00  0.00     0.259 C 
HETATM   18  O2  UNL     1       4.398  -0.435   0.838  1.00  0.00    -0.265 OA
BRANCH  17  19
HETATM   19  O1  UNL     1       5.422   0.838  -0.721  1.00  0.00    -0.326 OA
HETATM   20  C1  UNL     1       6.633   0.683  -0.027  1.00  0.00     0.213 C 
ENDBRANCH  17  19
ENDBRANCH  16  17
ENDBRANCH   1  16
BRANCH  11  21
HETATM   21  O3  UNL     1      -5.489   0.491  -0.166  1.00  0.00    -0.396 OA
ATOM     22  H3  UNL     1      -6.011   0.709   0.597  1.00  0.00     0.210 HD
ENDBRANCH  11  21
TORSDOF 4
