REMARK  17 active torsions:
REMARK  status: ('A' for Active; 'I' for Inactive)
REMARK    1  A    between atoms: C2_2  and  C4_4 
REMARK    2  A    between atoms: C4_4  and  C5_5 
REMARK    3  A    between atoms: C4_4  and  N4_25 
REMARK    4  A    between atoms: C5_5  and  O1_6 
REMARK    5  A    between atoms: C5_5  and  N1_8 
REMARK    6  A    between atoms: N1_8  and  C6_10 
REMARK    7  A    between atoms: C6_10  and  C7_11 
REMARK    8  A    between atoms: C6_10  and  C12_21 
REMARK    9  A    between atoms: C7_11  and  C8_12 
REMARK   10  A    between atoms: C8_12  and  C9_13 
REMARK   11  A    between atoms: C9_13  and  N2_14 
REMARK   12  A    between atoms: N2_14  and  C10_16 
REMARK   13  A    between atoms: C12_21  and  O3_23 
REMARK   14  A    between atoms: C15_28  and  C16_29 
REMARK       I    between atoms: N5_32  and  C19_33 
REMARK   15  A    between atoms: C19_33  and  O6_35 
REMARK   16  A    between atoms: O6_35  and  C20_36 
REMARK   17  A    between atoms: C23_39  and  C24_40 
ROOT
HETATM    1  C4  UNL     1       0.298  -2.218  -1.281  1.00  0.00     0.198 C 
ENDROOT
BRANCH   1   2
HETATM    2  C2  UNL     1       0.287  -2.133  -2.735  1.00  0.00    -0.062 C 
HETATM    3  C1  UNL     1      -0.597  -1.555  -3.523  1.00  0.00     0.016 C 
HETATM    4  C3  UNL     1       1.429  -2.831  -3.471  1.00  0.00     0.045 C 
ENDBRANCH   1   2
BRANCH   1   5
HETATM    5  C5  UNL     1       1.427  -1.698  -0.538  1.00  0.00     0.140 C 
BRANCH   5   6
HETATM    6  O1  UNL     1       1.216  -1.495   0.733  1.00  0.00    -0.348 OA
ATOM      7  H1  UNL     1       1.957  -1.154   1.220  1.00  0.00     0.219 HD
ENDBRANCH   5   6
BRANCH   5   8
HETATM    8  N1  UNL     1       2.709  -1.373  -0.959  1.00  0.00    -0.359 N 
ATOM      9  H1  UNL     1       2.945  -1.497  -1.943  1.00  0.00     0.162 HD
BRANCH   8  10
HETATM   10  C6  UNL     1       3.738  -0.859  -0.051  1.00  0.00     0.183 C 
BRANCH  10  11
HETATM   11  C7  UNL     1       3.643   0.662   0.022  1.00  0.00     0.037 C 
BRANCH  11  12
HETATM   12  C8  UNL     1       3.840   1.324  -1.322  1.00  0.00     0.022 C 
BRANCH  12  13
HETATM   13  C9  UNL     1       3.705   2.825  -1.222  1.00  0.00     0.121 C 
BRANCH  13  14
HETATM   14  N2  UNL     1       4.645   3.418  -0.327  1.00  0.00    -0.380 N 
ATOM     15  H2  UNL     1       4.284   3.822   0.537  1.00  0.00     0.160 HD
BRANCH  14  16
HETATM   16  C10 UNL     1       6.044   3.487  -0.551  1.00  0.00     0.066 C 
HETATM   17  C11 UNL     1       6.714   4.816  -0.652  1.00  0.00     0.088 C 
HETATM   18  N3  UNL     1       6.783   2.438  -0.672  1.00  0.00    -0.389 N 
ATOM     19  H32 UNL     1       6.325   1.529  -0.603  1.00  0.00     0.157 HD
ATOM     20  H31 UNL     1       7.789   2.488  -0.833  1.00  0.00     0.157 HD
ENDBRANCH  14  16
ENDBRANCH  13  14
ENDBRANCH  12  13
ENDBRANCH  11  12
ENDBRANCH  10  11
BRANCH  10  21
HETATM   21  C12 UNL     1       5.083  -1.356  -0.358  1.00  0.00     0.281 C 
HETATM   22  O2  UNL     1       5.314  -2.152  -1.320  1.00  0.00    -0.263 OA
BRANCH  21  23
HETATM   23  O3  UNL     1       6.187  -0.976   0.394  1.00  0.00    -0.325 OA
HETATM   24  C13 UNL     1       7.455  -1.484   0.044  1.00  0.00     0.213 C 
ENDBRANCH  21  23
ENDBRANCH  10  21
ENDBRANCH   8  10
ENDBRANCH   5   8
ENDBRANCH   1   5
BRANCH   1  25
HETATM   25  N4  UNL     1      -0.953  -1.768  -0.626  1.00  0.00    -0.265 N 
HETATM   26  C14 UNL     1      -1.246  -0.381  -0.608  1.00  0.00     0.274 C 
HETATM   27  O4  UNL     1      -0.469   0.429  -1.143  1.00  0.00    -0.266 OA
HETATM   28  C15 UNL     1      -2.452   0.107   0.041  1.00  0.00     0.089 C 
HETATM   29  N5  UNL     1      -2.966  -0.811   1.071  1.00  0.00    -0.277 N 
HETATM   30  C19 UNL     1      -3.600  -0.165   2.157  1.00  0.00     0.368 C 
HETATM   31  C23 UNL     1      -2.793  -2.219   1.032  1.00  0.00     0.191 C 
HETATM   32  O5  UNL     1      -4.127  -0.677   3.161  1.00  0.00    -0.238 OA
HETATM   33  C27 UNL     1      -1.841  -2.681  -0.022  1.00  0.00     0.251 C 
HETATM   34  O7  UNL     1      -1.858  -3.887  -0.345  1.00  0.00    -0.271 OA
BRANCH  28  35
HETATM   35  C16 UNL     1      -3.459   0.807  -0.774  1.00  0.00     0.033 C 
HETATM   36  C17 UNL     1      -4.069   0.082  -1.923  1.00  0.00     0.016 C 
HETATM   37  C18 UNL     1      -2.970   2.141  -1.320  1.00  0.00     0.016 C 
ENDBRANCH  28  35
BRANCH  30  38
HETATM   38  O6  UNL     1      -3.700   1.256   2.209  1.00  0.00    -0.299 OA
BRANCH  38  39
HETATM   39  C20 UNL     1      -4.313   1.940   3.258  1.00  0.00     0.125 C 
HETATM   40  C21 UNL     1      -5.409   2.868   2.812  1.00  0.00     0.040 C 
HETATM   41  C22 UNL     1      -3.239   2.803   3.927  1.00  0.00     0.040 C 
ENDBRANCH  38  39
ENDBRANCH  30  38
BRANCH  31  42
HETATM   42  C24 UNL     1      -3.928  -3.155   1.055  1.00  0.00     0.010 C 
HETATM   43  C25 UNL     1      -4.949  -3.051  -0.026  1.00  0.00     0.012 C 
HETATM   44  C26 UNL     1      -4.587  -3.495   2.345  1.00  0.00     0.012 C 
ENDBRANCH  31  42
ENDBRANCH   1  25
TORSDOF 17
