REMARK  13 active torsions:
REMARK  status: ('A' for Active; 'I' for Inactive)
REMARK    1  A    between atoms: C2_2  and  C3_3 
REMARK    2  A    between atoms: C3_3  and  C4_4 
REMARK    3  A    between atoms: C4_4  and  C5_5 
REMARK    4  A    between atoms: C6_6  and  C7_7 
REMARK    5  A    between atoms: N1_10  and  C8_11 
REMARK    6  A    between atoms: C8_11  and  C9_12 
REMARK    7  A    between atoms: C8_11  and  C13_16 
REMARK    8  A    between atoms: C9_12  and  C10_13 
REMARK    9  A    between atoms: C15_21  and  C16_22 
REMARK   10  A    between atoms: C16_22  and  C17_23 
REMARK   11  A    between atoms: C17_23  and  C18_24 
REMARK       I    between atoms: C18_24  and  N2_26 
REMARK   12  A    between atoms: N2_26  and  C19_28 
REMARK   13  A    between atoms: C22_33  and  C23_34 
ROOT
HETATM    1  C5  UNL     1      -2.452   2.059  -0.548  1.00  0.00     0.070 C 
HETATM    2  C6  UNL     1      -3.076   0.853  -0.519  1.00  0.00     0.140 C 
HETATM    3  N1  UNL     1      -2.251  -0.314  -0.604  1.00  0.00    -0.293 N 
HETATM    4  C14 UNL     1      -0.835  -0.201  -0.722  1.00  0.00     0.258 C 
HETATM    5  O5  UNL     1      -0.058  -1.042  -1.223  1.00  0.00    -0.270 OA
HETATM    6  C15 UNL     1      -0.155   1.027  -0.212  1.00  0.00     0.164 C 
HETATM    7  C25 UNL     1       0.712   1.757  -1.184  1.00  0.00     0.245 C 
HETATM    8  O8  UNL     1       0.114   2.881  -0.609  1.00  0.00    -0.274 OA
HETATM    9  N4  UNL     1      -1.014   2.164  -0.510  1.00  0.00    -0.238 N 
ENDROOT
BRANCH   6  10
HETATM   10  C16 UNL     1       0.332   0.939   1.192  1.00  0.00     0.055 C 
BRANCH  10  11
HETATM   11  C17 UNL     1       1.343  -0.201   1.309  1.00  0.00     0.106 C 
BRANCH  11  12
HETATM   12  C18 UNL     1       1.848  -0.309   2.698  1.00  0.00     0.223 C 
HETATM   13  O6  UNL     1       1.484   0.423   3.645  1.00  0.00    -0.273 OA
HETATM   14  N2  UNL     1       2.814  -1.314   2.980  1.00  0.00    -0.307 N 
ATOM     15  H2  UNL     1       2.581  -2.170   3.483  1.00  0.00     0.171 HD
BRANCH  14  16
HETATM   16  C19 UNL     1       4.033  -1.059   2.545  1.00  0.00     0.152 A 
HETATM   17  N3  UNL     1       5.112  -1.829   2.676  1.00  0.00    -0.339 N 
HETATM   18  C20 UNL     1       6.246  -1.413   2.177  1.00  0.00     0.028 A 
ATOM     19  H3  UNL     1       5.054  -2.727   3.157  1.00  0.00     0.168 HD
HETATM   20  C21 UNL     1       7.551  -2.200   2.261  1.00  0.00     0.070 C 
HETATM   21  C22 UNL     1       6.249  -0.197   1.545  1.00  0.00     0.076 A 
HETATM   22  S1  UNL     1       4.624   0.294   1.695  1.00  0.00    -0.048 SA
BRANCH  21  23
HETATM   23  C23 UNL     1       7.392   0.495   0.902  1.00  0.00     0.164 C 
HETATM   24  C24 UNL     1       7.122   1.811   0.286  1.00  0.00     0.097 C 
HETATM   25  O7  UNL     1       8.526   0.006   0.873  1.00  0.00    -0.292 OA
ENDBRANCH  21  23
ENDBRANCH  14  16
ENDBRANCH  11  12
ENDBRANCH  10  11
ENDBRANCH   6  10
BRANCH   3  26
HETATM   26  C8  UNL     1      -2.827  -1.679  -0.569  1.00  0.00     0.194 C 
BRANCH  26  27
HETATM   27  C9  UNL     1      -2.115  -2.515   0.416  1.00  0.00     0.040 C 
BRANCH  27  28
HETATM   28  C10 UNL     1      -2.467  -3.915   0.674  1.00  0.00    -0.020 C 
HETATM   29  C11 UNL     1      -2.325  -4.912  -0.431  1.00  0.00     0.009 C 
HETATM   30  C12 UNL     1      -3.890  -4.092   1.204  1.00  0.00     0.009 C 
ENDBRANCH  27  28
ENDBRANCH  26  27
BRANCH  26  31
HETATM   31  C13 UNL     1      -2.742  -2.186  -1.952  1.00  0.00     0.197 C 
HETATM   32  O3  UNL     1      -1.921  -1.943  -2.835  1.00  0.00    -0.646 OA
HETATM   33  O4  UNL     1      -3.763  -3.093  -2.363  1.00  0.00    -0.646 OA
ENDBRANCH  26  31
ENDBRANCH   3  26
BRANCH   1  34
HETATM   34  C4  UNL     1      -3.231   3.292  -0.535  1.00  0.00     0.062 C 
BRANCH  34  35
HETATM   35  C3  UNL     1      -3.436   3.969  -1.861  1.00  0.00     0.006 C 
BRANCH  35  36
HETATM   36  C2  UNL     1      -2.143   4.342  -2.520  1.00  0.00    -0.004 C 
HETATM   37  C1  UNL     1      -2.382   5.068  -3.839  1.00  0.00     0.005 C 
ENDBRANCH  35  36
ENDBRANCH  34  35
ENDBRANCH   1  34
BRANCH   2  38
HETATM   38  C7  UNL     1      -4.529   0.818  -0.475  1.00  0.00     0.229 C 
HETATM   39  O1  UNL     1      -5.217  -0.233  -0.432  1.00  0.00    -0.643 OA
HETATM   40  O2  UNL     1      -5.363   1.940  -0.477  1.00  0.00    -0.643 OA
ENDBRANCH   2  38
TORSDOF 13
