REMARK  16 active torsions:
REMARK  status: ('A' for Active; 'I' for Inactive)
REMARK    1  A    between atoms: C2_2  and  C3_3 
REMARK    2  A    between atoms: C3_3  and  C4_4 
REMARK    3  A    between atoms: C4_4  and  C5_5 
REMARK    4  A    between atoms: C5_5  and  N1_6 
REMARK       I    between atoms: N1_6  and  C6_8 
REMARK    5  A    between atoms: C6_8  and  O2_10 
REMARK    6  A    between atoms: O2_10  and  C7_11 
REMARK    7  A    between atoms: C8_12  and  C9_13 
REMARK    8  A    between atoms: C11_15  and  C12_16 
REMARK       I    between atoms: C12_16  and  N2_18 
REMARK    9  A    between atoms: N3_21  and  C15_22 
REMARK   10  A    between atoms: C15_22  and  O4_23 
REMARK   11  A    between atoms: C15_22  and  N4_25 
REMARK   12  A    between atoms: N4_25  and  C16_26 
REMARK   13  A    between atoms: N4_25  and  C18_28 
REMARK   14  A    between atoms: C22_32  and  C23_33 
REMARK   15  A    between atoms: C24_36  and  O7_37 
REMARK   16  A    between atoms: C26_39  and  O8_41 
ROOT
HETATM    1  C7  UNL     1       2.198  -1.475   0.594  1.00  0.00     0.175 C 
HETATM    2  C8  UNL     1       1.022  -1.074  -0.257  1.00  0.00     0.032 C 
HETATM    3  C11 UNL     1      -0.223  -1.819  -0.001  1.00  0.00     0.101 C 
HETATM    4  C22 UNL     1      -0.126  -3.240   0.425  1.00  0.00     0.132 C 
HETATM    5  C24 UNL     1       0.903  -3.458   1.456  1.00  0.00     0.172 C 
HETATM    6  C26 UNL     1       1.832  -2.337   1.763  1.00  0.00     0.108 C 
HETATM    7  C27 UNL     1       3.077  -2.774   2.503  1.00  0.00     0.051 C 
ENDROOT
BRANCH   3   8
HETATM    8  C12 UNL     1      -1.168  -1.605  -1.135  1.00  0.00     0.225 C 
HETATM    9  O3  UNL     1      -1.251  -2.572  -1.941  1.00  0.00    -0.273 OA
HETATM   10  N2  UNL     1      -1.940  -0.496  -1.402  1.00  0.00    -0.349 N 
HETATM   11  C13 UNL     1      -1.959   0.660  -0.563  1.00  0.00     0.145 C 
HETATM   12  C21 UNL     1      -2.787  -0.431  -2.562  1.00  0.00     0.145 C 
HETATM   13  C14 UNL     1      -3.319   1.197  -0.268  1.00  0.00     0.146 C 
HETATM   14  N3  UNL     1      -4.367   0.944  -1.197  1.00  0.00    -0.344 N 
HETATM   15  C20 UNL     1      -4.163  -0.010  -2.288  1.00  0.00     0.146 C 
BRANCH  14  16
HETATM   16  C15 UNL     1      -5.668   1.520  -1.180  1.00  0.00     0.217 C 
BRANCH  16  17
HETATM   17  O4  UNL     1      -6.431   1.098  -2.156  1.00  0.00    -0.333 OA
ATOM     18  H4  UNL     1      -7.300   1.483  -2.145  1.00  0.00     0.220 HD
ENDBRANCH  16  17
BRANCH  16  19
HETATM   19  N4  UNL     1      -6.274   2.438  -0.326  1.00  0.00    -0.348 N 
BRANCH  19  20
HETATM   20  C16 UNL     1      -5.729   3.132   0.805  1.00  0.00     0.122 C 
HETATM   21  C17 UNL     1      -5.155   4.497   0.447  1.00  0.00     0.026 C 
ENDBRANCH  19  20
BRANCH  19  22
HETATM   22  C18 UNL     1      -7.711   2.762  -0.605  1.00  0.00     0.122 C 
HETATM   23  C19 UNL     1      -8.597   1.811   0.158  1.00  0.00     0.026 C 
ENDBRANCH  19  22
ENDBRANCH  16  19
ENDBRANCH  14  16
ENDBRANCH   3   8
BRANCH   2  24
HETATM   24  C9  UNL     1       1.433  -0.952  -1.699  1.00  0.00     0.004 C 
HETATM   25  C10 UNL     1       1.977  -2.164  -2.334  1.00  0.00     0.005 C 
ENDBRANCH   2  24
BRANCH   4  26
HETATM   26  C23 UNL     1      -1.473  -3.587   1.010  1.00  0.00     0.180 C 
HETATM   27  O5  UNL     1      -1.540  -3.968   2.205  1.00  0.00    -0.648 OA
HETATM   28  O6  UNL     1      -2.662  -3.518   0.324  1.00  0.00    -0.648 OA
ENDBRANCH   4  26
BRANCH   1  29
HETATM   29  O2  UNL     1       2.988  -0.373   0.991  1.00  0.00    -0.295 OA
BRANCH  29  30
HETATM   30  C6  UNL     1       4.327  -0.231   0.555  1.00  0.00     0.361 C 
HETATM   31  N1  UNL     1       5.043   0.896   1.000  1.00  0.00    -0.337 N 
ATOM     32  H1  UNL     1       4.596   1.572   1.619  1.00  0.00     0.164 HD
HETATM   33  O1  UNL     1       4.769  -1.125  -0.196  1.00  0.00    -0.239 OA
BRANCH  31  34
HETATM   34  C5  UNL     1       6.417   1.097   0.579  1.00  0.00     0.125 C 
BRANCH  34  35
HETATM   35  C4  UNL     1       6.500   1.270  -0.888  1.00  0.00     0.020 C 
BRANCH  35  36
HETATM   36  C3  UNL     1       5.739   2.438  -1.409  1.00  0.00     0.001 C 
BRANCH  36  37
HETATM   37  C2  UNL     1       6.213   3.769  -1.002  1.00  0.00    -0.004 C 
HETATM   38  C1  UNL     1       6.232   4.184   0.407  1.00  0.00     0.005 C 
ENDBRANCH  36  37
ENDBRANCH  35  36
ENDBRANCH  34  35
ENDBRANCH  31  34
ENDBRANCH  29  30
ENDBRANCH   1  29
BRANCH   5  39
HETATM   39  O7  UNL     1       1.735  -4.569   1.159  1.00  0.00    -0.387 OA
HETATM   40  C25 UNL     1       1.649  -5.567   2.106  1.00  0.00     0.202 C 
ENDBRANCH   5  39
BRANCH   6  41
HETATM   41  O8  UNL     1       1.181  -1.499   2.679  1.00  0.00    -0.385 OA
ATOM     42  H8  UNL     1       0.949  -2.046   3.420  1.00  0.00     0.210 HD
ENDBRANCH   6  41
TORSDOF 16
