REMARK  12 active torsions:
REMARK  status: ('A' for Active; 'I' for Inactive)
REMARK    1  A    between atoms: C2_2  and  C3_3 
REMARK    2  A    between atoms: C3_3  and  C4_4 
REMARK    3  A    between atoms: C6_6  and  C7_7 
REMARK    4  A    between atoms: C7_7  and  C8_9 
REMARK       I    between atoms: C8_9  and  N1_11 
REMARK    5  A    between atoms: N1_11  and  O3_13 
REMARK    6  A    between atoms: C13_18  and  O4_19 
REMARK    7  A    between atoms: O4_19  and  C14_20 
REMARK    8  A    between atoms: C14_20  and  C15_21 
REMARK    9  A    between atoms: C19_28  and  N3_29 
REMARK   10  A    between atoms: N3_29  and  C20_31 
REMARK   11  A    between atoms: C20_31  and  C21_32 
REMARK   12  A    between atoms: C21_32  and  N4_33 
ROOT
HETATM    1  C15 UNL     1       0.219  -0.840   0.762  1.00  0.00     0.010 A 
HETATM    2  C16 UNL     1       1.121  -1.555   1.498  1.00  0.00     0.036 A 
HETATM    3  C17 UNL     1       2.423  -1.379   1.232  1.00  0.00     0.068 A 
HETATM    4  C18 UNL     1       3.526  -1.995   1.848  1.00  0.00     0.272 A 
HETATM    5  O5  UNL     1       3.365  -2.845   2.792  1.00  0.00    -0.267 OA
HETATM    6  N2  UNL     1       4.772  -1.720   1.473  1.00  0.00    -0.155 N 
ATOM      7  H2  UNL     1       5.539  -2.195   1.950  1.00  0.00     0.187 HD
HETATM    8  C19 UNL     1       5.071  -0.841   0.490  1.00  0.00     0.681 A 
HETATM    9  N5  UNL     1       4.035  -0.237  -0.115  1.00  0.00    -0.184 N 
ATOM     10  H5  UNL     1       4.219   0.433  -0.862  1.00  0.00     0.185 HD
HETATM   11  C26 UNL     1       2.754  -0.492   0.239  1.00  0.00     0.106 A 
HETATM   12  S1  UNL     1       1.223   0.060  -0.284  1.00  0.00    -0.073 SA
ENDROOT
BRANCH   1  13
HETATM   13  C14 UNL     1      -1.266  -0.829   0.817  1.00  0.00     0.222 C 
BRANCH  13  14
HETATM   14  O4  UNL     1      -1.819  -0.064  -0.234  1.00  0.00    -0.346 OA
BRANCH  14  15
HETATM   15  C13 UNL     1      -3.200  -0.019  -0.273  1.00  0.00     0.076 A 
HETATM   16  C4  UNL     1      -3.860   0.693  -1.252  1.00  0.00    -0.024 A 
HETATM   17  C5  UNL     1      -5.232   0.755  -1.327  1.00  0.00     0.026 A 
HETATM   18  C6  UNL     1      -6.045   0.086  -0.394  1.00  0.00     0.026 A 
HETATM   19  C10 UNL     1      -5.400  -0.617   0.580  1.00  0.00    -0.045 A 
HETATM   20  C11 UNL     1      -6.175  -1.291   1.658  1.00  0.00     0.049 C 
HETATM   21  C12 UNL     1      -4.002  -0.670   0.640  1.00  0.00     0.045 A 
BRANCH  16  22
HETATM   22  C3  UNL     1      -3.001   1.413  -2.251  1.00  0.00     0.041 C 
BRANCH  22  23
HETATM   23  C2  UNL     1      -2.472   2.652  -1.574  1.00  0.00     0.000 C 
HETATM   24  C1  UNL     1      -3.673   3.488  -1.160  1.00  0.00     0.005 C 
ENDBRANCH  22  23
ENDBRANCH  16  22
BRANCH  18  25
HETATM   25  C7  UNL     1      -7.504   0.122  -0.596  1.00  0.00     0.251 C 
HETATM   26  O1  UNL     1      -8.046   1.281  -0.754  1.00  0.00    -0.281 OA
BRANCH  25  27
HETATM   27  C8  UNL     1      -8.362  -1.036  -0.636  1.00  0.00     0.316 C 
HETATM   28  O2  UNL     1      -7.964  -2.214  -0.603  1.00  0.00    -0.262 OA
HETATM   29  N1  UNL     1      -9.772  -0.846  -0.718  1.00  0.00    -0.228 N 
ATOM     30  H1  UNL     1     -10.141   0.105  -0.745  1.00  0.00     0.198 HD
BRANCH  29  31
HETATM   31  O3  UNL     1     -10.643  -1.892  -0.762  1.00  0.00    -0.282 OA
HETATM   32  C9  UNL     1     -10.695  -2.454   0.498  1.00  0.00     0.237 C 
ENDBRANCH  29  31
ENDBRANCH  25  27
ENDBRANCH  18  25
ENDBRANCH  14  15
ENDBRANCH  13  14
ENDBRANCH   1  13
BRANCH   8  33
HETATM   33  N3  UNL     1       6.301  -0.652   0.198  1.00  0.00    -0.224 N 
ATOM     34  H3  UNL     1       6.494   0.016  -0.548  1.00  0.00     0.177 HD
BRANCH  33  35
HETATM   35  C20 UNL     1       7.431  -1.273   0.801  1.00  0.00     0.158 C 
BRANCH  35  36
HETATM   36  C21 UNL     1       8.640  -1.115  -0.115  1.00  0.00     0.146 C 
BRANCH  36  37
HETATM   37  N4  UNL     1       8.958   0.286  -0.351  1.00  0.00    -0.351 N 
HETATM   38  C22 UNL     1       8.462   1.095  -1.421  1.00  0.00     0.126 C 
HETATM   39  C23 UNL     1       8.950   2.498  -1.240  1.00  0.00     0.029 C 
HETATM   40  C24 UNL     1       9.593   2.524   0.133  1.00  0.00     0.104 C 
HETATM   41  C25 UNL     1       9.829   1.092   0.440  1.00  0.00     0.219 C 
HETATM   42  O6  UNL     1      10.651   0.615   1.257  1.00  0.00    -0.273 OA
ENDBRANCH  36  37
ENDBRANCH  35  36
ENDBRANCH  33  35
ENDBRANCH   8  33
TORSDOF 12
