REMARK  12 active torsions:
REMARK  status: ('A' for Active; 'I' for Inactive)
REMARK    1  A    between atoms: C5_7  and  N2_8 
REMARK    2  A    between atoms: N2_8  and  C6_10 
REMARK    3  A    between atoms: C6_10  and  O1_11 
REMARK    4  A    between atoms: C7_13  and  N3_14 
REMARK    5  A    between atoms: N3_14  and  C8_15 
REMARK       I    between atoms: N3_14  and  C14_25 
REMARK    6  A    between atoms: C8_15  and  C9_16 
REMARK    7  A    between atoms: C14_25  and  C15_27 
REMARK    8  A    between atoms: C15_27  and  C16_28 
REMARK    9  A    between atoms: C16_28  and  C17_29 
REMARK   10  A    between atoms: C17_29  and  C18_30 
REMARK   11  A    between atoms: C18_30  and  C19_31 
REMARK   12  A    between atoms: C19_31  and  N6_32 
ROOT
HETATM    1  N3  UNL     1      -0.878  -2.242   1.767  1.00  0.00    -0.299 N 
HETATM    2  C14 UNL     1       0.555  -2.104   1.851  1.00  0.00     0.227 C 
HETATM    3  O2  UNL     1       1.232  -3.064   1.405  1.00  0.00    -0.273 OA
ENDROOT
BRANCH   1   4
HETATM    4  C7  UNL     1      -1.675  -1.167   2.241  1.00  0.00     0.155 C 
HETATM    5  C6  UNL     1      -2.007   0.013   1.501  1.00  0.00     0.158 C 
BRANCH   5   6
HETATM    6  N2  UNL     1      -1.622   0.485   0.240  1.00  0.00    -0.322 N 
ATOM      7  H2  UNL     1      -0.979  -0.077  -0.318  1.00  0.00     0.169 HD
BRANCH   6   8
HETATM    8  C5  UNL     1      -2.097   1.729  -0.299  1.00  0.00     0.113 A 
HETATM    9  N1  UNL     1      -2.953   2.517   0.390  1.00  0.00    -0.352 N 
HETATM   10  C4  UNL     1      -3.405   3.685  -0.100  1.00  0.00     0.090 A 
ATOM     11  H1  UNL     1      -3.266   2.215   1.313  1.00  0.00     0.166 HD
HETATM   12  C3  UNL     1      -3.011   4.134  -1.342  1.00  0.00     0.024 A 
HETATM   13  C2  UNL     1      -2.139   3.348  -2.060  1.00  0.00    -0.051 A 
HETATM   14  C1  UNL     1      -1.688   3.806  -3.418  1.00  0.00     0.049 C 
HETATM   15  C24 UNL     1      -1.682   2.140  -1.532  1.00  0.00    -0.012 A 
HETATM   16  C25 UNL     1      -0.734   1.351  -2.385  1.00  0.00     0.052 C 
ENDBRANCH   6   8
ENDBRANCH   5   6
BRANCH   5  17
HETATM   17  O1  UNL     1      -2.835   0.829   2.120  1.00  0.00    -0.345 OA
ATOM     18  H1  UNL     1      -3.096   0.509   2.975  1.00  0.00     0.219 HD
ENDBRANCH   5  17
ENDBRANCH   1   4
BRANCH   1  19
HETATM   19  C8  UNL     1      -1.438  -3.494   1.457  1.00  0.00     0.115 C 
BRANCH  19  20
HETATM   20  C9  UNL     1      -1.710  -4.073   0.191  1.00  0.00     0.027 A 
HETATM   21  C10 UNL     1      -2.359  -5.356   0.150  1.00  0.00     0.035 A 
HETATM   22  C11 UNL     1      -2.818  -6.150   1.295  1.00  0.00     0.070 C 
HETATM   23  N4  UNL     1      -2.477  -5.715  -1.119  1.00  0.00    -0.304 N 
HETATM   24  N5  UNL     1      -1.977  -4.809  -1.922  1.00  0.00    -0.304 N 
ATOM     25  H4  UNL     1      -2.904  -6.587  -1.432  1.00  0.00     0.186 HD
HETATM   26  C12 UNL     1      -1.506  -3.801  -1.105  1.00  0.00     0.035 A 
ATOM     27  H5  UNL     1      -1.943  -4.842  -2.941  1.00  0.00     0.186 HD
HETATM   28  C13 UNL     1      -0.851  -2.626  -1.711  1.00  0.00     0.070 C 
ENDBRANCH  19  20
ENDBRANCH   1  19
BRANCH   2  29
HETATM   29  C15 UNL     1       1.194  -0.914   2.427  1.00  0.00     0.103 C 
BRANCH  29  30
HETATM   30  C16 UNL     1       2.679  -0.950   2.493  1.00  0.00     0.009 C 
BRANCH  30  31
HETATM   31  C17 UNL     1       3.405  -1.065   1.198  1.00  0.00     0.002 C 
BRANCH  31  32
HETATM   32  C18 UNL     1       3.120   0.096   0.281  1.00  0.00     0.020 C 
BRANCH  32  33
HETATM   33  C19 UNL     1       3.532   1.421   0.867  1.00  0.00     0.133 C 
BRANCH  33  34
HETATM   34  N6  UNL     1       3.253   2.492  -0.077  1.00  0.00    -0.310 N 
HETATM   35  C20 UNL     1       4.181   2.858  -0.985  1.00  0.00     0.101 A 
HETATM   36  C21 UNL     1       3.931   3.869  -1.885  1.00  0.00     0.092 A 
HETATM   37  C22 UNL     1       2.706   4.540  -1.877  1.00  0.00     0.250 A 
HETATM   38  O3  UNL     1       2.429   5.457  -2.665  1.00  0.00    -0.268 OA
HETATM   39  N7  UNL     1       1.804   4.139  -0.948  1.00  0.00    -0.275 N 
HETATM   40  C23 UNL     1       2.088   3.147  -0.087  1.00  0.00     0.329 A 
ATOM     41  H7  UNL     1       0.894   4.598  -0.902  1.00  0.00     0.173 HD
HETATM   42  O4  UNL     1       1.212   2.805   0.768  1.00  0.00    -0.246 OA
ENDBRANCH  33  34
ENDBRANCH  32  33
ENDBRANCH  31  32
ENDBRANCH  30  31
ENDBRANCH  29  30
ENDBRANCH   2  29
TORSDOF 12
