REMARK  14 active torsions:
REMARK  status: ('A' for Active; 'I' for Inactive)
REMARK    1  A    between atoms: C2_2  and  C3_3 
REMARK    2  A    between atoms: C3_3  and  C4_4 
REMARK    3  A    between atoms: C4_4  and  C5_5 
REMARK    4  A    between atoms: C5_5  and  C6_6 
REMARK    5  A    between atoms: C7_7  and  O1_8 
REMARK    6  A    between atoms: C8_10  and  O2_11 
REMARK    7  A    between atoms: C9_13  and  O3_14 
REMARK    8  A    between atoms: C10_16  and  O4_17 
REMARK    9  A    between atoms: N1_19  and  C12_20 
REMARK   10  A    between atoms: C12_20  and  C13_21 
REMARK   11  A    between atoms: C13_21  and  C14_22 
REMARK       I    between atoms: N2_26  and  C18_27 
REMARK   12  A    between atoms: C18_27  and  C19_29 
REMARK   13  A    between atoms: C23_34  and  C24_35 
REMARK   14  A    between atoms: C24_35  and  C25_36 
ROOT
HETATM    1  C12 UNL     1      -1.628  -0.452   0.476  1.00  0.00     0.121 C 
ENDROOT
BRANCH   1   2
HETATM    2  N1  UNL     1      -2.988  -0.246   0.136  1.00  0.00    -0.379 N 
HETATM    3  C6  UNL     1      -3.607   0.943   0.693  1.00  0.00     0.113 C 
HETATM    4  C7  UNL     1      -4.545   0.652   1.795  1.00  0.00     0.172 C 
HETATM    5  C8  UNL     1      -4.462  -0.798   2.287  1.00  0.00     0.181 C 
HETATM    6  C9  UNL     1      -4.735  -1.673   1.102  1.00  0.00     0.198 C 
HETATM    7  C10 UNL     1      -3.815  -1.364  -0.052  1.00  0.00     0.250 C 
BRANCH   3   8
HETATM    8  C5  UNL     1      -4.042   1.896  -0.350  1.00  0.00     0.028 C 
BRANCH   8   9
HETATM    9  C4  UNL     1      -5.168   1.665  -1.239  1.00  0.00     0.002 C 
BRANCH   9  10
HETATM   10  C3  UNL     1      -6.535   1.458  -0.711  1.00  0.00    -0.000 C 
BRANCH  10  11
HETATM   11  C2  UNL     1      -7.555   1.323  -1.861  1.00  0.00    -0.005 C 
HETATM   12  C1  UNL     1      -8.896   1.117  -1.187  1.00  0.00     0.005 C 
ENDBRANCH  10  11
ENDBRANCH   9  10
ENDBRANCH   8   9
ENDBRANCH   3   8
BRANCH   4  13
HETATM   13  O1  UNL     1      -4.163   1.425   2.949  1.00  0.00    -0.391 OA
ATOM     14  H1  UNL     1      -4.767   1.238   3.658  1.00  0.00     0.210 HD
ENDBRANCH   4  13
BRANCH   5  15
HETATM   15  O2  UNL     1      -5.558  -0.946   3.161  1.00  0.00    -0.390 OA
ATOM     16  H2  UNL     1      -5.507  -1.844   3.466  1.00  0.00     0.210 HD
ENDBRANCH   5  15
BRANCH   6  17
HETATM   17  O3  UNL     1      -4.641  -3.011   1.493  1.00  0.00    -0.389 OA
ATOM     18  H3  UNL     1      -4.814  -3.566   0.742  1.00  0.00     0.210 HD
ENDBRANCH   6  17
BRANCH   7  19
HETATM   19  O4  UNL     1      -3.008  -2.486  -0.239  1.00  0.00    -0.369 OA
HETATM   20  C11 UNL     1      -3.237  -3.083  -1.481  1.00  0.00     0.204 C 
ENDBRANCH   7  19
ENDBRANCH   1   2
BRANCH   1  21
HETATM   21  C13 UNL     1      -0.750   0.547  -0.173  1.00  0.00     0.029 C 
BRANCH  21  22
HETATM   22  C14 UNL     1       0.724   0.405   0.121  1.00  0.00    -0.040 C 
HETATM   23  C15 UNL     1       1.433   1.531  -0.643  1.00  0.00     0.015 C 
HETATM   24  C16 UNL     1       1.312  -0.878  -0.329  1.00  0.00     0.029 C 
HETATM   25  C17 UNL     1       2.543  -1.199   0.481  1.00  0.00     0.126 C 
HETATM   26  N2  UNL     1       3.176  -0.078   1.095  1.00  0.00    -0.352 N 
HETATM   27  C18 UNL     1       4.543   0.210   0.892  1.00  0.00     0.224 C 
HETATM   28  C27 UNL     1       2.384   0.775   1.957  1.00  0.00     0.126 C 
HETATM   29  O5  UNL     1       5.008   1.252   1.470  1.00  0.00    -0.273 OA
HETATM   30  C28 UNL     1       0.917   0.713   1.591  1.00  0.00     0.029 C 
BRANCH  27  31
HETATM   31  C19 UNL     1       5.483  -0.573   0.083  1.00  0.00     0.089 C 
HETATM   32  C20 UNL     1       5.743  -1.917   0.711  1.00  0.00     0.022 C 
HETATM   33  C21 UNL     1       7.026  -1.762   1.489  1.00  0.00     0.079 C 
HETATM   34  C22 UNL     1       7.518  -0.382   1.254  1.00  0.00     0.132 C 
HETATM   35  O6  UNL     1       8.314   0.196   1.958  1.00  0.00    -0.298 OA
HETATM   36  C23 UNL     1       6.836   0.092   0.017  1.00  0.00     0.068 C 
BRANCH  36  37
HETATM   37  C24 UNL     1       7.609  -0.357  -1.200  1.00  0.00     0.013 C 
BRANCH  37  38
HETATM   38  C25 UNL     1       8.947   0.347  -1.200  1.00  0.00    -0.004 C 
HETATM   39  C26 UNL     1       8.780   1.845  -1.247  1.00  0.00     0.005 C 
ENDBRANCH  37  38
ENDBRANCH  36  37
ENDBRANCH  27  31
ENDBRANCH  21  22
ENDBRANCH   1  21
TORSDOF 14
