REMARK  13 active torsions:
REMARK  status: ('A' for Active; 'I' for Inactive)
REMARK    1  A    between atoms: C2_2  and  N1_3 
REMARK    2  A    between atoms: N1_3  and  C3_5 
REMARK    3  A    between atoms: C4_8  and  N3_9 
REMARK    4  A    between atoms: C7_14  and  N5_15 
REMARK    5  A    between atoms: N5_15  and  C8_17 
REMARK    6  A    between atoms: C13_22  and  O1_23 
REMARK    7  A    between atoms: O1_23  and  C14_24 
REMARK    8  A    between atoms: C14_24  and  C15_25 
REMARK    9  A    between atoms: C15_25  and  C16_26 
REMARK   10  A    between atoms: C16_26  and  C17_27 
REMARK   11  A    between atoms: C17_27  and  C18_28 
REMARK   12  A    between atoms: C18_28  and  N6_29 
REMARK   13  A    between atoms: N7_32  and  C21_33 
ROOT
HETATM    1  C8  UNL     1      -2.253  -0.728   1.319  1.00  0.00     0.083 A 
HETATM    2  C9  UNL     1      -3.134  -1.746   1.595  1.00  0.00     0.040 A 
HETATM    3  C10 UNL     1      -2.771  -3.038   1.391  1.00  0.00    -0.046 A 
HETATM    4  C11 UNL     1      -1.516  -3.319   0.906  1.00  0.00    -0.024 A 
HETATM    5  C12 UNL     1      -0.629  -2.269   0.630  1.00  0.00     0.048 A 
HETATM    6  C13 UNL     1      -0.954  -0.951   0.820  1.00  0.00     0.096 A 
HETATM    7  C25 UNL     1      -1.027  -4.702   0.647  1.00  0.00     0.271 C 
HETATM    8  N8  UNL     1      -2.016  -5.698   0.911  1.00  0.00    -0.071 N 
ATOM      9  H81 UNL     1      -1.935  -6.047   1.866  1.00  0.00     0.277 HD
ATOM     10  H82 UNL     1      -1.811  -6.558   0.401  1.00  0.00     0.277 HD
HETATM   11  C26 UNL     1      -3.366  -5.245   0.639  1.00  0.00     0.237 C 
HETATM   12  C27 UNL     1      -3.688  -4.192   1.680  1.00  0.00     0.066 C 
ENDROOT
BRANCH   1  13
HETATM   13  N5  UNL     1      -2.613   0.641   1.516  1.00  0.00    -0.188 N 
ATOM     14  H5  UNL     1      -2.085   1.237   2.153  1.00  0.00     0.184 HD
BRANCH  13  15
HETATM   15  C7  UNL     1      -3.621   1.097   0.867  1.00  0.00     0.712 A 
HETATM   16  N4  UNL     1      -4.292   0.286   0.039  1.00  0.00    -0.021 N 
HETATM   17  C4  UNL     1      -5.344   0.686  -0.672  1.00  0.00     0.708 A 
ATOM     18  H4  UNL     1      -3.983  -0.682  -0.051  1.00  0.00     0.203 HD
HETATM   19  N2  UNL     1      -5.740   1.954  -0.547  1.00  0.00    -0.021 N 
HETATM   20  C3  UNL     1      -5.107   2.815   0.268  1.00  0.00     0.707 A 
ATOM     21  H2  UNL     1      -6.544   2.278  -1.084  1.00  0.00     0.203 HD
HETATM   22  N9  UNL     1      -4.041   2.370   0.975  1.00  0.00    -0.021 N 
ATOM     23  H9  UNL     1      -3.549   3.010   1.599  1.00  0.00     0.203 HD
BRANCH  17  24
HETATM   24  N3  UNL     1      -5.966  -0.275  -1.512  1.00  0.00    -0.225 N 
HETATM   25  C5  UNL     1      -5.465  -0.414  -2.863  1.00  0.00     0.168 C 
HETATM   26  C6  UNL     1      -7.054  -1.058  -0.989  1.00  0.00     0.168 C 
ENDBRANCH  17  24
BRANCH  20  27
HETATM   27  N1  UNL     1      -5.546   4.027   0.338  1.00  0.00    -0.225 N 
ATOM     28  H1  UNL     1      -6.354   4.309  -0.217  1.00  0.00     0.177 HD
BRANCH  27  29
HETATM   29  C2  UNL     1      -4.891   4.991   1.207  1.00  0.00     0.133 C 
HETATM   30  C1  UNL     1      -5.604   6.312   1.081  1.00  0.00     0.027 C 
ENDBRANCH  27  29
ENDBRANCH  20  27
ENDBRANCH  13  15
ENDBRANCH   1  13
BRANCH   6  31
HETATM   31  O1  UNL     1      -0.186   0.133   0.597  1.00  0.00    -0.349 OA
BRANCH  31  32
HETATM   32  C14 UNL     1       1.120   0.117   0.065  1.00  0.00     0.175 C 
BRANCH  32  33
HETATM   33  C15 UNL     1       1.084  -0.310  -1.352  1.00  0.00     0.027 C 
BRANCH  33  34
HETATM   34  C16 UNL     1       2.374  -0.432  -2.034  1.00  0.00     0.004 C 
BRANCH  34  35
HETATM   35  C17 UNL     1       3.284   0.674  -2.309  1.00  0.00     0.030 C 
BRANCH  35  36
HETATM   36  C18 UNL     1       3.837   1.390  -1.135  1.00  0.00     0.272 C 
BRANCH  36  37
HETATM   37  N6  UNL     1       4.543   0.544  -0.202  1.00  0.00     0.091 N 
HETATM   38  C19 UNL     1       4.920   1.361   0.954  1.00  0.00     0.302 C 
HETATM   39  C20 UNL     1       6.197   0.819   1.581  1.00  0.00     0.302 C 
HETATM   40  N7  UNL     1       7.309   1.025   0.664  1.00  0.00     0.091 N 
HETATM   41  C23 UNL     1       6.865   0.866  -0.704  1.00  0.00     0.302 C 
HETATM   42  C24 UNL     1       5.687  -0.081  -0.789  1.00  0.00     0.302 C 
BRANCH  40  43
HETATM   43  C21 UNL     1       8.457   0.228   0.984  1.00  0.00     0.268 C 
HETATM   44  C22 UNL     1       9.532   0.569  -0.048  1.00  0.00     0.037 C 
ENDBRANCH  40  43
ENDBRANCH  36  37
ENDBRANCH  35  36
ENDBRANCH  34  35
ENDBRANCH  33  34
ENDBRANCH  32  33
ENDBRANCH  31  32
ENDBRANCH   6  31
TORSDOF 13
