REMARK  9 active torsions:
REMARK  status: ('A' for Active; 'I' for Inactive)
REMARK    1  A    between atoms: C2_2  and  C3_3 
REMARK    2  A    between atoms: C3_3  and  C4_4 
REMARK    3  A    between atoms: C6_9  and  C7_10 
REMARK    4  A    between atoms: C7_10  and  C8_11 
REMARK    5  A    between atoms: C16_22  and  C17_23 
REMARK    6  A    between atoms: C22_30  and  C23_31 
REMARK    7  A    between atoms: C23_31  and  C24_32 
REMARK    8  A    between atoms: C27_36  and  C28_37 
REMARK    9  A    between atoms: C28_37  and  C29_38 
ROOT
HETATM    1  C4  UNL     1       1.089   1.641   0.543  1.00  0.00     0.176 C 
HETATM    2  N1  UNL     1       1.618   1.158  -0.701  1.00  0.00    -0.346 N 
ATOM      3  H1  UNL     1       1.829   1.896  -1.373  1.00  0.00     0.163 HD
HETATM    4  C5  UNL     1       1.896  -0.109  -1.162  1.00  0.00     0.241 C 
HETATM    5  O1  UNL     1       1.338  -0.441  -2.280  1.00  0.00    -0.271 OA
HETATM    6  C6  UNL     1       2.726  -1.192  -0.621  1.00  0.00     0.180 C 
HETATM    7  N2  UNL     1       2.325  -2.521  -1.052  1.00  0.00    -0.346 N 
ATOM      8  H2  UNL     1       3.038  -3.246  -0.969  1.00  0.00     0.163 HD
HETATM    9  C15 UNL     1       1.085  -2.941  -1.568  1.00  0.00     0.241 C 
HETATM   10  O2  UNL     1       1.129  -3.481  -2.733  1.00  0.00    -0.271 OA
HETATM   11  C16 UNL     1      -0.237  -2.843  -0.951  1.00  0.00     0.182 C 
HETATM   12  N3  UNL     1      -1.357  -2.738  -1.819  1.00  0.00    -0.342 N 
HETATM   13  C20 UNL     1      -1.396  -3.228  -3.202  1.00  0.00     0.153 C 
HETATM   14  C21 UNL     1      -2.552  -2.127  -1.364  1.00  0.00     0.231 C 
HETATM   15  O3  UNL     1      -3.675  -2.451  -1.894  1.00  0.00    -0.273 OA
HETATM   16  C22 UNL     1      -2.659  -1.105  -0.293  1.00  0.00     0.149 C 
HETATM   17  C26 UNL     1      -2.321   0.212  -0.935  1.00  0.00     0.162 C 
HETATM   18  O4  UNL     1      -2.364   0.256  -2.169  1.00  0.00    -0.295 OA
HETATM   19  C27 UNL     1      -1.954   1.371  -0.125  1.00  0.00     0.155 C 
HETATM   20  N4  UNL     1      -1.275   0.787   1.072  1.00  0.00    -0.348 N 
ATOM     21  H4  UNL     1      -1.850   0.404   1.822  1.00  0.00     0.163 HD
HETATM   22  C32 UNL     1       0.133   0.744   1.207  1.00  0.00     0.241 C 
HETATM   23  O5  UNL     1       0.581  -0.152   1.970  1.00  0.00    -0.271 OA
ENDROOT
BRANCH   6  24
HETATM   24  C7  UNL     1       4.184  -1.021  -1.054  1.00  0.00     0.073 C 
BRANCH  24  25
HETATM   25  C8  UNL     1       4.828   0.200  -0.618  1.00  0.00    -0.056 A 
HETATM   26  C9  UNL     1       5.486   0.259   0.606  1.00  0.00     0.007 A 
HETATM   27  C10 UNL     1       6.117   1.406   1.037  1.00  0.00     0.007 A 
HETATM   28  C11 UNL     1       6.126   2.555   0.274  1.00  0.00    -0.062 A 
HETATM   29  C12 UNL     1       6.814   3.772   0.772  1.00  0.00     0.048 C 
HETATM   30  C13 UNL     1       5.480   2.514  -0.942  1.00  0.00     0.007 A 
HETATM   31  C14 UNL     1       4.849   1.355  -1.364  1.00  0.00     0.007 A 
ENDBRANCH  24  25
ENDBRANCH   6  24
BRANCH   1  32
HETATM   32  C3  UNL     1       2.190   2.110   1.501  1.00  0.00     0.034 C 
BRANCH  32  33
HETATM   33  C2  UNL     1       1.586   2.627   2.784  1.00  0.00    -0.002 C 
HETATM   34  C1  UNL     1       0.659   3.800   2.489  1.00  0.00     0.005 C 
ENDBRANCH  32  33
ENDBRANCH   1  32
BRANCH  11  35
HETATM   35  C17 UNL     1      -0.512  -3.952   0.042  1.00  0.00     0.009 C 
HETATM   36  C18 UNL     1       0.489  -3.954   1.180  1.00  0.00     0.012 C 
HETATM   37  C19 UNL     1      -0.563  -5.307  -0.573  1.00  0.00     0.012 C 
ENDBRANCH  11  35
BRANCH  19  38
HETATM   38  C28 UNL     1      -2.921   2.369   0.316  1.00  0.00     0.037 C 
BRANCH  38  39
HETATM   39  C29 UNL     1      -3.646   3.124  -0.722  1.00  0.00    -0.020 C 
HETATM   40  C30 UNL     1      -4.528   2.384  -1.641  1.00  0.00     0.009 C 
HETATM   41  C31 UNL     1      -4.465   4.268  -0.072  1.00  0.00     0.009 C 
ENDBRANCH  38  39
ENDBRANCH  19  38
BRANCH  16  42
HETATM   42  C23 UNL     1      -4.015  -1.123   0.364  1.00  0.00     0.021 C 
BRANCH  42  43
HETATM   43  C24 UNL     1      -4.314  -2.463   1.001  1.00  0.00    -0.003 C 
HETATM   44  C25 UNL     1      -5.680  -2.436   1.646  1.00  0.00     0.005 C 
ENDBRANCH  42  43
ENDBRANCH  16  42
TORSDOF 9
