REMARK  11 active torsions:
REMARK  status: ('A' for Active; 'I' for Inactive)
REMARK    1  A    between atoms: N1_1  and  S1_4 
REMARK    2  A    between atoms: S1_4  and  N2_5 
REMARK    3  A    between atoms: S1_4  and  C1_9 
REMARK    4  A    between atoms: C9_17  and  C10_18 
REMARK    5  A    between atoms: C10_18  and  C11_19 
REMARK    6  A    between atoms: N3_27  and  C18_28 
REMARK    7  A    between atoms: C18_28  and  C19_29 
REMARK    8  A    between atoms: C19_29  and  C20_30 
REMARK    9  A    between atoms: C20_30  and  C21_31 
REMARK   10  A    between atoms: N6_38  and  C24_39 
REMARK   11  A    between atoms: C24_39  and  C25_40 
ROOT
HETATM    1  C1  UNL     1       1.176  -0.797   2.442  1.00  0.00     0.132 C 
HETATM    2  C2  UNL     1       0.242  -0.082   3.125  1.00  0.00     0.054 C 
HETATM    3  C3  UNL     1      -1.054   0.368   2.650  1.00  0.00    -0.023 A 
HETATM    4  C4  UNL     1      -1.848   0.765   3.727  1.00  0.00     0.012 A 
HETATM    5  C5  UNL     1      -3.144   1.231   3.506  1.00  0.00     0.002 A 
HETATM    6  C6  UNL     1      -3.602   1.280   2.211  1.00  0.00     0.018 A 
HETATM    7  C7  UNL     1      -2.811   0.880   1.121  1.00  0.00     0.042 A 
HETATM    8  C8  UNL     1      -1.549   0.434   1.359  1.00  0.00     0.006 A 
HETATM    9  C9  UNL     1      -0.893   0.197   0.057  1.00  0.00     0.150 C 
HETATM   10  C17 UNL     1       0.148  -0.828   0.118  1.00  0.00     0.258 C 
HETATM   11  O2  UNL     1       0.270  -1.531  -0.902  1.00  0.00    -0.270 OA
HETATM   12  N3  UNL     1       1.121  -1.247   1.116  1.00  0.00    -0.306 N 
HETATM   13  N6  UNL     1      -1.944   0.073  -0.879  1.00  0.00    -0.321 N 
HETATM   14  C31 UNL     1      -3.135   0.699  -0.280  1.00  0.00     0.256 C 
HETATM   15  O3  UNL     1      -4.179   0.991  -0.892  1.00  0.00    -0.267 OA
ENDROOT
BRANCH  12  16
HETATM   16  C18 UNL     1       2.082  -2.213   0.730  1.00  0.00     0.133 C 
BRANCH  16  17
HETATM   17  C19 UNL     1       3.368  -1.803   0.148  1.00  0.00     0.026 C 
BRANCH  17  18
HETATM   18  C20 UNL     1       3.297  -1.026  -1.174  1.00  0.00     0.060 C 
BRANCH  18  19
HETATM   19  C21 UNL     1       4.694  -0.684  -1.611  1.00  0.00     0.025 A 
HETATM   20  C22 UNL     1       5.411   0.422  -1.313  1.00  0.00     0.113 A 
HETATM   21  N4  UNL     1       6.612   0.300  -1.921  1.00  0.00    -0.360 N 
HETATM   22  C23 UNL     1       6.646  -0.860  -2.588  1.00  0.00     0.180 A 
ATOM     23  H4  UNL     1       7.370   0.982  -1.878  1.00  0.00     0.166 HD
HETATM   24  N5  UNL     1       5.458  -1.458  -2.389  1.00  0.00    -0.355 N 
ATOM     25  H5  UNL     1       5.182  -2.362  -2.772  1.00  0.00     0.166 HD
ENDBRANCH  18  19
ENDBRANCH  17  18
ENDBRANCH  16  17
ENDBRANCH  12  16
BRANCH   1  26
HETATM   26  S1  UNL     1       2.545  -1.105   3.381  1.00  0.00     0.147 S 
HETATM   27  O1  UNL     1       2.042  -1.100   4.853  1.00  0.00    -0.222 OA
BRANCH  26  28
HETATM   28  N1  UNL     1       3.261  -2.440   3.365  1.00  0.00    -0.340 N 
ATOM     29  H12 UNL     1       4.276  -2.543   3.387  1.00  0.00     0.167 HD
ATOM     30  H11 UNL     1       2.588  -3.205   3.330  1.00  0.00     0.167 HD
ENDBRANCH  26  28
BRANCH  26  31
HETATM   31  N2  UNL     1       3.703   0.211   3.442  1.00  0.00    -0.340 N 
ATOM     32  H22 UNL     1       4.714   0.079   3.463  1.00  0.00     0.167 HD
ATOM     33  H21 UNL     1       3.221   1.110   3.453  1.00  0.00     0.167 HD
ENDBRANCH  26  31
ENDBRANCH   1  26
BRANCH   9  34
HETATM   34  C10 UNL     1      -0.037   1.465  -0.279  1.00  0.00     0.085 C 
BRANCH  34  35
HETATM   35  C11 UNL     1      -0.752   2.696  -0.392  1.00  0.00    -0.055 A 
HETATM   36  C12 UNL     1      -0.917   3.549   0.675  1.00  0.00     0.007 A 
HETATM   37  C13 UNL     1      -1.587   4.747   0.620  1.00  0.00     0.001 A 
HETATM   38  C14 UNL     1      -2.139   5.147  -0.563  1.00  0.00     0.000 A 
HETATM   39  C15 UNL     1      -2.002   4.329  -1.666  1.00  0.00     0.001 A 
HETATM   40  C16 UNL     1      -1.323   3.128  -1.583  1.00  0.00     0.007 A 
ENDBRANCH  34  35
ENDBRANCH   9  34
BRANCH  13  41
HETATM   41  C24 UNL     1      -2.051  -0.457  -2.253  1.00  0.00     0.166 C 
BRANCH  41  42
HETATM   42  C25 UNL     1      -3.018  -1.566  -2.387  1.00  0.00    -0.040 A 
HETATM   43  C26 UNL     1      -2.839  -2.829  -1.914  1.00  0.00     0.009 A 
HETATM   44  C27 UNL     1      -3.761  -3.862  -2.055  1.00  0.00     0.001 A 
HETATM   45  C28 UNL     1      -4.934  -3.584  -2.718  1.00  0.00     0.000 A 
HETATM   46  C29 UNL     1      -5.184  -2.331  -3.223  1.00  0.00     0.001 A 
HETATM   47  C30 UNL     1      -4.239  -1.350  -3.055  1.00  0.00     0.009 A 
ENDBRANCH  41  42
ENDBRANCH  13  41
TORSDOF 11
