REMARK  11 active torsions:
REMARK  status: ('A' for Active; 'I' for Inactive)
REMARK    1  A    between atoms: C2_2  and  C3_3 
REMARK    2  A    between atoms: C3_3  and  C5_5 
REMARK    3  A    between atoms: C7_10  and  C8_11 
REMARK    4  A    between atoms: C8_11  and  C9_12 
REMARK    5  A    between atoms: C13_19  and  C14_20 
REMARK    6  A    between atoms: C14_20  and  C15_21 
REMARK    7  A    between atoms: C19_28  and  C20_29 
REMARK    8  A    between atoms: C20_29  and  C21_30 
REMARK    9  A    between atoms: C24_35  and  O4_36 
REMARK   10  A    between atoms: C25_38  and  C26_39 
REMARK   11  A    between atoms: C26_39  and  C28_41 
ROOT
HETATM    1  C5  UNL     1       1.820  -1.812   0.391  1.00  0.00     0.180 C 
HETATM    2  N1  UNL     1       1.024  -0.660   0.046  1.00  0.00    -0.346 N 
ATOM      3  H1  UNL     1       0.206  -0.561   0.647  1.00  0.00     0.163 HD
HETATM    4  C6  UNL     1       1.102   0.336  -0.897  1.00  0.00     0.241 C 
HETATM    5  O1  UNL     1       0.353   0.268  -1.943  1.00  0.00    -0.271 OA
HETATM    6  C7  UNL     1       1.931   1.576  -0.967  1.00  0.00     0.177 C 
HETATM    7  N2  UNL     1       1.042   2.752  -0.970  1.00  0.00    -0.346 N 
ATOM      8  H2  UNL     1       1.447   3.605  -1.356  1.00  0.00     0.163 HD
HETATM    9  C12 UNL     1      -0.260   2.865  -0.526  1.00  0.00     0.241 C 
HETATM   10  O2  UNL     1      -1.145   3.347  -1.326  1.00  0.00    -0.271 OA
HETATM   11  C13 UNL     1      -0.832   2.497   0.808  1.00  0.00     0.177 C 
HETATM   12  N3  UNL     1      -2.246   2.171   0.729  1.00  0.00    -0.346 N 
ATOM     13  H3  UNL     1      -2.833   2.954   0.443  1.00  0.00     0.163 HD
HETATM   14  C18 UNL     1      -2.947   1.008   0.966  1.00  0.00     0.241 C 
HETATM   15  O3  UNL     1      -3.763   0.952   1.958  1.00  0.00    -0.271 OA
HETATM   16  C19 UNL     1      -2.910  -0.294   0.197  1.00  0.00     0.176 C 
HETATM   17  N4  UNL     1      -2.933  -1.395   1.101  1.00  0.00    -0.356 N 
ATOM     18  H4  UNL     1      -3.743  -1.379   1.720  1.00  0.00     0.162 HD
HETATM   19  C24 UNL     1      -2.110  -2.476   1.329  1.00  0.00     0.160 C 
HETATM   20  C25 UNL     1      -1.291  -3.362   0.500  1.00  0.00     0.068 C 
HETATM   21  N5  UNL     1       0.043  -3.625   1.036  1.00  0.00    -0.320 N 
HETATM   22  C30 UNL     1       0.274  -5.053   1.448  1.00  0.00     0.159 C 
HETATM   23  C31 UNL     1       1.123  -2.795   1.251  1.00  0.00     0.247 C 
HETATM   24  O5  UNL     1       1.635  -2.890   2.439  1.00  0.00    -0.271 OA
ENDROOT
BRANCH   1  25
HETATM   25  C3  UNL     1       3.090  -1.250   0.984  1.00  0.00     0.013 C 
HETATM   26  C4  UNL     1       4.230  -2.224   1.046  1.00  0.00     0.012 C 
BRANCH  25  27
HETATM   27  C2  UNL     1       2.945  -0.393   2.183  1.00  0.00     0.002 C 
HETATM   28  C1  UNL     1       4.208   0.466   2.411  1.00  0.00     0.005 C 
ENDBRANCH  25  27
ENDBRANCH   1  25
BRANCH   6  29
HETATM   29  C8  UNL     1       2.765   1.508  -2.227  1.00  0.00     0.038 C 
BRANCH  29  30
HETATM   30  C9  UNL     1       3.663   2.676  -2.445  1.00  0.00    -0.020 C 
HETATM   31  C10 UNL     1       4.458   2.484  -3.749  1.00  0.00     0.009 C 
HETATM   32  C11 UNL     1       4.695   2.847  -1.357  1.00  0.00     0.009 C 
ENDBRANCH  29  30
ENDBRANCH   6  29
BRANCH  20  33
HETATM   33  C26 UNL     1      -1.355  -3.222  -0.973  1.00  0.00     0.036 C 
HETATM   34  C27 UNL     1      -0.385  -4.268  -1.561  1.00  0.00     0.016 C 
BRANCH  33  35
HETATM   35  C28 UNL     1      -2.708  -3.798  -1.472  1.00  0.00     0.006 C 
HETATM   36  C29 UNL     1      -2.814  -3.675  -2.970  1.00  0.00     0.006 C 
ENDBRANCH  33  35
ENDBRANCH  20  33
BRANCH  19  37
HETATM   37  O4  UNL     1      -2.000  -2.839   2.587  1.00  0.00    -0.345 OA
ATOM     38  H4  UNL     1      -1.432  -3.584   2.744  1.00  0.00     0.219 HD
ENDBRANCH  19  37
BRANCH  11  39
HETATM   39  C14 UNL     1      -0.696   3.801   1.636  1.00  0.00     0.038 C 
BRANCH  39  40
HETATM   40  C15 UNL     1       0.687   4.289   1.790  1.00  0.00    -0.020 C 
HETATM   41  C16 UNL     1       0.589   5.577   2.636  1.00  0.00     0.009 C 
HETATM   42  C17 UNL     1       1.644   3.396   2.492  1.00  0.00     0.009 C 
ENDBRANCH  39  40
ENDBRANCH  11  39
BRANCH  16  43
HETATM   43  C20 UNL     1      -3.947  -0.170  -0.846  1.00  0.00     0.038 C 
BRANCH  43  44
HETATM   44  C21 UNL     1      -5.355   0.045  -0.510  1.00  0.00    -0.020 C 
HETATM   45  C22 UNL     1      -5.938  -1.085   0.286  1.00  0.00     0.009 C 
HETATM   46  C23 UNL     1      -6.167   0.091  -1.822  1.00  0.00     0.009 C 
ENDBRANCH  43  44
ENDBRANCH  16  43
TORSDOF 11
