REMARK  13 active torsions:
REMARK  status: ('A' for Active; 'I' for Inactive)
REMARK    1  A    between atoms: C2_2  and  C3_3 
REMARK    2  A    between atoms: C3_3  and  C4_4 
REMARK       I    between atoms: C4_4  and  N1_6 
REMARK    3  A    between atoms: C7_13  and  C8_14 
REMARK    4  A    between atoms: C8_14  and  C9_15 
REMARK    5  A    between atoms: C12_20  and  O3_21 
REMARK    6  A    between atoms: C19_31  and  C20_32 
REMARK    7  A    between atoms: C20_32  and  C21_33 
REMARK    8  A    between atoms: C21_33  and  C22_34 
REMARK    9  A    between atoms: C22_34  and  N5_35 
REMARK   10  A    between atoms: C24_42  and  O5_43 
REMARK   11  A    between atoms: C25_45  and  C26_46 
REMARK   12  A    between atoms: C29_50  and  O6_51 
REMARK   13  A    between atoms: C30_53  and  C31_54 
ROOT
HETATM    1  C4  UNL     1       4.950   0.742   1.027  1.00  0.00     0.223 C 
HETATM    2  O1  UNL     1       5.011   0.964   2.290  1.00  0.00    -0.273 OA
HETATM    3  N1  UNL     1       4.602  -0.472   0.481  1.00  0.00    -0.313 N 
ATOM      4  H1  UNL     1       5.226  -0.826  -0.244  1.00  0.00     0.170 HD
HETATM    5  C5  UNL     1       3.589  -1.224   0.765  1.00  0.00     0.117 C 
HETATM    6  N2  UNL     1       2.700  -0.759   1.762  1.00  0.00    -0.311 N 
ATOM      7  H2  UNL     1       3.164  -0.580   2.652  1.00  0.00     0.170 HD
HETATM    8  C6  UNL     1       1.326  -0.489   1.803  1.00  0.00     0.246 C 
HETATM    9  O2  UNL     1       0.620  -1.325   2.498  1.00  0.00    -0.271 OA
HETATM   10  C7  UNL     1       0.542   0.624   1.168  1.00  0.00     0.181 C 
HETATM   11  N4  UNL     1      -0.783   0.569   1.644  1.00  0.00    -0.346 N 
ATOM     12  H4  UNL     1      -0.847   0.727   2.650  1.00  0.00     0.163 HD
HETATM   13  C18 UNL     1      -2.023   0.349   1.056  1.00  0.00     0.241 C 
HETATM   14  O4  UNL     1      -3.043   0.813   1.704  1.00  0.00    -0.271 OA
HETATM   15  C19 UNL     1      -2.309  -0.362  -0.233  1.00  0.00     0.176 C 
HETATM   16  N8  UNL     1      -1.407   0.056  -1.230  1.00  0.00    -0.355 N 
ATOM     17  H8  UNL     1      -1.131   1.032  -1.121  1.00  0.00     0.162 HD
HETATM   18  C24 UNL     1      -0.804  -0.546  -2.328  1.00  0.00     0.174 C 
HETATM   19  C25 UNL     1      -0.126  -1.873  -2.445  1.00  0.00     0.141 C 
HETATM   20  N9  UNL     1       0.483  -2.271  -1.473  1.00  0.00    -0.380 NA
HETATM   21  C29 UNL     1       1.239  -3.049  -0.653  1.00  0.00     0.221 C 
HETATM   22  C30 UNL     1       2.694  -3.266  -0.509  1.00  0.00     0.016 C 
HETATM   23  C33 UNL     1       3.598  -2.508   0.060  1.00  0.00    -0.006 C 
HETATM   24  C34 UNL     1       5.029  -3.092  -0.152  1.00  0.00     0.053 C 
ENDROOT
BRANCH  10  25
HETATM   25  C8  UNL     1       1.148   1.981   1.422  1.00  0.00     0.075 C 
BRANCH  25  26
HETATM   26  C9  UNL     1       0.385   3.074   0.825  1.00  0.00    -0.028 A 
HETATM   27  C10 UNL     1       0.570   3.584  -0.466  1.00  0.00     0.096 A 
HETATM   28  N3  UNL     1      -0.327   4.553  -0.695  1.00  0.00    -0.362 N 
HETATM   29  C11 UNL     1      -1.110   4.717   0.393  1.00  0.00     0.076 A 
ATOM     30  H3  UNL     1      -0.406   5.086  -1.561  1.00  0.00     0.165 HD
HETATM   31  C12 UNL     1      -2.151   5.586   0.665  1.00  0.00     0.095 A 
HETATM   32  C17 UNL     1      -0.663   3.793   1.338  1.00  0.00     0.001 A 
HETATM   33  C14 UNL     1      -2.769   5.560   1.884  1.00  0.00     0.039 A 
HETATM   34  C15 UNL     1      -2.343   4.657   2.837  1.00  0.00     0.004 A 
HETATM   35  C16 UNL     1      -1.321   3.802   2.568  1.00  0.00     0.014 A 
BRANCH  31  36
HETATM   36  O3  UNL     1      -2.555   6.482  -0.317  1.00  0.00    -0.354 OA
HETATM   37  C13 UNL     1      -3.610   7.387  -0.092  1.00  0.00     0.210 C 
ENDBRANCH  31  36
ENDBRANCH  25  26
ENDBRANCH  10  25
BRANCH  15  38
HETATM   38  C20 UNL     1      -2.451  -1.795   0.102  1.00  0.00     0.036 C 
BRANCH  38  39
HETATM   39  C21 UNL     1      -3.610  -1.975   1.059  1.00  0.00     0.022 C 
BRANCH  39  40
HETATM   40  C22 UNL     1      -4.942  -1.575   0.550  1.00  0.00     0.122 C 
BRANCH  40  41
HETATM   41  N5  UNL     1      -5.898  -1.844   1.639  1.00  0.00    -0.367 N 
HETATM   42  C23 UNL     1      -6.592  -2.937   1.691  1.00  0.00     0.196 C 
HETATM   43  N6  UNL     1      -6.404  -3.884   0.654  1.00  0.00    -0.067 NA
HETATM   44  N7  UNL     1      -7.508  -3.222   2.712  1.00  0.00    -0.067 NA
ATOM     45  H5  UNL     1      -6.017  -1.148   2.375  1.00  0.00     0.161 HD
ENDBRANCH  40  41
ENDBRANCH  39  40
ENDBRANCH  38  39
ENDBRANCH  15  38
BRANCH   1  46
HETATM   46  C3  UNL     1       5.299   1.949   0.203  1.00  0.00     0.103 C 
BRANCH  46  47
HETATM   47  C2  UNL     1       5.838   3.087   1.000  1.00  0.00     0.005 C 
HETATM   48  C1  UNL     1       4.946   3.635   2.054  1.00  0.00     0.005 C 
ENDBRANCH  46  47
ENDBRANCH   1  46
BRANCH  22  49
HETATM   49  C31 UNL     1       3.133  -4.678  -0.972  1.00  0.00     0.040 C 
HETATM   50  C32 UNL     1       3.225  -4.830  -2.434  1.00  0.00     0.010 C 
ENDBRANCH  22  49
BRANCH  18  51
HETATM   51  O5  UNL     1      -0.803   0.110  -3.451  1.00  0.00    -0.344 OA
ATOM     52  H5  UNL     1      -0.391  -0.301  -4.202  1.00  0.00     0.219 HD
ENDBRANCH  18  51
BRANCH  21  53
HETATM   53  O6  UNL     1       0.577  -3.789   0.215  1.00  0.00    -0.335 OA
ATOM     54  H6  UNL     1       1.105  -4.333   0.788  1.00  0.00     0.220 HD
ENDBRANCH  21  53
BRANCH  19  55
HETATM   55  C26 UNL     1      -0.336  -2.435  -3.840  1.00  0.00     0.046 C 
HETATM   56  C27 UNL     1       0.415  -1.619  -4.882  1.00  0.00     0.017 C 
HETATM   57  C28 UNL     1      -0.140  -3.910  -3.983  1.00  0.00     0.017 C 
ENDBRANCH  19  55
TORSDOF 13
