REMARK  10 active torsions:
REMARK  status: ('A' for Active; 'I' for Inactive)
REMARK    1  A    between atoms: C2_2  and  C3_3 
REMARK    2  A    between atoms: C3_3  and  C4_4 
REMARK    3  A    between atoms: C4_4  and  C5_5 
REMARK    4  A    between atoms: C5_5  and  C6_6 
REMARK    5  A    between atoms: C8_11  and  C9_12 
REMARK    6  A    between atoms: C9_12  and  C10_13 
REMARK    7  A    between atoms: C19_26  and  O2_27 
REMARK    8  A    between atoms: C20_29  and  C21_30 
REMARK    9  A    between atoms: C21_30  and  C22_31 
REMARK   10  A    between atoms: C29_41  and  C30_42 
ROOT
HETATM    1  C6  UNL     1       2.515  -0.369  -0.577  1.00  0.00     0.176 C 
HETATM    2  N1  UNL     1       1.700  -0.007  -1.751  1.00  0.00    -0.346 N 
ATOM      3  H1  UNL     1       2.188   0.077  -2.643  1.00  0.00     0.163 HD
HETATM    4  C7  UNL     1       0.327   0.231  -1.758  1.00  0.00     0.241 C 
HETATM    5  O1  UNL     1      -0.331   0.018  -2.803  1.00  0.00    -0.271 OA
HETATM    6  C8  UNL     1      -0.392   0.737  -0.567  1.00  0.00     0.179 C 
HETATM    7  N3  UNL     1      -1.661   0.118  -0.312  1.00  0.00    -0.359 N 
ATOM      8  H3  UNL     1      -2.251   0.630   0.345  1.00  0.00     0.162 HD
HETATM    9  C19 UNL     1      -2.236  -1.059  -0.800  1.00  0.00     0.135 C 
HETATM   10  C20 UNL     1      -1.829  -2.469  -0.644  1.00  0.00     0.159 C 
HETATM   11  N4  UNL     1      -1.614  -3.064  -1.975  1.00  0.00    -0.349 N 
ATOM     12  H4  UNL     1      -1.868  -2.467  -2.762  1.00  0.00     0.163 HD
HETATM   13  C25 UNL     1      -1.124  -4.300  -2.317  1.00  0.00     0.222 C 
HETATM   14  O3  UNL     1      -1.884  -5.025  -3.083  1.00  0.00    -0.273 OA
HETATM   15  C26 UNL     1       0.169  -4.946  -1.939  1.00  0.00     0.076 C 
HETATM   16  C27 UNL     1       0.055  -5.644  -0.614  1.00  0.00     0.020 C 
HETATM   17  C28 UNL     1       1.370  -4.124  -2.161  1.00  0.00     0.046 C 
HETATM   18  C29 UNL     1       2.096  -3.547  -0.997  1.00  0.00     0.146 C 
HETATM   19  N5  UNL     1       3.104  -2.645  -1.584  1.00  0.00    -0.348 N 
ATOM     20  H5  UNL     1       3.550  -2.947  -2.450  1.00  0.00     0.163 HD
HETATM   21  C31 UNL     1       3.503  -1.409  -1.056  1.00  0.00     0.241 C 
HETATM   22  O5  UNL     1       4.733  -1.171  -0.989  1.00  0.00    -0.271 OA
ENDROOT
BRANCH   6  23
HETATM   23  C9  UNL     1      -0.637   2.212  -0.926  1.00  0.00     0.075 C 
BRANCH  23  24
HETATM   24  C10 UNL     1      -1.345   2.998   0.070  1.00  0.00    -0.028 A 
HETATM   25  C11 UNL     1      -1.489   2.942   1.417  1.00  0.00     0.096 A 
HETATM   26  N2  UNL     1      -2.269   3.948   1.813  1.00  0.00    -0.364 N 
HETATM   27  C12 UNL     1      -2.662   4.692   0.782  1.00  0.00     0.049 A 
ATOM     28  H2  UNL     1      -2.531   4.125   2.783  1.00  0.00     0.165 HD
HETATM   29  C13 UNL     1      -3.453   5.834   0.637  1.00  0.00    -0.034 A 
HETATM   30  C18 UNL     1      -2.098   4.120  -0.332  1.00  0.00    -0.001 A 
HETATM   31  C14 UNL     1      -4.059   6.451   1.835  1.00  0.00     0.050 C 
HETATM   32  C15 UNL     1      -3.690   6.415  -0.590  1.00  0.00     0.009 A 
HETATM   33  C16 UNL     1      -3.127   5.844  -1.692  1.00  0.00     0.002 A 
HETATM   34  C17 UNL     1      -2.348   4.718  -1.549  1.00  0.00     0.014 A 
ENDBRANCH  23  24
ENDBRANCH   6  23
BRANCH   9  35
HETATM   35  O2  UNL     1      -3.316  -0.940  -1.520  1.00  0.00    -0.348 OA
ATOM     36  H2  UNL     1      -3.707  -1.740  -1.852  1.00  0.00     0.219 HD
ENDBRANCH   9  35
BRANCH   1  37
HETATM   37  C5  UNL     1       3.237   0.911  -0.226  1.00  0.00     0.035 C 
BRANCH  37  38
HETATM   38  C4  UNL     1       4.123   0.884   0.956  1.00  0.00     0.002 C 
BRANCH  38  39
HETATM   39  C3  UNL     1       4.752   2.288   1.044  1.00  0.00    -0.000 C 
BRANCH  39  40
HETATM   40  C2  UNL     1       5.692   2.378   2.209  1.00  0.00    -0.005 C 
HETATM   41  C1  UNL     1       6.325   3.740   2.288  1.00  0.00     0.005 C 
ENDBRANCH  39  40
ENDBRANCH  38  39
ENDBRANCH  37  38
ENDBRANCH   1  37
BRANCH  10  42
HETATM   42  C21 UNL     1      -2.884  -3.254   0.090  1.00  0.00     0.037 C 
BRANCH  42  43
HETATM   43  C22 UNL     1      -3.248  -2.903   1.458  1.00  0.00    -0.020 C 
HETATM   44  C23 UNL     1      -3.818  -1.581   1.774  1.00  0.00     0.009 C 
HETATM   45  C24 UNL     1      -4.117  -4.031   2.038  1.00  0.00     0.009 C 
ENDBRANCH  42  43
ENDBRANCH  10  42
BRANCH  18  46
HETATM   46  C30 UNL     1       2.912  -4.541  -0.231  1.00  0.00     0.256 C 
HETATM   47  O4  UNL     1       4.148  -4.483  -0.283  1.00  0.00    -0.305 OA
ENDBRANCH  18  46
TORSDOF 10
