REMARK  10 active torsions:
REMARK  status: ('A' for Active; 'I' for Inactive)
REMARK    1  A    between atoms: C2_2  and  N1_3 
REMARK    2  A    between atoms: N1_3  and  C3_4 
REMARK       I    between atoms: N1_3  and  C22_31 
REMARK    3  A    between atoms: C3_4  and  C4_5 
REMARK    4  A    between atoms: C9_10  and  C10_11 
REMARK    5  A    between atoms: C13_16  and  C14_17 
REMARK    6  A    between atoms: C22_31  and  C23_33 
REMARK    7  A    between atoms: C23_33  and  C24_34 
REMARK    8  A    between atoms: C27_37  and  C28_38 
REMARK    9  A    between atoms: C29_39  and  S1_40 
REMARK   10  A    between atoms: S1_40  and  N6_41 
ROOT
HETATM    1  C4  UNL     1      -0.353  -2.186  -1.618  1.00  0.00    -0.039 A 
HETATM    2  C5  UNL     1      -0.375  -2.209  -0.243  1.00  0.00     0.010 A 
HETATM    3  C6  UNL     1       0.733  -1.797   0.509  1.00  0.00     0.013 A 
HETATM    4  C7  UNL     1       1.874  -1.357  -0.126  1.00  0.00    -0.025 A 
HETATM    5  C8  UNL     1       2.994  -0.941   0.602  1.00  0.00     0.027 A 
HETATM    6  C9  UNL     1       4.137  -0.501  -0.016  1.00  0.00     0.009 A 
HETATM    7  C18 UNL     1       4.165  -0.476  -1.393  1.00  0.00     0.016 A 
HETATM    8  C19 UNL     1       3.062  -0.885  -2.131  1.00  0.00     0.013 A 
HETATM    9  C20 UNL     1       1.921  -1.324  -1.499  1.00  0.00    -0.025 A 
HETATM   10  C21 UNL     1       0.805  -1.740  -2.225  1.00  0.00     0.021 A 
ENDROOT
BRANCH   1  11
HETATM   11  C3  UNL     1      -1.508  -2.617  -2.431  1.00  0.00     0.164 C 
BRANCH  11  12
HETATM   12  N1  UNL     1      -2.361  -1.546  -2.875  1.00  0.00    -0.348 N 
HETATM   13  C22 UNL     1      -3.471  -1.146  -2.104  1.00  0.00     0.224 C 
HETATM   14  O1  UNL     1      -3.710  -1.734  -1.025  1.00  0.00    -0.273 OA
BRANCH  12  15
HETATM   15  C2  UNL     1      -2.116  -0.831  -4.137  1.00  0.00     0.121 C 
HETATM   16  C1  UNL     1      -2.824  -1.480  -5.290  1.00  0.00     0.026 C 
ENDBRANCH  12  15
BRANCH  13  17
HETATM   17  C23 UNL     1      -4.382  -0.045  -2.518  1.00  0.00     0.141 C 
BRANCH  17  18
HETATM   18  C24 UNL     1      -5.467   0.160  -1.515  1.00  0.00    -0.049 A 
HETATM   19  C25 UNL     1      -6.640  -0.535  -1.599  1.00  0.00     0.008 A 
HETATM   20  C26 UNL     1      -7.655  -0.373  -0.700  1.00  0.00     0.012 A 
HETATM   21  C27 UNL     1      -7.540   0.535   0.376  1.00  0.00    -0.036 A 
HETATM   22  C30 UNL     1      -6.344   1.211   0.420  1.00  0.00     0.012 A 
HETATM   23  C31 UNL     1      -5.308   1.046  -0.496  1.00  0.00     0.008 A 
BRANCH  21  24
HETATM   24  C28 UNL     1      -8.636   0.659   1.293  1.00  0.00     0.025 C 
HETATM   25  C29 UNL     1      -8.921   1.347   2.326  1.00  0.00     0.132 C 
BRANCH  25  26
HETATM   26  S1  UNL     1      -8.062   2.548   3.180  1.00  0.00     0.246 S 
HETATM   27  O2  UNL     1      -9.007   3.112   4.293  1.00  0.00    -0.202 OA
HETATM   28  O3  UNL     1      -7.717   3.740   2.368  1.00  0.00    -0.202 OA
BRANCH  26  29
HETATM   29  N6  UNL     1      -6.667   1.920   4.009  1.00  0.00    -0.325 N 
ATOM     30  H62 UNL     1      -6.404   0.935   3.978  1.00  0.00     0.169 HD
ATOM     31  H61 UNL     1      -6.153   2.638   4.520  1.00  0.00     0.169 HD
ENDBRANCH  26  29
ENDBRANCH  25  26
ENDBRANCH  21  24
ENDBRANCH  17  18
ENDBRANCH  13  17
ENDBRANCH  11  12
ENDBRANCH   1  11
BRANCH   6  32
HETATM   32  C10 UNL     1       5.318  -0.066   0.764  1.00  0.00     0.116 A 
HETATM   33  N2  UNL     1       6.485   0.383   0.282  1.00  0.00    -0.340 N 
HETATM   34  C11 UNL     1       7.326   0.686   1.315  1.00  0.00     0.061 A 
ATOM     35  H2  UNL     1       6.711   0.483  -0.707  1.00  0.00     0.167 HD
HETATM   36  C12 UNL     1       8.611   1.172   1.373  1.00  0.00     0.046 A 
HETATM   37  C17 UNL     1       6.619   0.401   2.461  1.00  0.00     0.060 A 
HETATM   38  C13 UNL     1       9.234   1.389   2.604  1.00  0.00     0.007 A 
HETATM   39  C15 UNL     1       8.491   1.090   3.725  1.00  0.00     0.017 A 
HETATM   40  C16 UNL     1       7.217   0.608   3.711  1.00  0.00     0.033 A 
HETATM   41  N5  UNL     1       5.418  -0.048   2.099  1.00  0.00    -0.340 N 
ATOM     42  H5  UNL     1       4.682  -0.336   2.744  1.00  0.00     0.167 HD
BRANCH  38  43
HETATM   43  C14 UNL     1      10.588   1.900   2.663  1.00  0.00     0.120 C 
HETATM   44  N3  UNL     1      11.173   2.106   3.767  1.00  0.00    -0.387 N 
ATOM     45  H32 UNL     1      10.675   1.906   4.634  1.00  0.00     0.157 HD
ATOM     46  H31 UNL     1      12.127   2.466   3.809  1.00  0.00     0.157 HD
HETATM   47  N4  UNL     1      11.282   2.179   1.455  1.00  0.00    -0.082 NA
ENDBRANCH  38  43
ENDBRANCH   6  32
TORSDOF 10
