REMARK  5 active torsions:
REMARK  status: ('A' for Active; 'I' for Inactive)
REMARK    1  A    between atoms: N1_1  and  O1_4 
REMARK    2  A    between atoms: O1_4  and  N2_5 
REMARK    3  A    between atoms: N2_5  and  C1_7 
REMARK    4  A    between atoms: C2_10  and  O2_11 
REMARK    5  A    between atoms: C2_10  and  C3_13 
ROOT
HETATM    1  C1  UNL     1       0.998   0.053  -0.025  1.00  0.00     0.123 C 
HETATM    2  N3  UNL     1       0.166   1.008   0.048  1.00  0.00    -0.335 N 
ATOM      3  H3  UNL     1       0.482   1.896  -0.342  1.00  0.00     0.164 HD
HETATM    4  C2  UNL     1      -1.158   1.012   0.603  1.00  0.00     0.256 C 
HETATM    5  C4  UNL     1      -1.897  -0.246   0.232  1.00  0.00     0.275 C 
HETATM    6  C5  UNL     1      -2.078  -1.173   1.357  1.00  0.00     0.009 C 
HETATM    7  C6  UNL     1      -1.219  -2.164   1.207  1.00  0.00     0.006 C 
HETATM    8  C7  UNL     1      -0.401  -1.983  -0.016  1.00  0.00     0.235 C 
HETATM    9  N4  UNL     1      -1.159  -1.020  -0.775  1.00  0.00    -0.053 N 
ATOM     10  H41 UNL     1      -0.593  -0.450  -1.403  1.00  0.00     0.279 HD
ATOM     11  H42 UNL     1      -1.751  -1.433  -1.496  1.00  0.00     0.279 HD
HETATM   12  C8  UNL     1       0.932  -1.372   0.411  1.00  0.00     0.185 C 
HETATM   13 CL1  UNL     1       1.130  -1.523   2.170  1.00  0.00    -0.114 Cl
ENDROOT
BRANCH   1  14
HETATM   14  N2  UNL     1       2.225   0.382  -0.635  1.00  0.00    -0.229 N 
ATOM     15  H2  UNL     1       2.268   0.574  -1.636  1.00  0.00     0.198 HD
BRANCH  14  16
HETATM   16  O1  UNL     1       3.331   0.439   0.113  1.00  0.00    -0.163 OA
BRANCH  16  17
HETATM   17  N1  UNL     1       4.342   1.096  -0.466  1.00  0.00    -0.286 N 
ATOM     18  H12 UNL     1       4.260   1.510  -1.395  1.00  0.00     0.186 HD
ATOM     19  H11 UNL     1       5.186   1.140   0.105  1.00  0.00     0.186 HD
ENDBRANCH  16  17
ENDBRANCH  14  16
ENDBRANCH   1  14
BRANCH   4  20
HETATM   20  O2  UNL     1      -1.041   1.169   1.983  1.00  0.00    -0.360 OA
ATOM     21  H2  UNL     1      -1.917   1.172   2.350  1.00  0.00     0.213 HD
ENDBRANCH   4  20
BRANCH   4  22
HETATM   22  C3  UNL     1      -1.881   2.187   0.083  1.00  0.00     0.234 C 
HETATM   23  O3  UNL     1      -2.272   3.097   0.831  1.00  0.00    -0.644 OA
HETATM   24  O4  UNL     1      -2.125   2.268  -1.269  1.00  0.00    -0.644 OA
ENDBRANCH   4  22
TORSDOF 5
