REMARK  3 active torsions:
REMARK  status: ('A' for Active; 'I' for Inactive)
REMARK    1  A    between atoms: C3_4  and  O1_5 
REMARK    2  A    between atoms: C3_4  and  N2_7 
REMARK    3  A    between atoms: N2_7  and  N3_9 
REMARK       I    between atoms: N3_9  and  C4_11 
ROOT
HETATM    1  C1  UNL     1      -1.020   2.106   0.371  1.00  0.00     0.160 C 
HETATM    2  N1  UNL     1      -1.868   0.948   0.235  1.00  0.00    -0.310 N 
HETATM    3  C2  UNL     1      -1.386  -0.281   0.069  1.00  0.00     0.131 A 
HETATM    4  C3  UNL     1      -0.009  -0.664  -0.005  1.00  0.00     0.186 C 
HETATM    5  C5  UNL     1      -2.359  -1.285  -0.048  1.00  0.00     0.149 A 
HETATM    6  N6  UNL     1      -1.906  -2.624  -0.224  1.00  0.00    -0.080 NA
HETATM    7  N7  UNL     1      -3.680  -1.044  -0.000  1.00  0.00    -0.329 N 
ATOM      8  H7  UNL     1      -4.343  -1.814  -0.091  1.00  0.00     0.168 HD
HETATM    9  C6  UNL     1      -4.119   0.193   0.165  1.00  0.00     0.173 A 
HETATM   10 CL1  UNL     1      -5.845   0.509   0.227  1.00  0.00    -0.058 Cl
HETATM   11  C7  UNL     1      -3.203   1.200   0.284  1.00  0.00     0.286 A 
HETATM   12  O2  UNL     1      -3.663   2.367   0.441  1.00  0.00    -0.264 OA
ENDROOT
BRANCH   4  13
HETATM   13  O1  UNL     1       0.219  -1.943  -0.195  1.00  0.00    -0.343 OA
ATOM     14  H1  UNL     1       1.133  -2.197  -0.244  1.00  0.00     0.219 HD
ENDBRANCH   4  13
BRANCH   4  15
HETATM   15  N2  UNL     1       1.183   0.060   0.084  1.00  0.00    -0.276 N 
ATOM     16  H2  UNL     1       1.158   1.069   0.230  1.00  0.00     0.189 HD
BRANCH  15  17
HETATM   17  N3  UNL     1       2.433  -0.613  -0.030  1.00  0.00    -0.272 N 
HETATM   18  C4  UNL     1       3.665   0.079   0.120  1.00  0.00     0.200 C 
HETATM   19  N4  UNL     1       3.714   1.360   0.242  1.00  0.00    -0.372 N 
HETATM   20  N5  UNL     1       4.855  -0.673   0.131  1.00  0.00    -0.062 NA
ATOM     21  H42 UNL     1       2.852   1.905   0.234  1.00  0.00     0.158 HD
ATOM     22  H41 UNL     1       4.598   1.857   0.350  1.00  0.00     0.158 HD
ATOM     23  H3  UNL     1       2.444  -1.614  -0.224  1.00  0.00     0.189 HD
ENDBRANCH  15  17
ENDBRANCH   4  15
TORSDOF 3
