REMARK  5 active torsions:
REMARK  status: ('A' for Active; 'I' for Inactive)
REMARK    1  A    between atoms: N1_1  and  O1_4 
REMARK    2  A    between atoms: O1_4  and  C1_5 
REMARK       I    between atoms: C1_5  and  N2_7 
REMARK    3  A    between atoms: C2_8  and  N3_9 
REMARK       I    between atoms: N3_9  and  C3_11 
REMARK    4  A    between atoms: C3_11  and  C4_13 
REMARK    5  A    between atoms: C6_20  and  O6_21 
ROOT
HETATM    1  C1  UNL     1       1.493   1.209  -0.054  1.00  0.00     0.389 C 
HETATM    2  O2  UNL     1       0.976   2.305   0.280  1.00  0.00    -0.236 OA
HETATM    3  N2  UNL     1       0.970  -0.042   0.352  1.00  0.00    -0.252 N 
HETATM    4  C2  UNL     1      -0.178  -0.243   1.170  1.00  0.00     0.222 C 
HETATM    5  C5  UNL     1       0.143  -1.536   1.887  1.00  0.00     0.284 C 
HETATM    6  N4  UNL     1       0.942  -2.273   0.956  1.00  0.00    -0.025 N 
ATOM      7  H41 UNL     1       0.426  -3.028   0.504  1.00  0.00     0.282 HD
ATOM      8  H42 UNL     1       1.651  -2.847   1.412  1.00  0.00     0.282 HD
HETATM    9  C6  UNL     1       1.505  -1.336   0.010  1.00  0.00     0.454 C 
ENDROOT
BRANCH   4  10
HETATM   10  N3  UNL     1      -1.412  -0.343   0.427  1.00  0.00    -0.329 N 
HETATM   11  C3  UNL     1      -2.561   0.424   0.677  1.00  0.00     0.319 C 
HETATM   12  O3  UNL     1      -2.554   1.259   1.595  1.00  0.00    -0.261 OA
ATOM     13  H3  UNL     1      -1.452  -1.020  -0.335  1.00  0.00     0.165 HD
BRANCH  11  14
HETATM   14  C4  UNL     1      -3.737   0.243  -0.124  1.00  0.00     0.270 C 
HETATM   15  O4  UNL     1      -3.793  -0.591  -1.066  1.00  0.00    -0.640 OA
HETATM   16  O5  UNL     1      -4.861   1.009   0.138  1.00  0.00    -0.640 OA
ENDBRANCH  11  14
ENDBRANCH   4  10
BRANCH   1  17
HETATM   17  O1  UNL     1       2.618   1.269  -0.853  1.00  0.00    -0.188 OA
BRANCH  17  18
HETATM   18  N1  UNL     1       3.134   2.470  -1.252  1.00  0.00    -0.301 N 
ATOM     19  H12 UNL     1       2.669   3.325  -0.946  1.00  0.00     0.184 HD
ATOM     20  H11 UNL     1       3.965   2.514  -1.842  1.00  0.00     0.184 HD
ENDBRANCH  17  18
ENDBRANCH   1  17
BRANCH   9  21
HETATM   21  O6  UNL     1       2.891  -1.392   0.111  1.00  0.00    -0.228 OA
HETATM   22 CL1  UNL     1       3.620  -1.832  -1.373  1.00  0.00     0.065 Cl
ENDBRANCH   9  21
TORSDOF 5
