REMARK  8 active torsions:
REMARK  status: ('A' for Active; 'I' for Inactive)
REMARK       I    between atoms: C2_2  and  N1_4 
REMARK    1  A    between atoms: C5_7  and  C6_8 
REMARK    2  A    between atoms: C6_8  and  C7_9 
REMARK    3  A    between atoms: C6_8  and  C14_20 
REMARK    4  A    between atoms: C7_9  and  C8_10 
REMARK    5  A    between atoms: C11_13  and  N2_14 
REMARK       I    between atoms: C14_20  and  N3_22 
REMARK    6  A    between atoms: C16_24  and  C17_25 
REMARK    7  A    between atoms: C21_29  and  C22_30 
REMARK       I    between atoms: C22_30  and  N4_32 
REMARK    8  A    between atoms: N4_32  and  C24_34 
ROOT
HETATM    1  C6  UNL     1       1.130  -0.131  -0.255  1.00  0.00     0.082 C 
ENDROOT
BRANCH   1   2
HETATM    2  C5  UNL     1       1.894   1.027   0.254  1.00  0.00     0.002 C 
HETATM    3  C4  UNL     1       3.235   1.340  -0.255  1.00  0.00     0.025 C 
HETATM    4  C3  UNL     1       3.459   2.847  -0.551  1.00  0.00     0.126 C 
HETATM    5  N1  UNL     1       3.097   3.548   0.647  1.00  0.00    -0.352 N 
HETATM    6  C2  UNL     1       3.985   4.363   1.353  1.00  0.00     0.215 C 
HETATM    7  C28 UNL     1       1.739   3.372   1.109  1.00  0.00     0.126 C 
HETATM    8  C1  UNL     1       3.575   5.075   2.591  1.00  0.00     0.117 C 
HETATM    9  O1  UNL     1       5.174   4.483   0.900  1.00  0.00    -0.274 OA
HETATM   10  C27 UNL     1       1.044   2.312   0.227  1.00  0.00     0.025 C 
ENDBRANCH   1   2
BRANCH   1  11
HETATM   11  C7  UNL     1       1.464  -1.529  -0.117  1.00  0.00     0.019 C 
BRANCH  11  12
HETATM   12  C8  UNL     1       2.659  -2.246  -0.571  1.00  0.00    -0.014 C 
HETATM   13  C9  UNL     1       2.422  -3.781  -0.267  1.00  0.00     0.007 C 
HETATM   14  C10 UNL     1       3.537  -4.538  -0.938  1.00  0.00     0.033 C 
HETATM   15  C11 UNL     1       4.884  -3.964  -0.525  1.00  0.00     0.183 C 
HETATM   16  C12 UNL     1       4.603  -3.141   0.709  1.00  0.00     0.033 C 
HETATM   17  C13 UNL     1       3.869  -1.883   0.257  1.00  0.00     0.007 C 
BRANCH  15  18
HETATM   18  N2  UNL     1       5.869  -4.984  -0.325  1.00  0.00    -0.075 N 
ATOM     19  H23 UNL     1       5.545  -5.683   0.344  1.00  0.00     0.274 HD
ATOM     20  H22 UNL     1       5.958  -5.577  -1.150  1.00  0.00     0.274 HD
ATOM     21  H21 UNL     1       6.772  -4.599  -0.048  1.00  0.00     0.274 HD
ENDBRANCH  15  18
ENDBRANCH  11  12
ENDBRANCH   1  11
BRANCH   1  22
HETATM   22  C14 UNL     1      -0.245   0.008   0.418  1.00  0.00     0.225 C 
HETATM   23  O2  UNL     1      -0.230  -0.185   1.646  1.00  0.00    -0.273 OA
HETATM   24  N3  UNL     1      -1.410   0.324  -0.297  1.00  0.00    -0.338 N 
HETATM   25  C15 UNL     1      -1.564   0.579  -1.718  1.00  0.00     0.132 C 
HETATM   26  C21 UNL     1      -2.713   0.448   0.321  1.00  0.00     0.179 C 
HETATM   27  C16 UNL     1      -2.779   1.490  -1.805  1.00  0.00     0.009 C 
HETATM   28  C20 UNL     1      -3.658   0.891  -0.746  1.00  0.00     0.041 C 
BRANCH  27  29
HETATM   29  C17 UNL     1      -3.429   1.414  -3.165  1.00  0.00    -0.017 C 
HETATM   30  C18 UNL     1      -2.415   1.841  -4.188  1.00  0.00     0.010 C 
HETATM   31  C19 UNL     1      -4.593   2.355  -3.180  1.00  0.00     0.010 C 
ENDBRANCH  27  29
BRANCH  26  32
HETATM   32  C22 UNL     1      -3.120  -0.835   0.936  1.00  0.00     0.242 C 
HETATM   33  O3  UNL     1      -2.392  -1.836   0.790  1.00  0.00    -0.271 OA
HETATM   34  N4  UNL     1      -4.319  -0.924   1.680  1.00  0.00    -0.350 N 
HETATM   35  C23 UNL     1      -5.198   0.220   1.875  1.00  0.00     0.153 C 
BRANCH  34  36
HETATM   36  C24 UNL     1      -4.739  -2.181   2.289  1.00  0.00     0.087 A 
HETATM   37  C25 UNL     1      -5.441  -2.189   3.603  1.00  0.00     0.027 A 
HETATM   38  C26 UNL     1      -6.201  -2.396   2.327  1.00  0.00     0.027 A 
ENDBRANCH  34  36
ENDBRANCH  26  32
ENDBRANCH   1  22
TORSDOF 8
