REMARK  8 active torsions:
REMARK  status: ('A' for Active; 'I' for Inactive)
REMARK    1  A    between atoms: C2_2  and  N1_3 
REMARK    2  A    between atoms: N1_3  and  C3_4 
REMARK       I    between atoms: N1_3  and  C11_15 
REMARK    3  A    between atoms: C3_4  and  C4_5 
REMARK    4  A    between atoms: C4_5  and  N2_6 
REMARK    5  A    between atoms: C4_5  and  C7_11 
REMARK       I    between atoms: N2_6  and  C5_8 
REMARK    6  A    between atoms: C11_15  and  C12_17 
REMARK    7  A    between atoms: N3_22  and  S1_23 
REMARK    8  A    between atoms: S1_23  and  C17_26 
ROOT
HETATM    1  C12 UNL     1       0.051  -0.324   0.726  1.00  0.00     0.097 C 
HETATM    2  C13 UNL     1       0.649  -0.581   2.066  1.00  0.00     0.018 C 
HETATM    3  C14 UNL     1       1.886   0.176   2.395  1.00  0.00     0.026 C 
HETATM    4  C15 UNL     1       2.771   0.529   1.250  1.00  0.00     0.092 C 
HETATM    5  C16 UNL     1       2.749   2.069   1.159  1.00  0.00     0.033 C 
HETATM    6  N3  UNL     1       2.376   0.040  -0.004  1.00  0.00    -0.301 N 
HETATM    7  C26 UNL     1       0.982   0.211  -0.313  1.00  0.00     0.149 C 
ENDROOT
BRANCH   1   8
HETATM    8  C11 UNL     1      -1.213   0.455   0.760  1.00  0.00     0.225 C 
HETATM    9  N1  UNL     1      -2.478  -0.069   1.181  1.00  0.00    -0.350 N 
HETATM   10  O2  UNL     1      -1.092   1.670   0.377  1.00  0.00    -0.273 OA
BRANCH   9  11
HETATM   11  C2  UNL     1      -2.592  -1.435   1.574  1.00  0.00     0.121 C 
HETATM   12  C1  UNL     1      -2.891  -2.416   0.480  1.00  0.00     0.026 C 
ENDBRANCH   9  11
BRANCH   9  13
HETATM   13  C3  UNL     1      -3.565   0.844   1.252  1.00  0.00     0.151 C 
BRANCH  13  14
HETATM   14  C4  UNL     1      -4.376   1.101   0.042  1.00  0.00     0.109 C 
BRANCH  14  15
HETATM   15  N2  UNL     1      -5.034  -0.055  -0.507  1.00  0.00    -0.354 N 
HETATM   16  C5  UNL     1      -5.025  -0.386  -1.880  1.00  0.00     0.214 C 
HETATM   17  C6  UNL     1      -5.727  -1.591  -2.364  1.00  0.00     0.117 C 
HETATM   18  O1  UNL     1      -4.421   0.341  -2.692  1.00  0.00    -0.274 OA
ATOM     19  H2  UNL     1      -5.536  -0.671   0.132  1.00  0.00     0.162 HD
ENDBRANCH  14  15
BRANCH  14  20
HETATM   20  C7  UNL     1      -5.472   2.136   0.347  1.00  0.00    -0.029 C 
HETATM   21  C8  UNL     1      -6.378   1.630   1.432  1.00  0.00     0.016 C 
HETATM   22  C9  UNL     1      -4.850   3.464   0.726  1.00  0.00     0.016 C 
HETATM   23  C10 UNL     1      -6.261   2.353  -0.915  1.00  0.00     0.016 C 
ENDBRANCH  14  20
ENDBRANCH  13  14
ENDBRANCH   9  13
ENDBRANCH   1   8
BRANCH   6  24
HETATM   24  S1  UNL     1       3.082  -1.351  -0.623  1.00  0.00     0.262 S 
HETATM   25  O3  UNL     1       2.738  -2.545   0.216  1.00  0.00    -0.200 OA
HETATM   26  O4  UNL     1       2.461  -1.622  -1.989  1.00  0.00    -0.200 OA
BRANCH  24  27
HETATM   27  C17 UNL     1       4.784  -1.159  -0.845  1.00  0.00     0.091 A 
HETATM   28  C18 UNL     1       5.224  -0.481  -1.964  1.00  0.00    -0.038 A 
HETATM   29  C19 UNL     1       4.268   0.109  -2.962  1.00  0.00     0.050 C 
HETATM   30  C20 UNL     1       6.573  -0.337  -2.177  1.00  0.00     0.015 A 
HETATM   31  C21 UNL     1       7.512  -0.849  -1.308  1.00  0.00    -0.061 A 
HETATM   32  C22 UNL     1       8.963  -0.690  -1.542  1.00  0.00     0.048 C 
HETATM   33  C23 UNL     1       7.043  -1.520  -0.203  1.00  0.00     0.015 A 
HETATM   34  C24 UNL     1       5.674  -1.693   0.056  1.00  0.00    -0.038 A 
HETATM   35  C25 UNL     1       5.225  -2.458   1.244  1.00  0.00     0.050 C 
ENDBRANCH  24  27
ENDBRANCH   6  24
TORSDOF 8
