REMARK  17 active torsions:
REMARK  status: ('A' for Active; 'I' for Inactive)
REMARK    1  A    between atoms: C2_2  and  C3_4 
REMARK    2  A    between atoms: C3_4  and  C4_5 
REMARK    3  A    between atoms: C3_4  and  N1_8 
REMARK    4  A    between atoms: C4_5  and  O2_6 
REMARK    5  A    between atoms: N1_8  and  C5_10 
REMARK    6  A    between atoms: C5_10  and  C6_11 
REMARK    7  A    between atoms: C6_11  and  O3_12 
REMARK    8  A    between atoms: C6_11  and  O4_14 
REMARK    9  A    between atoms: O4_14  and  C7_15 
REMARK   10  A    between atoms: C8_16  and  N2_17 
REMARK   11  A    between atoms: C10_22  and  N3_23 
REMARK   12  A    between atoms: C11_27  and  O5_28 
REMARK   13  A    between atoms: C12_30  and  O6_31 
REMARK   14  A    between atoms: O6_31  and  C13_32 
REMARK   15  A    between atoms: C15_39  and  C16_40 
REMARK   16  A    between atoms: C17_42  and  N6_43 
REMARK   17  A    between atoms: C18_48  and  O7_49 
ROOT
HETATM    1  C7  UNL     1      -1.637   0.251  -2.529  1.00  0.00     0.187 C 
HETATM    2  C8  UNL     1      -2.821   0.099  -3.589  1.00  0.00     0.217 C 
HETATM    3  C9  UNL     1      -2.541  -1.079  -4.447  1.00  0.00     0.071 C 
HETATM    4  C10 UNL     1      -1.214  -1.116  -5.118  1.00  0.00     0.216 C 
HETATM    5  C11 UNL     1      -0.123  -0.890  -4.099  1.00  0.00     0.180 C 
HETATM    6  C12 UNL     1      -0.455   0.420  -3.397  1.00  0.00     0.192 C 
ENDROOT
BRANCH   6   7
HETATM    7  O6  UNL     1       0.637   1.117  -2.969  1.00  0.00    -0.324 OA
BRANCH   7   8
HETATM    8  C13 UNL     1       1.421   0.795  -1.910  1.00  0.00     0.168 A 
HETATM    9  N4  UNL     1       1.623  -0.297  -1.281  1.00  0.00    -0.336 N 
HETATM   10  C14 UNL     1       2.549   0.091  -0.307  1.00  0.00     0.344 A 
ATOM     11  H4  UNL     1       1.214  -1.217  -1.446  1.00  0.00     0.164 HD
HETATM   12  N5  UNL     1       2.230   0.237   1.080  1.00  0.00    -0.024 N 
HETATM   13  C19 UNL     1       2.364   1.438  -0.993  1.00  0.00     0.123 A 
HETATM   14  C15 UNL     1       3.027   1.319   1.672  1.00  0.00     0.345 C 
ATOM     15  H52 UNL     1       1.230   0.375   1.229  1.00  0.00     0.282 HD
ATOM     16  H51 UNL     1       2.338  -0.639   1.590  1.00  0.00     0.282 HD
HETATM   17  N8  UNL     1       3.846   1.990   0.647  1.00  0.00    -0.102 NA
HETATM   18  N9  UNL     1       3.077   2.387  -0.491  1.00  0.00    -0.298 N 
ATOM     19  H9  UNL     1       3.091   3.334  -0.870  1.00  0.00     0.182 HD
BRANCH  14  20
HETATM   20  C16 UNL     1       3.967   0.777   2.693  1.00  0.00     0.085 A 
HETATM   21  S1  UNL     1       4.972  -0.598   2.692  1.00  0.00    -0.051 SA
HETATM   22  C17 UNL     1       5.641  -0.424   4.248  1.00  0.00     0.144 A 
HETATM   23  N7  UNL     1       5.065   0.686   4.705  1.00  0.00    -0.317 N 
HETATM   24  C18 UNL     1       4.209   1.313   3.928  1.00  0.00     0.159 A 
ATOM     25  H7  UNL     1       5.283   1.042   5.636  1.00  0.00     0.170 HD
BRANCH  22  26
HETATM   26  N6  UNL     1       6.517  -1.189   4.872  1.00  0.00    -0.380 N 
ATOM     27  H62 UNL     1       6.958  -2.039   4.522  1.00  0.00     0.158 HD
ATOM     28  H61 UNL     1       6.918  -1.085   5.804  1.00  0.00     0.158 HD
ENDBRANCH  22  26
BRANCH  24  29
HETATM   29  O7  UNL     1       3.557   2.511   4.363  1.00  0.00    -0.345 OA
ATOM     30  H7  UNL     1       3.725   2.883   5.221  1.00  0.00     0.219 HD
ENDBRANCH  24  29
ENDBRANCH  14  20
ENDBRANCH   7   8
ENDBRANCH   6   7
BRANCH   1  31
HETATM   31  O4  UNL     1      -1.657  -0.916  -1.795  1.00  0.00    -0.347 OA
BRANCH  31  32
HETATM   32  C6  UNL     1      -2.243  -0.759  -0.515  1.00  0.00     0.297 C 
BRANCH  32  33
HETATM   33  C5  UNL     1      -1.535  -1.441   0.572  1.00  0.00     0.116 C 
BRANCH  33  34
HETATM   34  N1  UNL     1      -2.077  -1.599   1.827  1.00  0.00    -0.385 N 
ATOM     35  H1  UNL     1      -2.333  -2.555   2.073  1.00  0.00     0.159 HD
BRANCH  34  36
HETATM   36  C3  UNL     1      -2.323  -0.658   2.796  1.00  0.00     0.173 C 
BRANCH  36  37
HETATM   37  C2  UNL     1      -3.334   0.372   2.701  1.00  0.00     0.147 C 
HETATM   38  C1  UNL     1      -3.408   1.396   3.822  1.00  0.00     0.093 C 
HETATM   39  O1  UNL     1      -4.136   0.519   1.830  1.00  0.00    -0.296 OA
ENDBRANCH  36  37
BRANCH  36  40
HETATM   40  C4  UNL     1      -0.983   0.067   3.208  1.00  0.00     0.196 C 
BRANCH  40  41
HETATM   41  O2  UNL     1      -0.107  -0.875   3.692  1.00  0.00    -0.398 OA
ATOM     42  H2  UNL     1       0.700  -0.439   3.940  1.00  0.00     0.209 HD
ENDBRANCH  40  41
ENDBRANCH  36  40
ENDBRANCH  34  36
ENDBRANCH  33  34
ENDBRANCH  32  33
BRANCH  32  43
HETATM   43  O3  UNL     1      -3.474  -1.489  -0.696  1.00  0.00    -0.366 OA
ATOM     44  H3  UNL     1      -3.933  -1.047  -1.401  1.00  0.00     0.213 HD
ENDBRANCH  32  43
ENDBRANCH  31  32
ENDBRANCH   1  31
BRANCH   5  45
HETATM   45  O5  UNL     1      -0.129  -1.986  -3.248  1.00  0.00    -0.391 OA
ATOM     46  H5  UNL     1       0.557  -1.844  -2.607  1.00  0.00     0.210 HD
ENDBRANCH   5  45
BRANCH   2  47
HETATM   47  N2  UNL     1      -2.945   1.354  -4.259  1.00  0.00    -0.072 N 
ATOM     48  H23 UNL     1      -3.077   2.138  -3.620  1.00  0.00     0.274 HD
ATOM     49  H22 UNL     1      -2.071   1.673  -4.677  1.00  0.00     0.274 HD
ATOM     50  H21 UNL     1      -3.701   1.257  -4.936  1.00  0.00     0.274 HD
ENDBRANCH   2  47
BRANCH   4  51
HETATM   51  N3  UNL     1      -1.078  -2.409  -5.773  1.00  0.00    -0.072 N 
ATOM     52  H33 UNL     1      -1.220  -3.192  -5.135  1.00  0.00     0.274 HD
ATOM     53  H32 UNL     1      -1.848  -2.612  -6.410  1.00  0.00     0.274 HD
ATOM     54  H31 UNL     1      -0.168  -2.434  -6.233  1.00  0.00     0.274 HD
ENDBRANCH   4  51
TORSDOF 17
