REMARK  20 active torsions:
REMARK  status: ('A' for Active; 'I' for Inactive)
REMARK    1  A    between atoms: O1_2  and  C2_3 
REMARK    2  A    between atoms: C2_3  and  C3_5 
REMARK    3  A    between atoms: C3_5  and  O3_6 
REMARK    4  A    between atoms: C5_9  and  O4_10 
REMARK    5  A    between atoms: O4_10  and  C6_11 
REMARK    6  A    between atoms: C7_13  and  C8_14 
REMARK    7  A    between atoms: C7_13  and  C9_17 
REMARK    8  A    between atoms: C8_14  and  O6_15 
REMARK    9  A    between atoms: C9_17  and  O7_18 
REMARK   10  A    between atoms: C9_17  and  C10_20 
REMARK   11  A    between atoms: C10_20  and  O8_21 
REMARK   12  A    between atoms: C10_20  and  O9_23 
REMARK   13  A    between atoms: C11_26  and  C12_27 
REMARK   14  A    between atoms: C12_27  and  O11_28 
REMARK   15  A    between atoms: C12_27  and  O12_30 
REMARK   16  A    between atoms: C14_33  and  O13_34 
REMARK   17  A    between atoms: C15_36  and  O14_37 
REMARK   18  A    between atoms: C16_39  and  C17_40 
REMARK   19  A    between atoms: C17_40  and  O15_41 
REMARK   20  A    between atoms: C18_43  and  O16_44 
ROOT
HETATM    1  C3  UNL     1      -2.464   1.935  -0.312  1.00  0.00     0.170 A 
HETATM    2  C4  UNL     1      -1.288   1.380  -0.996  1.00  0.00     0.059 A 
HETATM    3  C5  UNL     1      -1.011   0.098  -1.089  1.00  0.00     0.085 A 
HETATM    4  C13 UNL     1      -1.898  -0.894  -0.488  1.00  0.00     0.042 A 
HETATM    5  C14 UNL     1      -1.580  -2.246  -0.613  1.00  0.00     0.113 A 
HETATM    6  C15 UNL     1      -2.430  -3.162  -0.050  1.00  0.00     0.111 A 
HETATM    7  C16 UNL     1      -3.565  -2.742   0.619  1.00  0.00     0.035 A 
HETATM    8  C18 UNL     1      -3.861  -1.429   0.734  1.00  0.00     0.084 A 
HETATM    9  C19 UNL     1      -3.009  -0.477   0.168  1.00  0.00    -0.005 A 
HETATM   10  C20 UNL     1      -3.351   0.947   0.315  1.00  0.00     0.095 A 
ENDROOT
BRANCH   3  11
HETATM   11  O4  UNL     1       0.123  -0.373  -1.753  1.00  0.00    -0.317 OA
BRANCH  11  12
HETATM   12  C6  UNL     1       1.360   0.109  -1.313  1.00  0.00     0.304 C 
HETATM   13  O5  UNL     1       1.606  -0.197   0.026  1.00  0.00    -0.317 OA
HETATM   14  C7  UNL     1       3.014  -0.109   0.167  1.00  0.00     0.220 C 
HETATM   15  O10 UNL     1       3.553  -0.140  -1.094  1.00  0.00    -0.336 OA
HETATM   16  C11 UNL     1       2.538  -0.540  -1.963  1.00  0.00     0.235 C 
BRANCH  14  17
HETATM   17  C8  UNL     1       3.514  -1.333   0.920  1.00  0.00     0.235 C 
BRANCH  17  18
HETATM   18  O6  UNL     1       3.174  -2.501   0.205  1.00  0.00    -0.395 OA
ATOM     19  H6  UNL     1       3.486  -3.265   0.675  1.00  0.00     0.209 HD
ENDBRANCH  17  18
ENDBRANCH  14  17
BRANCH  14  20
HETATM   20  C9  UNL     1       3.235   1.168   0.915  1.00  0.00     0.237 C 
BRANCH  20  21
HETATM   21  O7  UNL     1       2.598   1.089   2.143  1.00  0.00    -0.385 OA
ATOM     22  H7  UNL     1       2.738   1.900   2.618  1.00  0.00     0.210 HD
ENDBRANCH  20  21
BRANCH  20  23
HETATM   23  C10 UNL     1       4.635   1.653   0.990  1.00  0.00     0.287 C 
BRANCH  23  24
HETATM   24  O8  UNL     1       5.412   0.820   1.786  1.00  0.00    -0.369 OA
ATOM     25  H8  UNL     1       6.309   1.131   1.834  1.00  0.00     0.212 HD
ENDBRANCH  23  24
BRANCH  23  26
HETATM   26  O9  UNL     1       4.603   2.899   1.654  1.00  0.00    -0.369 OA
ATOM     27  H9  UNL     1       5.500   3.210   1.702  1.00  0.00     0.212 HD
ENDBRANCH  23  26
ENDBRANCH  20  23
ENDBRANCH  14  20
BRANCH  16  28
HETATM   28  C12 UNL     1       2.781  -0.060  -3.372  1.00  0.00     0.287 C 
BRANCH  28  29
HETATM   29  O11 UNL     1       1.709  -0.517  -4.146  1.00  0.00    -0.369 OA
ATOM     30  H11 UNL     1       1.862  -0.215  -5.034  1.00  0.00     0.212 HD
ENDBRANCH  28  29
BRANCH  28  31
HETATM   31  O12 UNL     1       3.930  -0.700  -3.835  1.00  0.00    -0.369 OA
ATOM     32  H12 UNL     1       4.083  -0.398  -4.723  1.00  0.00     0.212 HD
ENDBRANCH  28  31
ENDBRANCH  16  28
ENDBRANCH  11  12
ENDBRANCH   3  11
BRANCH   1  33
HETATM   33  C2  UNL     1      -2.044   2.920   0.750  1.00  0.00     0.297 C 
HETATM   34  O2  UNL     1      -1.414   2.487   1.737  1.00  0.00    -0.261 OA
BRANCH  33  35
HETATM   35  O1  UNL     1      -2.325   4.267   0.673  1.00  0.00    -0.324 OA
HETATM   36  C1  UNL     1      -1.885   5.107   1.723  1.00  0.00     0.213 C 
ENDBRANCH  33  35
ENDBRANCH   1  33
BRANCH   1  37
HETATM   37  O3  UNL     1      -3.162   2.668  -1.326  1.00  0.00    -0.375 OA
ATOM     38  H3  UNL     1      -3.427   2.048  -1.995  1.00  0.00     0.211 HD
ENDBRANCH   1  37
BRANCH   5  39
HETATM   39  O13 UNL     1      -0.426  -2.582  -1.299  1.00  0.00    -0.357 OA
ATOM     40  H13 UNL     1      -0.209  -3.503  -1.384  1.00  0.00     0.217 HD
ENDBRANCH   5  39
BRANCH   6  41
HETATM   41  O14 UNL     1      -2.170  -4.501  -0.141  1.00  0.00    -0.357 OA
ATOM     42  H14 UNL     1      -2.759  -5.136   0.249  1.00  0.00     0.217 HD
ENDBRANCH   6  41
BRANCH   8  43
HETATM   43  O16 UNL     1      -4.994  -1.000   1.401  1.00  0.00    -0.359 OA
ATOM     44  H16 UNL     1      -5.202  -0.077   1.482  1.00  0.00     0.217 HD
ENDBRANCH   8  43
BRANCH   7  45
HETATM   45  C17 UNL     1      -4.458  -3.775   1.215  1.00  0.00     0.208 C 
BRANCH  45  46
HETATM   46  O15 UNL     1      -5.524  -3.156   1.833  1.00  0.00    -0.396 OA
ATOM     47  H15 UNL     1      -6.093  -3.815   2.213  1.00  0.00     0.209 HD
ENDBRANCH  45  46
ENDBRANCH   7  45
TORSDOF 20
