REMARK  18 active torsions:
REMARK  status: ('A' for Active; 'I' for Inactive)
REMARK    1  A    between atoms: N1_1  and  C1_4 
REMARK    2  A    between atoms: N3_8  and  C3_9 
REMARK    3  A    between atoms: C3_9  and  C4_10 
REMARK    4  A    between atoms: C4_10  and  O1_11 
REMARK    5  A    between atoms: C4_10  and  C5_13 
REMARK    6  A    between atoms: C5_13  and  O2_14 
REMARK    7  A    between atoms: C5_13  and  C6_16 
REMARK    8  A    between atoms: C6_16  and  O4_18 
REMARK    9  A    between atoms: O4_18  and  C7_19 
REMARK   10  A    between atoms: C7_19  and  C8_20 
REMARK   11  A    between atoms: C7_19  and  C9_23 
REMARK   12  A    between atoms: C8_20  and  O5_21 
REMARK   13  A    between atoms: C13_28  and  O7_29 
REMARK   14  A    between atoms: C14_31  and  O8_32 
REMARK   15  A    between atoms: C17_36  and  O9_37 
REMARK   16  A    between atoms: C17_36  and  C18_39 
REMARK   17  A    between atoms: C18_39  and  O10_40 
REMARK   18  A    between atoms: C20_46  and  N6_47 
ROOT
HETATM    1  C6  UNL     1      -0.724  -0.207   0.686  1.00  0.00     0.290 C 
HETATM    2  O3  UNL     1      -0.461  -0.483   1.868  1.00  0.00    -0.262 OA
ENDROOT
BRANCH   1   3
HETATM    3  C5  UNL     1      -1.932  -0.680  -0.033  1.00  0.00     0.247 C 
BRANCH   3   4
HETATM    4  C4  UNL     1      -2.720   0.418  -0.649  1.00  0.00     0.175 C 
BRANCH   4   5
HETATM    5  C3  UNL     1      -3.864   0.017  -1.511  1.00  0.00     0.183 C 
BRANCH   5   6
HETATM    6  N3  UNL     1      -4.887  -0.780  -0.946  1.00  0.00    -0.173 N 
HETATM    7  C2  UNL     1      -5.990  -0.376  -0.296  1.00  0.00     0.736 A 
HETATM    8  N2  UNL     1      -6.469   0.832   0.045  1.00  0.00    -0.019 N 
HETATM    9  N5  UNL     1      -6.730  -1.455   0.066  1.00  0.00     0.092 N 
HETATM   10  C1  UNL     1      -7.625   1.002   0.712  1.00  0.00     0.705 A 
ATOM     11  H2  UNL     1      -5.931   1.659  -0.214  1.00  0.00     0.203 HD
HETATM   12  N7  UNL     1      -8.316  -0.102   1.044  1.00  0.00    -0.020 N 
HETATM   13  C20 UNL     1      -7.894  -1.334   0.735  1.00  0.00     0.727 A 
ATOM     14  H7  UNL     1      -9.195   0.003   1.551  1.00  0.00     0.203 HD
HETATM   15  N4  UNL     1      -6.070  -2.501  -0.368  1.00  0.00    -0.260 N 
HETATM   16  C19 UNL     1      -4.952  -2.120  -0.984  1.00  0.00     0.219 A 
ATOM     17  H4  UNL     1      -6.370  -3.469  -0.251  1.00  0.00     0.189 HD
BRANCH  10  18
HETATM   18  N1  UNL     1      -8.073   2.176   1.033  1.00  0.00    -0.234 N 
ATOM     19  H12 UNL     1      -7.549   3.014   0.781  1.00  0.00     0.174 HD
ATOM     20  H11 UNL     1      -8.949   2.305   1.539  1.00  0.00     0.174 HD
ENDBRANCH  10  18
BRANCH  13  21
HETATM   21  N6  UNL     1      -8.567  -2.404   1.058  1.00  0.00    -0.232 N 
ATOM     22  H62 UNL     1      -8.245  -3.343   0.823  1.00  0.00     0.174 HD
ATOM     23  H61 UNL     1      -9.448  -2.312   1.564  1.00  0.00     0.174 HD
ENDBRANCH  13  21
ENDBRANCH   5   6
ENDBRANCH   4   5
BRANCH   4  24
HETATM   24  O1  UNL     1      -1.893   1.198  -1.519  1.00  0.00    -0.391 OA
ATOM     25  H1  UNL     1      -1.162   1.454  -0.968  1.00  0.00     0.210 HD
ENDBRANCH   4  24
ENDBRANCH   3   4
BRANCH   3  26
HETATM   26  O2  UNL     1      -2.659  -1.454   0.856  1.00  0.00    -0.383 OA
ATOM     27  H2  UNL     1      -2.155  -2.156   1.250  1.00  0.00     0.210 HD
ENDBRANCH   3  26
ENDBRANCH   1   3
BRANCH   1  28
HETATM   28  O4  UNL     1       0.160   0.593  -0.016  1.00  0.00    -0.311 OA
BRANCH  28  29
HETATM   29  C7  UNL     1       1.384   1.085   0.663  1.00  0.00     0.165 C 
BRANCH  29  30
HETATM   30  C8  UNL     1       1.172   2.558   0.708  1.00  0.00     0.197 C 
BRANCH  30  31
HETATM   31  O5  UNL     1       2.081   3.329   1.383  1.00  0.00    -0.398 OA
ATOM     32  H5  UNL     1       1.946   4.269   1.412  1.00  0.00     0.209 HD
ENDBRANCH  30  31
ENDBRANCH  29  30
BRANCH  29  33
HETATM   33  C9  UNL     1       2.463   0.537  -0.199  1.00  0.00     0.083 C 
HETATM   34  C10 UNL     1       2.236  -0.993  -0.165  1.00  0.00     0.186 C 
HETATM   35  O6  UNL     1       3.259  -1.711  -0.806  1.00  0.00    -0.350 OA
HETATM   36  C11 UNL     1       4.543  -1.530  -0.273  1.00  0.00     0.081 A 
HETATM   37  C12 UNL     1       5.469  -2.539  -0.169  1.00  0.00     0.076 A 
HETATM   38  C16 UNL     1       4.819  -0.274   0.144  1.00  0.00     0.015 A 
HETATM   39  C13 UNL     1       6.729  -2.297   0.371  1.00  0.00     0.101 A 
HETATM   40  C14 UNL     1       7.025  -1.028   0.800  1.00  0.00     0.099 A 
HETATM   41  C15 UNL     1       6.056  -0.024   0.679  1.00  0.00     0.052 A 
HETATM   42  C17 UNL     1       3.866   0.899   0.037  1.00  0.00     0.117 C 
BRANCH  39  43
HETATM   43  O7  UNL     1       7.666  -3.307   0.479  1.00  0.00    -0.358 OA
ATOM     44  H7  UNL     1       8.526  -3.142   0.848  1.00  0.00     0.217 HD
ENDBRANCH  39  43
BRANCH  40  45
HETATM   45  O8  UNL     1       8.248  -0.720   1.344  1.00  0.00    -0.358 OA
ATOM     46  H8  UNL     1       8.453   0.159   1.641  1.00  0.00     0.217 HD
ENDBRANCH  40  45
BRANCH  42  47
HETATM   47  O9  UNL     1       4.139   1.638   1.183  1.00  0.00    -0.382 OA
ATOM     48  H9  UNL     1       5.047   1.872   1.336  1.00  0.00     0.211 HD
ENDBRANCH  42  47
BRANCH  42  49
HETATM   49  C18 UNL     1       4.430   1.674  -1.183  1.00  0.00     0.207 C 
BRANCH  49  50
HETATM   50  O10 UNL     1       3.869   2.920  -1.337  1.00  0.00    -0.398 OA
ATOM     51  H10 UNL     1       4.214   3.395  -2.084  1.00  0.00     0.209 HD
ENDBRANCH  49  50
ENDBRANCH  42  49
ENDBRANCH  29  33
ENDBRANCH  28  29
ENDBRANCH   1  28
TORSDOF 18
