REMARK  3 active torsions:
REMARK  status: ('A' for Active; 'I' for Inactive)
REMARK    1  A    between atoms: N1_2  and  S1_5 
REMARK    2  A    between atoms: S1_5  and  C3_8 
REMARK    3  A    between atoms: C5_12  and  C6_13 
ROOT
HETATM    1  C1  UNL     1      -2.828  -0.136   1.704  1.00  0.00     0.183 C 
HETATM    2  N1  UNL     1      -3.191   0.499   0.457  1.00  0.00    -0.212 N 
HETATM    3  C2  UNL     1      -4.456   0.282  -0.095  1.00  0.00     0.194 C 
HETATM    4  N2  UNL     1      -5.508   0.109  -0.552  1.00  0.00    -0.171 NA
ENDROOT
BRANCH   2   5
HETATM    5  S1  UNL     1      -2.052   1.508  -0.313  1.00  0.00     0.277 S 
HETATM    6  O1  UNL     1      -1.673   2.605   0.665  1.00  0.00    -0.199 OA
HETATM    7  O2  UNL     1      -2.590   2.175  -1.535  1.00  0.00    -0.199 OA
BRANCH   5   8
HETATM    8  C3  UNL     1      -0.586   0.582  -0.753  1.00  0.00     0.137 A 
HETATM    9  C4  UNL     1      -0.510  -0.038  -1.978  1.00  0.00     0.113 A 
HETATM   10  N3  UNL     1      -1.494  -0.054  -3.023  1.00  0.00    -0.093 NA
HETATM   11  S2  UNL     1       1.038  -0.766  -1.921  1.00  0.00    -0.069 SA
HETATM   12  C5  UNL     1       1.531  -0.270  -0.373  1.00  0.00     0.065 A 
HETATM   13  C8  UNL     1       0.461   0.462   0.070  1.00  0.00     0.091 A 
HETATM   14  N7  UNL     1       0.528   1.059   1.392  1.00  0.00    -0.099 NA
BRANCH  12  15
HETATM   15  C6  UNL     1       2.787  -0.558   0.311  1.00  0.00     0.121 A 
HETATM   16  N4  UNL     1       3.126  -0.136   1.546  1.00  0.00    -0.237 N 
HETATM   17  O3  UNL     1       4.314  -0.568   1.858  1.00  0.00    -0.155 OA
ATOM     18  H4  UNL     1       2.537   0.439   2.149  1.00  0.00     0.197 HD
HETATM   19  N5  UNL     1       4.801  -1.273   0.873  1.00  0.00    -0.224 N 
HETATM   20  C7  UNL     1       3.867  -1.284  -0.109  1.00  0.00     0.151 A 
ATOM     21  H5  UNL     1       5.713  -1.730   0.847  1.00  0.00     0.198 HD
HETATM   22  N6  UNL     1       4.038  -1.892  -1.214  1.00  0.00    -0.382 N 
ATOM     23  H62 UNL     1       3.335  -1.900  -1.953  1.00  0.00     0.157 HD
ATOM     24  H61 UNL     1       4.844  -2.434  -1.527  1.00  0.00     0.157 HD
ENDBRANCH  12  15
ENDBRANCH   5   8
ENDBRANCH   2   5
TORSDOF 3
