REMARK  6 active torsions:
REMARK  status: ('A' for Active; 'I' for Inactive)
REMARK    1  A    between atoms: O1_2  and  C2_3 
REMARK    2  A    between atoms: C2_3  and  C3_5 
REMARK    3  A    between atoms: C5_9  and  C6_10 
REMARK       I    between atoms: C6_10  and  N2_12 
REMARK    4  A    between atoms: N2_12  and  N3_14 
REMARK    5  A    between atoms: C9_20  and  C10_21 
REMARK    6  A    between atoms: C10_21  and  O5_23 
ROOT
HETATM    1  C3  UNL     1       1.712  -0.967  -0.536  1.00  0.00     0.183 A 
HETATM    2  N1  UNL     1       1.606   0.354  -0.382  1.00  0.00    -0.335 N 
ATOM      3  H1  UNL     1       2.377   1.015  -0.477  1.00  0.00     0.168 HD
HETATM    4  C4  UNL     1       0.333   0.693  -0.082  1.00  0.00     0.078 A 
HETATM    5  C5  UNL     1      -0.267   1.921   0.166  1.00  0.00     0.064 A 
HETATM    6  C7  UNL     1      -1.611   1.898   0.444  1.00  0.00     0.047 A 
HETATM    7  C8  UNL     1      -2.361   0.750   0.486  1.00  0.00     0.066 A 
HETATM    8  N4  UNL     1      -3.752   0.752   0.776  1.00  0.00    -0.101 NA
HETATM    9  C9  UNL     1      -1.732  -0.475   0.232  1.00  0.00     0.092 A 
HETATM   10  C12 UNL     1      -0.372  -0.480  -0.053  1.00  0.00     0.080 A 
HETATM   11  N5  UNL     1       0.492  -1.473  -0.332  1.00  0.00    -0.335 N 
ATOM     12  H5  UNL     1       0.252  -2.463  -0.381  1.00  0.00     0.168 HD
ENDROOT
BRANCH   5  13
HETATM   13  C6  UNL     1       0.525   3.138   0.122  1.00  0.00     0.272 C 
HETATM   14  O3  UNL     1       1.443   3.295  -0.705  1.00  0.00    -0.266 OA
HETATM   15  N2  UNL     1       0.239   4.167   1.049  1.00  0.00    -0.272 N 
ATOM     16  H2  UNL     1      -0.510   4.048   1.731  1.00  0.00     0.189 HD
BRANCH  15  17
HETATM   17  N3  UNL     1       0.977   5.332   1.028  1.00  0.00    -0.342 N 
ATOM     18  H32 UNL     1       1.723   5.435   0.340  1.00  0.00     0.176 HD
ATOM     19  H31 UNL     1       0.771   6.074   1.697  1.00  0.00     0.176 HD
ENDBRANCH  15  17
ENDBRANCH   5  13
BRANCH   1  20
HETATM   20  C2  UNL     1       2.945  -1.701  -0.867  1.00  0.00     0.327 C 
HETATM   21  O2  UNL     1       2.926  -2.953  -0.988  1.00  0.00    -0.256 OA
BRANCH  20  22
HETATM   22  O1  UNL     1       4.128  -1.040  -1.048  1.00  0.00    -0.320 OA
HETATM   23  C1  UNL     1       5.350  -1.669  -1.366  1.00  0.00     0.213 C 
ENDBRANCH  20  22
ENDBRANCH   1  20
BRANCH   9  24
HETATM   24  C10 UNL     1      -2.509  -1.705   0.271  1.00  0.00     0.297 C 
HETATM   25  O4  UNL     1      -3.743  -1.600   0.539  1.00  0.00    -0.259 OA
BRANCH  24  26
HETATM   26  O5  UNL     1      -2.032  -2.967   0.045  1.00  0.00    -0.322 OA
HETATM   27  C11 UNL     1      -2.828  -4.134   0.094  1.00  0.00     0.213 C 
ENDBRANCH  24  26
ENDBRANCH   9  24
TORSDOF 6
