REMARK  5 active torsions:
REMARK  status: ('A' for Active; 'I' for Inactive)
REMARK    1  A    between atoms: O1_2  and  C2_3 
REMARK    2  A    between atoms: C3_4  and  C4_5 
REMARK       I    between atoms: C4_5  and  N1_7 
REMARK    3  A    between atoms: N1_7  and  N2_9 
REMARK    4  A    between atoms: C6_15  and  C7_16 
REMARK    5  A    between atoms: C10_26  and  O3_27 
ROOT
HETATM    1  C2  UNL     1      -1.367  -0.773   0.017  1.00  0.00     0.129 A 
HETATM    2  C3  UNL     1      -1.421   0.595  -0.005  1.00  0.00     0.139 A 
HETATM    3  N3  UNL     1      -0.155   1.077  -0.160  1.00  0.00    -0.347 N 
ATOM      4  H3  UNL     1       0.116   2.059  -0.211  1.00  0.00     0.166 HD
HETATM    5  C5  UNL     1       0.655   0.037  -0.232  1.00  0.00     0.078 A 
HETATM    6  C6  UNL     1       2.042   0.034  -0.392  1.00  0.00     0.064 A 
HETATM    7  C8  UNL     1       2.732  -1.161  -0.447  1.00  0.00     0.111 A 
HETATM    8  C9  UNL     1       4.176  -1.187  -0.613  1.00  0.00     0.105 C 
HETATM    9  N8  UNL     1       5.324  -1.212  -0.764  1.00  0.00    -0.191 NA
HETATM   10  C10 UNL     1       1.995  -2.322  -0.339  1.00  0.00     0.163 A 
HETATM   11  N9  UNL     1       0.647  -2.285  -0.185  1.00  0.00    -0.332 N 
ATOM     12  H9  UNL     1       0.135  -3.164  -0.109  1.00  0.00     0.168 HD
HETATM   13  C11 UNL     1      -0.029  -1.140  -0.130  1.00  0.00     0.098 A 
ENDROOT
BRANCH   6  14
HETATM   14  C7  UNL     1       2.800   1.263  -0.503  1.00  0.00     0.145 A 
HETATM   15  N4  UNL     1       3.074   1.888  -1.659  1.00  0.00    -0.270 N 
HETATM   16  N5  UNL     1       3.785   2.984  -1.415  1.00  0.00    -0.007 NA
ATOM     17  H4  UNL     1       2.781   1.570  -2.583  1.00  0.00     0.185 HD
HETATM   18  N6  UNL     1       3.966   3.058  -0.109  1.00  0.00    -0.007 NA
HETATM   19  N7  UNL     1       3.368   2.013   0.450  1.00  0.00    -0.270 N 
ATOM     20  H7  UNL     1       3.345   1.812   1.450  1.00  0.00     0.185 HD
ENDBRANCH   6  14
BRANCH  10  21
HETATM   21  O3  UNL     1       2.656  -3.539  -0.391  1.00  0.00    -0.345 OA
ATOM     22  H3  UNL     1       2.148  -4.339  -0.317  1.00  0.00     0.219 HD
ENDBRANCH  10  21
BRANCH   2  23
HETATM   23  C4  UNL     1      -2.559   1.478   0.069  1.00  0.00     0.289 C 
HETATM   24  O2  UNL     1      -2.376   2.731   0.207  1.00  0.00    -0.264 OA
HETATM   25  N1  UNL     1      -3.897   1.027  -0.006  1.00  0.00    -0.271 N 
ATOM     26  H1  UNL     1      -4.092   0.032  -0.122  1.00  0.00     0.189 HD
BRANCH  25  27
HETATM   27  N2  UNL     1      -4.971   1.952   0.079  1.00  0.00    -0.342 N 
ATOM     28  H22 UNL     1      -4.759   2.943   0.195  1.00  0.00     0.176 HD
ATOM     29  H21 UNL     1      -5.936   1.627   0.025  1.00  0.00     0.176 HD
ENDBRANCH  25  27
ENDBRANCH   2  23
BRANCH   1  30
HETATM   30  O1  UNL     1      -2.377  -1.705   0.157  1.00  0.00    -0.351 OA
HETATM   31  C1  UNL     1      -2.744  -2.214   1.436  1.00  0.00     0.210 C 
ENDBRANCH   1  30
TORSDOF 5
