REMARK  3 active torsions:
REMARK  status: ('A' for Active; 'I' for Inactive)
REMARK       I    between atoms: C1_2  and  N2_4 
REMARK    1  A    between atoms: N2_4  and  N3_6 
REMARK    2  A    between atoms: C2_9  and  C3_10 
REMARK    3  A    between atoms: C4_16  and  N7_17 
ROOT
HETATM    1  C3  UNL     1       0.054   1.055   1.365  1.00  0.00     0.129 A 
HETATM    2  N5  UNL     1       0.443   1.960   2.252  1.00  0.00    -0.288 N 
ATOM      3  H5  UNL     1       1.344   2.425   2.139  1.00  0.00     0.188 HD
HETATM    4  N6  UNL     1      -0.301   2.254   3.246  1.00  0.00    -0.268 N 
ATOM      5  H6  UNL     1      -0.114   2.927   3.990  1.00  0.00     0.195 HD
HETATM    6  S1  UNL     1      -1.649   1.288   3.054  1.00  0.00     0.022 SA
HETATM    7  C4  UNL     1      -1.162   0.485   1.594  1.00  0.00     0.122 A 
ENDROOT
BRANCH   1   8
HETATM    8  C2  UNL     1       0.954   0.738   0.215  1.00  0.00     0.155 A 
HETATM    9  N4  UNL     1       2.173   1.303  -0.020  1.00  0.00    -0.259 N 
HETATM   10  N3  UNL     1       2.720   0.814  -1.114  1.00  0.00    -0.163 N 
ATOM     11  H4  UNL     1       2.605   2.011   0.574  1.00  0.00     0.191 HD
HETATM   12  C9  UNL     1       1.866  -0.081  -1.611  1.00  0.00     0.216 A 
HETATM   13  N9  UNL     1       0.784  -0.112  -0.778  1.00  0.00    -0.313 N 
HETATM   14  S2  UNL     1       2.109  -0.951  -2.965  1.00  0.00    -0.037 SA
ATOM     15  H9  UNL     1      -0.035  -0.706  -0.906  1.00  0.00     0.170 HD
BRANCH  10  16
HETATM   16  N2  UNL     1       3.957   1.131  -1.694  1.00  0.00    -0.230 N 
HETATM   17  C1  UNL     1       4.787   2.095  -1.084  1.00  0.00     0.348 C 
HETATM   18  N1  UNL     1       6.028   2.423  -1.651  1.00  0.00    -0.038 NA
HETATM   19  O1  UNL     1       4.416   2.657  -0.036  1.00  0.00    -0.249 OA
ATOM     20  H2  UNL     1       4.255   0.667  -2.552  1.00  0.00     0.193 HD
ENDBRANCH  10  16
ENDBRANCH   1   8
BRANCH   7  21
HETATM   21  N7  UNL     1      -1.915  -0.511   0.881  1.00  0.00    -0.369 N 
HETATM   22  C5  UNL     1      -1.749  -1.924   1.213  1.00  0.00     0.151 C 
HETATM   23  C6  UNL     1      -3.065  -2.669   1.062  1.00  0.00     0.252 C 
HETATM   24  N8  UNL     1      -3.773  -2.325  -0.132  1.00  0.00    -0.072 N 
HETATM   25  C7  UNL     1      -4.092  -0.917  -0.168  1.00  0.00     0.252 C 
ATOM     26  H82 UNL     1      -3.262  -2.614  -0.966  1.00  0.00     0.277 HD
ATOM     27  H81 UNL     1      -4.607  -2.900  -0.251  1.00  0.00     0.277 HD
HETATM   28  C8  UNL     1      -2.846  -0.054  -0.128  1.00  0.00     0.151 C 
ENDBRANCH   7  21
TORSDOF 3
