REMARK  8 active torsions:
REMARK  status: ('A' for Active; 'I' for Inactive)
REMARK    1  A    between atoms: C2_2  and  C3_3 
REMARK    2  A    between atoms: C2_2  and  C11_17 
REMARK    3  A    between atoms: C3_3  and  C4_4 
REMARK    4  A    between atoms: C4_4  and  C5_5 
REMARK    5  A    between atoms: C5_5  and  N1_6 
REMARK    6  A    between atoms: C5_5  and  C6_10 
REMARK    7  A    between atoms: C6_10  and  C8_12 
REMARK    8  A    between atoms: C8_12  and  O1_13 
ROOT
HETATM    1  C11 UNL     1      -0.527   0.573  -0.479  1.00  0.00    -0.002 C 
HETATM    2  C12 UNL     1      -0.095  -0.457  -1.502  1.00  0.00     0.006 C 
HETATM    3  C13 UNL     1       0.449  -1.560  -0.677  1.00  0.00     0.006 C 
HETATM    4  C14 UNL     1       1.424  -0.767   0.183  1.00  0.00    -0.001 C 
HETATM    5  C15 UNL     1       2.758  -0.640  -0.459  1.00  0.00     0.002 C 
HETATM    6  C16 UNL     1       3.433  -2.013  -0.335  1.00  0.00     0.084 C 
HETATM    7  C17 UNL     1       4.898  -1.833  -0.126  1.00  0.00     0.132 C 
HETATM    8  O2  UNL     1       5.479  -2.574   0.618  1.00  0.00    -0.298 OA
HETATM    9  C18 UNL     1       5.534  -0.714  -0.882  1.00  0.00     0.071 C 
HETATM   10  C19 UNL     1       7.037  -0.777  -0.823  1.00  0.00     0.091 C 
HETATM   11  C20 UNL     1       7.598  -0.281   0.429  1.00  0.00     0.127 C 
HETATM   12  O3  UNL     1       8.755  -0.488   0.713  1.00  0.00    -0.298 OA
HETATM   13  C21 UNL     1       6.750   0.487   1.369  1.00  0.00     0.079 C 
HETATM   14  C22 UNL     1       5.821   1.337   0.557  1.00  0.00     0.017 C 
HETATM   15  C23 UNL     1       4.951   0.568  -0.395  1.00  0.00    -0.029 C 
HETATM   16  C24 UNL     1       4.770   1.469  -1.626  1.00  0.00     0.016 C 
HETATM   17  C25 UNL     1       3.627   0.329   0.304  1.00  0.00    -0.001 C 
HETATM   18  C26 UNL     1       2.972   1.652   0.523  1.00  0.00     0.006 C 
HETATM   19  C27 UNL     1       1.593   1.712  -0.095  1.00  0.00     0.010 C 
HETATM   20  C28 UNL     1       0.708   0.573   0.388  1.00  0.00    -0.036 C 
HETATM   21  C29 UNL     1       0.539   0.726   1.850  1.00  0.00     0.016 C 
ENDROOT
BRANCH   1  22
HETATM   22  C2  UNL     1      -1.802   0.225   0.212  1.00  0.00    -0.014 C 
HETATM   23  C1  UNL     1      -2.234   1.317   1.117  1.00  0.00     0.010 C 
BRANCH  22  24
HETATM   24  C3  UNL     1      -2.883  -0.363  -0.599  1.00  0.00     0.007 C 
BRANCH  24  25
HETATM   25  C4  UNL     1      -4.016  -1.019   0.063  1.00  0.00     0.033 C 
BRANCH  25  26
HETATM   26  C5  UNL     1      -5.026  -0.356   0.868  1.00  0.00     0.190 C 
BRANCH  26  27
HETATM   27  N1  UNL     1      -5.911  -1.467   1.379  1.00  0.00    -0.075 N 
ATOM     28  H13 UNL     1      -6.294  -2.061   0.644  1.00  0.00     0.274 HD
ATOM     29  H12 UNL     1      -5.406  -2.203   1.873  1.00  0.00     0.274 HD
ATOM     30  H11 UNL     1      -6.621  -1.001   1.945  1.00  0.00     0.274 HD
ENDBRANCH  26  27
BRANCH  26  31
HETATM   31  C6  UNL     1      -5.872   0.708   0.323  1.00  0.00     0.046 C 
HETATM   32  C7  UNL     1      -6.820   1.128   1.485  1.00  0.00     0.015 C 
BRANCH  31  33
HETATM   33  C8  UNL     1      -6.683   0.600  -0.870  1.00  0.00     0.063 A 
HETATM   34  C9  UNL     1      -7.637  -0.564  -1.026  1.00  0.00     0.041 A 
HETATM   35  C10 UNL     1      -6.573  -0.210  -2.055  1.00  0.00     0.041 A 
BRANCH  33  36
HETATM   36  O1  UNL     1      -7.388   1.847  -1.104  1.00  0.00    -0.389 OA
ATOM     37  H1  UNL     1      -7.921   1.776  -1.887  1.00  0.00     0.210 HD
ENDBRANCH  33  36
ENDBRANCH  31  33
ENDBRANCH  26  31
ENDBRANCH  25  26
ENDBRANCH  24  25
ENDBRANCH  22  24
ENDBRANCH   1  22
TORSDOF 8
