REMARK  6 active torsions:
REMARK  status: ('A' for Active; 'I' for Inactive)
REMARK    1  A    between atoms: O1_2  and  N1_3 
REMARK       I    between atoms: N1_3  and  C2_5 
REMARK    2  A    between atoms: C2_5  and  C3_7 
REMARK    3  A    between atoms: C3_7  and  C4_8 
REMARK    4  A    between atoms: C4_8  and  C5_9 
REMARK    5  A    between atoms: C5_9  and  C7_11 
REMARK    6  A    between atoms: C19_24  and  O4_25 
ROOT
HETATM    1  C7  UNL     1       2.741   1.143   0.732  1.00  0.00    -0.002 C 
HETATM    2  C8  UNL     1       2.977   1.373   2.254  1.00  0.00     0.006 C 
HETATM    3  C9  UNL     1       1.631   1.861   2.767  1.00  0.00     0.006 C 
HETATM    4  C10 UNL     1       0.783   0.978   1.970  1.00  0.00     0.006 C 
HETATM    5  C11 UNL     1      -0.641   1.234   1.817  1.00  0.00     0.069 C 
HETATM    6  C12 UNL     1      -1.322   0.323   2.807  1.00  0.00     0.132 C 
HETATM    7  O3  UNL     1      -1.692   0.675   3.885  1.00  0.00    -0.298 OA
HETATM    8  C13 UNL     1      -1.419  -1.002   2.195  1.00  0.00     0.084 C 
HETATM    9  C14 UNL     1      -1.636  -0.663   0.745  1.00  0.00     0.010 C 
HETATM   10  C15 UNL     1      -3.091  -0.743   0.385  1.00  0.00    -0.035 C 
HETATM   11  C16 UNL     1      -3.459  -2.233   0.539  1.00  0.00     0.016 C 
HETATM   12  C17 UNL     1      -3.959  -0.031   1.364  1.00  0.00     0.012 C 
HETATM   13  C18 UNL     1      -5.410  -0.014   0.927  1.00  0.00     0.033 C 
HETATM   14  C19 UNL     1      -5.467   0.729  -0.362  1.00  0.00     0.126 C 
HETATM   15  C20 UNL     1      -4.711  -0.012  -1.409  1.00  0.00    -0.017 C 
HETATM   16  C21 UNL     1      -5.508  -1.260  -1.822  1.00  0.00     0.018 C 
HETATM   17  C22 UNL     1      -4.758   0.869  -2.663  1.00  0.00     0.018 C 
HETATM   18  C23 UNL     1      -3.302  -0.372  -1.051  1.00  0.00     0.004 C 
HETATM   19  C24 UNL     1      -2.274   0.589  -1.568  1.00  0.00     0.007 C 
HETATM   20  C25 UNL     1      -1.709   1.510  -0.474  1.00  0.00     0.011 C 
HETATM   21  C26 UNL     1      -0.951   0.644   0.461  1.00  0.00    -0.024 C 
HETATM   22  C27 UNL     1       0.437   0.415  -0.189  1.00  0.00     0.020 C 
HETATM   23  C28 UNL     1       1.332   1.291   0.564  1.00  0.00    -0.035 C 
HETATM   24  C29 UNL     1       1.089   2.779   0.262  1.00  0.00     0.016 C 
ENDROOT
BRANCH   1  25
HETATM   25  C5  UNL     1       3.560  -0.031   0.288  1.00  0.00    -0.013 C 
HETATM   26  C6  UNL     1       4.966   0.300   0.740  1.00  0.00     0.010 C 
BRANCH  25  27
HETATM   27  C4  UNL     1       3.425  -0.273  -1.161  1.00  0.00     0.014 C 
BRANCH  27  28
HETATM   28  C3  UNL     1       4.216  -1.351  -1.801  1.00  0.00     0.105 C 
BRANCH  28  29
HETATM   29  C2  UNL     1       5.641  -1.044  -1.948  1.00  0.00     0.241 C 
HETATM   30  N1  UNL     1       6.662  -2.033  -1.943  1.00  0.00    -0.235 N 
ATOM     31  H1  UNL     1       6.421  -3.017  -1.828  1.00  0.00     0.197 HD
HETATM   32  O2  UNL     1       5.987   0.173  -2.089  1.00  0.00    -0.271 OA
BRANCH  30  33
HETATM   33  O1  UNL     1       7.937  -1.667  -2.090  1.00  0.00    -0.283 OA
HETATM   34  C1  UNL     1       8.715  -1.687  -0.964  1.00  0.00     0.237 C 
ENDBRANCH  30  33
ENDBRANCH  28  29
ENDBRANCH  27  28
ENDBRANCH  25  27
ENDBRANCH   1  25
BRANCH  14  35
HETATM   35  O4  UNL     1      -6.765   0.901  -0.809  1.00  0.00    -0.395 OA
ATOM     36  H4  UNL     1      -6.801   1.375  -1.631  1.00  0.00     0.210 HD
ENDBRANCH  14  35
TORSDOF 6
