REMARK  12 active torsions:
REMARK  status: ('A' for Active; 'I' for Inactive)
REMARK    1  A    between atoms: N2_3  and  C2_5 
REMARK    2  A    between atoms: C2_5  and  N3_6 
REMARK    3  A    between atoms: C2_5  and  C3_10 
REMARK    4  A    between atoms: C3_10  and  N8_30 
REMARK    5  A    between atoms: N4_11  and  N5_13 
REMARK    6  A    between atoms: N5_13  and  C4_15 
REMARK    7  A    between atoms: C7_18  and  C8_19 
REMARK    8  A    between atoms: C8_19  and  N6_20 
REMARK    9  A    between atoms: C8_19  and  N7_24 
REMARK   10  A    between atoms: N8_30  and  N9_32 
REMARK   11  A    between atoms: C11_34  and  C12_35 
REMARK   12  A    between atoms: C14_39  and  N11_40 
ROOT
HETATM    1  N1  UNL     1       0.557  -4.944  -1.541  1.00  0.00    -0.172 NA
HETATM    2  C1  UNL     1      -0.152  -4.312  -0.845  1.00  0.00     0.179 C 
HETATM    3  N2  UNL     1      -0.998  -3.593  -0.019  1.00  0.00    -0.293 N 
ATOM      4  H2  UNL     1      -1.974  -3.880   0.056  1.00  0.00     0.174 HD
ENDROOT
BRANCH   3   5
HETATM    5  C2  UNL     1      -0.553  -2.465   0.731  1.00  0.00     0.361 C 
BRANCH   5   6
HETATM    6  N3  UNL     1       0.485  -2.920   1.657  1.00  0.00    -0.051 N 
ATOM      7  H33 UNL     1       0.176  -3.691   2.249  1.00  0.00     0.277 HD
ATOM      8  H32 UNL     1       1.248  -3.407   1.187  1.00  0.00     0.277 HD
ATOM      9  H31 UNL     1       0.803  -2.113   2.194  1.00  0.00     0.277 HD
ENDBRANCH   5   6
BRANCH   5  10
HETATM   10  C3  UNL     1      -0.081  -1.321  -0.049  1.00  0.00     0.162 C 
HETATM   11  N4  UNL     1      -0.686  -0.188   0.067  1.00  0.00    -0.284 N 
ATOM     12  H4  UNL     1      -0.368   0.618  -0.472  1.00  0.00     0.188 HD
BRANCH  11  13
HETATM   13  N5  UNL     1      -1.760  -0.066   0.917  1.00  0.00    -0.299 N 
ATOM     14  H5  UNL     1      -1.591  -0.169   1.918  1.00  0.00     0.187 HD
BRANCH  13  15
HETATM   15  C4  UNL     1      -3.091   0.195   0.491  1.00  0.00     0.048 A 
HETATM   16  C5  UNL     1      -3.403   0.348  -0.830  1.00  0.00     0.031 A 
HETATM   17  C6  UNL     1      -4.717   0.603  -1.204  1.00  0.00     0.013 A 
HETATM   18  C7  UNL     1      -5.736   0.709  -0.267  1.00  0.00    -0.001 A 
HETATM   19  C9  UNL     1      -5.410   0.552   1.063  1.00  0.00     0.013 A 
HETATM   20  C10 UNL     1      -4.102   0.301   1.405  1.00  0.00     0.031 A 
BRANCH  18  21
HETATM   21  C8  UNL     1      -7.137   0.980  -0.650  1.00  0.00     0.411 C 
BRANCH  21  22
HETATM   22  N6  UNL     1      -7.749   2.000   0.198  1.00  0.00    -0.046 N 
ATOM     23  H63 UNL     1      -7.676   1.753   1.185  1.00  0.00     0.277 HD
ATOM     24  H62 UNL     1      -7.195   2.856   0.205  1.00  0.00     0.277 HD
ATOM     25  H61 UNL     1      -8.716   2.187  -0.066  1.00  0.00     0.277 HD
ENDBRANCH  21  22
BRANCH  21  26
HETATM   26  N7  UNL     1      -7.979  -0.188  -0.625  1.00  0.00    -0.046 N 
ATOM     27  H73 UNL     1      -7.584  -0.929  -1.204  1.00  0.00     0.277 HD
ATOM     28  H72 UNL     1      -7.936  -0.643   0.287  1.00  0.00     0.277 HD
ATOM     29  H71 UNL     1      -8.946  -0.001  -0.889  1.00  0.00     0.277 HD
ENDBRANCH  21  26
ENDBRANCH  18  21
ENDBRANCH  13  15
ENDBRANCH  11  13
BRANCH  10  30
HETATM   30  N8  UNL     1       1.013  -1.336  -0.951  1.00  0.00    -0.285 N 
ATOM     31  H8  UNL     1       1.011  -1.971  -1.750  1.00  0.00     0.188 HD
BRANCH  30  32
HETATM   32  N9  UNL     1       2.085  -0.482  -0.740  1.00  0.00    -0.306 N 
HETATM   33  C11 UNL     1       3.229  -0.903  -0.385  1.00  0.00     0.163 C 
ATOM     34  H9  UNL     1       1.950   0.520  -0.875  1.00  0.00     0.186 HD
BRANCH  33  35
HETATM   35  C12 UNL     1       4.314   0.078  -0.183  1.00  0.00     0.165 A 
HETATM   36  N10 UNL     1       5.576  -0.177   0.191  1.00  0.00    -0.331 N 
HETATM   37  C13 UNL     1       6.234   0.990   0.257  1.00  0.00     0.102 A 
ATOM     38  H10 UNL     1       5.967  -1.098   0.390  1.00  0.00     0.168 HD
HETATM   39  C14 UNL     1       7.530   1.354   0.579  1.00  0.00     0.132 A 
HETATM   40  C18 UNL     1       5.351   1.989  -0.087  1.00  0.00     0.107 A 
HETATM   41  C15 UNL     1       7.956   2.671   0.565  1.00  0.00     0.038 A 
HETATM   42  C16 UNL     1       7.067   3.662   0.220  1.00  0.00     0.005 A 
HETATM   43  C17 UNL     1       5.768   3.316  -0.104  1.00  0.00     0.040 A 
HETATM   44  O3  UNL     1       4.227   1.375  -0.337  1.00  0.00    -0.290 OA
BRANCH  39  45
HETATM   45  N11 UNL     1       8.471   0.361   0.939  1.00  0.00    -0.113 N 
HETATM   46  O1  UNL     1       9.423   0.644   1.689  1.00  0.00    -0.532 OA
HETATM   47  O2  UNL     1       8.324  -0.903   0.459  1.00  0.00    -0.532 OA
ENDBRANCH  39  45
ENDBRANCH  33  35
ENDBRANCH  30  32
ENDBRANCH  10  30
ENDBRANCH   5  10
ENDBRANCH   3   5
TORSDOF 12
