REMARK  11 active torsions:
REMARK  status: ('A' for Active; 'I' for Inactive)
REMARK    1  A    between atoms: O1_3  and  C2_4 
REMARK    2  A    between atoms: C2_4  and  C3_6 
REMARK    3  A    between atoms: C3_6  and  C11_20 
REMARK    4  A    between atoms: C4_7  and  C5_8 
REMARK    5  A    between atoms: C7_10  and  N2_11 
REMARK    6  A    between atoms: C9_15  and  N3_16 
REMARK    7  A    between atoms: C11_20  and  O7_21 
REMARK    8  A    between atoms: C11_20  and  C12_23 
REMARK    9  A    between atoms: C13_24  and  C14_25 
REMARK   10  A    between atoms: C16_30  and  N6_31 
REMARK   11  A    between atoms: C17_36  and  N8_37 
ROOT
HETATM    1  N1  UNL     1       3.139   4.547  -1.715  1.00  0.00    -0.163 NA
HETATM    2  C1  UNL     1       2.307   3.741  -1.661  1.00  0.00     0.237 C 
HETATM    3  O1  UNL     1       1.322   2.786  -1.569  1.00  0.00    -0.200 OA
ENDROOT
BRANCH   3   4
HETATM    4  C2  UNL     1       0.338   2.810  -0.599  1.00  0.00     0.306 C 
HETATM    5  O2  UNL     1       0.360   3.756   0.230  1.00  0.00    -0.258 OA
BRANCH   4   6
HETATM    6  C3  UNL     1      -0.661   1.758  -0.580  1.00  0.00     0.051 C 
HETATM    7  C4  UNL     1      -1.588   1.770   0.327  1.00  0.00     0.027 C 
BRANCH   7   8
HETATM    8  C5  UNL     1      -2.672   0.850   0.552  1.00  0.00    -0.031 A 
HETATM    9  C6  UNL     1      -3.966   1.338   0.789  1.00  0.00     0.047 A 
HETATM   10  C7  UNL     1      -5.025   0.475   1.030  1.00  0.00     0.106 A 
HETATM   11  C8  UNL     1      -4.846  -0.890   1.045  1.00  0.00     0.072 A 
HETATM   12  C9  UNL     1      -3.580  -1.378   0.814  1.00  0.00     0.106 A 
HETATM   13  C10 UNL     1      -2.506  -0.507   0.570  1.00  0.00     0.047 A 
BRANCH  10  14
HETATM   14  N2  UNL     1      -6.324   0.995   1.267  1.00  0.00    -0.116 N 
HETATM   15  O3  UNL     1      -6.499   2.242   1.259  1.00  0.00    -0.532 OA
HETATM   16  O4  UNL     1      -7.350   0.135   1.496  1.00  0.00    -0.532 OA
ENDBRANCH  10  14
BRANCH  12  17
HETATM   17  N3  UNL     1      -3.324  -2.786   0.814  1.00  0.00    -0.116 N 
HETATM   18  O5  UNL     1      -4.274  -3.571   1.025  1.00  0.00    -0.532 OA
HETATM   19  O6  UNL     1      -2.064  -3.280   0.586  1.00  0.00    -0.532 OA
ENDBRANCH  12  17
ENDBRANCH   7   8
BRANCH   6  20
HETATM   20  C11 UNL     1      -0.597   0.724  -1.618  1.00  0.00     0.180 C 
BRANCH  20  21
HETATM   21  O7  UNL     1      -0.529   1.440  -2.855  1.00  0.00    -0.387 OA
ATOM     22  H7  UNL     1      -0.488   0.770  -3.527  1.00  0.00     0.210 HD
ENDBRANCH  20  21
BRANCH  20  23
HETATM   23  C12 UNL     1       0.702  -0.059  -1.572  1.00  0.00     0.010 C 
HETATM   24  C13 UNL     1       1.388  -0.131  -0.476  1.00  0.00     0.017 C 
BRANCH  24  25
HETATM   25  C14 UNL     1       2.622  -0.788  -0.157  1.00  0.00     0.050 A 
HETATM   26  C15 UNL     1       3.158  -0.654   1.136  1.00  0.00     0.145 A 
HETATM   27  N4  UNL     1       2.466   0.142   2.105  1.00  0.00    -0.081 NA
HETATM   28  N5  UNL     1       4.305  -1.269   1.440  1.00  0.00    -0.178 N 
HETATM   29  C16 UNL     1       4.975  -2.017   0.550  1.00  0.00     0.678 A 
ATOM     30  H5  UNL     1       4.684  -1.166   2.381  1.00  0.00     0.185 HD
HETATM   31  N7  UNL     1       4.471  -2.147  -0.677  1.00  0.00    -0.176 N 
HETATM   32  C17 UNL     1       3.308  -1.555  -1.068  1.00  0.00     0.128 A 
ATOM     33  H7  UNL     1       4.979  -2.716  -1.354  1.00  0.00     0.186 HD
BRANCH  29  34
HETATM   34  N6  UNL     1       6.083  -2.612   0.848  1.00  0.00    -0.234 N 
ATOM     35  H62 UNL     1       6.469  -2.513   1.787  1.00  0.00     0.174 HD
ATOM     36  H61 UNL     1       6.592  -3.181   0.171  1.00  0.00     0.174 HD
ENDBRANCH  29  34
BRANCH  32  37
HETATM   37  N8  UNL     1       2.908  -1.754  -2.265  1.00  0.00    -0.384 N 
ATOM     38  H82 UNL     1       2.037  -1.311  -2.558  1.00  0.00     0.157 HD
ATOM     39  H81 UNL     1       3.417  -2.323  -2.941  1.00  0.00     0.157 HD
ENDBRANCH  32  37
ENDBRANCH  24  25
ENDBRANCH  20  23
ENDBRANCH   6  20
ENDBRANCH   4   6
ENDBRANCH   3   4
TORSDOF 11
