REMARK  10 active torsions:
REMARK  status: ('A' for Active; 'I' for Inactive)
REMARK       I    between atoms: N1_2  and  C2_4 
REMARK    1  A    between atoms: C2_4  and  C3_6 
REMARK    2  A    between atoms: C5_8  and  C6_9 
REMARK    3  A    between atoms: C6_9  and  N2_10 
REMARK    4  A    between atoms: C7_13  and  N3_14 
REMARK    5  A    between atoms: C8_19  and  N5_20 
REMARK    6  A    between atoms: N5_20  and  N6_22 
REMARK    7  A    between atoms: N6_22  and  C9_24 
REMARK    8  A    between atoms: C10_25  and  N7_26 
REMARK    9  A    between atoms: C12_30  and  N8_31 
REMARK   10  A    between atoms: C14_35  and  N9_36 
ROOT
HETATM    1  N2  UNL     1      -4.407   3.900   0.324  1.00  0.00    -0.296 NA
HETATM    2  O2  UNL     1      -4.223   5.147   0.406  1.00  0.00    -0.219 OA
ATOM      3  H2  UNL     1      -4.238   6.094   0.482  1.00  0.00     0.261 HD
ENDROOT
BRANCH   1   4
HETATM    4  C6  UNL     1      -4.389   2.728   0.230  1.00  0.00     0.233 C 
BRANCH   4   5
HETATM    5  C5  UNL     1      -3.184   1.888   0.055  1.00  0.00     0.040 A 
HETATM    6  C4  UNL     1      -3.315   0.500  -0.042  1.00  0.00     0.038 A 
HETATM    7  C3  UNL     1      -2.193  -0.322  -0.210  1.00  0.00     0.078 A 
HETATM    8  C8  UNL     1      -0.952   0.245  -0.278  1.00  0.00     0.137 A 
HETATM    9  N4  UNL     1      -0.847   1.575  -0.183  1.00  0.00    -0.326 N 
HETATM   10  C7  UNL     1      -1.921   2.404  -0.020  1.00  0.00     0.113 A 
ATOM     11  H4  UNL     1       0.082   1.992  -0.235  1.00  0.00     0.169 HD
BRANCH   7  12
HETATM   12  C2  UNL     1      -2.421  -1.756  -0.328  1.00  0.00     0.255 C 
HETATM   13  N1  UNL     1      -3.699  -2.359  -0.247  1.00  0.00    -0.361 N 
HETATM   14  C1  UNL     1      -3.799  -3.811  -0.380  1.00  0.00     0.149 C 
ATOM     15  H1  UNL     1      -4.533  -1.792  -0.099  1.00  0.00     0.162 HD
HETATM   16  O1  UNL     1      -1.402  -2.483  -0.512  1.00  0.00    -0.268 OA
ENDBRANCH   7  12
BRANCH   8  17
HETATM   17  N5  UNL     1       0.210  -0.516  -0.449  1.00  0.00    -0.284 N 
ATOM     18  H5  UNL     1       0.488  -0.673  -1.418  1.00  0.00     0.188 HD
BRANCH  17  19
HETATM   19  N6  UNL     1       1.040  -1.088   0.503  1.00  0.00    -0.294 N 
ATOM     20  H6  UNL     1       0.672  -1.683   1.245  1.00  0.00     0.187 HD
BRANCH  19  21
HETATM   21  C9  UNL     1       2.447  -0.801   0.392  1.00  0.00     0.114 A 
HETATM   22  C10 UNL     1       3.184  -1.316  -0.666  1.00  0.00     0.135 A 
HETATM   23  C11 UNL     1       4.535  -0.956  -0.791  1.00  0.00     0.074 A 
HETATM   24  C12 UNL     1       5.125  -0.117   0.112  1.00  0.00     0.107 A 
HETATM   25  C13 UNL     1       4.383   0.378   1.154  1.00  0.00     0.074 A 
HETATM   26  C14 UNL     1       3.024   0.038   1.310  1.00  0.00     0.135 A 
BRANCH  22  27
HETATM   27  N7  UNL     1       2.623  -2.216  -1.601  1.00  0.00    -0.113 N 
HETATM   28  O3  UNL     1       1.790  -3.054  -1.261  1.00  0.00    -0.532 OA
HETATM   29  O4  UNL     1       3.050  -2.195  -2.900  1.00  0.00    -0.532 OA
ENDBRANCH  22  27
BRANCH  24  30
HETATM   30  N8  UNL     1       6.505   0.254  -0.017  1.00  0.00    -0.116 N 
HETATM   31  O5  UNL     1       7.155  -0.209  -0.975  1.00  0.00    -0.532 OA
HETATM   32  O6  UNL     1       7.092   1.096   0.889  1.00  0.00    -0.532 OA
ENDBRANCH  24  30
BRANCH  26  33
HETATM   33  N9  UNL     1       2.332   0.517   2.433  1.00  0.00    -0.113 N 
HETATM   34  O7  UNL     1       3.079   0.743   3.461  1.00  0.00    -0.532 OA
HETATM   35  O8  UNL     1       1.026   0.769   2.605  1.00  0.00    -0.532 OA
ENDBRANCH  26  33
ENDBRANCH  19  21
ENDBRANCH  17  19
ENDBRANCH   8  17
BRANCH  10  36
HETATM   36  N3  UNL     1      -1.740   3.676   0.065  1.00  0.00    -0.385 N 
ATOM     37  H32 UNL     1      -2.542   4.295   0.187  1.00  0.00     0.157 HD
ATOM     38  H31 UNL     1      -0.797   4.061   0.009  1.00  0.00     0.157 HD
ENDBRANCH  10  36
ENDBRANCH   4   5
ENDBRANCH   1   4
TORSDOF 10
