REMARK  11 active torsions:
REMARK  status: ('A' for Active; 'I' for Inactive)
REMARK    1  A    between atoms: O1_1  and  C1_3 
REMARK    2  A    between atoms: N1_5  and  C3_6 
REMARK    3  A    between atoms: C3_6  and  C4_7 
REMARK    4  A    between atoms: C4_7  and  C5_8 
REMARK    5  A    between atoms: C5_8  and  O2_9 
REMARK    6  A    between atoms: O2_9  and  C6_10 
REMARK    7  A    between atoms: C6_10  and  C7_11 
REMARK    8  A    between atoms: C8_12  and  C9_13 
REMARK    9  A    between atoms: C9_13  and  C10_14 
REMARK   10  A    between atoms: C12_16  and  O3_17 
REMARK   11  A    between atoms: C13_19  and  O4_20 
ROOT
HETATM    1  O2  UNL     1      -0.638  -0.744  -1.180  1.00  0.00    -0.387 OA
ENDROOT
BRANCH   1   2
HETATM    2  C5  UNL     1      -1.603   0.075  -0.711  1.00  0.00     0.169 C 
BRANCH   2   3
HETATM    3  C4  UNL     1      -2.559  -0.618   0.218  1.00  0.00     0.056 C 
BRANCH   3   4
HETATM    4  C3  UNL     1      -3.590   0.411   0.624  1.00  0.00     0.274 C 
BRANCH   4   5
HETATM    5  N1  UNL     1      -4.259   0.918  -0.533  1.00  0.00     0.094 N 
HETATM    6  C2  UNL     1      -5.221   1.968  -0.152  1.00  0.00     0.333 C 
HETATM    7  C1  UNL     1      -6.622   1.429  -0.092  1.00  0.00     0.347 C 
HETATM    8  N2  UNL     1      -6.703   0.090   0.402  1.00  0.00    -0.046 N 
HETATM    9  C16 UNL     1      -5.891  -0.856  -0.341  1.00  0.00     0.265 C 
ATOM     10  H22 UNL     1      -6.474   0.058   1.395  1.00  0.00     0.280 HD
ATOM     11  H21 UNL     1      -7.674  -0.221   0.441  1.00  0.00     0.280 HD
HETATM   12  C15 UNL     1      -4.919  -0.119  -1.256  1.00  0.00     0.300 C 
BRANCH   7  13
HETATM   13  O1  UNL     1      -7.371   2.252   0.722  1.00  0.00    -0.368 OA
ATOM     14  H1  UNL     1      -8.257   1.911   0.760  1.00  0.00     0.212 HD
ENDBRANCH   7  13
ENDBRANCH   4   5
ENDBRANCH   3   4
ENDBRANCH   2   3
ENDBRANCH   1   2
BRANCH   1  15
HETATM   15  C6  UNL     1       0.147  -1.264  -0.162  1.00  0.00     0.194 C 
BRANCH  15  16
HETATM   16  C7  UNL     1       1.214  -2.114  -0.744  1.00  0.00    -0.005 C 
HETATM   17  C8  UNL     1       2.503  -1.954  -0.631  1.00  0.00    -0.026 C 
BRANCH  17  18
HETATM   18  C9  UNL     1       3.131  -0.868   0.119  1.00  0.00     0.059 C 
BRANCH  18  19
HETATM   19  C10 UNL     1       4.017   0.011  -0.741  1.00  0.00     0.127 C 
HETATM   20  C11 UNL     1       4.598   1.085   0.154  1.00  0.00     0.066 C 
HETATM   21  C12 UNL     1       6.054   1.247  -0.240  1.00  0.00     0.151 C 
HETATM   22  C13 UNL     1       6.752  -0.064   0.124  1.00  0.00     0.170 C 
HETATM   23  C14 UNL     1       6.002  -1.171  -0.586  1.00  0.00     0.202 C 
HETATM   24  O5  UNL     1       5.001  -0.685  -1.400  1.00  0.00    -0.383 OA
BRANCH  21  25
HETATM   25  O3  UNL     1       6.637   2.320   0.426  1.00  0.00    -0.393 OA
ATOM     26  H3  UNL     1       7.549   2.421   0.179  1.00  0.00     0.210 HD
ENDBRANCH  21  25
BRANCH  22  27
HETATM   27  O4  UNL     1       8.073  -0.002  -0.291  1.00  0.00    -0.391 OA
ATOM     28  H4  UNL     1       8.507  -0.816  -0.065  1.00  0.00     0.210 HD
ENDBRANCH  22  27
ENDBRANCH  18  19
ENDBRANCH  17  18
ENDBRANCH  15  16
ENDBRANCH   1  15
TORSDOF 11
