REMARK  12 active torsions:
REMARK  status: ('A' for Active; 'I' for Inactive)
REMARK    1  A    between atoms: C2_2  and  C3_3 
REMARK    2  A    between atoms: C3_3  and  N1_4 
REMARK    3  A    between atoms: N1_4  and  C4_6 
REMARK    4  A    between atoms: C5_9  and  N3_10 
REMARK    5  A    between atoms: N3_10  and  C6_12 
REMARK    6  A    between atoms: C6_12  and  C7_13 
REMARK    7  A    between atoms: C7_13  and  C8_14 
REMARK    8  A    between atoms: C8_14  and  C9_15 
REMARK    9  A    between atoms: C9_15  and  N4_16 
REMARK   10  A    between atoms: C10_22  and  N6_23 
REMARK   11  A    between atoms: N6_23  and  C11_25 
REMARK   12  A    between atoms: C11_25  and  C12_26 
ROOT
HETATM    1  C4  UNL     1      -0.893   2.489   0.445  1.00  0.00     0.707 A 
HETATM    2  N2  UNL     1       0.438   2.295   0.470  1.00  0.00    -0.022 N 
ATOM      3  H2  UNL     1       1.048   3.110   0.538  1.00  0.00     0.203 HD
HETATM    4  C5  UNL     1       0.999   1.079   0.410  1.00  0.00     0.707 A 
HETATM    5  N5  UNL     1       0.164   0.029   0.322  1.00  0.00    -0.022 N 
ATOM      6  H5  UNL     1       0.545  -0.916   0.274  1.00  0.00     0.203 HD
HETATM    7  C10 UNL     1      -1.174   0.212   0.296  1.00  0.00     0.707 A 
HETATM    8  N10 UNL     1      -1.729   1.440   0.357  1.00  0.00    -0.022 N 
ATOM      9  H10 UNL     1      -2.741   1.567   0.337  1.00  0.00     0.203 HD
ENDROOT
BRANCH   7  10
HETATM   10  N6  UNL     1      -1.988  -0.797   0.211  1.00  0.00    -0.218 N 
ATOM     11  H6  UNL     1      -2.998  -0.656   0.191  1.00  0.00     0.178 HD
BRANCH  10  12
HETATM   12  C11 UNL     1      -1.420  -2.127   0.145  1.00  0.00     0.216 C 
BRANCH  12  13
HETATM   13  C12 UNL     1      -2.533  -3.100   0.208  1.00  0.00     0.115 A 
HETATM   14  N7  UNL     1      -3.044  -3.635   1.317  1.00  0.00    -0.338 N 
HETATM   15  C13 UNL     1      -4.035  -4.467   0.943  1.00  0.00     0.201 A 
ATOM     16  H7  UNL     1      -2.740  -3.449   2.273  1.00  0.00     0.168 HD
HETATM   17  N8  UNL     1      -4.115  -4.426  -0.405  1.00  0.00    -0.291 N 
HETATM   18  C14 UNL     1      -5.021  -5.143  -1.278  1.00  0.00     0.178 C 
HETATM   19  N9  UNL     1      -3.186  -3.580  -0.865  1.00  0.00    -0.285 N 
ATOM     20  H9  UNL     1      -3.008  -3.345  -1.841  1.00  0.00     0.188 HD
ENDBRANCH  12  13
ENDBRANCH  10  12
ENDBRANCH   7  10
BRANCH   4  21
HETATM   21  N3  UNL     1       2.289   0.913   0.435  1.00  0.00    -0.225 N 
ATOM     22  H3  UNL     1       2.912   1.718   0.501  1.00  0.00     0.177 HD
BRANCH  21  23
HETATM   23  C6  UNL     1       2.840  -0.455   0.366  1.00  0.00     0.138 C 
BRANCH  23  24
HETATM   24  C7  UNL     1       4.317  -0.446   0.576  1.00  0.00     0.022 C 
BRANCH  24  25
HETATM   25  C8  UNL     1       4.875  -1.839   0.518  1.00  0.00     0.029 C 
BRANCH  25  26
HETATM   26  C9  UNL     1       4.600  -2.447  -0.825  1.00  0.00     0.229 C 
BRANCH  26  27
HETATM   27  N4  UNL     1       5.200  -1.650  -1.882  1.00  0.00    -0.079 N 
ATOM     28  H43 UNL     1       4.899  -0.676  -1.839  1.00  0.00     0.274 HD
ATOM     29  H42 UNL     1       6.198  -1.508  -1.728  1.00  0.00     0.274 HD
ATOM     30  H41 UNL     1       5.013  -2.064  -2.795  1.00  0.00     0.274 HD
ENDBRANCH  26  27
ENDBRANCH  25  26
ENDBRANCH  24  25
ENDBRANCH  23  24
ENDBRANCH  21  23
ENDBRANCH   4  21
BRANCH   1  31
HETATM   31  N1  UNL     1      -1.437   3.656   0.502  1.00  0.00    -0.225 N 
ATOM     32  H1  UNL     1      -2.455   3.713   0.477  1.00  0.00     0.177 HD
BRANCH  31  33
HETATM   33  C3  UNL     1      -0.693   4.883   0.599  1.00  0.00     0.137 C 
BRANCH  33  34
HETATM   34  C2  UNL     1      -1.498   6.081   0.154  1.00  0.00     0.016 C 
HETATM   35  C1  UNL     1      -2.742   6.268   0.982  1.00  0.00     0.006 C 
ENDBRANCH  33  34
ENDBRANCH  31  33
ENDBRANCH   1  31
TORSDOF 12
