REMARK  10 active torsions:
REMARK  status: ('A' for Active; 'I' for Inactive)
REMARK    1  A    between atoms: N1_1  and  C1_5 
REMARK    2  A    between atoms: C1_5  and  C2_6 
REMARK    3  A    between atoms: C2_6  and  C3_7 
REMARK    4  A    between atoms: C4_8  and  C5_9 
REMARK    5  A    between atoms: N2_10  and  C6_12 
REMARK    6  A    between atoms: C6_12  and  C7_13 
REMARK    7  A    between atoms: C7_13  and  C8_14 
REMARK    8  A    between atoms: C8_14  and  N3_15 
REMARK    9  A    between atoms: N3_15  and  C9_18 
REMARK   10  A    between atoms: C16_30  and  O1_31 
ROOT
HETATM    1  N3  UNL     1      -0.361   0.198   1.208  1.00  0.00    -0.043 N 
ATOM      2  H31 UNL     1       0.181   1.034   0.989  1.00  0.00     0.279 HD
ATOM      3  H32 UNL     1      -0.861   0.546   2.026  1.00  0.00     0.279 HD
ENDROOT
BRANCH   1   4
HETATM    4  C8  UNL     1       0.475  -0.892   1.535  1.00  0.00     0.236 C 
BRANCH   4   5
HETATM    5  C7  UNL     1       1.506  -1.278   0.527  1.00  0.00     0.047 C 
BRANCH   5   6
HETATM    6  C6  UNL     1       2.463  -0.124   0.249  1.00  0.00     0.120 C 
BRANCH   6   7
HETATM    7  N2  UNL     1       3.125   0.287   1.466  1.00  0.00    -0.399 N 
HETATM    8  C5  UNL     1       4.317   0.708   1.578  1.00  0.00     0.082 C 
ATOM      9  H2  UNL     1       2.577   0.233   2.325  1.00  0.00     0.158 HD
BRANCH   8  10
HETATM   10  C4  UNL     1       5.273   0.867   0.489  1.00  0.00     0.013 C 
HETATM   11  C3  UNL     1       6.486   1.315   0.731  1.00  0.00    -0.024 C 
BRANCH  11  12
HETATM   12  C2  UNL     1       7.441   1.469  -0.390  1.00  0.00     0.054 C 
BRANCH  12  13
HETATM   13  C1  UNL     1       8.670   0.604  -0.162  1.00  0.00     0.233 C 
BRANCH  13  14
HETATM   14  N1  UNL     1       9.555   0.809  -1.293  1.00  0.00    -0.079 N 
ATOM     15  H13 UNL     1       9.104   0.633  -2.191  1.00  0.00     0.274 HD
ATOM     16  H12 UNL     1       9.781   1.791  -1.450  1.00  0.00     0.274 HD
ATOM     17  H11 UNL     1      10.380   0.229  -1.140  1.00  0.00     0.274 HD
ENDBRANCH  13  14
ENDBRANCH  12  13
ENDBRANCH  11  12
ENDBRANCH   8  10
ENDBRANCH   6   7
ENDBRANCH   5   6
ENDBRANCH   4   5
ENDBRANCH   1   4
BRANCH   1  18
HETATM   18  C9  UNL     1      -1.274  -0.146   0.130  1.00  0.00     0.411 C 
HETATM   19  N4  UNL     1      -2.197   0.933  -0.132  1.00  0.00    -0.037 N 
HETATM   20  C10 UNL     1      -3.271   0.295  -0.850  1.00  0.00     0.225 C 
ATOM     21  H42 UNL     1      -2.492   1.447   0.698  1.00  0.00     0.280 HD
ATOM     22  H41 UNL     1      -1.785   1.733  -0.613  1.00  0.00     0.280 HD
HETATM   23  C11 UNL     1      -4.534   1.097  -0.615  1.00  0.00     0.308 C 
HETATM   24  C15 UNL     1      -3.349  -1.119  -0.396  1.00  0.00     0.079 C 
HETATM   25  N5  UNL     1      -5.623   0.689  -1.444  1.00  0.00     0.120 N 
HETATM   26  C12 UNL     1      -6.866   0.823  -0.664  1.00  0.00     0.304 C 
HETATM   27  C17 UNL     1      -5.651  -0.742  -1.710  1.00  0.00     0.542 C 
HETATM   28  C13 UNL     1      -6.722  -0.344   0.271  1.00  0.00     0.304 C 
HETATM   29  N6  UNL     1      -5.813  -1.281  -0.397  1.00  0.00     0.118 N 
HETATM   30  C14 UNL     1      -4.617  -1.468   0.351  1.00  0.00     0.284 C 
HETATM   31  C16 UNL     1      -2.195  -1.264   0.557  1.00  0.00     0.184 C 
BRANCH  31  32
HETATM   32  O1  UNL     1      -2.553  -1.058   1.885  1.00  0.00    -0.391 OA
ATOM     33  H1  UNL     1      -3.132  -1.761   2.154  1.00  0.00     0.210 HD
ENDBRANCH  31  32
ENDBRANCH   1  18
TORSDOF 10
