REMARK  12 active torsions:
REMARK  status: ('A' for Active; 'I' for Inactive)
REMARK    1  A    between atoms: O1_1  and  C1_3 
REMARK    2  A    between atoms: C1_3  and  C2_4 
REMARK    3  A    between atoms: C2_4  and  C3_5 
REMARK    4  A    between atoms: C3_5  and  N1_6 
REMARK    5  A    between atoms: C6_9  and  C7_10 
REMARK    6  A    between atoms: C7_10  and  O2_11 
REMARK    7  A    between atoms: O2_11  and  C8_12 
REMARK    8  A    between atoms: C8_12  and  C9_13 
REMARK    9  A    between atoms: C9_13  and  N2_14 
REMARK   10  A    between atoms: C11_16  and  O3_17 
REMARK   11  A    between atoms: C12_19  and  O4_20 
REMARK   12  A    between atoms: C13_22  and  O5_23 
ROOT
HETATM    1  C8  UNL     1      -1.253   1.321   0.049  1.00  0.00     0.198 C 
ENDROOT
BRANCH   1   2
HETATM    2  O2  UNL     1      -0.814   0.408   0.985  1.00  0.00    -0.389 OA
BRANCH   2   3
HETATM    3  C7  UNL     1      -0.084  -0.639   0.514  1.00  0.00     0.172 C 
BRANCH   3   4
HETATM    4  C6  UNL     1       1.238  -0.258  -0.133  1.00  0.00     0.012 C 
HETATM    5  C5  UNL     1       2.153   0.434   0.808  1.00  0.00     0.026 C 
HETATM    6  C4  UNL     1       3.552   0.526   0.178  1.00  0.00     0.122 C 
HETATM    7  N1  UNL     1       4.100  -0.718  -0.108  1.00  0.00    -0.393 N 
HETATM    8  C16 UNL     1       3.209  -1.833  -0.053  1.00  0.00     0.122 C 
HETATM    9  C15 UNL     1       1.862  -1.500  -0.677  1.00  0.00     0.026 C 
BRANCH   7  10
HETATM   10  C3  UNL     1       5.369  -1.038   0.395  1.00  0.00     0.060 C 
BRANCH  10  11
HETATM   11  C2  UNL     1       6.575  -0.387  -0.163  1.00  0.00     0.070 C 
BRANCH  11  12
HETATM   12  C1  UNL     1       6.755   1.069  -0.023  1.00  0.00     0.169 C 
BRANCH  12  13
HETATM   13  O1  UNL     1       6.841   1.496   1.309  1.00  0.00    -0.401 OA
ATOM     14  H1  UNL     1       6.957   2.435   1.399  1.00  0.00     0.209 HD
ENDBRANCH  12  13
ENDBRANCH  11  12
ENDBRANCH  10  11
ENDBRANCH   7  10
ENDBRANCH   3   4
ENDBRANCH   2   3
ENDBRANCH   1   2
BRANCH   1  15
HETATM   15  C9  UNL     1      -2.179   0.704  -0.974  1.00  0.00     0.298 C 
BRANCH  15  16
HETATM   16  N2  UNL     1      -3.369   0.117  -0.406  1.00  0.00     0.095 N 
HETATM   17  C10 UNL     1      -4.112  -0.545  -1.477  1.00  0.00     0.306 C 
HETATM   18  C11 UNL     1      -5.375  -1.180  -0.921  1.00  0.00     0.177 C 
HETATM   19  C12 UNL     1      -6.249  -0.067  -0.373  1.00  0.00     0.179 C 
HETATM   20  C13 UNL     1      -5.519   0.710   0.667  1.00  0.00     0.177 C 
HETATM   21  C14 UNL     1      -4.192   1.175   0.152  1.00  0.00     0.306 C 
BRANCH  18  22
HETATM   22  O3  UNL     1      -5.100  -2.133   0.031  1.00  0.00    -0.391 OA
ATOM     23  H3  UNL     1      -5.890  -2.530   0.379  1.00  0.00     0.210 HD
ENDBRANCH  18  22
BRANCH  19  24
HETATM   24  O4  UNL     1      -7.394  -0.676   0.163  1.00  0.00    -0.390 OA
ATOM     25  H4  UNL     1      -7.941   0.021   0.506  1.00  0.00     0.210 HD
ENDBRANCH  19  24
BRANCH  20  26
HETATM   26  O5  UNL     1      -6.274   1.874   0.923  1.00  0.00    -0.391 OA
ATOM     27  H5  UNL     1      -5.808   2.370   1.586  1.00  0.00     0.210 HD
ENDBRANCH  20  26
ENDBRANCH  15  16
ENDBRANCH   1  15
TORSDOF 12
