REMARK  10 active torsions:
REMARK  status: ('A' for Active; 'I' for Inactive)
REMARK    1  A    between atoms: N1_1  and  N2_4 
REMARK    2  A    between atoms: N2_4  and  C1_6 
REMARK    3  A    between atoms: C1_6  and  C2_7 
REMARK    4  A    between atoms: C2_7  and  C3_8 
REMARK    5  A    between atoms: C3_8  and  N3_9 
REMARK    6  A    between atoms: N3_9  and  C4_11 
REMARK    7  A    between atoms: C4_11  and  C5_12 
REMARK    8  A    between atoms: C6_13  and  N4_14 
REMARK       I    between atoms: N4_14  and  C7_16 
REMARK       I    between atoms: C7_16  and  N5_17 
REMARK       I    between atoms: C7_16  and  N6_20 
REMARK    9  A    between atoms: N6_20  and  N7_22 
REMARK   10  A    between atoms: C11_32  and  C12_33 
ROOT
HETATM    1  C5  UNL     1      -0.470   0.871  -0.093  1.00  0.00     0.060 C 
HETATM    2  C6  UNL     1       0.967   0.411  -0.175  1.00  0.00     0.109 C 
HETATM    3  C9  UNL     1       1.844   1.613  -0.029  1.00  0.00     0.027 C 
HETATM    4  C10 UNL     1       0.909   2.617   0.617  1.00  0.00     0.016 C 
HETATM    5  C11 UNL     1      -0.344   2.371  -0.235  1.00  0.00     0.086 C 
ENDROOT
BRANCH   2   6
HETATM    6  N4  UNL     1       1.236  -0.213  -1.460  1.00  0.00    -0.220 N 
HETATM    7  C7  UNL     1       2.523  -0.728  -1.770  1.00  0.00     0.688 C 
HETATM    8  N5  UNL     1       2.629  -1.541  -2.762  1.00  0.00    -0.234 N 
HETATM    9  N6  UNL     1       3.678  -0.364  -1.012  1.00  0.00    -0.109 N 
ATOM     10  H52 UNL     1       1.804  -1.801  -3.303  1.00  0.00     0.174 HD
ATOM     11  H51 UNL     1       3.553  -1.911  -2.985  1.00  0.00     0.174 HD
ATOM     12  H6  UNL     1       4.168   0.508  -1.211  1.00  0.00     0.208 HD
ATOM     13  H4  UNL     1       0.488  -0.282  -2.150  1.00  0.00     0.178 HD
BRANCH   9  14
HETATM   14  N7  UNL     1       4.132  -1.206   0.001  1.00  0.00    -0.161 N 
HETATM   15  C8  UNL     1       5.190  -1.031   0.812  1.00  0.00     0.246 A 
HETATM   16  N8  UNL     1       5.250  -2.092   1.636  1.00  0.00    -0.277 N 
HETATM   17  N9  UNL     1       4.250  -2.914   1.347  1.00  0.00    -0.226 N 
ATOM     18  H8  UNL     1       5.949  -2.240   2.364  1.00  0.00     0.189 HD
HETATM   19  N10 UNL     1       3.594  -2.356   0.361  1.00  0.00    -0.205 N 
ATOM     20  H9  UNL     1       4.035  -3.802   1.801  1.00  0.00     0.210 HD
ATOM     21  H10 UNL     1       2.767  -2.761  -0.076  1.00  0.00     0.212 HD
ENDBRANCH   9  14
ENDBRANCH   2   6
BRANCH   1  22
HETATM   22  C4  UNL     1      -1.088   0.455   1.175  1.00  0.00     0.067 C 
BRANCH  22  23
HETATM   23  N3  UNL     1      -2.088  -0.303   1.311  1.00  0.00    -0.382 N 
ATOM     24  H3  UNL     1      -2.387  -0.489   2.268  1.00  0.00     0.164 HD
BRANCH  23  25
HETATM   25  C3  UNL     1      -2.839  -0.921   0.292  1.00  0.00     0.061 C 
BRANCH  25  26
HETATM   26  C2  UNL     1      -3.515  -2.198   0.735  1.00  0.00     0.065 C 
BRANCH  26  27
HETATM   27  C1  UNL     1      -4.305  -2.801  -0.427  1.00  0.00     0.144 C 
BRANCH  27  28
HETATM   28  N2  UNL     1      -5.312  -1.888  -0.888  1.00  0.00    -0.343 N 
ATOM     29  H2  UNL     1      -5.753  -1.272  -0.205  1.00  0.00     0.179 HD
BRANCH  28  30
HETATM   30  N1  UNL     1      -5.675  -1.807  -2.072  1.00  0.00    -0.349 N 
ATOM     31  H12 UNL     1      -5.223  -2.430  -2.741  1.00  0.00     0.176 HD
ATOM     32  H11 UNL     1      -6.391  -1.158  -2.400  1.00  0.00     0.176 HD
ENDBRANCH  28  30
ENDBRANCH  27  28
ENDBRANCH  26  27
ENDBRANCH  25  26
ENDBRANCH  23  25
ENDBRANCH  22  23
ENDBRANCH   1  22
BRANCH   5  33
HETATM   33  C12 UNL     1      -1.500   3.117   0.224  1.00  0.00     0.236 C 
HETATM   34  N11 UNL     1      -1.927   3.022   1.565  1.00  0.00    -0.062 NA
HETATM   35  O1  UNL     1      -2.137   3.857  -0.559  1.00  0.00    -0.276 OA
ENDBRANCH   5  33
TORSDOF 10
