REMARK  10 active torsions:
REMARK  status: ('A' for Active; 'I' for Inactive)
REMARK    1  A    between atoms: C4_4  and  O1_5 
REMARK    2  A    between atoms: C5_7  and  O2_8 
REMARK    3  A    between atoms: C6_10  and  O3_11 
REMARK    4  A    between atoms: C7_13  and  O4_14 
REMARK    5  A    between atoms: N1_17  and  C9_18 
REMARK    6  A    between atoms: C9_18  and  C10_19 
REMARK    7  A    between atoms: C10_19  and  C11_20 
REMARK    8  A    between atoms: C11_20  and  C12_21 
REMARK    9  A    between atoms: C12_21  and  C13_22 
REMARK   10  A    between atoms: C13_22  and  C14_23 
ROOT
HETATM    1  C1  UNL     1      -0.066  -0.208  -3.146  1.00  0.00     0.014 C 
HETATM    2  C2  UNL     1      -0.810   0.117  -2.248  1.00  0.00    -0.089 C 
HETATM    3  C3  UNL     1      -1.729   0.510  -1.183  1.00  0.00     0.193 C 
HETATM    4  C4  UNL     1      -3.111   0.090  -1.609  1.00  0.00     0.184 C 
HETATM    5  C5  UNL     1      -4.199   0.427  -0.652  1.00  0.00     0.181 C 
HETATM    6  C6  UNL     1      -3.946   0.038   0.765  1.00  0.00     0.179 C 
HETATM    7  C7  UNL     1      -3.199  -1.248   0.928  1.00  0.00     0.167 C 
HETATM    8  C8  UNL     1      -1.762  -1.194   0.532  1.00  0.00     0.157 C 
HETATM    9  N1  UNL     1      -1.320   0.073   0.072  1.00  0.00    -0.373 N 
ENDROOT
BRANCH   4  10
HETATM   10  O1  UNL     1      -3.127  -1.244  -1.980  1.00  0.00    -0.390 OA
ATOM     11  H1  UNL     1      -3.999  -1.509  -2.249  1.00  0.00     0.210 HD
ENDBRANCH   4  10
BRANCH   9  12
HETATM   12  C9  UNL     1      -0.367   0.755   0.815  1.00  0.00     0.059 C 
BRANCH  12  13
HETATM   13  C10 UNL     1       1.047   0.784   0.380  1.00  0.00     0.044 C 
BRANCH  13  14
HETATM   14  C11 UNL     1       1.729  -0.539   0.290  1.00  0.00     0.005 C 
BRANCH  14  15
HETATM   15  C12 UNL     1       3.163  -0.422  -0.167  1.00  0.00     0.000 C 
BRANCH  15  16
HETATM   16  C13 UNL     1       3.966   0.423   0.801  1.00  0.00    -0.000 C 
BRANCH  16  17
HETATM   17  C14 UNL     1       5.404   0.554   0.352  1.00  0.00    -0.005 C 
HETATM   18  C15 UNL     1       6.123  -0.763   0.237  1.00  0.00     0.005 C 
ENDBRANCH  16  17
ENDBRANCH  15  16
ENDBRANCH  14  15
ENDBRANCH  13  14
ENDBRANCH  12  13
ENDBRANCH   9  12
BRANCH   5  19
HETATM   19  O2  UNL     1      -4.513   1.761  -0.775  1.00  0.00    -0.390 OA
ATOM     20  H2  UNL     1      -5.208   1.976  -0.164  1.00  0.00     0.210 HD
ENDBRANCH   5  19
BRANCH   6  21
HETATM   21  O3  UNL     1      -3.404   1.077   1.505  1.00  0.00    -0.390 OA
ATOM     22  H3  UNL     1      -3.243   0.829   2.408  1.00  0.00     0.210 HD
ENDBRANCH   6  21
BRANCH   7  23
HETATM   23  O4  UNL     1      -3.306  -1.638   2.286  1.00  0.00    -0.391 OA
ATOM     24  H4  UNL     1      -2.832  -2.455   2.390  1.00  0.00     0.210 HD
ENDBRANCH   7  23
TORSDOF 10
