REMARK  10 active torsions:
REMARK  status: ('A' for Active; 'I' for Inactive)
REMARK    1  A    between atoms: C2_2  and  C3_3 
REMARK    2  A    between atoms: C3_3  and  C4_4 
REMARK    3  A    between atoms: C4_4  and  C5_5 
REMARK    4  A    between atoms: C5_5  and  C6_6 
REMARK    5  A    between atoms: C6_6  and  N1_7 
REMARK    6  A    between atoms: N1_7  and  C7_9 
REMARK    7  A    between atoms: C8_12  and  N3_13 
REMARK    8  A    between atoms: C10_18  and  N5_19 
REMARK    9  A    between atoms: N5_19  and  C11_21 
REMARK   10  A    between atoms: C11_21  and  O1_22 
ROOT
HETATM    1  C7  UNL     1      -0.464  -0.269  -0.124  1.00  0.00     0.707 A 
HETATM    2  N2  UNL     1      -1.006  -1.421   0.335  1.00  0.00    -0.022 N 
ATOM      3  H2  UNL     1      -0.405  -2.207   0.582  1.00  0.00     0.203 HD
HETATM    4  C8  UNL     1      -2.337  -1.523   0.463  1.00  0.00     0.706 A 
HETATM    5  N4  UNL     1      -3.145  -0.491   0.138  1.00  0.00    -0.021 N 
ATOM      6  H4  UNL     1      -4.155  -0.590   0.241  1.00  0.00     0.203 HD
HETATM    7  C10 UNL     1      -2.635   0.666  -0.320  1.00  0.00     0.711 A 
HETATM    8  N6  UNL     1      -1.302   0.762  -0.445  1.00  0.00    -0.021 N 
ATOM      9  H6  UNL     1      -0.901   1.634  -0.791  1.00  0.00     0.203 HD
ENDROOT
BRANCH   1  10
HETATM   10  N1  UNL     1       0.813  -0.149  -0.253  1.00  0.00    -0.225 N 
ATOM     11  H1  UNL     1       1.214   0.723  -0.599  1.00  0.00     0.177 HD
BRANCH  10  12
HETATM   12  C6  UNL     1       1.664  -1.246   0.092  1.00  0.00     0.138 C 
BRANCH  12  13
HETATM   13  C5  UNL     1       3.154  -0.802   0.070  1.00  0.00     0.020 C 
BRANCH  13  14
HETATM   14  C4  UNL     1       3.341   0.306   1.063  1.00  0.00     0.002 C 
BRANCH  14  15
HETATM   15  C3  UNL     1       4.700   0.847   1.257  1.00  0.00    -0.000 C 
BRANCH  15  16
HETATM   16  C2  UNL     1       5.367   1.455   0.088  1.00  0.00    -0.005 C 
HETATM   17  C1  UNL     1       5.670   0.580  -1.079  1.00  0.00     0.005 C 
ENDBRANCH  15  16
ENDBRANCH  14  15
ENDBRANCH  13  14
ENDBRANCH  12  13
ENDBRANCH  10  12
ENDBRANCH   1  10
BRANCH   4  18
HETATM   18  N3  UNL     1      -2.840  -2.616   0.897  1.00  0.00    -0.229 N 
HETATM   19  C9  UNL     1      -4.261  -2.763   1.047  1.00  0.00     0.165 C 
ATOM     20  H3  UNL     1      -2.225  -3.393   1.139  1.00  0.00     0.177 HD
ENDBRANCH   4  18
BRANCH   7  21
HETATM   21  N5  UNL     1      -3.361   1.659  -0.635  1.00  0.00    -0.165 N 
ATOM     22  H5  UNL     1      -2.871   2.488  -0.972  1.00  0.00     0.183 HD
BRANCH  21  23
HETATM   23  C11 UNL     1      -4.779   1.747  -0.572  1.00  0.00     0.283 A 
HETATM   24  C12 UNL     1      -5.703   0.967  -1.362  1.00  0.00     0.267 A 
HETATM   25  O2  UNL     1      -5.283   2.158  -1.933  1.00  0.00    -0.329 OA
BRANCH  23  26
HETATM   26  O1  UNL     1      -5.330   2.674   0.335  1.00  0.00    -0.347 OA
ATOM     27  H1  UNL     1      -6.277   2.733   0.377  1.00  0.00     0.215 HD
ENDBRANCH  23  26
ENDBRANCH  21  23
ENDBRANCH   7  21
TORSDOF 10
