REMARK  9 active torsions:
REMARK  status: ('A' for Active; 'I' for Inactive)
REMARK    1  A    between atoms: O1_1  and  C1_3 
REMARK    2  A    between atoms: C3_6  and  C4_7 
REMARK    3  A    between atoms: C4_7  and  N1_8 
REMARK    4  A    between atoms: N1_8  and  C5_10 
REMARK    5  A    between atoms: C5_10  and  C6_11 
REMARK    6  A    between atoms: C6_11  and  C7_12 
REMARK    7  A    between atoms: C7_12  and  N2_13 
REMARK    8  A    between atoms: C13_19  and  O3_20 
REMARK    9  A    between atoms: C14_22  and  O4_23 
ROOT
HETATM    1  C1  UNL     1       5.227   1.581   0.558  1.00  0.00     0.173 C 
HETATM    2  C2  UNL     1       4.197   2.025   1.533  1.00  0.00     0.202 C 
HETATM    3  O2  UNL     1       3.080   1.259   1.507  1.00  0.00    -0.379 OA
HETATM    4  C3  UNL     1       2.801   0.690   0.288  1.00  0.00     0.170 C 
HETATM    5  C13 UNL     1       3.807  -0.398   0.009  1.00  0.00     0.180 C 
HETATM    6  C14 UNL     1       5.209   0.119   0.218  1.00  0.00     0.180 C 
ENDROOT
BRANCH   4   7
HETATM    7  C4  UNL     1       1.370   0.171   0.323  1.00  0.00     0.148 C 
BRANCH   7   8
HETATM    8  N1  UNL     1       0.997  -0.478  -0.880  1.00  0.00    -0.419 N 
ATOM      9  H1  UNL     1       1.645  -0.579  -1.661  1.00  0.00     0.153 HD
BRANCH   8  10
HETATM   10  C5  UNL     1      -0.323  -0.977  -0.936  1.00  0.00     0.115 C 
BRANCH  10  11
HETATM   11  C6  UNL     1      -1.329   0.138  -1.024  1.00  0.00     0.049 C 
BRANCH  11  12
HETATM   12  C7  UNL     1      -2.721  -0.451  -1.111  1.00  0.00     0.274 C 
BRANCH  12  13
HETATM   13  N2  UNL     1      -3.091  -1.200   0.041  1.00  0.00     0.088 N 
HETATM   14  C8  UNL     1      -4.339  -1.942  -0.194  1.00  0.00     0.272 C 
HETATM   15  C9  UNL     1      -5.514  -1.037  -0.326  1.00  0.00     0.030 C 
HETATM   16  C10 UNL     1      -5.663  -0.212   0.935  1.00  0.00     0.003 C 
HETATM   17  C11 UNL     1      -4.388   0.572   1.134  1.00  0.00     0.030 C 
HETATM   18  C12 UNL     1      -3.240  -0.396   1.246  1.00  0.00     0.272 C 
ENDBRANCH  12  13
ENDBRANCH  11  12
ENDBRANCH  10  11
ENDBRANCH   8  10
ENDBRANCH   7   8
ENDBRANCH   4   7
BRANCH   5  19
HETATM   19  O3  UNL     1       3.633  -1.514   0.828  1.00  0.00    -0.390 OA
ATOM     20  H3  UNL     1       4.267  -2.199   0.652  1.00  0.00     0.210 HD
ENDBRANCH   5  19
BRANCH   6  21
HETATM   21  O4  UNL     1       5.976  -0.031  -0.951  1.00  0.00    -0.390 OA
ATOM     22  H4  UNL     1       5.965  -0.956  -1.166  1.00  0.00     0.210 HD
ENDBRANCH   6  21
BRANCH   1  23
HETATM   23  O1  UNL     1       5.178   2.386  -0.599  1.00  0.00    -0.391 OA
ATOM     24  H1  UNL     1       5.836   2.102  -1.222  1.00  0.00     0.210 HD
ENDBRANCH   1  23
TORSDOF 9
