REMARK  9 active torsions:
REMARK  status: ('A' for Active; 'I' for Inactive)
REMARK    1  A    between atoms: C3_3  and  C4_4 
REMARK    2  A    between atoms: C5_6  and  C6_7 
REMARK    3  A    between atoms: C6_7  and  S1_8 
REMARK    4  A    between atoms: S1_8  and  C7_9 
REMARK    5  A    between atoms: C7_9  and  C8_10 
REMARK    6  A    between atoms: C8_10  and  N1_11 
REMARK    7  A    between atoms: C11_14  and  O2_15 
REMARK    8  A    between atoms: C12_17  and  O3_18 
REMARK    9  A    between atoms: C13_20  and  O4_21 
ROOT
HETATM    1  C1  UNL     1      -6.455  -1.343  -0.131  1.00  0.00     0.097 C 
HETATM    2  C2  UNL     1      -5.310  -0.920  -0.620  1.00  0.00    -0.185 C 
HETATM    3  C3  UNL     1      -4.142  -0.465  -1.025  1.00  0.00     0.114 C 
ENDROOT
BRANCH   3   4
HETATM    4  C4  UNL     1      -3.465   0.460  -0.119  1.00  0.00     0.163 C 
HETATM    5  O1  UNL     1      -2.501   1.237  -0.634  1.00  0.00    -0.374 OA
HETATM    6  C5  UNL     1      -1.246   0.694  -0.843  1.00  0.00     0.162 C 
HETATM    7  C11 UNL     1      -0.801  -0.252   0.195  1.00  0.00     0.179 C 
HETATM    8  C12 UNL     1      -1.906  -1.189   0.678  1.00  0.00     0.180 C 
HETATM    9  C13 UNL     1      -3.051  -0.329   1.110  1.00  0.00     0.179 C 
BRANCH   6  10
HETATM   10  C6  UNL     1      -0.325   1.882  -0.935  1.00  0.00     0.108 C 
BRANCH  10  11
HETATM   11  S1  UNL     1       1.380   1.588  -1.261  1.00  0.00    -0.165 SA
BRANCH  11  12
HETATM   12  C7  UNL     1       2.367   0.823   0.005  1.00  0.00     0.104 C 
BRANCH  12  13
HETATM   13  C8  UNL     1       3.823   0.864  -0.486  1.00  0.00     0.281 C 
BRANCH  13  14
HETATM   14  N1  UNL     1       4.737   0.281   0.457  1.00  0.00     0.080 N 
HETATM   15  C9  UNL     1       4.597  -1.149   0.603  1.00  0.00     0.309 C 
HETATM   16  C10 UNL     1       6.086   0.624   0.023  1.00  0.00     0.309 C 
ENDBRANCH  13  14
ENDBRANCH  12  13
ENDBRANCH  11  12
ENDBRANCH  10  11
ENDBRANCH   6  10
BRANCH   7  17
HETATM   17  O2  UNL     1      -0.355   0.376   1.352  1.00  0.00    -0.390 OA
ATOM     18  H2  UNL     1      -0.068  -0.234   2.021  1.00  0.00     0.210 HD
ENDBRANCH   7  17
BRANCH   8  19
HETATM   19  O3  UNL     1      -2.233  -2.118  -0.282  1.00  0.00    -0.390 OA
ATOM     20  H3  UNL     1      -2.920  -2.701   0.018  1.00  0.00     0.210 HD
ENDBRANCH   8  19
BRANCH   9  21
HETATM   21  O4  UNL     1      -2.606   0.515   2.129  1.00  0.00    -0.390 OA
ATOM     22  H4  UNL     1      -2.347   0.021   2.898  1.00  0.00     0.210 HD
ENDBRANCH   9  21
ENDBRANCH   3   4
TORSDOF 9
