REMARK  7 active torsions:
REMARK  status: ('A' for Active; 'I' for Inactive)
REMARK    1  A    between atoms: O1_2  and  C2_3 
REMARK    2  A    between atoms: C2_3  and  C3_4 
REMARK    3  A    between atoms: C3_4  and  N1_5 
REMARK    4  A    between atoms: N1_5  and  C4_7 
REMARK    5  A    between atoms: C4_7  and  C9_14 
REMARK    6  A    between atoms: N2_8  and  C5_10 
REMARK    7  A    between atoms: N3_17  and  C12_18 
ROOT
HETATM    1  C4  UNL     1      -0.740   0.134  -0.395  1.00  0.00     0.107 C 
HETATM    2  N2  UNL     1      -0.468  -0.988  -0.879  1.00  0.00    -0.370 N 
ATOM      3  H2  UNL     1       0.357  -0.958  -1.478  1.00  0.00     0.161 HD
ENDROOT
BRANCH   1   4
HETATM    4  N1  UNL     1      -1.852   0.292   0.465  1.00  0.00    -0.376 N 
ATOM      5  H1  UNL     1      -1.874  -0.158   1.380  1.00  0.00     0.160 HD
BRANCH   4   6
HETATM    6  C3  UNL     1      -2.960   1.112   0.011  1.00  0.00     0.147 C 
BRANCH   6   7
HETATM    7  C2  UNL     1      -4.082   1.223   1.003  1.00  0.00     0.186 C 
BRANCH   7   8
HETATM    8  O1  UNL     1      -3.688   1.778   2.206  1.00  0.00    -0.394 OA
HETATM    9  C1  UNL     1      -3.181   3.051   2.062  1.00  0.00     0.201 C 
ENDBRANCH   7   8
ENDBRANCH   6   7
ENDBRANCH   4   6
ENDBRANCH   1   4
BRANCH   1  10
HETATM   10  C9  UNL     1       0.052   1.323  -0.681  1.00  0.00     0.291 C 
HETATM   11  C10 UNL     1       0.726   1.366  -2.049  1.00  0.00     0.074 C 
HETATM   12  C11 UNL     1       1.686   2.294  -1.278  1.00  0.00     0.276 C 
HETATM   13  N3  UNL     1       1.339   1.498  -0.082  1.00  0.00     0.105 N 
BRANCH  13  14
HETATM   14  C12 UNL     1       2.255   0.445   0.041  1.00  0.00     0.228 C 
HETATM   15  C13 UNL     1       3.669   1.025  -0.100  1.00  0.00     0.062 C 
HETATM   16  C14 UNL     1       4.563   0.505   1.003  1.00  0.00     0.169 C 
HETATM   17  O2  UNL     1       4.600  -0.850   1.141  1.00  0.00    -0.391 OA
HETATM   18  C15 UNL     1       3.339  -1.389   1.149  1.00  0.00     0.169 C 
HETATM   19  C16 UNL     1       2.275  -0.296   1.351  1.00  0.00     0.062 C 
ENDBRANCH  13  14
ENDBRANCH   1  10
BRANCH   2  20
HETATM   20  C5  UNL     1      -1.015  -2.270  -0.802  1.00  0.00     0.020 C 
HETATM   21  C6  UNL     1       0.043  -3.378  -0.687  1.00  0.00     0.037 C 
HETATM   22  C7  UNL     1      -1.714  -2.533  -2.149  1.00  0.00     0.037 C 
HETATM   23  C8  UNL     1      -2.031  -2.556   0.249  1.00  0.00     0.037 C 
ENDBRANCH   2  20
TORSDOF 7
