REMARK  5 active torsions:
REMARK  status: ('A' for Active; 'I' for Inactive)
REMARK    1  A    between atoms: O1_2  and  C2_3 
REMARK    2  A    between atoms: C2_3  and  C3_4 
REMARK    3  A    between atoms: C3_4  and  C4_5 
REMARK    4  A    between atoms: N1_7  and  C6_8 
REMARK    5  A    between atoms: C6_8  and  C7_9 
ROOT
HETATM    1  C4  UNL     1      -0.468   0.738  -0.236  1.00  0.00     0.052 C 
HETATM    2  C5  UNL     1       0.542   0.338  -1.360  1.00  0.00     0.279 C 
HETATM    3  N1  UNL     1       1.478  -0.625  -0.831  1.00  0.00     0.089 N 
HETATM    4  C11 UNL     1       0.852  -1.760  -0.242  1.00  0.00     0.275 C 
HETATM    5  C12 UNL     1      -0.451  -1.588   0.427  1.00  0.00     0.069 C 
HETATM    6  C13 UNL     1      -1.326  -0.458  -0.086  1.00  0.00     0.132 C 
HETATM    7  C14 UNL     1      -1.982  -0.943  -1.363  1.00  0.00     0.039 C 
HETATM    8  C15 UNL     1      -3.355  -1.508  -1.159  1.00  0.00     0.004 C 
HETATM    9  C16 UNL     1      -3.601  -2.163   0.155  1.00  0.00     0.027 C 
HETATM   10  C17 UNL     1      -2.939  -1.526   1.334  1.00  0.00     0.233 C 
HETATM   11  N2  UNL     1      -2.388  -0.238   0.860  1.00  0.00    -0.066 N 
ATOM     12  H21 UNL     1      -3.115   0.367   0.479  1.00  0.00     0.278 HD
ATOM     13  H22 UNL     1      -2.088   0.353   1.635  1.00  0.00     0.278 HD
ENDROOT
BRANCH   1  14
HETATM   14  C3  UNL     1      -1.020   2.041  -0.606  1.00  0.00     0.035 C 
BRANCH  14  15
HETATM   15  C2  UNL     1      -1.978   2.732   0.281  1.00  0.00     0.167 C 
BRANCH  15  16
HETATM   16  O1  UNL     1      -2.331   3.988  -0.315  1.00  0.00    -0.396 OA
HETATM   17  C1  UNL     1      -3.234   4.602   0.553  1.00  0.00     0.201 C 
ENDBRANCH  15  16
ENDBRANCH  14  15
ENDBRANCH   1  14
BRANCH   3  18
HETATM   18  C6  UNL     1       2.503   0.008  -0.038  1.00  0.00     0.279 C 
BRANCH  18  19
HETATM   19  C7  UNL     1       3.589  -0.879   0.443  1.00  0.00     0.040 C 
HETATM   20  C8  UNL     1       4.367  -1.542  -0.668  1.00  0.00     0.035 C 
HETATM   21  C9  UNL     1       5.669  -0.733  -0.672  1.00  0.00     0.168 C 
HETATM   22  O2  UNL     1       5.875  -0.546   0.709  1.00  0.00    -0.391 OA
HETATM   23  C10 UNL     1       4.660   0.031   1.070  1.00  0.00     0.173 C 
ENDBRANCH  18  19
ENDBRANCH   3  18
TORSDOF 5
