REMARK  5 active torsions:
REMARK  status: ('A' for Active; 'I' for Inactive)
REMARK    1  A    between atoms: C2_2  and  N1_3 
REMARK       I    between atoms: N1_3  and  C3_4 
REMARK    2  A    between atoms: N1_3  and  C13_18 
REMARK    3  A    between atoms: C3_4  and  C4_6 
REMARK    4  A    between atoms: C9_12  and  O3_13 
REMARK    5  A    between atoms: C9_12  and  C10_15 
ROOT
HETATM    1  C13 UNL     1      -3.523   0.693   0.169  1.00  0.00     0.104 C 
HETATM    2  C14 UNL     1      -3.621   2.062  -0.395  1.00  0.00     0.028 C 
HETATM    3  C15 UNL     1      -4.173   1.527  -1.681  1.00  0.00     0.023 C 
HETATM    4  C16 UNL     1      -3.920   0.130  -1.176  1.00  0.00     0.116 C 
HETATM    5  C17 UNL     1      -5.130  -0.697  -1.165  1.00  0.00     0.066 C 
HETATM    6  N2  UNL     1      -6.091  -1.332  -1.165  1.00  0.00    -0.197 NA
ENDROOT
BRANCH   1   7
HETATM    7  N1  UNL     1      -2.220   0.261   0.659  1.00  0.00    -0.346 N 
HETATM    8  C3  UNL     1      -1.049   0.423  -0.084  1.00  0.00     0.226 C 
HETATM    9  O1  UNL     1      -1.171   0.970  -1.238  1.00  0.00    -0.273 OA
BRANCH   7  10
HETATM   10  C2  UNL     1      -2.220  -0.358   1.992  1.00  0.00     0.122 C 
HETATM   11  C1  UNL     1      -2.411  -1.853   1.905  1.00  0.00     0.026 C 
ENDBRANCH   7  10
BRANCH   8  12
HETATM   12  C4  UNL     1       0.316   0.045   0.288  1.00  0.00     0.107 C 
HETATM   13  C5  UNL     1       0.910   0.801   1.436  1.00  0.00     0.021 C 
HETATM   14  C6  UNL     1       2.283   1.192   0.919  1.00  0.00    -0.006 C 
HETATM   15  C7  UNL     1       1.920   1.534  -0.506  1.00  0.00     0.037 C 
HETATM   16  C12 UNL     1       3.146  -0.036   1.038  1.00  0.00     0.073 C 
HETATM   17  C8  UNL     1       1.284   0.214  -0.892  1.00  0.00     0.138 C 
HETATM   18  O2  UNL     1       2.153  -0.820  -1.036  1.00  0.00    -0.349 OA
HETATM   19  C9  UNL     1       3.236  -0.868  -0.197  1.00  0.00     0.162 C 
BRANCH  19  20
HETATM   20  O3  UNL     1       3.316  -2.220   0.228  1.00  0.00    -0.365 OA
ATOM     21  H3  UNL     1       4.067  -2.253   0.809  1.00  0.00     0.213 HD
ENDBRANCH  19  20
BRANCH  19  22
HETATM   22  C10 UNL     1       4.537  -0.636  -0.948  1.00  0.00     0.064 C 
HETATM   23  C11 UNL     1       4.792  -1.637  -2.011  1.00  0.00     0.010 C 
ENDBRANCH  19  22
ENDBRANCH   8  12
ENDBRANCH   1   7
TORSDOF 5
