REMARK  7 active torsions:
REMARK  status: ('A' for Active; 'I' for Inactive)
REMARK    1  A    between atoms: C5_5  and  N1_6 
REMARK       I    between atoms: N1_6  and  C7_8 
REMARK    2  A    between atoms: C7_8  and  O2_10 
REMARK    3  A    between atoms: O2_10  and  C8_11 
REMARK    4  A    between atoms: C8_11  and  C9_12 
REMARK    5  A    between atoms: C9_12  and  O3_13 
REMARK    6  A    between atoms: C9_12  and  C10_15 
REMARK    7  A    between atoms: C10_15  and  N2_16 
ROOT
HETATM    1  N1  UNL     1       1.926  -1.062   0.920  1.00  0.00    -0.328 N 
HETATM    2  C6  UNL     1       2.678  -1.525   2.063  1.00  0.00     0.155 C 
HETATM    3  C7  UNL     1       0.564  -1.411   0.805  1.00  0.00     0.362 C 
HETATM    4  O1  UNL     1       0.045  -2.121   1.687  1.00  0.00    -0.238 OA
ENDROOT
BRANCH   3   5
HETATM    5  O2  UNL     1      -0.164  -0.977  -0.250  1.00  0.00    -0.301 OA
BRANCH   5   6
HETATM    6  C8  UNL     1      -1.476  -1.165  -0.561  1.00  0.00     0.214 C 
BRANCH   6   7
HETATM    7  C9  UNL     1      -2.411  -0.504   0.411  1.00  0.00     0.170 C 
BRANCH   7   8
HETATM    8  O3  UNL     1      -2.368  -0.927   1.700  1.00  0.00    -0.392 OA
ATOM      9  H3  UNL     1      -2.959  -0.509   2.315  1.00  0.00     0.210 HD
ENDBRANCH   7   8
BRANCH   7  10
HETATM   10  C10 UNL     1      -3.815  -0.753  -0.122  1.00  0.00     0.306 C 
BRANCH  10  11
HETATM   11  N2  UNL     1      -4.775  -0.042   0.646  1.00  0.00     0.091 N 
HETATM   12  C11 UNL     1      -4.687   1.360   0.460  1.00  0.00     0.272 C 
HETATM   13  C12 UNL     1      -5.853   1.750  -0.419  1.00  0.00     0.032 C 
HETATM   14  C13 UNL     1      -6.409   0.411  -0.921  1.00  0.00     0.032 C 
HETATM   15  C14 UNL     1      -6.096  -0.449   0.290  1.00  0.00     0.272 C 
ENDBRANCH  10  11
ENDBRANCH   7  10
ENDBRANCH   6   7
ENDBRANCH   5   6
ENDBRANCH   3   5
BRANCH   1  16
HETATM   16  C5  UNL     1       2.549  -0.252  -0.085  1.00  0.00     0.089 C 
HETATM   17  C4  UNL     1       3.652  -1.027  -0.777  1.00  0.00     0.026 C 
HETATM   18  C3  UNL     1       5.001  -0.505  -0.337  1.00  0.00     0.006 C 
HETATM   19  C2  UNL     1       5.185   0.942  -0.713  1.00  0.00    -0.019 C 
HETATM   20  C1  UNL     1       6.196   1.536   0.263  1.00  0.00     0.010 C 
HETATM   21  C16 UNL     1       3.894   1.695  -0.648  1.00  0.00     0.006 C 
HETATM   22  C15 UNL     1       3.047   1.070   0.464  1.00  0.00     0.026 C 
ENDBRANCH   1  16
TORSDOF 7
