REMARK  8 active torsions:
REMARK  status: ('A' for Active; 'I' for Inactive)
REMARK    1  A    between atoms: N1_1  and  C1_5 
REMARK    2  A    between atoms: C1_5  and  C2_6 
REMARK    3  A    between atoms: C2_6  and  N2_7 
REMARK    4  A    between atoms: N2_7  and  C3_9 
REMARK    5  A    between atoms: C4_10  and  O1_11 
REMARK    6  A    between atoms: C7_16  and  C8_17 
REMARK    7  A    between atoms: C9_18  and  O2_19 
REMARK    8  A    between atoms: O2_19  and  C10_20 
ROOT
HETATM    1  C3  UNL     1      -0.426   0.134   0.545  1.00  0.00     0.118 C 
HETATM    2  C4  UNL     1      -0.899  -1.209   0.899  1.00  0.00     0.142 C 
HETATM    3  C5  UNL     1      -0.089  -1.511   2.183  1.00  0.00     0.050 C 
HETATM    4  C6  UNL     1       1.118  -0.612   2.133  1.00  0.00     0.070 C 
HETATM    5 BR1  UNL     1       2.737  -1.597   2.520  1.00  0.00    -0.090 Br
HETATM    6  C7  UNL     1       1.112  -0.063   0.736  1.00  0.00     0.049 C 
ENDROOT
BRANCH   1   7
HETATM    7  N2  UNL     1      -0.681   0.743  -0.668  1.00  0.00    -0.393 N 
ATOM      8  H2  UNL     1       0.089   0.976  -1.295  1.00  0.00     0.159 HD
BRANCH   7   9
HETATM    9  C2  UNL     1      -1.994   1.038  -1.034  1.00  0.00     0.083 C 
BRANCH   9  10
HETATM   10  C1  UNL     1      -2.895  -0.094  -1.427  1.00  0.00     0.273 C 
BRANCH  10  11
HETATM   11  N1  UNL     1      -4.197   0.503  -1.778  1.00  0.00    -0.075 N 
ATOM     12  H13 UNL     1      -4.585   1.088  -1.037  1.00  0.00     0.274 HD
ATOM     13  H12 UNL     1      -4.128   1.229  -2.491  1.00  0.00     0.274 HD
ATOM     14  H11 UNL     1      -4.810  -0.267  -2.045  1.00  0.00     0.274 HD
ENDBRANCH  10  11
ENDBRANCH   9  10
ENDBRANCH   7   9
ENDBRANCH   1   7
BRANCH   2  15
HETATM   15  O1  UNL     1      -0.572  -2.181  -0.048  1.00  0.00    -0.393 OA
ATOM     16  H1  UNL     1      -0.878  -3.051   0.181  1.00  0.00     0.210 HD
ENDBRANCH   2  15
BRANCH   6  17
HETATM   17  C8  UNL     1       1.794   1.234   0.616  1.00  0.00     0.006 C 
HETATM   18  C9  UNL     1       2.829   1.342  -0.192  1.00  0.00     0.141 C 
BRANCH  18  19
HETATM   19  O2  UNL     1       3.259   0.251  -0.909  1.00  0.00    -0.298 OA
BRANCH  19  20
HETATM   20  C10 UNL     1       4.336   0.286  -1.780  1.00  0.00     0.402 C 
HETATM   21  O3  UNL     1       4.958   1.359  -1.932  1.00  0.00    -0.276 OA
ENDBRANCH  19  20
ENDBRANCH  18  19
ENDBRANCH   6  17
TORSDOF 8
