REMARK  6 active torsions:
REMARK  status: ('A' for Active; 'I' for Inactive)
REMARK    1  A    between atoms: N1_2  and  C2_4 
REMARK    2  A    between atoms: C2_4  and  C3_5 
REMARK    3  A    between atoms: C2_4  and  C11_22 
REMARK    4  A    between atoms: C3_5  and  C4_6 
REMARK    5  A    between atoms: C4_6  and  N2_7 
REMARK    6  A    between atoms: N3_10  and  C7_11 
ROOT
HETATM    1  N2  UNL     1       0.343   0.466  -0.205  1.00  0.00     0.091 N 
HETATM    2  C5  UNL     1       1.256   1.296  -0.916  1.00  0.00     0.292 C 
HETATM    3  C6  UNL     1       2.516   1.624  -0.170  1.00  0.00     0.171 C 
HETATM    4  N3  UNL     1       3.146   0.389   0.258  1.00  0.00    -0.213 N 
HETATM    5  C9  UNL     1       2.338  -0.643   0.808  1.00  0.00     0.171 C 
HETATM    6  C10 UNL     1       0.873  -0.418   0.749  1.00  0.00     0.292 C 
ENDROOT
BRANCH   1   7
HETATM    7  C4  UNL     1      -0.581  -0.097  -1.166  1.00  0.00     0.274 C 
BRANCH   7   8
HETATM    8  C3  UNL     1      -1.667  -0.914  -0.583  1.00  0.00     0.055 C 
BRANCH   8   9
HETATM    9  C2  UNL     1      -2.612  -0.237   0.356  1.00  0.00     0.081 C 
BRANCH   9  10
HETATM   10  N1  UNL     1      -3.404   0.813  -0.110  1.00  0.00    -0.421 N 
HETATM   11  C1  UNL     1      -2.885   2.027  -0.570  1.00  0.00     0.140 C 
ATOM     12  H1  UNL     1      -4.416   0.688  -0.115  1.00  0.00     0.153 HD
ENDBRANCH   9  10
BRANCH   9  13
HETATM   13  C11 UNL     1      -3.549  -1.326   0.908  1.00  0.00    -0.000 C 
HETATM   14  C12 UNL     1      -4.375  -0.753   2.038  1.00  0.00     0.011 C 
HETATM   15  C13 UNL     1      -4.403  -1.908  -0.186  1.00  0.00     0.011 C 
ENDBRANCH   9  13
ENDBRANCH   8   9
ENDBRANCH   7   8
ENDBRANCH   1   7
BRANCH   4  16
HETATM   16  C7  UNL     1       4.545   0.195   0.139  1.00  0.00     0.699 A 
HETATM   17  N4  UNL     1       5.254  -0.919   0.427  1.00  0.00    -0.139 N 
HETATM   18  C8  UNL     1       6.555  -0.706   0.184  1.00  0.00     0.353 A 
ATOM     19  H4  UNL     1       4.858  -1.792   0.777  1.00  0.00     0.189 HD
HETATM   20  O1  UNL     1       7.452  -1.567   0.358  1.00  0.00    -0.245 OA
HETATM   21  N5  UNL     1       6.676   0.547  -0.260  1.00  0.00    -0.237 N 
HETATM   22  N6  UNL     1       5.471   1.083  -0.285  1.00  0.00    -0.128 N 
ATOM     23  H5  UNL     1       7.545   1.008  -0.531  1.00  0.00     0.192 HD
ATOM     24  H6  UNL     1       5.266   2.037  -0.583  1.00  0.00     0.205 HD
ENDBRANCH   4  16
TORSDOF 6
