REMARK  8 active torsions:
REMARK  status: ('A' for Active; 'I' for Inactive)
REMARK    1  A    between atoms: C2_2  and  C3_3 
REMARK    2  A    between atoms: C3_3  and  C4_4 
REMARK    3  A    between atoms: C3_3  and  N3_9 
REMARK    4  A    between atoms: C3_3  and  C6_13 
REMARK    5  A    between atoms: C4_4  and  N1_5 
REMARK    6  A    between atoms: N1_5  and  N2_6 
REMARK    7  A    between atoms: N3_9  and  C5_11 
REMARK    8  A    between atoms: C8_18  and  C9_19 
ROOT
HETATM    1  C6  UNL     1      -0.713  -0.427  -0.276  1.00  0.00     0.118 A 
HETATM    2  N4  UNL     1      -0.407  -1.592  -0.873  1.00  0.00    -0.332 N 
ATOM      3  H4  UNL     1      -1.093  -2.286  -1.169  1.00  0.00     0.168 HD
HETATM    4  C7  UNL     1       0.921  -1.722  -1.028  1.00  0.00     0.135 A 
HETATM    5 CL1  UNL     1       1.790  -3.054  -1.742  1.00  0.00    -0.062 Cl
HETATM    6  C8  UNL     1       1.473  -0.583  -0.504  1.00  0.00     0.116 A 
HETATM    7  N7  UNL     1       0.463   0.181  -0.057  1.00  0.00    -0.338 N 
ATOM      8  H7  UNL     1       0.574   1.093   0.386  1.00  0.00     0.167 HD
ENDROOT
BRANCH   1   9
HETATM    9  C3  UNL     1      -2.097   0.074   0.067  1.00  0.00     0.137 C 
BRANCH   9  10
HETATM   10  C2  UNL     1      -1.910   1.568   0.306  1.00  0.00     0.042 C 
HETATM   11  C1  UNL     1      -3.228   2.228   0.653  1.00  0.00     0.008 C 
ENDBRANCH   9  10
BRANCH   9  12
HETATM   12  C4  UNL     1      -3.036  -0.163  -1.037  1.00  0.00     0.220 C 
BRANCH  12  13
HETATM   13  N1  UNL     1      -4.261  -0.093  -0.795  1.00  0.00    -0.347 NA
BRANCH  13  14
HETATM   14  N2  UNL     1      -5.492   0.038  -0.881  1.00  0.00    -0.281 N 
ATOM     15  H22 UNL     1      -5.465   0.220  -1.884  1.00  0.00     0.191 HD
ATOM     16  H21 UNL     1      -6.491   0.095  -0.684  1.00  0.00     0.191 HD
ENDBRANCH  13  14
ENDBRANCH  12  13
ENDBRANCH   9  12
BRANCH   9  17
HETATM   17  N3  UNL     1      -2.525  -0.575   1.272  1.00  0.00    -0.347 N 
ATOM     18  H3  UNL     1      -2.605  -0.014   2.120  1.00  0.00     0.163 HD
BRANCH  17  19
HETATM   19  C5  UNL     1      -2.838  -1.935   1.347  1.00  0.00     0.349 C 
HETATM   20  O1  UNL     1      -2.790  -2.738   0.391  1.00  0.00    -0.284 OA
ENDBRANCH  17  19
ENDBRANCH   9  17
ENDBRANCH   1   9
BRANCH   6  21
HETATM   21  C9  UNL     1       2.903  -0.205  -0.421  1.00  0.00     0.127 C 
HETATM   22  N5  UNL     1       3.339   0.825   0.210  1.00  0.00    -0.373 N 
HETATM   23  C10 UNL     1       4.791   0.900   0.091  1.00  0.00     0.141 C 
ATOM     24  H5  UNL     1       2.757   1.491   0.718  1.00  0.00     0.161 HD
HETATM   25  C11 UNL     1       5.174  -0.535  -0.262  1.00  0.00     0.141 C 
HETATM   26  N6  UNL     1       3.971  -0.906  -1.025  1.00  0.00    -0.373 N 
ATOM     27  H6  UNL     1       3.919  -1.538  -1.824  1.00  0.00     0.161 HD
ENDBRANCH   6  21
TORSDOF 8
