REMARK  7 active torsions:
REMARK  status: ('A' for Active; 'I' for Inactive)
REMARK    1  A    between atoms: C2_2  and  N1_3 
REMARK    2  A    between atoms: N1_3  and  C3_4 
REMARK    3  A    between atoms: N1_3  and  C5_7 
REMARK    4  A    between atoms: C3_4  and  C4_5 
REMARK    5  A    between atoms: C6_8  and  O1_9 
REMARK    6  A    between atoms: C9_13  and  O2_14 
REMARK    7  A    between atoms: C10_16  and  O3_17 
ROOT
HETATM    1  C5  UNL     1       0.148   0.370   0.139  1.00  0.00     0.143 C 
HETATM    2  C6  UNL     1       0.808   0.830  -1.123  1.00  0.00     0.143 C 
HETATM    3  C7  UNL     1       2.268   0.620  -1.220  1.00  0.00     0.036 C 
HETATM    4  C8  UNL     1       3.031   0.330   0.002  1.00  0.00     0.037 C 
HETATM    5  C9  UNL     1       2.258  -0.146   1.181  1.00  0.00     0.149 C 
HETATM    6  C10 UNL     1       0.958  -0.795   0.692  1.00  0.00     0.172 C 
ENDROOT
BRANCH   1   7
HETATM    7  N1  UNL     1      -1.212   0.048   0.088  1.00  0.00    -0.383 N 
BRANCH   7   8
HETATM    8  C2  UNL     1      -2.169   1.022  -0.224  1.00  0.00     0.054 C 
HETATM    9  C1  UNL     1      -1.947   2.407   0.291  1.00  0.00     0.054 C 
ENDBRANCH   7   8
BRANCH   7  10
HETATM   10  C3  UNL     1      -1.585  -1.222  -0.433  1.00  0.00     0.137 C 
BRANCH  10  11
HETATM   11  C4  UNL     1      -2.769  -1.842   0.272  1.00  0.00     0.134 C 
HETATM   12 CL1  UNL     1      -3.170  -3.438  -0.442  1.00  0.00    -0.129 Cl
ENDBRANCH  10  11
ENDBRANCH   7  10
ENDBRANCH   1   7
BRANCH   2  13
HETATM   13  O1  UNL     1       0.175   0.197  -2.200  1.00  0.00    -0.393 OA
ATOM     14  H1  UNL     1       0.594   0.489  -3.001  1.00  0.00     0.210 HD
ENDBRANCH   2  13
BRANCH   6  15
HETATM   15  O3  UNL     1       0.370  -1.350   1.819  1.00  0.00    -0.391 OA
ATOM     16  H3  UNL     1       0.875  -2.077   2.164  1.00  0.00     0.210 HD
ENDBRANCH   6  15
BRANCH   5  17
HETATM   17  O2  UNL     1       2.994  -1.025   1.975  1.00  0.00    -0.393 OA
ATOM     18  H2  UNL     1       2.500  -1.329   2.728  1.00  0.00     0.210 HD
ENDBRANCH   5  17
TORSDOF 7
