REMARK  7 active torsions:
REMARK  status: ('A' for Active; 'I' for Inactive)
REMARK    1  A    between atoms: O1_1  and  C1_3 
REMARK    2  A    between atoms: C1_3  and  C2_4 
REMARK    3  A    between atoms: C2_4  and  O2_5 
REMARK    4  A    between atoms: C2_4  and  C3_7 
REMARK    5  A    between atoms: C3_7  and  C4_8 
REMARK    6  A    between atoms: C4_8  and  N1_9 
REMARK    7  A    between atoms: C7_12  and  O3_13 
ROOT
HETATM    1  N1  UNL     1      -0.326  -0.295   0.184  1.00  0.00     0.107 N 
HETATM    2  C5  UNL     1      -1.436  -1.227  -0.079  1.00  0.00     0.277 C 
HETATM    3  C6  UNL     1      -2.668  -0.909   0.719  1.00  0.00     0.062 C 
HETATM    4  C7  UNL     1      -3.251   0.344   0.070  1.00  0.00     0.123 C 
HETATM    5  C8  UNL     1      -2.152   1.362  -0.106  1.00  0.00     0.083 C 
HETATM    6  C9  UNL     1      -0.857   1.012   0.560  1.00  0.00     0.320 C 
HETATM    7 CL1  UNL     1      -0.868   1.265   2.316  1.00  0.00    -0.092 Cl
ENDROOT
BRANCH   1   8
HETATM    8  C4  UNL     1       0.413  -0.141  -1.062  1.00  0.00     0.277 C 
BRANCH   8   9
HETATM    9  C3  UNL     1       1.771   0.404  -0.765  1.00  0.00     0.064 C 
BRANCH   9  10
HETATM   10  C2  UNL     1       2.539  -0.558   0.141  1.00  0.00     0.143 C 
BRANCH  10  11
HETATM   11  C1  UNL     1       3.897   0.041   0.396  1.00  0.00     0.195 C 
BRANCH  11  12
HETATM   12  O1  UNL     1       3.885   1.261   1.018  1.00  0.00    -0.398 OA
ATOM     13  H1  UNL     1       4.742   1.639   1.179  1.00  0.00     0.209 HD
ENDBRANCH  11  12
ENDBRANCH  10  11
BRANCH  10  14
HETATM   14  O2  UNL     1       2.709  -1.781  -0.480  1.00  0.00    -0.393 OA
ATOM     15  H2  UNL     1       1.852  -2.159  -0.641  1.00  0.00     0.210 HD
ENDBRANCH  10  14
ENDBRANCH   9  10
ENDBRANCH   8   9
ENDBRANCH   1   8
BRANCH   4  16
HETATM   16  O3  UNL     1      -3.686  -0.076  -1.213  1.00  0.00    -0.395 OA
ATOM     17  H3  UNL     1      -4.049   0.704  -1.617  1.00  0.00     0.210 HD
ENDBRANCH   4  16
TORSDOF 7
