REMARK  7 active torsions:
REMARK  status: ('A' for Active; 'I' for Inactive)
REMARK    1  A    between atoms: N1_2  and  C2_3 
REMARK    2  A    between atoms: N1_2  and  C7_8 
REMARK    3  A    between atoms: C2_3  and  C3_4 
REMARK    4  A    between atoms: C9_10  and  C10_11 
REMARK    5  A    between atoms: C10_11  and  O1_12 
REMARK    6  A    between atoms: C11_14  and  O2_15 
REMARK    7  A    between atoms: C12_17  and  O3_18 
ROOT
HETATM    1  C7  UNL     1       0.549  -0.512  -0.516  1.00  0.00     0.114 C 
HETATM    2  C8  UNL     1       1.092   0.642   0.281  1.00  0.00     0.037 C 
HETATM    3  C9  UNL     1       2.616   0.572   0.083  1.00  0.00     0.042 C 
HETATM    4  C11 UNL     1       2.828  -0.890   0.270  1.00  0.00     0.155 C 
HETATM    5  C12 UNL     1       1.722  -1.469  -0.592  1.00  0.00     0.170 C 
ENDROOT
BRANCH   1   6
HETATM    6  N1  UNL     1      -0.543  -1.174   0.061  1.00  0.00    -0.390 N 
HETATM    7  C1  UNL     1      -0.846  -2.467  -0.473  1.00  0.00     0.149 C 
BRANCH   6   8
HETATM    8  C2  UNL     1      -1.602  -0.465   0.634  1.00  0.00     0.062 C 
BRANCH   8   9
HETATM    9  C3  UNL     1      -2.675   0.006  -0.283  1.00  0.00     0.024 C 
HETATM   10  C4  UNL     1      -3.806   0.775   0.421  1.00  0.00     0.010 C 
HETATM   11  C5  UNL     1      -3.832   1.752  -0.759  1.00  0.00     0.001 C 
HETATM   12  C6  UNL     1      -2.374   1.351  -0.960  1.00  0.00     0.010 C 
ENDBRANCH   8   9
ENDBRANCH   6   8
ENDBRANCH   1   6
BRANCH   5  13
HETATM   13  O3  UNL     1       2.150  -1.610  -1.905  1.00  0.00    -0.391 OA
ATOM     14  H3  UNL     1       2.885  -2.210  -1.953  1.00  0.00     0.210 HD
ENDBRANCH   5  13
BRANCH   3  15
HETATM   15  C10 UNL     1       3.296   1.478   1.028  1.00  0.00     0.171 C 
BRANCH  15  16
HETATM   16  O1  UNL     1       2.864   2.786   0.802  1.00  0.00    -0.400 OA
ATOM     17  H1  UNL     1       3.302   3.369   1.411  1.00  0.00     0.209 HD
ENDBRANCH  15  16
ENDBRANCH   3  15
BRANCH   4  18
HETATM   18  O2  UNL     1       2.592  -1.353   1.553  1.00  0.00    -0.392 OA
ATOM     19  H2  UNL     1       2.727  -2.286   1.672  1.00  0.00     0.210 HD
ENDBRANCH   4  18
TORSDOF 7
