REMARK  7 active torsions:
REMARK  status: ('A' for Active; 'I' for Inactive)
REMARK    1  A    between atoms: C2_2  and  C3_3 
REMARK    2  A    between atoms: C3_3  and  C4_4 
REMARK    3  A    between atoms: C4_4  and  C5_5 
REMARK    4  A    between atoms: C9_10  and  O1_11 
REMARK    5  A    between atoms: C10_13  and  O2_14 
REMARK    6  A    between atoms: C11_16  and  C12_17 
REMARK    7  A    between atoms: C12_17  and  O3_18 
ROOT
HETATM    1  C5  UNL     1       0.177  -0.295  -0.611  1.00  0.00     0.169 C 
HETATM    2  C6  UNL     1      -0.018  -1.209  -1.832  1.00  0.00     0.072 C 
HETATM    3  C7  UNL     1      -0.901  -0.102  -2.329  1.00  0.00     0.276 C 
HETATM    4  N1  UNL     1      -0.231   0.783  -1.403  1.00  0.00     0.101 N 
HETATM    5  C8  UNL     1      -1.110   1.740  -0.864  1.00  0.00     0.307 C 
HETATM    6  C9  UNL     1      -2.235   1.166  -0.043  1.00  0.00     0.175 C 
HETATM    7  C10 UNL     1      -1.643   0.300   1.030  1.00  0.00     0.157 C 
HETATM    8  C11 UNL     1      -0.634  -0.689   0.544  1.00  0.00     0.079 C 
ENDROOT
BRANCH   1   9
HETATM    9  C4  UNL     1       1.692  -0.236  -0.363  1.00  0.00     0.046 C 
BRANCH   9  10
HETATM   10  C3  UNL     1       2.056   0.619   0.795  1.00  0.00     0.029 C 
BRANCH  10  11
HETATM   11  C2  UNL     1       3.551   0.606   0.952  1.00  0.00    -0.037 C 
HETATM   12  C1  UNL     1       4.296  -0.099   0.150  1.00  0.00     0.007 C 
ENDBRANCH  10  11
ENDBRANCH   9  10
ENDBRANCH   1   9
BRANCH   8  13
HETATM   13  C12 UNL     1      -1.384  -2.019   0.353  1.00  0.00     0.174 C 
BRANCH  13  14
HETATM   14  O3  UNL     1      -2.087  -2.207   1.558  1.00  0.00    -0.400 OA
ATOM     15  H3  UNL     1      -2.550  -3.028   1.440  1.00  0.00     0.209 HD
ENDBRANCH  13  14
ENDBRANCH   8  13
BRANCH   7  16
HETATM   16  O2  UNL     1      -1.111   1.145   2.001  1.00  0.00    -0.392 OA
ATOM     17  H2  UNL     1      -0.736   0.597   2.680  1.00  0.00     0.210 HD
ENDBRANCH   7  16
BRANCH   6  18
HETATM   18  O1  UNL     1      -2.888   2.237   0.578  1.00  0.00    -0.391 OA
ATOM     19  H1  UNL     1      -3.597   1.875   1.096  1.00  0.00     0.210 HD
ENDBRANCH   6  18
TORSDOF 7
