REMARK  7 active torsions:
REMARK  status: ('A' for Active; 'I' for Inactive)
REMARK    1  A    between atoms: C3_3  and  C4_4 
REMARK    2  A    between atoms: C4_4  and  C5_5 
REMARK    3  A    between atoms: C5_5  and  N1_6 
REMARK    4  A    between atoms: N1_6  and  C6_8 
REMARK    5  A    between atoms: C7_11  and  N3_12 
REMARK    6  A    between atoms: C9_17  and  N5_18 
REMARK    7  A    between atoms: N5_18  and  C10_20 
ROOT
HETATM    1  C1  UNL     1       7.440   0.901  -0.524  1.00  0.00     0.012 C 
HETATM    2  C2  UNL     1       6.410   0.294  -0.387  1.00  0.00    -0.117 C 
HETATM    3  C3  UNL     1       5.154  -0.419  -0.223  1.00  0.00     0.094 C 
ENDROOT
BRANCH   3   4
HETATM    4  C4  UNL     1       4.011   0.579  -0.306  1.00  0.00     0.032 C 
BRANCH   4   5
HETATM    5  C5  UNL     1       2.727  -0.201  -0.132  1.00  0.00     0.139 C 
BRANCH   5   6
HETATM    6  N1  UNL     1       1.585   0.650  -0.194  1.00  0.00    -0.225 N 
ATOM      7  H1  UNL     1       1.744   1.641  -0.375  1.00  0.00     0.177 HD
BRANCH   6   8
HETATM    8  C6  UNL     1       0.369   0.261  -0.039  1.00  0.00     0.707 A 
HETATM    9  N2  UNL     1       0.054  -1.023   0.204  1.00  0.00    -0.022 N 
HETATM   10  C7  UNL     1      -1.221  -1.430   0.366  1.00  0.00     0.706 A 
ATOM     11  H2  UNL     1       0.804  -1.712   0.268  1.00  0.00     0.203 HD
HETATM   12  N4  UNL     1      -2.225  -0.513   0.282  1.00  0.00    -0.022 N 
HETATM   13  C9  UNL     1      -1.933   0.775   0.041  1.00  0.00     0.707 A 
ATOM     14  H4  UNL     1      -3.195  -0.804   0.402  1.00  0.00     0.203 HD
HETATM   15  N6  UNL     1      -0.662   1.126  -0.112  1.00  0.00    -0.022 N 
ATOM     16  H6  UNL     1      -0.453   2.107  -0.295  1.00  0.00     0.203 HD
BRANCH  10  17
HETATM   17  N3  UNL     1      -1.485  -2.667   0.597  1.00  0.00    -0.229 N 
HETATM   18  C8  UNL     1      -2.803  -3.191   0.782  1.00  0.00     0.165 C 
ATOM     19  H3  UNL     1      -0.702  -3.318   0.652  1.00  0.00     0.177 HD
ENDBRANCH  10  17
BRANCH  13  20
HETATM   20  N5  UNL     1      -2.897   1.619  -0.033  1.00  0.00    -0.225 N 
ATOM     21  H5  UNL     1      -2.657   2.593  -0.217  1.00  0.00     0.177 HD
BRANCH  20  22
HETATM   22  C10 UNL     1      -4.280   1.300   0.122  1.00  0.00     0.133 C 
HETATM   23  C11 UNL     1      -5.093   2.482  -0.382  1.00  0.00     0.027 C 
ENDBRANCH  20  22
ENDBRANCH  13  20
ENDBRANCH   6   8
ENDBRANCH   5   6
ENDBRANCH   4   5
ENDBRANCH   3   4
TORSDOF 7
