REMARK  7 active torsions:
REMARK  status: ('A' for Active; 'I' for Inactive)
REMARK    1  A    between atoms: C2_2  and  C3_3 
REMARK    2  A    between atoms: C3_3  and  C4_4 
REMARK    3  A    between atoms: C4_4  and  C5_5 
REMARK    4  A    between atoms: C5_5  and  O1_6 
REMARK    5  A    between atoms: C5_5  and  C6_8 
REMARK    6  A    between atoms: C9_11  and  N1_12 
REMARK    7  A    between atoms: C12_19  and  O2_20 
ROOT
HETATM    1  C6  UNL     1      -0.041  -0.748  -0.003  1.00  0.00     0.076 C 
HETATM    2  C7  UNL     1       0.281   0.200  -1.129  1.00  0.00     0.050 C 
HETATM    3  C8  UNL     1      -0.765  -0.144  -2.140  1.00  0.00     0.259 C 
HETATM    4  C9  UNL     1      -1.568   0.968  -2.741  1.00  0.00     0.249 C 
HETATM    5  C10 UNL     1      -2.309   0.917  -1.416  1.00  0.00     0.255 C 
HETATM    6  C11 UNL     1      -3.783   1.133  -1.471  1.00  0.00     0.045 C 
HETATM    7  N2  UNL     1      -1.957  -0.481  -1.363  1.00  0.00     0.130 N 
HETATM    8  C12 UNL     1      -1.507  -1.033  -0.132  1.00  0.00     0.364 C 
ENDROOT
BRANCH   1   9
HETATM    9  C5  UNL     1       0.265  -0.256   1.362  1.00  0.00     0.126 C 
BRANCH   9  10
HETATM   10  C4  UNL     1       1.719   0.063   1.633  1.00  0.00     0.036 C 
BRANCH  10  11
HETATM   11  C3  UNL     1       2.619  -1.049   1.215  1.00  0.00     0.029 C 
BRANCH  11  12
HETATM   12  C2  UNL     1       4.046  -0.711   1.613  1.00  0.00    -0.037 C 
HETATM   13  C1  UNL     1       4.727  -1.417   2.461  1.00  0.00     0.007 C 
ENDBRANCH  11  12
ENDBRANCH  10  11
ENDBRANCH   9  10
BRANCH   9  14
HETATM   14  O1  UNL     1      -0.468   0.840   1.787  1.00  0.00    -0.395 OA
ATOM     15  H1  UNL     1      -1.381   0.640   1.617  1.00  0.00     0.210 HD
ENDBRANCH   9  14
ENDBRANCH   1   9
BRANCH   8  16
HETATM   16  O2  UNL     1      -2.233  -0.698   0.982  1.00  0.00    -0.367 OA
ATOM     17  H2  UNL     1      -3.162  -0.879   0.900  1.00  0.00     0.212 HD
ENDBRANCH   8  16
BRANCH   4  18
HETATM   18  N1  UNL     1      -0.892   2.179  -3.053  1.00  0.00    -0.071 N 
ATOM     19  H13 UNL     1      -0.415   2.522  -2.219  1.00  0.00     0.274 HD
ATOM     20  H12 UNL     1      -0.097   1.974  -3.658  1.00  0.00     0.274 HD
ATOM     21  H11 UNL     1      -1.439   2.936  -3.462  1.00  0.00     0.274 HD
ENDBRANCH   4  18
TORSDOF 7
