REMARK  2 active torsions:
REMARK  status: ('A' for Active; 'I' for Inactive)
REMARK    1  A    between atoms: C2_2  and  C3_6 
REMARK    2  A    between atoms: C3_6  and  C4_7 
ROOT
HETATM    1  C4  UNL     1       0.181  -0.367  -0.309  1.00  0.00    -0.001 C 
HETATM    2  C5  UNL     1      -0.107   0.205   1.015  1.00  0.00    -0.010 C 
HETATM    3  C6  UNL     1      -0.811  -0.885   1.846  1.00  0.00     0.005 C 
HETATM    4  C7  UNL     1      -1.597  -1.763   0.929  1.00  0.00     0.001 C 
HETATM    5  C8  UNL     1      -2.137  -1.078  -0.292  1.00  0.00     0.005 C 
HETATM    6  C9  UNL     1      -1.092  -0.396  -1.130  1.00  0.00    -0.010 C 
HETATM    7  C10 UNL     1      -1.496   1.021  -1.369  1.00  0.00     0.005 C 
HETATM    8  C11 UNL     1      -1.808   1.754  -0.089  1.00  0.00     0.001 C 
HETATM    9  C12 UNL     1      -0.914   1.467   1.036  1.00  0.00     0.005 C 
ENDROOT
BRANCH   1  10
HETATM   10  C3  UNL     1       1.363   0.113  -1.049  1.00  0.00     0.056 C 
BRANCH  10  11
HETATM   11  C2  UNL     1       2.607  -0.198  -0.312  1.00  0.00    -0.024 C 
HETATM   12  C1  UNL     1       3.941   0.339  -0.822  1.00  0.00     0.062 C 
HETATM   13  N1  UNL     1       2.641  -0.934   0.728  1.00  0.00    -0.406 N 
ATOM     14  H12 UNL     1       3.499  -1.148   1.236  1.00  0.00     0.155 HD
ATOM     15  H11 UNL     1       1.749  -1.293   1.069  1.00  0.00     0.155 HD
ENDBRANCH  10  11
ENDBRANCH   1  10
TORSDOF 2
