REMARK  2 active torsions:
REMARK  status: ('A' for Active; 'I' for Inactive)
REMARK    1  A    between atoms: C4_4  and  C5_5 
REMARK    2  A    between atoms: C5_5  and  C6_6 
ROOT
HETATM    1  C5  UNL     1       0.922   0.361   0.532  1.00  0.00     0.037 C 
ENDROOT
BRANCH   1   2
HETATM    2  C4  UNL     1      -0.404   0.408  -0.188  1.00  0.00    -0.013 C 
HETATM    3  C3  UNL     1      -1.329   1.433   0.400  1.00  0.00     0.005 C 
HETATM    4  C2  UNL     1      -2.547   0.753   1.033  1.00  0.00     0.000 C 
HETATM    5  C1  UNL     1      -3.285   0.079  -0.110  1.00  0.00     0.000 C 
HETATM    6  C10 UNL     1      -2.404  -0.845  -0.887  1.00  0.00     0.000 C 
HETATM    7  C9  UNL     1      -1.026  -0.952  -0.276  1.00  0.00     0.005 C 
ENDBRANCH   1   2
BRANCH   1   8
HETATM    8  C6  UNL     1       1.865  -0.645  -0.025  1.00  0.00     0.188 C 
HETATM    9  C7  UNL     1       3.184  -0.702   0.681  1.00  0.00     0.060 C 
HETATM   10  C8  UNL     1       3.610   0.328  -0.339  1.00  0.00     0.235 C 
HETATM   11  N1  UNL     1       2.569  -0.171  -1.218  1.00  0.00    -0.071 N 
ATOM     12  H12 UNL     1       2.790  -0.807  -1.984  1.00  0.00     0.277 HD
ATOM     13  H11 UNL     1       2.109   0.445  -1.888  1.00  0.00     0.277 HD
ENDBRANCH   1   8
TORSDOF 2
