REMARK  3 active torsions:
REMARK  status: ('A' for Active; 'I' for Inactive)
REMARK    1  A    between atoms: C2_2  and  C3_3 
REMARK    2  A    between atoms: C3_3  and  N1_4 
REMARK    3  A    between atoms: C3_3  and  C4_8 
ROOT
HETATM    1  C4  UNL     1      -0.589  -0.182   0.225  1.00  0.00     0.020 C 
HETATM    2  C5  UNL     1      -0.206   1.010   1.099  1.00  0.00     0.007 C 
HETATM    3  C6  UNL     1       0.804   0.482   2.106  1.00  0.00     0.000 C 
HETATM    4  C7  UNL     1       2.159   0.563   1.512  1.00  0.00     0.000 C 
HETATM    5  C8  UNL     1       2.598  -0.613   0.727  1.00  0.00     0.000 C 
HETATM    6  C9  UNL     1       1.546  -1.318  -0.039  1.00  0.00     0.000 C 
HETATM    7  C10 UNL     1       0.542  -0.438  -0.707  1.00  0.00     0.007 C 
ENDROOT
BRANCH   1   8
HETATM    8  C3  UNL     1      -1.882   0.171  -0.454  1.00  0.00     0.209 C 
BRANCH   8   9
HETATM    9  C2  UNL     1      -2.405  -0.862  -1.339  1.00  0.00    -0.004 C 
HETATM   10  C1  UNL     1      -2.680  -0.586  -2.597  1.00  0.00     0.009 C 
ENDBRANCH   8   9
BRANCH   8  11
HETATM   11  N1  UNL     1      -1.790   1.420  -1.146  1.00  0.00    -0.071 N 
ATOM     12  H13 UNL     1      -1.242   1.340  -2.003  1.00  0.00     0.275 HD
ATOM     13  H12 UNL     1      -2.681   1.691  -1.561  1.00  0.00     0.275 HD
ATOM     14  H11 UNL     1      -1.424   2.143  -0.527  1.00  0.00     0.275 HD
ENDBRANCH   8  11
ENDBRANCH   1   8
TORSDOF 3
