REMARK  2 active torsions:
REMARK  status: ('A' for Active; 'I' for Inactive)
REMARK    1  A    between atoms: C4_4  and  N1_5 
REMARK    2  A    between atoms: N1_5  and  C5_7 
ROOT
HETATM    1  N1  UNL     1       0.065   0.578  -0.307  1.00  0.00    -0.413 N 
ATOM      2  H1  UNL     1       0.132   1.545  -0.623  1.00  0.00     0.154 HD
ENDROOT
BRANCH   1   3
HETATM    3  C4  UNL     1      -1.014   0.109   0.495  1.00  0.00     0.077 C 
HETATM    4  C3  UNL     1      -1.795  -0.952  -0.272  1.00  0.00     0.024 C 
HETATM    5  C2  UNL     1      -3.239  -0.488  -0.281  1.00  0.00     0.002 C 
HETATM    6  C1  UNL     1      -3.279   0.421   0.959  1.00  0.00     0.002 C 
HETATM    7  C10 UNL     1      -2.015   1.236   0.686  1.00  0.00     0.024 C 
ENDBRANCH   1   3
BRANCH   1   8
HETATM    8  C5  UNL     1       1.047  -0.406  -0.636  1.00  0.00     0.077 C 
HETATM    9  C6  UNL     1       1.778  -0.959   0.552  1.00  0.00     0.024 C 
HETATM   10  C7  UNL     1       3.181  -0.407   0.487  1.00  0.00     0.002 C 
HETATM   11  C8  UNL     1       3.012   0.814  -0.387  1.00  0.00     0.002 C 
HETATM   12  C9  UNL     1       2.111   0.285  -1.486  1.00  0.00     0.024 C 
ENDBRANCH   1   8
TORSDOF 2
