REMARK  0 active torsions:
REMARK  status: ('A' for Active; 'I' for Inactive)
ROOT
HETATM    1  C1  UNL     1      -1.988   0.831   0.042  1.00  0.00     0.000 C 
HETATM    2  C2  UNL     1      -1.994  -0.649   0.217  1.00  0.00     0.000 C 
HETATM    3  C3  UNL     1      -0.707  -1.170  -0.396  1.00  0.00     0.007 C 
HETATM    4  C4  UNL     1       0.367  -0.734   0.579  1.00  0.00     0.017 C 
HETATM    5  C5  UNL     1       1.714  -1.311   0.261  1.00  0.00     0.237 C 
HETATM    6  N1  UNL     1       2.501  -0.261  -0.337  1.00  0.00    -0.074 N 
ATOM      7  H11 UNL     1       2.953  -0.554  -1.203  1.00  0.00     0.277 HD
ATOM      8  H12 UNL     1       3.345  -0.051   0.196  1.00  0.00     0.277 HD
HETATM    9  C6  UNL     1       1.664   0.882  -0.514  1.00  0.00     0.237 C 
HETATM   10  C7  UNL     1       0.504   0.739   0.479  1.00  0.00     0.017 C 
HETATM   11  C8  UNL     1      -0.684   1.495   0.045  1.00  0.00     0.007 C 
ENDROOT
TORSDOF 0
