REMARK  10 active torsions:
REMARK  status: ('A' for Active; 'I' for Inactive)
REMARK    1  A    between atoms: C2_2  and  N2_6 
REMARK    2  A    between atoms: N2_6  and  N3_8 
REMARK    3  A    between atoms: N3_8  and  C3_10 
REMARK    4  A    between atoms: C4_13  and  O1_14 
REMARK    5  A    between atoms: O1_14  and  C5_15 
REMARK    6  A    between atoms: C6_17  and  C7_18 
REMARK    7  A    between atoms: C7_18  and  O3_19 
REMARK    8  A    between atoms: C7_18  and  O4_21 
REMARK    9  A    between atoms: C8_26  and  O5_27 
REMARK   10  A    between atoms: C9_29  and  N6_30 
ROOT
HETATM    1  C5  UNL     1      -1.145  -0.310   0.161  1.00  0.00     0.345 C 
HETATM    2  O2  UNL     1      -1.929   0.813  -0.068  1.00  0.00    -0.317 OA
HETATM    3  C6  UNL     1      -3.049   0.883   0.713  1.00  0.00     0.382 C 
HETATM    4  N5  UNL     1      -4.074  -0.062   0.396  1.00  0.00    -0.015 N 
ATOM      5  H51 UNL     1      -4.994   0.373   0.467  1.00  0.00     0.283 HD
ATOM      6  H52 UNL     1      -4.154  -0.761   1.134  1.00  0.00     0.283 HD
HETATM    7  C8  UNL     1      -3.918  -0.698  -0.881  1.00  0.00     0.360 C 
HETATM    8  C9  UNL     1      -3.064  -1.947  -0.621  1.00  0.00     0.313 C 
HETATM    9  C10 UNL     1      -2.012  -1.529   0.346  1.00  0.00     0.216 C 
HETATM   10  O6  UNL     1      -1.802  -2.160   1.342  1.00  0.00    -0.290 OA
ENDROOT
BRANCH   1  11
HETATM   11  O1  UNL     1      -0.262  -0.174   1.223  1.00  0.00    -0.281 OA
BRANCH  11  12
HETATM   12  C4  UNL     1       1.102  -0.280   1.001  1.00  0.00     0.256 A 
HETATM   13  N4  UNL     1       1.717  -0.512  -0.189  1.00  0.00    -0.151 N 
HETATM   14  C3  UNL     1       3.046  -0.550  -0.025  1.00  0.00     0.714 A 
ATOM     15  H4  UNL     1       1.235  -0.639  -1.079  1.00  0.00     0.188 HD
HETATM   16  N8  UNL     1       3.253  -0.338   1.286  1.00  0.00    -0.128 N 
HETATM   17  N7  UNL     1       2.100  -0.175   1.911  1.00  0.00    -0.250 N 
ATOM     18  H8  UNL     1       4.169  -0.307   1.734  1.00  0.00     0.205 HD
ATOM     19  H7  UNL     1       1.982   0.000   2.909  1.00  0.00     0.191 HD
BRANCH  14  20
HETATM   20  N3  UNL     1       3.958  -0.751  -0.940  1.00  0.00    -0.129 N 
ATOM     21  H3  UNL     1       3.692  -0.903  -1.913  1.00  0.00     0.205 HD
BRANCH  20  22
HETATM   22  N2  UNL     1       5.303  -0.754  -0.562  1.00  0.00    -0.276 N 
ATOM     23  H2  UNL     1       5.809  -1.639  -0.581  1.00  0.00     0.189 HD
BRANCH  22  24
HETATM   24  C2  UNL     1       6.001   0.411  -0.153  1.00  0.00     0.086 C 
HETATM   25  C1  UNL     1       5.576   1.725  -0.646  1.00  0.00     0.090 C 
HETATM   26  N1  UNL     1       7.006   0.316   0.650  1.00  0.00    -0.388 N 
ATOM     27  H12 UNL     1       7.508   1.154   0.944  1.00  0.00     0.157 HD
ATOM     28  H11 UNL     1       7.302  -0.598   0.993  1.00  0.00     0.157 HD
ENDBRANCH  22  24
ENDBRANCH  20  22
ENDBRANCH  14  20
ENDBRANCH  11  12
ENDBRANCH   1  11
BRANCH   3  29
HETATM   29  C7  UNL     1      -3.650   2.278   0.522  1.00  0.00     0.310 C 
BRANCH  29  30
HETATM   30  O3  UNL     1      -2.739   3.274   0.803  1.00  0.00    -0.367 OA
ATOM     31  H3  UNL     1      -3.112   4.140   0.684  1.00  0.00     0.212 HD
ENDBRANCH  29  30
BRANCH  29  32
HETATM   32  O4  UNL     1      -4.150   2.373  -0.791  1.00  0.00    -0.367 OA
ATOM     33  H4  UNL     1      -4.523   3.239  -0.910  1.00  0.00     0.212 HD
ENDBRANCH  29  32
ENDBRANCH   3  29
BRANCH   8  34
HETATM   34  N6  UNL     1      -2.494  -2.447  -1.854  1.00  0.00    -0.064 N 
ATOM     35  H63 UNL     1      -3.211  -2.620  -2.558  1.00  0.00     0.275 HD
ATOM     36  H62 UNL     1      -1.967  -1.725  -2.346  1.00  0.00     0.275 HD
ATOM     37  H61 UNL     1      -1.927  -3.277  -1.681  1.00  0.00     0.275 HD
ENDBRANCH   8  34
BRANCH   7  38
HETATM   38  O5  UNL     1      -5.103  -1.088  -1.457  1.00  0.00    -0.368 OA
ATOM     39  H5  UNL     1      -5.000  -1.509  -2.302  1.00  0.00     0.212 HD
ENDBRANCH   7  38
TORSDOF 10
