REMARK  10 active torsions:
REMARK  status: ('A' for Active; 'I' for Inactive)
REMARK    1  A    between atoms: C5_8  and  N3_9 
REMARK    2  A    between atoms: N3_9  and  O2_10 
REMARK    3  A    between atoms: N3_9  and  O3_12 
REMARK    4  A    between atoms: C6_14  and  O4_15 
REMARK    5  A    between atoms: C9_20  and  N4_21 
REMARK    6  A    between atoms: N4_21  and  N5_22 
REMARK    7  A    between atoms: C10_25  and  C11_26 
REMARK    8  A    between atoms: C11_26  and  C12_27 
REMARK    9  A    between atoms: C12_27  and  N6_28 
REMARK   10  A    between atoms: N6_28  and  N7_29 
ROOT
HETATM    1  C1  UNL     1      -2.503   3.996  -0.308  1.00  0.00     0.163 C 
HETATM    2  N1  UNL     1      -2.004   2.633  -0.230  1.00  0.00    -0.281 N 
HETATM    3  C2  UNL     1      -0.715   2.460   0.103  1.00  0.00     0.294 A 
HETATM    4  O1  UNL     1       0.057   3.421   0.345  1.00  0.00    -0.264 OA
HETATM    5  C3  UNL     1      -0.261   1.137   0.170  1.00  0.00     0.179 A 
HETATM    6  N2  UNL     1      -1.108   0.133  -0.093  1.00  0.00    -0.286 N 
HETATM    7  C4  UNL     1      -0.805  -1.152  -0.058  1.00  0.00     0.071 A 
HETATM    8  C5  UNL     1      -1.942  -1.910  -0.389  1.00  0.00     0.126 A 
HETATM    9  C6  UNL     1      -2.927  -0.980  -0.615  1.00  0.00     0.127 A 
HETATM   10  C7  UNL     1      -2.385   0.296  -0.424  1.00  0.00     0.145 A 
HETATM   11  C8  UNL     1      -2.849   1.591  -0.495  1.00  0.00     0.280 A 
HETATM   12  O5  UNL     1      -4.053   1.774  -0.806  1.00  0.00    -0.265 OA
HETATM   13  C9  UNL     1       0.540  -1.577   0.317  1.00  0.00     0.173 A 
HETATM   14  C10 UNL     1       1.521  -0.425   0.552  1.00  0.00     0.111 A 
HETATM   15  N8  UNL     1       0.941   0.855   0.455  1.00  0.00    -0.365 N 
ATOM     16  H8  UNL     1       1.560   1.646   0.635  1.00  0.00     0.161 HD
ENDROOT
BRANCH  14  17
HETATM   17  C11 UNL     1       2.735  -0.613  -0.324  1.00  0.00     0.045 C 
BRANCH  17  18
HETATM   18  C12 UNL     1       3.798   0.385  -0.205  1.00  0.00     0.136 C 
BRANCH  18  19
HETATM   19  N6  UNL     1       3.526   1.745  -0.513  1.00  0.00    -0.148 NA
BRANCH  19  20
HETATM   20  N7  UNL     1       4.723   2.526  -0.422  1.00  0.00    -0.348 N 
ATOM     21  H72 UNL     1       5.635   2.145  -0.170  1.00  0.00     0.172 HD
ATOM     22  H71 UNL     1       4.528   3.502  -0.643  1.00  0.00     0.172 HD
ENDBRANCH  19  20
ENDBRANCH  18  19
ENDBRANCH  17  18
ENDBRANCH  14  17
BRANCH  13  23
HETATM   23  N4  UNL     1       0.536  -2.329   1.580  1.00  0.00    -0.135 NA
BRANCH  23  24
HETATM   24  N5  UNL     1       0.043  -1.598   2.636  1.00  0.00    -0.348 N 
ATOM     25  H52 UNL     1      -0.282  -0.636   2.537  1.00  0.00     0.172 HD
ATOM     26  H51 UNL     1       0.040  -2.120   3.512  1.00  0.00     0.172 HD
ENDBRANCH  23  24
ENDBRANCH  13  23
BRANCH   8  27
HETATM   27  N3  UNL     1      -1.984  -3.337  -0.465  1.00  0.00    -0.031 NA
BRANCH  27  28
HETATM   28  O2  UNL     1      -0.889  -3.811  -1.133  1.00  0.00    -0.284 OA
ATOM     29  H2  UNL     1      -0.917  -4.759  -1.184  1.00  0.00     0.240 HD
ENDBRANCH  27  28
BRANCH  27  30
HETATM   30  O3  UNL     1      -3.045  -3.783  -1.172  1.00  0.00    -0.284 OA
ATOM     31  H3  UNL     1      -3.073  -4.731  -1.223  1.00  0.00     0.240 HD
ENDBRANCH  27  30
ENDBRANCH   8  27
BRANCH   9  32
HETATM   32  O4  UNL     1      -4.224  -1.203  -0.967  1.00  0.00    -0.356 OA
ATOM     33  H4  UNL     1      -4.905  -0.560  -1.123  1.00  0.00     0.218 HD
ENDBRANCH   9  32
TORSDOF 10
