REMARK  8 active torsions:
REMARK  status: ('A' for Active; 'I' for Inactive)
REMARK    1  A    between atoms: C2_2  and  C3_3 
REMARK    2  A    between atoms: C3_3  and  C4_4 
REMARK    3  A    between atoms: C7_7  and  C8_8 
REMARK    4  A    between atoms: C10_10  and  N1_11 
REMARK    5  A    between atoms: N1_11  and  C11_13 
REMARK    6  A    between atoms: C11_13  and  C12_14 
REMARK    7  A    between atoms: C14_18  and  C15_19 
REMARK    8  A    between atoms: C15_19  and  C16_21 
ROOT
HETATM    1  N1  UNL     1       1.226  -0.681   0.126  1.00  0.00    -0.369 N 
ATOM      2  H1  UNL     1       2.161  -1.085   0.183  1.00  0.00     0.161 HD
ENDROOT
BRANCH   1   3
HETATM    3  C10 UNL     1       0.196  -1.442   0.029  1.00  0.00     0.104 A 
HETATM    4  C9  UNL     1      -1.081  -0.927  -0.049  1.00  0.00     0.078 A 
HETATM    5  C8  UNL     1      -2.180  -1.760  -0.155  1.00  0.00     0.046 A 
HETATM    6  N5  UNL     1      -1.959  -3.108  -0.180  1.00  0.00    -0.352 N 
HETATM    7  C23 UNL     1      -0.728  -3.604  -0.104  1.00  0.00     0.182 A 
ATOM      8  H5  UNL     1      -2.752  -3.745  -0.258  1.00  0.00     0.166 HD
HETATM    9  N4  UNL     1       0.348  -2.774  -0.000  1.00  0.00    -0.339 N 
ATOM     10  H4  UNL     1       1.285  -3.173   0.057  1.00  0.00     0.168 HD
BRANCH   5  11
HETATM   11  C7  UNL     1      -3.552  -1.275  -0.248  1.00  0.00    -0.009 A 
HETATM   12  C6  UNL     1      -4.585  -2.173  -0.361  1.00  0.00     0.014 A 
HETATM   13  C5  UNL     1      -5.912  -1.774  -0.458  1.00  0.00     0.008 A 
HETATM   14  C4  UNL     1      -6.194  -0.427  -0.439  1.00  0.00    -0.058 A 
HETATM   15  C25 UNL     1      -5.155   0.469  -0.325  1.00  0.00     0.008 A 
HETATM   16  C24 UNL     1      -3.820   0.063  -0.228  1.00  0.00     0.014 A 
BRANCH  14  17
HETATM   17  C3  UNL     1      -7.615   0.041  -0.544  1.00  0.00     0.038 C 
BRANCH  17  18
HETATM   18  C2  UNL     1      -8.201   0.149   0.835  1.00  0.00     0.000 C 
HETATM   19  C1  UNL     1      -9.640   0.623   0.731  1.00  0.00     0.005 C 
ENDBRANCH  17  18
ENDBRANCH  14  17
ENDBRANCH   5  11
ENDBRANCH   1   3
BRANCH   1  20
HETATM   20  C11 UNL     1       1.050   0.742   0.154  1.00  0.00     0.197 C 
BRANCH  20  21
HETATM   21  C12 UNL     1       2.319   1.514   0.157  1.00  0.00     0.101 A 
HETATM   22  N2  UNL     1       2.393   2.844  -0.141  1.00  0.00    -0.352 N 
HETATM   23  C13 UNL     1       3.671   3.228  -0.055  1.00  0.00     0.123 A 
ATOM     24  H2  UNL     1       1.606   3.444  -0.388  1.00  0.00     0.166 HD
HETATM   25  C14 UNL     1       4.445   2.126   0.305  1.00  0.00     0.102 A 
HETATM   26  N3  UNL     1       3.571   1.121   0.420  1.00  0.00    -0.335 N 
HETATM   27  C22 UNL     1       3.934  -0.213   0.820  1.00  0.00     0.158 C 
BRANCH  25  28
HETATM   28  C15 UNL     1       5.873   2.220   0.488  1.00  0.00     0.210 C 
HETATM   29  O1  UNL     1       6.344   3.254   1.092  1.00  0.00    -0.285 OA
BRANCH  28  30
HETATM   30  C16 UNL     1       6.866   1.267   0.061  1.00  0.00     0.017 A 
HETATM   31  C17 UNL     1       8.062   1.127   0.746  1.00  0.00     0.018 A 
HETATM   32  C18 UNL     1       9.038   0.243   0.342  1.00  0.00     0.043 A 
HETATM   33  C19 UNL     1       8.838  -0.533  -0.775  1.00  0.00     0.116 A 
HETATM   34  F1  UNL     1       9.778  -1.420  -1.210  1.00  0.00    -0.206 F 
HETATM   35  C20 UNL     1       7.657  -0.419  -1.483  1.00  0.00     0.043 A 
HETATM   36  C21 UNL     1       6.713   0.468  -1.052  1.00  0.00     0.018 A 
ENDBRANCH  28  30
ENDBRANCH  25  28
ENDBRANCH  20  21
ENDBRANCH   1  20
TORSDOF 8
