REMARK  8 active torsions:
REMARK  status: ('A' for Active; 'I' for Inactive)
REMARK    1  A    between atoms: C2_2  and  C4_4 
REMARK    2  A    between atoms: C4_4  and  N1_5 
REMARK    3  A    between atoms: N1_5  and  C5_6 
REMARK    4  A    between atoms: N1_5  and  S1_24 
REMARK    5  A    between atoms: C5_6  and  C6_7 
REMARK    6  A    between atoms: C6_7  and  C7_8 
REMARK    7  A    between atoms: C7_8  and  N2_9 
REMARK    8  A    between atoms: N2_9  and  C8_11 
ROOT
HETATM    1  N2  UNL     1      -2.007   1.390  -0.554  1.00  0.00    -0.389 N 
ATOM      2  H2  UNL     1      -2.188   1.598  -1.536  1.00  0.00     0.159 HD
ENDROOT
BRANCH   1   3
HETATM    3  C7  UNL     1      -0.741   1.833  -0.007  1.00  0.00     0.121 C 
BRANCH   3   4
HETATM    4  C6  UNL     1       0.207   0.633  -0.101  1.00  0.00     0.040 C 
BRANCH   4   5
HETATM    5  C5  UNL     1       1.543   1.031   0.453  1.00  0.00     0.142 C 
BRANCH   5   6
HETATM    6  N1  UNL     1       2.534   0.022   0.437  1.00  0.00    -0.290 N 
BRANCH   6   7
HETATM    7  C4  UNL     1       2.937  -0.512  -0.786  1.00  0.00     0.079 C 
BRANCH   7   8
HETATM    8  C2  UNL     1       4.262  -0.082  -1.349  1.00  0.00     0.017 C 
HETATM    9  C1  UNL     1       4.296   1.428  -1.558  1.00  0.00     0.015 C 
HETATM   10  C3  UNL     1       5.479  -0.608  -0.679  1.00  0.00     0.015 C 
ENDBRANCH   7   8
ENDBRANCH   6   7
BRANCH   6  11
HETATM   11  S1  UNL     1       2.525  -0.906   1.834  1.00  0.00     0.228 S 
HETATM   12  C17 UNL     1       4.091  -1.516   2.325  1.00  0.00     0.186 C 
HETATM   13  O1  UNL     1       1.509  -2.051   1.734  1.00  0.00    -0.206 OA
HETATM   14  O2  UNL     1       2.000  -0.090   3.021  1.00  0.00    -0.206 OA
ENDBRANCH   6  11
ENDBRANCH   5   6
ENDBRANCH   4   5
ENDBRANCH   3   4
ENDBRANCH   1   3
BRANCH   1  15
HETATM   15  C8  UNL     1      -2.913   0.764   0.083  1.00  0.00     0.043 A 
HETATM   16  C9  UNL     1      -2.862   0.392   1.406  1.00  0.00     0.075 A 
HETATM   17  C10 UNL     1      -3.895  -0.287   2.019  1.00  0.00     0.118 A 
HETATM   18  N3  UNL     1      -3.870  -0.682   3.377  1.00  0.00    -0.083 NA
HETATM   19  N4  UNL     1      -4.985  -0.588   1.279  1.00  0.00    -0.344 N 
HETATM   20  C11 UNL     1      -5.105  -0.262  -0.002  1.00  0.00     0.046 A 
ATOM     21  H4  UNL     1      -5.752  -1.090   1.726  1.00  0.00     0.167 HD
HETATM   22  C12 UNL     1      -6.255  -0.603  -0.704  1.00  0.00     0.032 A 
HETATM   23  C16 UNL     1      -4.058   0.424  -0.615  1.00  0.00     0.018 A 
HETATM   24  C13 UNL     1      -6.346  -0.247  -2.038  1.00  0.00     0.021 A 
HETATM   25  C14 UNL     1      -5.323   0.424  -2.642  1.00  0.00     0.011 A 
HETATM   26 BR1  UNL     1      -5.497   0.892  -4.480  1.00  0.00    -0.051 Br
HETATM   27  C15 UNL     1      -4.196   0.755  -1.939  1.00  0.00     0.035 A 
ENDBRANCH   1  15
TORSDOF 8
