REMARK  6 active torsions:
REMARK  status: ('A' for Active; 'I' for Inactive)
REMARK    1  A    between atoms: N1_2  and  C2_3 
REMARK    2  A    between atoms: C2_3  and  C3_4 
REMARK    3  A    between atoms: C3_4  and  N2_5 
REMARK    4  A    between atoms: N2_5  and  C4_7 
REMARK    5  A    between atoms: N3_8  and  N4_10 
REMARK    6  A    between atoms: N4_10  and  N5_11 
ROOT
HETATM    1  N2  UNL     1       1.354  -0.985   0.721  1.00  0.00    -0.384 N 
ATOM      2  H2  UNL     1       1.515  -1.522   1.573  1.00  0.00     0.160 HD
ENDROOT
BRANCH   1   3
HETATM    3  C3  UNL     1       0.026  -0.982   0.155  1.00  0.00     0.148 C 
BRANCH   3   4
HETATM    4  C2  UNL     1      -0.551   0.406   0.332  1.00  0.00     0.256 C 
BRANCH   4   5
HETATM    5  N1  UNL     1      -1.893   0.518  -0.191  1.00  0.00    -0.066 N 
HETATM    6  C1  UNL     1      -2.028   0.872  -1.601  1.00  0.00     0.272 C 
HETATM    7  C5  UNL     1      -2.806   1.256   0.682  1.00  0.00     0.265 A 
HETATM    8  C6  UNL     1      -2.965  -0.196   0.453  1.00  0.00     0.265 A 
ENDBRANCH   4   5
ENDBRANCH   3   4
ENDBRANCH   1   3
BRANCH   1   9
HETATM    9  C4  UNL     1       2.440  -0.284   0.157  1.00  0.00     0.191 C 
HETATM   10  N3  UNL     1       2.972   0.749   0.700  1.00  0.00    -0.281 N 
ATOM     11  H3  UNL     1       2.595   1.085   1.586  1.00  0.00     0.185 HD
BRANCH  10  12
HETATM   12  N4  UNL     1       4.050   1.434   0.125  1.00  0.00    -0.029 NA
BRANCH  12  13
HETATM   13  N5  UNL     1       4.781   0.653  -0.772  1.00  0.00    -0.329 N 
ATOM     14  H52 UNL     1       4.541  -0.317  -0.977  1.00  0.00     0.174 HD
ATOM     15  H51 UNL     1       5.566   1.152  -1.191  1.00  0.00     0.174 HD
ENDBRANCH  12  13
ENDBRANCH  10  12
ENDBRANCH   1   9
TORSDOF 6
