REMARK  5 active torsions:
REMARK  status: ('A' for Active; 'I' for Inactive)
REMARK    1  A    between atoms: N2_4  and  N3_6 
REMARK    2  A    between atoms: C1_8  and  C2_9 
REMARK    3  A    between atoms: C2_9  and  S1_10 
REMARK    4  A    between atoms: S1_10  and  C3_12 
REMARK    5  A    between atoms: C3_12  and  C4_13 
ROOT
HETATM    1  N3  UNL     1      -2.169  -1.659   0.975  1.00  0.00    -0.301 N 
ATOM      2  H3  UNL     1      -2.107  -2.474   1.586  1.00  0.00     0.187 HD
HETATM    3  C1  UNL     1      -1.199  -0.833   0.983  1.00  0.00     0.094 C 
ENDROOT
BRANCH   3   4
HETATM    4  C2  UNL     1      -1.197   0.385   0.126  1.00  0.00     0.155 C 
BRANCH   4   5
HETATM    5  S1  UNL     1       0.413   1.139   0.116  1.00  0.00     0.024 S 
HETATM    6  O1  UNL     1       0.769   1.546   1.715  1.00  0.00    -0.257 OA
BRANCH   5   7
HETATM    7  C3  UNL     1       1.601  -0.105  -0.388  1.00  0.00     0.152 C 
BRANCH   7   8
HETATM    8  C4  UNL     1       2.975   0.460  -0.418  1.00  0.00     0.065 C 
HETATM    9  N4  UNL     1       3.796   0.108  -1.334  1.00  0.00    -0.410 N 
ATOM     10  H42 UNL     1       3.491  -0.564  -2.038  1.00  0.00     0.155 HD
ATOM     11  H41 UNL     1       4.739   0.496  -1.355  1.00  0.00     0.155 HD
ENDBRANCH   7   8
ENDBRANCH   5   7
ENDBRANCH   4   5
ENDBRANCH   3   4
BRANCH   1  12
HETATM   12  N2  UNL     1      -3.307  -1.522   0.188  1.00  0.00    -0.250 N 
HETATM   13  N1  UNL     1      -4.052  -0.511   0.371  1.00  0.00    -0.331 N 
ATOM     14  H12 UNL     1      -3.807   0.177   1.084  1.00  0.00     0.178 HD
ATOM     15  H11 UNL     1      -4.887  -0.410  -0.206  1.00  0.00     0.178 HD
ATOM     16  H2  UNL     1      -3.538  -2.218  -0.521  1.00  0.00     0.207 HD
ENDBRANCH   1  12
TORSDOF 5
