REMARK  2 active torsions:
REMARK  status: ('A' for Active; 'I' for Inactive)
REMARK    1  A    between atoms: C1_2  and  C2_3 
REMARK    2  A    between atoms: C2_3  and  C3_4 
ROOT
HETATM    1  C3  UNL     1      -0.377  -0.081   0.489  1.00  0.00     0.248 A 
HETATM    2  F2  UNL     1      -0.089  -0.218   1.839  1.00  0.00    -0.229 F 
HETATM    3  C4  UNL     1      -1.301   0.989   0.129  1.00  0.00     0.352 A 
HETATM    4  F3  UNL     1      -1.073   1.659  -1.076  1.00  0.00    -0.195 F 
HETATM    5  F4  UNL     1      -1.805   1.829   1.106  1.00  0.00    -0.195 F 
HETATM    6  C5  UNL     1      -1.788  -0.399   0.029  1.00  0.00     0.352 A 
HETATM    7  F5  UNL     1      -2.565  -0.983   0.993  1.00  0.00    -0.195 F 
HETATM    8  F6  UNL     1      -1.976  -0.917  -1.234  1.00  0.00    -0.195 F 
ENDROOT
BRANCH   1   9
HETATM    9  C2  UNL     1       0.692  -0.602  -0.416  1.00  0.00     0.088 C 
BRANCH   9  10
HETATM   10  C1  UNL     1       2.016   0.124  -0.189  1.00  0.00     0.225 C 
HETATM   11  F1  UNL     1       2.352  -0.106   1.145  1.00  0.00    -0.255 F 
ENDBRANCH   9  10
ENDBRANCH   1   9
TORSDOF 2
