REMARK  1 active torsions:
REMARK  status: ('A' for Active; 'I' for Inactive)
REMARK    1  A    between atoms: C1_2  and  C2_4 
ROOT
HETATM    1  C2  UNL     1      -0.909   0.088  -0.675  1.00  0.00     0.292 C 
HETATM    2  F3  UNL     1      -1.608  -0.242  -1.849  1.00  0.00    -0.203 F 
HETATM    3  C3  UNL     1      -0.350  -1.151  -0.123  1.00  0.00     0.312 C 
HETATM    4  N1  UNL     1       0.979  -1.100   0.377  1.00  0.00    -0.061 N 
ATOM      5  H11 UNL     1       1.378  -2.038   0.421  1.00  0.00     0.277 HD
ATOM      6  H12 UNL     1       0.976  -0.865   1.369  1.00  0.00     0.277 HD
HETATM    7  C4  UNL     1       1.855  -0.215  -0.346  1.00  0.00     0.344 C 
HETATM    8  C5  UNL     1       1.164   1.120  -0.451  1.00  0.00     0.381 C 
HETATM    9  F4  UNL     1       1.983   1.927  -1.250  1.00  0.00    -0.174 F 
HETATM   10  F5  UNL     1       1.136   1.689   0.815  1.00  0.00    -0.174 F 
HETATM   11  O1  UNL     1      -0.066   1.096  -0.988  1.00  0.00    -0.276 OA
ENDROOT
BRANCH   1  12
HETATM   12  C1  UNL     1      -1.990   0.659   0.257  1.00  0.00     0.421 C 
HETATM   13  F1  UNL     1      -2.941  -0.334   0.455  1.00  0.00    -0.208 F 
HETATM   14  F2  UNL     1      -2.616   1.656  -0.477  1.00  0.00    -0.208 F 
ENDBRANCH   1  12
TORSDOF 1
