REMARK  2 active torsions:
REMARK  status: ('A' for Active; 'I' for Inactive)
REMARK    1  A    between atoms: C2_3  and  C3_5 
REMARK    2  A    between atoms: C3_5  and  C4_6 
ROOT
HETATM    1  C3  UNL     1      -0.210   0.245  -0.130  1.00  0.00     0.231 A 
HETATM    2  O1  UNL     1      -0.105   1.008  -1.257  1.00  0.00    -0.324 OA
HETATM    3  C5  UNL     1      -0.916  -0.118  -1.438  1.00  0.00     0.356 A 
HETATM    4  F5  UNL     1      -0.418  -1.217  -2.082  1.00  0.00    -0.216 F 
ENDROOT
BRANCH   1   5
HETATM    5  C2  UNL     1       0.912  -0.624   0.294  1.00  0.00     0.166 C 
HETATM    6  C1  UNL     1       2.140  -0.187   0.156  1.00  0.00     0.229 C 
HETATM    7  F1  UNL     1       3.183  -0.957   0.534  1.00  0.00    -0.216 F 
HETATM    8  F2  UNL     1       0.587  -1.835   0.807  1.00  0.00    -0.205 F 
ENDBRANCH   1   5
BRANCH   1   9
HETATM    9  C4  UNL     1      -1.169   0.596   0.975  1.00  0.00     0.400 C 
HETATM   10  F3  UNL     1      -2.200   1.398   0.572  1.00  0.00    -0.210 F 
HETATM   11  F4  UNL     1      -0.528   1.134   2.074  1.00  0.00    -0.210 F 
ENDBRANCH   1   9
TORSDOF 2
