REMARK  2 active torsions:
REMARK  status: ('A' for Active; 'I' for Inactive)
REMARK    1  A    between atoms: C2_4  and  O1_5 
REMARK    2  A    between atoms: O1_5  and  C3_6 
ROOT
HETATM    1  F1  UNL     1      -2.273  -1.351  -0.742  1.00  0.00    -0.196 F 
HETATM    2  C1  UNL     1      -1.664  -0.168  -0.367  1.00  0.00     0.342 A 
HETATM    3  F2  UNL     1      -2.163   0.914  -1.093  1.00  0.00    -0.196 F 
HETATM    4  C2  UNL     1      -0.213  -0.262  -0.101  1.00  0.00     0.280 A 
HETATM    5  C4  UNL     1      -1.250   0.071   1.022  1.00  0.00     0.342 A 
HETATM    6  F3  UNL     1      -1.297   1.384   1.447  1.00  0.00    -0.196 F 
HETATM    7  F4  UNL     1      -1.403  -0.921   1.986  1.00  0.00    -0.196 F 
ENDROOT
BRANCH   4   8
HETATM    8  O1  UNL     1       0.665   0.757  -0.336  1.00  0.00    -0.359 OA
BRANCH   8   9
HETATM    9  C3  UNL     1       1.949   0.225  -0.407  1.00  0.00     0.283 C 
HETATM   10 CL1  UNL     1       3.177   1.470  -0.713  1.00  0.00    -0.102 Cl
ENDBRANCH   8   9
ENDBRANCH   4   8
TORSDOF 2
