REMARK  1 active torsions:
REMARK  status: ('A' for Active; 'I' for Inactive)
REMARK    1  A    between atoms: C3_4  and  C4_5 
ROOT
HETATM    1  F1  UNL     1      -2.116   2.097  -0.416  1.00  0.00    -0.203 F 
HETATM    2  C1  UNL     1      -1.349   0.984  -0.256  1.00  0.00     0.161 A 
HETATM    3  C2  UNL     1       0.014   1.077  -0.046  1.00  0.00     0.076 A 
HETATM    4  C3  UNL     1       0.761  -0.078   0.113  1.00  0.00     0.079 A 
HETATM    5  N1  UNL     1       0.135  -1.247   0.057  1.00  0.00    -0.329 N 
ATOM      6  H1  UNL     1       0.699  -2.088   0.176  1.00  0.00     0.168 HD
HETATM    7  C5  UNL     1      -1.180  -1.409  -0.143  1.00  0.00     0.230 A 
HETATM    8  F4  UNL     1      -1.744  -2.638  -0.186  1.00  0.00    -0.183 F 
HETATM    9  C6  UNL     1      -1.933  -0.262  -0.302  1.00  0.00     0.210 A 
HETATM   10  F5  UNL     1      -3.277  -0.367  -0.508  1.00  0.00    -0.198 F 
ENDROOT
BRANCH   4  11
HETATM   11  C4  UNL     1       2.248   0.018   0.342  1.00  0.00     0.403 C 
HETATM   12  F2  UNL     1       2.919  -0.754  -0.585  1.00  0.00    -0.207 F 
HETATM   13  F3  UNL     1       2.474  -0.545   1.585  1.00  0.00    -0.207 F 
ENDBRANCH   4  11
TORSDOF 1
