REMARK  11 active torsions:
REMARK  status: ('A' for Active; 'I' for Inactive)
REMARK    1  A    between atoms: C2_2  and  C3_3 
REMARK    2  A    between atoms: C3_3  and  C4_4 
REMARK    3  A    between atoms: C4_4  and  N1_5 
REMARK       I    between atoms: C5_7  and  N3_9 
REMARK    4  A    between atoms: N3_9  and  C6_11 
REMARK    5  A    between atoms: C9_16  and  N5_17 
REMARK    6  A    between atoms: N5_17  and  C10_19 
REMARK    7  A    between atoms: C10_19  and  C11_20 
REMARK    8  A    between atoms: C11_20  and  C12_21 
REMARK    9  A    between atoms: C12_21  and  N6_22 
REMARK   10  A    between atoms: C20_32  and  C22_34 
REMARK   11  A    between atoms: C22_34  and  C23_35 
ROOT
HETATM    1  C6  UNL     1      -1.011   0.351   0.313  1.00  0.00     0.686 A 
HETATM    2  N4  UNL     1      -1.997  -0.550   0.420  1.00  0.00    -0.191 N 
ATOM      3  H4  UNL     1      -2.956  -0.238   0.570  1.00  0.00     0.184 HD
HETATM    4  C7  UNL     1      -1.722  -1.886   0.329  1.00  0.00     0.059 A 
HETATM    5  C8  UNL     1      -0.443  -2.329   0.128  1.00  0.00     0.032 A 
HETATM    6  C9  UNL     1       0.563  -1.378   0.019  1.00  0.00     0.129 A 
HETATM    7  N7  UNL     1       0.258  -0.085   0.113  1.00  0.00    -0.176 N 
ATOM      8  H7  UNL     1       1.006   0.603   0.032  1.00  0.00     0.186 HD
HETATM    9  C19 UNL     1      -0.185  -3.611   0.074  1.00  0.00     0.000 A 
HETATM   10  C20 UNL     1      -1.188  -4.688   0.219  1.00  0.00    -0.022 A 
HETATM   11  C21 UNL     1      -1.008  -5.528  -1.066  1.00  0.00     0.020 C 
HETATM   12  C25 UNL     1      -2.558  -4.192   0.343  1.00  0.00     0.042 A 
HETATM   13  C26 UNL     1      -2.705  -2.741   0.423  1.00  0.00     0.005 A 
ENDROOT
BRANCH   6  14
HETATM   14  N5  UNL     1       1.756  -1.781  -0.178  1.00  0.00    -0.375 N 
ATOM     15  H5  UNL     1       1.884  -2.791  -0.243  1.00  0.00     0.161 HD
BRANCH  14  16
HETATM   16  C10 UNL     1       2.934  -0.989  -0.319  1.00  0.00     0.126 C 
BRANCH  16  17
HETATM   17  C11 UNL     1       3.057  -0.288  -1.657  1.00  0.00     0.064 C 
BRANCH  17  18
HETATM   18  C12 UNL     1       4.323   0.502  -1.697  1.00  0.00     0.059 C 
BRANCH  18  19
HETATM   19  N6  UNL     1       4.486   1.510  -0.729  1.00  0.00    -0.393 N 
HETATM   20  C13 UNL     1       3.645   2.638  -0.823  1.00  0.00     0.122 C 
HETATM   21  C14 UNL     1       3.779   3.668   0.214  1.00  0.00     0.020 C 
HETATM   22  C15 UNL     1       5.110   4.032   0.713  1.00  0.00     0.002 C 
HETATM   23  C16 UNL     1       6.211   4.139  -0.273  1.00  0.00     0.002 C 
HETATM   24  C17 UNL     1       6.317   2.978  -1.215  1.00  0.00     0.020 C 
HETATM   25  C18 UNL     1       5.871   1.741  -0.477  1.00  0.00     0.122 C 
ENDBRANCH  18  19
ENDBRANCH  17  18
ENDBRANCH  16  17
ENDBRANCH  14  16
ENDBRANCH   6  14
BRANCH   1  26
HETATM   26  N3  UNL     1      -1.276   1.610   0.400  1.00  0.00    -0.163 N 
HETATM   27  C5  UNL     1      -2.617   2.020   0.608  1.00  0.00     0.202 C 
HETATM   28  N1  UNL     1      -3.396   2.273  -0.385  1.00  0.00    -0.364 N 
HETATM   29  N2  UNL     1      -3.126   2.161   1.928  1.00  0.00    -0.063 NA
ATOM     30  H1  UNL     1      -3.042   2.174  -1.336  1.00  0.00     0.162 HD
ATOM     31  H3  UNL     1      -0.531   2.302   0.320  1.00  0.00     0.187 HD
BRANCH  28  32
HETATM   32  C4  UNL     1      -4.765   2.695  -0.178  1.00  0.00     0.122 C 
BRANCH  32  33
HETATM   33  C3  UNL     1      -4.904   4.142  -0.595  1.00  0.00     0.019 C 
BRANCH  33  34
HETATM   34  C2  UNL     1      -6.332   4.587  -0.379  1.00  0.00    -0.003 C 
HETATM   35  C1  UNL     1      -6.466   6.037  -0.795  1.00  0.00     0.005 C 
ENDBRANCH  33  34
ENDBRANCH  32  33
ENDBRANCH  28  32
ENDBRANCH   1  26
BRANCH  10  36
HETATM   36  C22 UNL     1      -0.728  -5.505   1.410  1.00  0.00     0.013 C 
BRANCH  36  37
HETATM   37  C23 UNL     1      -1.559  -6.652   1.806  1.00  0.00    -0.004 C 
HETATM   38  C24 UNL     1      -1.764  -7.752   0.836  1.00  0.00     0.005 C 
ENDBRANCH  36  37
ENDBRANCH  10  36
TORSDOF 11
