REMARK  10 active torsions:
REMARK  status: ('A' for Active; 'I' for Inactive)
REMARK    1  A    between atoms: C3_3  and  N1_4 
REMARK    2  A    between atoms: N1_4  and  C4_5 
REMARK    3  A    between atoms: N1_4  and  C12_19 
REMARK    4  A    between atoms: C4_5  and  C5_6 
REMARK    5  A    between atoms: C5_6  and  C6_7 
REMARK    6  A    between atoms: C6_7  and  C7_8 
REMARK    7  A    between atoms: C12_19  and  C13_20 
REMARK    8  A    between atoms: C13_20  and  C14_21 
REMARK    9  A    between atoms: C14_21  and  C15_22 
REMARK   10  A    between atoms: C14_21  and  C18_25 
ROOT
HETATM    1  C1  UNL     1      -0.629  -0.531  -3.460  1.00  0.00     0.013 C 
HETATM    2  C2  UNL     1       0.382  -0.446  -2.783  1.00  0.00    -0.087 C 
HETATM    3  C3  UNL     1       1.608  -0.342  -2.001  1.00  0.00     0.364 C 
ENDROOT
BRANCH   3   4
HETATM    4  N1  UNL     1       1.226  -0.297  -0.585  1.00  0.00     0.099 N 
BRANCH   4   5
HETATM    5  C4  UNL     1       2.462  -0.207   0.214  1.00  0.00     0.274 C 
BRANCH   5   6
HETATM    6  C5  UNL     1       3.179   1.086   0.068  1.00  0.00     0.035 C 
BRANCH   6   7
HETATM    7  C6  UNL     1       4.434   1.042   0.936  1.00  0.00     0.048 C 
BRANCH   7   8
HETATM    8  C7  UNL     1       5.367  -0.026   0.560  1.00  0.00     0.032 A 
HETATM    9  C8  UNL     1       6.149   0.105  -0.569  1.00  0.00     0.021 A 
HETATM   10  C9  UNL     1       6.074   1.302  -1.444  1.00  0.00     0.069 C 
HETATM   11  N2  UNL     1       7.023  -0.875  -0.920  1.00  0.00    -0.312 N 
HETATM   12  C10 UNL     1       7.122  -1.967  -0.167  1.00  0.00     0.327 A 
ATOM     13  H2  UNL     1       7.599  -0.774  -1.755  1.00  0.00     0.170 HD
HETATM   14  O1  UNL     1       7.948  -2.874  -0.515  1.00  0.00    -0.247 OA
HETATM   15  N3  UNL     1       6.365  -2.102   0.932  1.00  0.00    -0.275 N 
HETATM   16  C11 UNL     1       5.486  -1.168   1.328  1.00  0.00     0.257 A 
ATOM     17  H3  UNL     1       6.461  -2.950   1.490  1.00  0.00     0.173 HD
HETATM   18  O2  UNL     1       4.787  -1.340   2.383  1.00  0.00    -0.267 OA
ENDBRANCH   7   8
ENDBRANCH   6   7
ENDBRANCH   5   6
ENDBRANCH   4   5
BRANCH   4  19
HETATM   19  C12 UNL     1       0.399   0.869  -0.333  1.00  0.00     0.275 C 
BRANCH  19  20
HETATM   20  C13 UNL     1      -0.136   0.941   1.040  1.00  0.00     0.053 C 
BRANCH  20  21
HETATM   21  C14 UNL     1      -1.113  -0.073   1.499  1.00  0.00     0.118 C 
BRANCH  21  22
HETATM   22  C15 UNL     1      -0.612  -1.437   1.441  1.00  0.00    -0.096 C 
HETATM   23  C16 UNL     1      -0.222  -2.600   1.400  1.00  0.00    -0.110 C 
HETATM   24  C17 UNL     1       0.217  -3.998   1.352  1.00  0.00     0.112 C 
ENDBRANCH  21  22
BRANCH  21  25
HETATM   25  C18 UNL     1      -2.448   0.053   0.877  1.00  0.00     0.044 A 
HETATM   26  C19 UNL     1      -2.752  -0.681  -0.245  1.00  0.00     0.117 A 
HETATM   27  N4  UNL     1      -3.932  -0.620  -0.866  1.00  0.00    -0.356 N 
HETATM   28  C20 UNL     1      -4.218  -1.412  -2.046  1.00  0.00     0.156 C 
HETATM   29  C21 UNL     1      -4.881   0.200  -0.374  1.00  0.00     0.078 A 
HETATM   30  C22 UNL     1      -4.616   0.958   0.755  1.00  0.00     0.135 A 
HETATM   31  C27 UNL     1      -6.181   0.273  -1.048  1.00  0.00     0.036 A 
HETATM   32  N5  UNL     1      -3.389   0.865   1.362  1.00  0.00    -0.337 N 
HETATM   33  N6  UNL     1      -5.595   1.818   1.282  1.00  0.00    -0.341 N 
HETATM   34  C23 UNL     1      -3.195   1.688   2.507  1.00  0.00     0.158 C 
HETATM   35  C24 UNL     1      -6.870   1.890   0.620  1.00  0.00     0.024 A 
ATOM     36  H6  UNL     1      -5.406   2.377   2.114  1.00  0.00     0.167 HD
HETATM   37  C25 UNL     1      -7.768   2.697   1.125  1.00  0.00     0.043 C 
HETATM   38  C26 UNL     1      -7.115   1.075  -0.570  1.00  0.00     0.031 A 
ENDBRANCH  21  25
ENDBRANCH  20  21
ENDBRANCH  19  20
ENDBRANCH   4  19
ENDBRANCH   3   4
TORSDOF 10
