REMARK  11 active torsions:
REMARK  status: ('A' for Active; 'I' for Inactive)
REMARK    1  A    between atoms: C3_5  and  C4_6 
REMARK    2  A    between atoms: C4_6  and  C5_7 
REMARK    3  A    between atoms: C6_8  and  O1_9 
REMARK    4  A    between atoms: C10_16  and  C11_17 
REMARK    5  A    between atoms: C11_17  and  C12_18 
REMARK    6  A    between atoms: C12_18  and  N3_19 
REMARK    7  A    between atoms: C15_22  and  O2_23 
REMARK    8  A    between atoms: O2_23  and  C16_24 
REMARK    9  A    between atoms: C19_28  and  C20_29 
REMARK   10  A    between atoms: C27_38  and  C28_39 
REMARK   11  A    between atoms: C28_39  and  C29_40 
ROOT
HETATM    1  C5  UNL     1       3.065   2.000  -1.025  1.00  0.00     0.031 A 
HETATM    2  C6  UNL     1       3.957   2.480  -1.937  1.00  0.00     0.153 A 
HETATM    3  N2  UNL     1       3.428   2.559  -3.140  1.00  0.00    -0.322 N 
ATOM      4  H2  UNL     1       3.918   2.891  -3.971  1.00  0.00     0.169 HD
HETATM    5  C7  UNL     1       2.134   2.135  -3.117  1.00  0.00     0.120 A 
HETATM    6  C8  UNL     1       1.896   1.780  -1.789  1.00  0.00     0.023 A 
HETATM    7  C9  UNL     1       0.681   1.294  -1.417  1.00  0.00     0.024 A 
HETATM    8  C10 UNL     1      -0.318   1.174  -2.423  1.00  0.00    -0.040 A 
HETATM    9  C23 UNL     1      -0.066   1.525  -3.680  1.00  0.00     0.099 A 
HETATM   10  N4  UNL     1       1.163   2.010  -4.042  1.00  0.00    -0.346 N 
HETATM   11  C24 UNL     1       1.383   2.369  -5.405  1.00  0.00     0.157 C 
ENDROOT
BRANCH   8  12
HETATM   12  C11 UNL     1      -1.589   0.613  -1.872  1.00  0.00     0.068 C 
BRANCH  12  13
HETATM   13  C12 UNL     1      -2.496   1.644  -1.317  1.00  0.00     0.242 C 
BRANCH  13  14
HETATM   14  N3  UNL     1      -3.577   1.203  -0.518  1.00  0.00    -0.063 N 
HETATM   15  C13 UNL     1      -3.876   2.142   0.567  1.00  0.00     0.240 C 
HETATM   16  C14 UNL     1      -4.732   1.320   1.522  1.00  0.00     0.069 C 
HETATM   17  C15 UNL     1      -4.382  -0.099   1.113  1.00  0.00     0.108 C 
HETATM   18  C18 UNL     1      -3.085   0.100   0.358  1.00  0.00     0.276 C 
HETATM   19  C19 UNL     1      -5.277  -0.417  -0.045  1.00  0.00     0.118 C 
HETATM   20  C22 UNL     1      -4.738   0.596  -1.077  1.00  0.00     0.252 C 
BRANCH  17  21
HETATM   21  O2  UNL     1      -4.281  -0.986   2.145  1.00  0.00    -0.308 OA
BRANCH  21  22
HETATM   22  C16 UNL     1      -3.949  -2.299   2.016  1.00  0.00     0.255 C 
HETATM   23  C17 UNL     1      -3.786  -3.316   3.073  1.00  0.00     0.126 C 
HETATM   24  O3  UNL     1      -3.732  -2.742   0.828  1.00  0.00    -0.266 OA
ENDBRANCH  21  22
ENDBRANCH  17  21
BRANCH  19  25
HETATM   25  C20 UNL     1      -6.706  -0.110   0.237  1.00  0.00     0.131 C 
HETATM   26  C21 UNL     1      -7.288  -0.774   1.480  1.00  0.00     0.091 C 
HETATM   27  O4  UNL     1      -7.432   0.582  -0.380  1.00  0.00    -0.298 OA
ENDBRANCH  19  25
ENDBRANCH  13  14
ENDBRANCH  12  13
ENDBRANCH   8  12
BRANCH   1  28
HETATM   28  C4  UNL     1       3.133   1.777   0.393  1.00  0.00     0.046 C 
BRANCH  28  29
HETATM   29  C3  UNL     1       3.259   0.990   1.269  1.00  0.00     0.040 A 
HETATM   30  N1  UNL     1       3.336   0.616   2.484  1.00  0.00    -0.356 N 
HETATM   31  C2  UNL     1       3.715  -0.620   2.897  1.00  0.00     0.030 A 
ATOM     32  H1  UNL     1       3.094   1.298   3.202  1.00  0.00     0.166 HD
HETATM   33  C1  UNL     1       3.747  -0.855   4.120  1.00  0.00     0.043 C 
HETATM   34  C27 UNL     1       3.957  -1.235   1.698  1.00  0.00    -0.024 A 
HETATM   35  C25 UNL     1       3.717  -0.386   0.698  1.00  0.00    -0.027 A 
HETATM   36  C26 UNL     1       3.880  -0.691  -0.726  1.00  0.00     0.051 C 
BRANCH  34  37
HETATM   37  C28 UNL     1       4.527  -2.631   1.607  1.00  0.00     0.041 C 
BRANCH  37  38
HETATM   38  C29 UNL     1       6.027  -2.535   1.867  1.00  0.00     0.000 C 
HETATM   39  C30 UNL     1       6.703  -3.864   1.811  1.00  0.00     0.005 C 
ENDBRANCH  37  38
ENDBRANCH  34  37
ENDBRANCH  28  29
ENDBRANCH   1  28
BRANCH   2  40
HETATM   40  O1  UNL     1       5.276   2.819  -1.522  1.00  0.00    -0.345 OA
ATOM     41  H1  UNL     1       5.898   3.154  -2.158  1.00  0.00     0.219 HD
ENDBRANCH   2  40
TORSDOF 11
