REMARK  9 active torsions:
REMARK  status: ('A' for Active; 'I' for Inactive)
REMARK    1  A    between atoms: C3_3  and  C4_4 
REMARK    2  A    between atoms: C4_4  and  C5_5 
REMARK    3  A    between atoms: C6_8  and  C7_9 
REMARK    4  A    between atoms: C7_9  and  C8_10 
REMARK    5  A    between atoms: C8_10  and  C9_11 
REMARK    6  A    between atoms: C9_11  and  C10_12 
REMARK    7  A    between atoms: C10_12  and  C11_13 
REMARK    8  A    between atoms: C13_15  and  C14_16 
REMARK    9  A    between atoms: N2_17  and  C15_19 
ROOT
HETATM    1  C11 UNL     1      -1.611   0.264  -1.683  1.00  0.00     0.012 A 
HETATM    2  C12 UNL     1      -2.483   0.605  -0.670  1.00  0.00     0.040 A 
HETATM    3  C13 UNL     1      -3.863   0.558  -0.825  1.00  0.00     0.010 A 
HETATM    4  C21 UNL     1      -4.325   0.142  -2.075  1.00  0.00     0.071 A 
HETATM    5  N4  UNL     1      -5.538  -0.025  -2.583  1.00  0.00    -0.357 N 
ATOM      6  H4  UNL     1      -6.403   0.150  -2.071  1.00  0.00     0.166 HD
HETATM    7  C22 UNL     1      -5.487  -0.458  -3.872  1.00  0.00     0.008 A 
HETATM    8  C23 UNL     1      -6.695  -0.740  -4.722  1.00  0.00     0.068 C 
HETATM    9  C24 UNL     1      -4.162  -0.568  -4.189  1.00  0.00     0.056 A 
HETATM   10  C25 UNL     1      -3.419  -0.193  -3.066  1.00  0.00     0.064 A 
HETATM   11  N5  UNL     1      -2.079  -0.134  -2.877  1.00  0.00    -0.353 N 
HETATM   12  C26 UNL     1      -1.241  -0.506  -3.997  1.00  0.00     0.156 C 
ENDROOT
BRANCH   1  13
HETATM   13  C10 UNL     1      -0.149   0.345  -1.472  1.00  0.00     0.057 C 
BRANCH  13  14
HETATM   14  C9  UNL     1       0.459  -0.910  -0.914  1.00  0.00     0.006 C 
BRANCH  14  15
HETATM   15  C8  UNL     1       1.965  -0.754  -0.732  1.00  0.00     0.006 C 
BRANCH  15  16
HETATM   16  C7  UNL     1       2.474  -2.052  -0.167  1.00  0.00     0.057 C 
BRANCH  16  17
HETATM   17  C6  UNL     1       3.941  -2.058   0.065  1.00  0.00     0.010 A 
HETATM   18  N1  UNL     1       4.597  -1.693   1.158  1.00  0.00    -0.359 N 
HETATM   19  C5  UNL     1       5.943  -1.848   0.989  1.00  0.00     0.040 A 
ATOM     20  H1  UNL     1       4.156  -1.344   2.009  1.00  0.00     0.166 HD
HETATM   21  C28 UNL     1       6.088  -2.342  -0.301  1.00  0.00    -0.033 A 
HETATM   22  C27 UNL     1       4.847  -2.474  -0.881  1.00  0.00     0.034 A 
HETATM   23  C29 UNL     1       7.366  -2.673  -0.953  1.00  0.00     0.050 C 
BRANCH  19  24
HETATM   24  C4  UNL     1       6.943  -1.582   1.981  1.00  0.00     0.062 C 
BRANCH  24  25
HETATM   25  C3  UNL     1       7.617  -0.490   2.261  1.00  0.00     0.064 A 
HETATM   26  C2  UNL     1       7.595   0.762   1.702  1.00  0.00     0.056 A 
HETATM   27  C1  UNL     1       6.859   1.229   0.712  1.00  0.00     0.045 C 
HETATM   28  N7  UNL     1       8.498   1.564   2.341  1.00  0.00    -0.303 N 
HETATM   29  C30 UNL     1       9.063   0.814   3.277  1.00  0.00     0.327 A 
HETATM   30  C31 UNL     1       8.783   2.983   2.038  1.00  0.00     0.161 C 
HETATM   31  N6  UNL     1       8.563  -0.420   3.260  1.00  0.00    -0.306 N 
HETATM   32  O1  UNL     1       9.960   1.162   4.106  1.00  0.00    -0.246 OA
ATOM     33  H6  UNL     1       8.834  -1.183   3.880  1.00  0.00     0.171 HD
ENDBRANCH  24  25
ENDBRANCH  19  24
ENDBRANCH  16  17
ENDBRANCH  15  16
ENDBRANCH  14  15
ENDBRANCH  13  14
ENDBRANCH   1  13
BRANCH   3  34
HETATM   34  C14 UNL     1      -4.763   0.927   0.251  1.00  0.00     0.102 C 
HETATM   35  N2  UNL     1      -6.037   0.926   0.181  1.00  0.00    -0.365 N 
ATOM     36  H2  UNL     1      -6.466   0.645  -0.701  1.00  0.00     0.165 HD
BRANCH  35  37
HETATM   37  C15 UNL     1      -6.894   1.289   1.246  1.00  0.00     0.034 A 
HETATM   38  C16 UNL     1      -7.619   2.457   1.245  1.00  0.00     0.046 A 
HETATM   39  C17 UNL     1      -8.439   2.761   2.306  1.00  0.00     0.092 A 
HETATM   40  N3  UNL     1      -8.559   1.954   3.350  1.00  0.00    -0.371 N 
HETATM   41  C18 UNL     1      -9.442   2.325   4.448  1.00  0.00     0.154 C 
HETATM   42  C19 UNL     1      -7.848   0.790   3.371  1.00  0.00     0.092 A 
HETATM   43  C20 UNL     1      -7.015   0.449   2.328  1.00  0.00     0.046 A 
ENDBRANCH  35  37
ENDBRANCH   3  34
TORSDOF 9
