REMARK  10 active torsions:
REMARK  status: ('A' for Active; 'I' for Inactive)
REMARK    1  A    between atoms: C2_2  and  C3_3 
REMARK    2  A    between atoms: N1_8  and  C8_9 
REMARK    3  A    between atoms: C8_9  and  C9_10 
REMARK    4  A    between atoms: C12_16  and  C13_17 
REMARK    5  A    between atoms: C16_20  and  C17_21 
REMARK    6  A    between atoms: C17_21  and  N3_22 
REMARK    7  A    between atoms: C20_25  and  C21_26 
REMARK    8  A    between atoms: C21_26  and  N4_27 
REMARK    9  A    between atoms: C24_30  and  C25_31 
REMARK   10  A    between atoms: N6_33  and  O2_35 
ROOT
HETATM    1  C13 UNL     1      -2.245   0.314  -0.393  1.00  0.00    -0.020 A 
HETATM    2  C14 UNL     1      -1.605  -0.308  -1.442  1.00  0.00     0.013 A 
HETATM    3  C15 UNL     1      -0.425  -0.999  -1.244  1.00  0.00     0.010 A 
HETATM    4  C16 UNL     1       0.161  -1.096   0.001  1.00  0.00    -0.040 A 
HETATM    5  C30 UNL     1      -0.484  -0.471   1.048  1.00  0.00     0.010 A 
HETATM    6  C31 UNL     1      -1.662   0.219   0.853  1.00  0.00     0.013 A 
ENDROOT
BRANCH   4   7
HETATM    7  C17 UNL     1       1.435  -1.842   0.214  1.00  0.00     0.166 C 
BRANCH   7   8
HETATM    8  N3  UNL     1       2.597  -0.974   0.041  1.00  0.00    -0.362 N 
HETATM    9  C18 UNL     1       3.129  -0.288   1.069  1.00  0.00     0.091 A 
HETATM   10  C19 UNL     1       4.225   0.541   0.943  1.00  0.00     0.026 A 
HETATM   11  C20 UNL     1       4.825   0.693  -0.289  1.00  0.00    -0.037 A 
HETATM   12  C28 UNL     1       4.284  -0.008  -1.349  1.00  0.00     0.026 A 
HETATM   13  C29 UNL     1       3.187  -0.822  -1.164  1.00  0.00     0.091 A 
BRANCH  11  14
HETATM   14  C21 UNL     1       6.015   1.583  -0.467  1.00  0.00     0.166 C 
BRANCH  14  15
HETATM   15  N4  UNL     1       7.241   0.821  -0.258  1.00  0.00    -0.362 N 
HETATM   16  C22 UNL     1       7.831   0.689   0.919  1.00  0.00     0.091 A 
HETATM   17  C23 UNL     1       9.002  -0.056   1.041  1.00  0.00     0.032 A 
HETATM   18  C24 UNL     1       9.591  -0.676  -0.027  1.00  0.00     0.009 A 
HETATM   19  C26 UNL     1       8.936  -0.511  -1.249  1.00  0.00     0.032 A 
HETATM   20  C27 UNL     1       7.793   0.226  -1.324  1.00  0.00     0.091 A 
BRANCH  18  21
HETATM   21  C25 UNL     1      10.806  -1.459   0.054  1.00  0.00     0.146 C 
HETATM   22  N5  UNL     1      11.292  -2.048  -1.185  1.00  0.00    -0.080 NA
HETATM   23  N6  UNL     1      11.492  -1.690   1.064  1.00  0.00    -0.255 N 
ATOM     24  H6  UNL     1      12.306  -2.270   0.861  1.00  0.00     0.195 HD
BRANCH  23  25
HETATM   25  O2  UNL     1      11.409  -1.353   2.361  1.00  0.00    -0.288 OA
ATOM     26  H2  UNL     1      11.933  -1.530   3.133  1.00  0.00     0.244 HD
ENDBRANCH  23  25
ENDBRANCH  18  21
ENDBRANCH  14  15
ENDBRANCH  11  14
ENDBRANCH   7   8
ENDBRANCH   4   7
BRANCH   1  27
HETATM   27  C12 UNL     1      -3.508   1.064  -0.559  1.00  0.00     0.043 A 
HETATM   28  C11 UNL     1      -3.666   1.955  -1.599  1.00  0.00     0.256 A 
HETATM   29  N2  UNL     1      -4.797   2.648  -1.780  1.00  0.00    -0.332 N 
HETATM   30  O1  UNL     1      -2.710   2.114  -2.396  1.00  0.00    -0.267 OA
HETATM   31  C10 UNL     1      -5.817   2.482  -0.934  1.00  0.00     0.100 A 
ATOM     32  H2  UNL     1      -4.879   3.300  -2.560  1.00  0.00     0.168 HD
HETATM   33  C9  UNL     1      -5.728   1.597   0.140  1.00  0.00    -0.024 A 
HETATM   34  C32 UNL     1      -4.542   0.878   0.321  1.00  0.00     0.028 A 
BRANCH  33  35
HETATM   35  C8  UNL     1      -6.820   1.455   1.096  1.00  0.00     0.168 C 
BRANCH  35  36
HETATM   36  N1  UNL     1      -8.076   0.948   0.612  1.00  0.00    -0.356 N 
HETATM   37  C3  UNL     1      -8.387  -0.347   0.617  1.00  0.00     0.011 A 
HETATM   38  C4  UNL     1      -9.652  -0.768   0.164  1.00  0.00     0.025 A 
HETATM   39  C5  UNL     1     -10.567   0.129  -0.282  1.00  0.00     0.003 A 
HETATM   40  C6  UNL     1     -10.222   1.453  -0.276  1.00  0.00     0.017 A 
HETATM   41  C7  UNL     1      -9.001   1.872   0.160  1.00  0.00     0.091 A 
BRANCH  37  42
HETATM   42  C2  UNL     1      -7.460  -1.413   1.134  1.00  0.00     0.053 C 
HETATM   43  C1  UNL     1      -6.713  -2.112   0.046  1.00  0.00     0.011 C 
ENDBRANCH  37  42
ENDBRANCH  35  36
ENDBRANCH  33  35
ENDBRANCH   1  27
TORSDOF 10
