REMARK  6 active torsions:
REMARK  status: ('A' for Active; 'I' for Inactive)
REMARK    1  A    between atoms: C4_4  and  C5_5 
REMARK    2  A    between atoms: C5_5  and  N1_6 
REMARK    3  A    between atoms: N1_6  and  C6_8 
REMARK    4  A    between atoms: C6_8  and  C7_9 
REMARK    5  A    between atoms: C7_9  and  O1_10 
REMARK    6  A    between atoms: O1_10  and  C8_11 
ROOT
HETATM    1  C1  UNL     1       4.960   0.725   0.407  1.00  0.00     0.102 C 
HETATM    2  C2  UNL     1       4.026   1.498   0.202  1.00  0.00    -0.160 C 
HETATM    3  C3  UNL     1       2.974   2.426  -0.019  1.00  0.00     0.051 C 
HETATM    4  C4  UNL     1       1.748   2.160  -0.226  1.00  0.00     0.024 C 
ENDROOT
BRANCH   4   5
HETATM    5  C5  UNL     1       0.980   0.912  -0.317  1.00  0.00     0.083 C 
BRANCH   5   6
HETATM    6  N1  UNL     1       1.668  -0.303  -0.199  1.00  0.00    -0.397 N 
ATOM      7  H1  UNL     1       2.671  -0.342  -0.017  1.00  0.00     0.158 HD
BRANCH   6   8
HETATM    8  C6  UNL     1       0.878  -1.486  -0.349  1.00  0.00     0.145 C 
BRANCH   8   9
HETATM    9  C7  UNL     1      -0.096  -1.787   0.716  1.00  0.00     0.187 C 
BRANCH   9  10
HETATM   10  O1  UNL     1      -1.123  -0.982   1.000  1.00  0.00    -0.381 OA
BRANCH  10  11
HETATM   11  C8  UNL     1      -2.120  -0.799   0.077  1.00  0.00     0.172 C 
HETATM   12  C9  UNL     1      -3.509  -1.225   0.550  1.00  0.00     0.265 C 
HETATM   13  N2  UNL     1      -3.995  -0.223  -0.416  1.00  0.00    -0.070 N 
HETATM   14  C10 UNL     1      -2.779   0.515  -0.079  1.00  0.00     0.265 C 
ATOM     15  H22 UNL     1      -4.231  -0.468  -1.378  1.00  0.00     0.277 HD
ATOM     16  H21 UNL     1      -4.922   0.197  -0.341  1.00  0.00     0.277 HD
ENDBRANCH  10  11
ENDBRANCH   9  10
ENDBRANCH   8   9
ENDBRANCH   6   8
ENDBRANCH   5   6
ENDBRANCH   4   5
TORSDOF 6
