REMARK  5 active torsions:
REMARK  status: ('A' for Active; 'I' for Inactive)
REMARK    1  A    between atoms: C2_3  and  C3_5 
REMARK    2  A    between atoms: C3_5  and  C4_6 
REMARK    3  A    between atoms: C13_16  and  O3_17 
REMARK    4  A    between atoms: C21_26  and  O4_27 
REMARK    5  A    between atoms: C25_32  and  C26_33 
ROOT
HETATM    1  C1  UNL     1       9.061  -0.307  -0.225  1.00  0.00     0.232 C 
HETATM    2  N1  UNL     1       7.760  -0.587  -0.039  1.00  0.00    -0.395 NA
HETATM    3  C2  UNL     1       6.400  -0.879   0.156  1.00  0.00     0.293 C 
HETATM    4  O1  UNL     1       5.867  -1.907  -0.289  1.00  0.00    -0.257 OA
ENDROOT
BRANCH   3   5
HETATM    5  C3  UNL     1       5.602   0.103   0.934  1.00  0.00     0.147 C 
BRANCH   5   6
HETATM    6  C4  UNL     1       4.137   0.030   0.982  1.00  0.00    -0.001 C 
HETATM    7  C5  UNL     1       3.278   0.316  -0.131  1.00  0.00     0.012 C 
HETATM    8  C6  UNL     1       3.378  -0.490  -1.343  1.00  0.00     0.159 C 
HETATM    9  C22 UNL     1       1.810   0.556   0.165  1.00  0.00    -0.029 C 
HETATM   10  O2  UNL     1       4.097  -0.184  -2.312  1.00  0.00    -0.292 OA
HETATM   11  C7  UNL     1       2.572  -1.753  -1.444  1.00  0.00     0.085 C 
HETATM   12  C8  UNL     1       1.146  -1.318  -1.187  1.00  0.00     0.022 C 
HETATM   13  C9  UNL     1       0.971  -0.687   0.203  1.00  0.00    -0.013 C 
HETATM   14  C10 UNL     1       1.349  -1.680   1.258  1.00  0.00     0.021 C 
HETATM   15  C11 UNL     1      -0.497  -0.387   0.423  1.00  0.00     0.004 C 
HETATM   16  C12 UNL     1      -1.309  -0.138  -0.805  1.00  0.00     0.038 C 
HETATM   17  C19 UNL     1      -0.651   0.637   1.497  1.00  0.00    -0.007 C 
HETATM   18  C13 UNL     1      -2.729  -0.717  -0.698  1.00  0.00     0.128 C 
HETATM   19  C14 UNL     1      -3.769   0.354  -0.687  1.00  0.00    -0.004 C 
HETATM   20  C15 UNL     1      -3.377   1.363  -1.776  1.00  0.00     0.019 C 
HETATM   21  C16 UNL     1      -3.988   1.028   0.626  1.00  0.00    -0.003 C 
HETATM   22  C25 UNL     1      -5.151  -0.098  -1.049  1.00  0.00     0.066 C 
HETATM   23  C17 UNL     1      -2.881   1.770   1.235  1.00  0.00     0.006 C 
HETATM   24  C23 UNL     1      -5.201   1.901   0.297  1.00  0.00     0.006 C 
HETATM   25  C18 UNL     1      -2.026   0.847   2.041  1.00  0.00     0.005 C 
HETATM   26  C24 UNL     1      -6.108   0.847  -0.296  1.00  0.00     0.013 C 
HETATM   27  C20 UNL     1       0.006   1.917   1.046  1.00  0.00     0.041 C 
HETATM   28  C21 UNL     1       1.518   1.604   1.155  1.00  0.00     0.149 C 
BRANCH  18  29
HETATM   29  O3  UNL     1      -2.970  -1.645  -1.741  1.00  0.00    -0.395 OA
ATOM     30  H3  UNL     1      -3.848  -2.003  -1.675  1.00  0.00     0.210 HD
ENDBRANCH  18  29
BRANCH  22  31
HETATM   31  C26 UNL     1      -5.524  -1.464  -0.703  1.00  0.00     0.128 C 
HETATM   32  C27 UNL     1      -5.620  -2.045   0.657  1.00  0.00     0.091 C 
HETATM   33  O5  UNL     1      -5.794  -2.239  -1.640  1.00  0.00    -0.298 OA
ENDBRANCH  22  31
BRANCH  28  34
HETATM   34  O4  UNL     1       1.671   1.275   2.492  1.00  0.00    -0.391 OA
ATOM     35  H4  UNL     1       2.599   1.083   2.559  1.00  0.00     0.210 HD
ENDBRANCH  28  34
ENDBRANCH   5   6
ENDBRANCH   3   5
TORSDOF 4
