REMARK  6 active torsions:
REMARK  status: ('A' for Active; 'I' for Inactive)
REMARK    1  A    between atoms: S1_2  and  N1_4 
REMARK    2  A    between atoms: N1_4  and  C2_6 
REMARK    3  A    between atoms: C4_8  and  C6_10 
REMARK    4  A    between atoms: C7_11  and  C8_12 
REMARK    5  A    between atoms: C18_22  and  C20_24 
REMARK    6  A    between atoms: C21_27  and  O4_28 
ROOT
HETATM    1  C6  UNL     1       1.386  -0.952   0.912  1.00  0.00    -0.014 C 
HETATM    2  C7  UNL     1       0.315  -0.941   0.113  1.00  0.00    -0.003 C 
ENDROOT
BRANCH   1   3
HETATM    3  C4  UNL     1       2.731  -1.038   0.325  1.00  0.00     0.007 C 
HETATM    4  C3  UNL     1       3.802  -0.473   1.222  1.00  0.00     0.043 C 
HETATM    5  C2  UNL     1       4.353   0.704   0.476  1.00  0.00     0.103 C 
HETATM    6  C24 UNL     1       4.197   0.333  -0.957  1.00  0.00     0.009 C 
HETATM    7  C21 UNL     1       2.834  -0.369  -0.999  1.00  0.00     0.078 C 
HETATM    8  C23 UNL     1       3.556   1.442  -1.764  1.00  0.00     0.017 C 
HETATM    9  C25 UNL     1       5.305  -0.410  -1.615  1.00  0.00     0.020 C 
HETATM   10  C22 UNL     1       2.223   0.994  -1.148  1.00  0.00     0.041 C 
HETATM   11  C5  UNL     1       3.014  -2.529   0.105  1.00  0.00     0.023 C 
BRANCH   5  12
HETATM   12  N1  UNL     1       5.731   0.994   0.815  1.00  0.00    -0.336 N 
ATOM     13  H1  UNL     1       6.501   0.988   0.146  1.00  0.00     0.170 HD
BRANCH  12  14
HETATM   14  S1  UNL     1       5.904   1.351   2.494  1.00  0.00     0.106 S 
HETATM   15  C1  UNL     1       7.488   0.799   3.046  1.00  0.00     0.152 C 
HETATM   16  O1  UNL     1       5.813   3.012   2.720  1.00  0.00    -0.236 OA
ENDBRANCH  12  14
ENDBRANCH   5  12
BRANCH   7  17
HETATM   17  O4  UNL     1       2.660  -1.184  -2.113  1.00  0.00    -0.388 OA
ATOM     18  H4  UNL     1       2.726  -0.757  -2.959  1.00  0.00     0.210 HD
ENDBRANCH   7  17
ENDBRANCH   1   3
BRANCH   2  19
HETATM   19  C8  UNL     1      -1.027  -0.857   0.676  1.00  0.00     0.003 C 
HETATM   20  C9  UNL     1      -2.070  -0.847  -0.109  1.00  0.00    -0.075 C 
HETATM   21  C10 UNL     1      -1.841  -0.924  -1.572  1.00  0.00     0.034 C 
HETATM   22  C15 UNL     1      -3.409  -0.760   0.500  1.00  0.00     0.024 C 
HETATM   23  C11 UNL     1      -3.118  -1.130  -2.327  1.00  0.00     0.005 C 
HETATM   24  C12 UNL     1      -4.141  -0.120  -1.838  1.00  0.00     0.011 C 
HETATM   25  C13 UNL     1      -4.531  -0.410  -0.440  1.00  0.00    -0.019 C 
HETATM   26  C14 UNL     1      -5.410  -1.686  -0.505  1.00  0.00     0.017 C 
HETATM   27  C18 UNL     1      -5.331   0.650   0.235  1.00  0.00     0.052 C 
HETATM   28  C17 UNL     1      -4.398   1.318   1.242  1.00  0.00     0.022 C 
HETATM   29  C19 UNL     1      -6.427   0.015   1.129  1.00  0.00     0.027 C 
HETATM   30  C16 UNL     1      -3.334   0.323   1.554  1.00  0.00     0.011 C 
BRANCH  27  31
HETATM   31  C20 UNL     1      -6.022   1.630  -0.588  1.00  0.00     0.182 C 
HETATM   32  O2  UNL     1      -6.007   1.670  -1.815  1.00  0.00    -0.647 OA
HETATM   33  O3  UNL     1      -6.769   2.613   0.071  1.00  0.00    -0.647 OA
ENDBRANCH  27  31
ENDBRANCH   2  19
TORSDOF 6
