REMARK  6 active torsions:
REMARK  status: ('A' for Active; 'I' for Inactive)
REMARK    1  A    between atoms: C2_2  and  C3_3 
REMARK    2  A    between atoms: C2_2  and  N2_21 
REMARK    3  A    between atoms: C3_3  and  N1_4 
REMARK       I    between atoms: N1_4  and  C4_6 
REMARK    4  A    between atoms: C4_6  and  C5_8 
REMARK       I    between atoms: N2_21  and  C17_23 
REMARK    5  A    between atoms: C17_23  and  C18_25 
REMARK    6  A    between atoms: C18_25  and  O4_26 
ROOT
HETATM    1  C3  UNL     1       0.308   0.807  -1.165  1.00  0.00     0.147 C 
ENDROOT
BRANCH   1   2
HETATM    2  C2  UNL     1       0.780  -0.470  -0.529  1.00  0.00     0.098 C 
HETATM    3  C1  UNL     1       0.295  -1.609  -1.426  1.00  0.00     0.034 C 
BRANCH   2   4
HETATM    4  N2  UNL     1       2.231  -0.463  -0.459  1.00  0.00    -0.353 N 
HETATM    5  C17 UNL     1       2.911  -0.685   0.772  1.00  0.00     0.252 C 
HETATM    6  O3  UNL     1       2.222  -0.885   1.795  1.00  0.00    -0.270 OA
ATOM      7  H2  UNL     1       2.772  -0.296  -1.307  1.00  0.00     0.163 HD
BRANCH   5   8
HETATM    8  C18 UNL     1       4.395  -0.680   0.852  1.00  0.00     0.138 C 
HETATM    9  C19 UNL     1       4.913  -1.870   0.120  1.00  0.00     0.048 C 
HETATM   10  C20 UNL     1       6.088  -2.545   0.771  1.00  0.00     0.004 C 
HETATM   11  C21 UNL     1       7.310  -1.729   0.950  1.00  0.00     0.000 C 
HETATM   12  C22 UNL     1       8.160  -1.544  -0.248  1.00  0.00     0.000 C 
HETATM   13  C23 UNL     1       7.761  -0.518  -1.232  1.00  0.00     0.000 C 
HETATM   14  C24 UNL     1       7.158   0.725  -0.674  1.00  0.00     0.000 C 
HETATM   15  C25 UNL     1       5.638   0.781  -0.819  1.00  0.00     0.004 C 
HETATM   16  C26 UNL     1       4.922   0.646   0.473  1.00  0.00     0.048 C 
BRANCH   8  17
HETATM   17  O4  UNL     1       4.711  -0.895   2.201  1.00  0.00    -0.380 OA
ATOM     18  H4  UNL     1       5.660  -0.892   2.252  1.00  0.00     0.211 HD
ENDBRANCH   8  17
ENDBRANCH   5   8
ENDBRANCH   2   4
ENDBRANCH   1   2
BRANCH   1  19
HETATM   19  N1  UNL     1      -1.103   0.928  -1.314  1.00  0.00    -0.359 N 
HETATM   20  C4  UNL     1      -1.998   0.909  -0.216  1.00  0.00     0.222 C 
HETATM   21  O1  UNL     1      -1.507   0.781   0.935  1.00  0.00    -0.273 OA
ATOM     22  H1  UNL     1      -1.486   1.033  -2.253  1.00  0.00     0.162 HD
BRANCH  20  23
HETATM   23  C5  UNL     1      -3.484   1.037  -0.416  1.00  0.00     0.082 C 
HETATM   24  C6  UNL     1      -3.693   2.398  -1.040  1.00  0.00     0.015 C 
HETATM   25  C7  UNL     1      -4.560   3.179  -0.046  1.00  0.00     0.006 C 
HETATM   26  C8  UNL     1      -5.286   2.049   0.724  1.00  0.00    -0.010 C 
HETATM   27  C9  UNL     1      -6.350   1.585  -0.206  1.00  0.00     0.007 C 
HETATM   28  C16 UNL     1      -4.126   1.142   0.914  1.00  0.00     0.003 C 
HETATM   29  C10 UNL     1      -7.615   1.193   0.573  1.00  0.00     0.035 C 
HETATM   30  C11 UNL     1      -7.134   0.257   1.609  1.00  0.00     0.157 A 
HETATM   31  O2  UNL     1      -7.570  -0.961   1.936  1.00  0.00    -0.370 OA
HETATM   32  C12 UNL     1      -6.659  -0.959   0.901  1.00  0.00     0.084 A 
HETATM   33  C13 UNL     1      -7.325  -1.481  -0.350  1.00  0.00     0.049 C 
HETATM   34  C14 UNL     1      -5.229  -1.148   1.019  1.00  0.00     0.041 C 
HETATM   35  C15 UNL     1      -4.367  -0.132   1.640  1.00  0.00     0.009 C 
ENDBRANCH  20  23
ENDBRANCH   1  19
TORSDOF 6
