REMARK  7 active torsions:
REMARK  status: ('A' for Active; 'I' for Inactive)
REMARK    1  A    between atoms: N1_1  and  C1_4 
REMARK    2  A    between atoms: C2_7  and  C3_8 
REMARK    3  A    between atoms: C3_8  and  N3_9 
REMARK    4  A    between atoms: C4_11  and  C5_12 
REMARK    5  A    between atoms: C5_12  and  S1_13 
REMARK    6  A    between atoms: S1_13  and  C6_14 
REMARK    7  A    between atoms: C6_14  and  C7_15 
ROOT
HETATM    1  N3  UNL     1       2.110   1.347   0.112  1.00  0.00    -0.396 N 
ATOM      2  H3  UNL     1       2.662   2.095   0.533  1.00  0.00     0.159 HD
HETATM    3  C4  UNL     1       0.840   1.214   0.516  1.00  0.00     0.066 C 
ENDROOT
BRANCH   1   4
HETATM    4  C3  UNL     1       2.745   0.532  -0.852  1.00  0.00     0.176 C 
BRANCH   4   5
HETATM    5  C2  UNL     1       3.984  -0.025  -0.101  1.00  0.00     0.035 A 
HETATM    6  N2  UNL     1       5.139  -0.312  -0.619  1.00  0.00    -0.339 N 
HETATM    7  C1  UNL     1       6.081  -0.866   0.164  1.00  0.00     0.142 A 
ATOM      8  H2  UNL     1       5.329  -0.121  -1.603  1.00  0.00     0.168 HD
HETATM    9  S2  UNL     1       5.317  -0.976   1.685  1.00  0.00    -0.064 SA
HETATM   10  C13 UNL     1       3.808  -0.311   1.251  1.00  0.00     0.080 A 
BRANCH   7  11
HETATM   11  N1  UNL     1       7.297  -1.253  -0.110  1.00  0.00    -0.380 N 
ATOM     12  H12 UNL     1       7.754  -1.187  -1.020  1.00  0.00     0.158 HD
ATOM     13  H11 UNL     1       8.012  -1.673   0.484  1.00  0.00     0.158 HD
ENDBRANCH   7  11
ENDBRANCH   4   5
ENDBRANCH   1   4
BRANCH   3  14
HETATM   14  C5  UNL     1      -0.479   1.467  -0.044  1.00  0.00     0.118 C 
BRANCH  14  15
HETATM   15  S1  UNL     1      -1.619   1.053   1.366  1.00  0.00    -0.159 SA
BRANCH  15  16
HETATM   16  C6  UNL     1      -2.205  -0.647   1.346  1.00  0.00     0.112 C 
BRANCH  16  17
HETATM   17  C7  UNL     1      -3.451  -0.623   0.464  1.00  0.00    -0.049 A 
HETATM   18  C8  UNL     1      -4.198  -1.743   0.194  1.00  0.00     0.008 A 
HETATM   19  C9  UNL     1      -5.352  -1.625  -0.592  1.00  0.00     0.001 A 
HETATM   20  C10 UNL     1      -5.774  -0.425  -1.108  1.00  0.00     0.000 A 
HETATM   21  C11 UNL     1      -5.018   0.701  -0.841  1.00  0.00     0.001 A 
HETATM   22  C12 UNL     1      -3.874   0.578  -0.061  1.00  0.00     0.008 A 
ENDBRANCH  16  17
ENDBRANCH  15  16
ENDBRANCH  14  15
ENDBRANCH   3  14
TORSDOF 7
