REMARK  9 active torsions:
REMARK  status: ('A' for Active; 'I' for Inactive)
REMARK    1  A    between atoms: N1_1  and  C1_5 
REMARK    2  A    between atoms: C1_5  and  C2_6 
REMARK    3  A    between atoms: C2_6  and  C3_7 
REMARK    4  A    between atoms: C3_7  and  C4_8 
REMARK    5  A    between atoms: C4_8  and  C5_9 
REMARK    6  A    between atoms: C5_9  and  C6_10 
REMARK    7  A    between atoms: C6_10  and  N2_11 
REMARK    8  A    between atoms: N2_11  and  C7_13 
REMARK    9  A    between atoms: C9_17  and  C10_18 
ROOT
HETATM    1  C7  UNL     1       0.057  -0.126  -0.266  1.00  0.00     0.669 C 
HETATM    2  N3  UNL     1      -0.599   0.694  -0.975  1.00  0.00    -0.226 N 
ATOM      3  H3  UNL     1      -0.087   1.197  -1.700  1.00  0.00     0.177 HD
HETATM    4  C8  UNL     1      -2.002   0.977  -0.847  1.00  0.00     0.144 C 
HETATM    5  C9  UNL     1      -2.755   0.174   0.152  1.00  0.00     0.026 C 
HETATM    6  C16 UNL     1      -2.045  -1.126   0.442  1.00  0.00     0.144 C 
HETATM    7  N4  UNL     1      -0.655  -0.833   0.751  1.00  0.00    -0.226 N 
ATOM      8  H4  UNL     1      -0.220  -1.112   1.630  1.00  0.00     0.177 HD
ENDROOT
BRANCH   1   9
HETATM    9  N2  UNL     1       1.449  -0.343  -0.470  1.00  0.00    -0.227 N 
ATOM     10  H2  UNL     1       1.755  -0.580  -1.414  1.00  0.00     0.177 HD
BRANCH   9  11
HETATM   11  C6  UNL     1       2.456  -0.254   0.551  1.00  0.00     0.138 C 
BRANCH  11  12
HETATM   12  C5  UNL     1       3.789  -0.709   0.046  1.00  0.00     0.020 C 
BRANCH  12  13
HETATM   13  C4  UNL     1       4.282   0.143  -1.075  1.00  0.00     0.002 C 
BRANCH  13  14
HETATM   14  C3  UNL     1       5.626  -0.327  -1.604  1.00  0.00     0.002 C 
BRANCH  14  15
HETATM   15  C2  UNL     1       6.720  -0.345  -0.594  1.00  0.00     0.027 C 
BRANCH  15  16
HETATM   16  C1  UNL     1       7.026   0.986   0.025  1.00  0.00     0.229 C 
BRANCH  16  17
HETATM   17  N1  UNL     1       8.105   0.806   0.978  1.00  0.00    -0.079 N 
ATOM     18  H13 UNL     1       7.901   0.087   1.672  1.00  0.00     0.274 HD
ATOM     19  H12 UNL     1       8.927   0.367   0.563  1.00  0.00     0.274 HD
ATOM     20  H11 UNL     1       8.313   1.711   1.399  1.00  0.00     0.274 HD
ENDBRANCH  16  17
ENDBRANCH  15  16
ENDBRANCH  14  15
ENDBRANCH  13  14
ENDBRANCH  12  13
ENDBRANCH  11  12
ENDBRANCH   9  11
ENDBRANCH   1   9
BRANCH   5  21
HETATM   21  C10 UNL     1      -4.152  -0.084  -0.369  1.00  0.00    -0.007 C 
HETATM   22  C11 UNL     1      -4.848   1.222  -0.587  1.00  0.00     0.005 C 
HETATM   23  C12 UNL     1      -6.215   0.942  -1.225  1.00  0.00     0.000 C 
HETATM   24  C13 UNL     1      -7.031   0.219  -0.189  1.00  0.00     0.000 C 
HETATM   25  C14 UNL     1      -6.349  -1.134   0.047  1.00  0.00     0.000 C 
HETATM   26  C15 UNL     1      -4.961  -0.941   0.557  1.00  0.00     0.005 C 
ENDBRANCH   5  21
TORSDOF 9
