REMARK  6 active torsions:
REMARK  status: ('A' for Active; 'I' for Inactive)
REMARK    1  A    between atoms: N2_5  and  C4_6 
REMARK    2  A    between atoms: C7_9  and  N3_10 
REMARK    3  A    between atoms: N3_10  and  C8_12 
REMARK    4  A    between atoms: N5_16  and  C10_18 
REMARK    5  A    between atoms: C15_23  and  N6_24 
REMARK    6  A    between atoms: C17_29  and  C18_30 
ROOT
HETATM    1  C8  UNL     1       0.460  -0.633   0.475  1.00  0.00     0.685 A 
HETATM    2  N4  UNL     1      -0.813  -1.026   0.671  1.00  0.00    -0.176 N 
ATOM      3  H4  UNL     1      -1.003  -2.004   0.890  1.00  0.00     0.186 HD
HETATM    4  C9  UNL     1      -1.847  -0.157   0.585  1.00  0.00     0.133 A 
HETATM    5  N5  UNL     1      -3.036  -0.526   0.791  1.00  0.00    -0.368 N 
ATOM      6  H5  UNL     1      -3.768   0.180   0.710  1.00  0.00     0.161 HD
HETATM    7  C16 UNL     1      -1.612   1.166   0.289  1.00  0.00     0.076 A 
HETATM    8  C17 UNL     1      -2.635   2.076   0.203  1.00  0.00     0.032 A 
HETATM    9  N8  UNL     1      -2.220   3.350  -0.084  1.00  0.00    -0.354 N 
ATOM     10  H8  UNL     1      -2.945   4.063  -0.156  1.00  0.00     0.166 HD
HETATM   11  C23 UNL     1      -0.972   3.748  -0.277  1.00  0.00     0.182 A 
HETATM   12  N9  UNL     1       0.008   2.855  -0.193  1.00  0.00    -0.337 N 
ATOM     13  H9  UNL     1       0.976   3.142  -0.339  1.00  0.00     0.168 HD
HETATM   14  C24 UNL     1      -0.277   1.583   0.083  1.00  0.00     0.138 A 
HETATM   15  N10 UNL     1       0.693   0.653   0.188  1.00  0.00    -0.175 N 
ATOM     16  H10 UNL     1       1.659   0.946   0.040  1.00  0.00     0.186 HD
ENDROOT
BRANCH   1  17
HETATM   17  N3  UNL     1       1.378  -1.529   0.576  1.00  0.00    -0.190 N 
ATOM     18  H3  UNL     1       1.055  -2.470   0.800  1.00  0.00     0.184 HD
BRANCH  17  19
HETATM   19  C7  UNL     1       2.751  -1.385   0.421  1.00  0.00     0.064 A 
HETATM   20  C6  UNL     1       3.486  -0.740   1.390  1.00  0.00     0.035 A 
HETATM   21  C5  UNL     1       4.873  -0.585   1.263  1.00  0.00     0.052 A 
HETATM   22  C4  UNL     1       5.526  -1.079   0.160  1.00  0.00     0.122 A 
HETATM   23  N11 UNL     1       4.776  -1.703  -0.766  1.00  0.00    -0.349 N 
HETATM   24  C25 UNL     1       3.447  -1.868  -0.676  1.00  0.00     0.119 A 
ATOM     25  H11 UNL     1       5.248  -2.075  -1.590  1.00  0.00     0.167 HD
BRANCH  22  26
HETATM   26  N2  UNL     1       6.933  -0.953  -0.030  1.00  0.00    -0.273 N 
HETATM   27  C3  UNL     1       7.547  -1.531  -1.209  1.00  0.00     0.170 C 
HETATM   28  C2  UNL     1       8.560  -0.636  -1.849  1.00  0.00     0.147 C 
HETATM   29  N1  UNL     1       8.910   0.512  -1.035  1.00  0.00    -0.357 N 
HETATM   30  C1  UNL     1       9.412   1.751  -1.650  1.00  0.00     0.152 C 
HETATM   31  C26 UNL     1       8.758   0.421   0.379  1.00  0.00     0.205 C 
HETATM   32  N12 UNL     1       7.785  -0.300   0.854  1.00  0.00    -0.270 N 
HETATM   33  N13 UNL     1       9.669   1.119   1.212  1.00  0.00    -0.062 NA
ATOM     34  H12 UNL     1       7.649  -0.385   1.861  1.00  0.00     0.190 HD
ENDBRANCH  22  26
ENDBRANCH  17  19
ENDBRANCH   1  17
BRANCH   5  35
HETATM   35  C10 UNL     1      -3.434  -1.847   1.127  1.00  0.00     0.113 C 
HETATM   36  C11 UNL     1      -3.402  -2.830  -0.016  1.00  0.00     0.027 C 
HETATM   37  C12 UNL     1      -4.723  -2.981  -0.720  1.00  0.00     0.002 C 
HETATM   38  C13 UNL     1      -5.835  -3.448   0.170  1.00  0.00     0.002 C 
HETATM   39  C14 UNL     1      -5.474  -3.229   1.645  1.00  0.00     0.035 C 
HETATM   40  C15 UNL     1      -4.828  -1.886   1.727  1.00  0.00     0.206 C 
BRANCH  40  41
HETATM   41  N6  UNL     1      -4.846  -1.430   3.096  1.00  0.00    -0.073 N 
ATOM     42  H63 UNL     1      -4.184  -1.954   3.668  1.00  0.00     0.274 HD
ATOM     43  H62 UNL     1      -4.434  -0.501   3.181  1.00  0.00     0.274 HD
ATOM     44  H61 UNL     1      -5.783  -1.456   3.499  1.00  0.00     0.274 HD
ENDBRANCH  40  41
ENDBRANCH   5  35
BRANCH   8  45
HETATM   45  C18 UNL     1      -4.040   1.726   0.344  1.00  0.00     0.040 C 
HETATM   46  C19 UNL     1      -4.684   3.147   0.580  1.00  0.00     0.038 C 
HETATM   47  C20 UNL     1      -4.963   3.861  -0.675  1.00  0.00     0.233 C 
HETATM   48  N7  UNL     1      -6.251   3.343  -1.178  1.00  0.00    -0.075 N 
HETATM   49  C21 UNL     1      -6.192   1.935  -0.879  1.00  0.00     0.233 C 
ATOM     50  H72 UNL     1      -7.072   3.819  -0.804  1.00  0.00     0.277 HD
ATOM     51  H71 UNL     1      -6.438   3.558  -2.157  1.00  0.00     0.277 HD
HETATM   52  C22 UNL     1      -4.761   1.404  -0.949  1.00  0.00     0.038 C 
ENDBRANCH   8  45
TORSDOF 6
