REMARK  5 active torsions:
REMARK  status: ('A' for Active; 'I' for Inactive)
REMARK    1  A    between atoms: C4_4  and  N1_5 
REMARK    2  A    between atoms: C10_13  and  N3_14 
REMARK    3  A    between atoms: C15_23  and  C16_24 
REMARK    4  A    between atoms: C16_24  and  N7_30 
REMARK    5  A    between atoms: N5_25  and  N6_27 
ROOT
HETATM    1  C16 UNL     1      -0.200   1.588  -0.641  1.00  0.00     0.128 C 
HETATM    2  N5  UNL     1      -0.266   2.789  -1.079  1.00  0.00    -0.291 N 
ATOM      3  H5  UNL     1       0.650   3.173  -1.311  1.00  0.00     0.188 HD
ENDROOT
BRANCH   1   4
HETATM    4  C15 UNL     1       1.109   0.993  -0.547  1.00  0.00     0.015 A 
HETATM    5  C2  UNL     1       1.496   0.267   0.554  1.00  0.00    -0.046 A 
HETATM    6  C1  UNL     1       0.623   0.059   1.736  1.00  0.00     0.049 C 
HETATM    7  C3  UNL     1       2.792  -0.270   0.523  1.00  0.00     0.039 A 
HETATM    8  C4  UNL     1       3.650  -0.094  -0.538  1.00  0.00     0.058 A 
HETATM    9  C13 UNL     1       3.204   0.644  -1.612  1.00  0.00     0.032 A 
HETATM   10  C14 UNL     1       1.951   1.196  -1.648  1.00  0.00     0.018 A 
BRANCH   8  11
HETATM   11  N1  UNL     1       4.969  -0.643  -0.543  1.00  0.00    -0.250 N 
HETATM   12  C5  UNL     1       5.404  -1.640  -1.330  1.00  0.00     0.208 A 
HETATM   13  N2  UNL     1       6.696  -1.879  -1.051  1.00  0.00    -0.335 N 
HETATM   14  C6  UNL     1       7.096  -1.026  -0.073  1.00  0.00     0.131 A 
ATOM     15  H2  UNL     1       7.280  -2.585  -1.500  1.00  0.00     0.168 HD
HETATM   16  C7  UNL     1       8.414  -0.947   0.518  1.00  0.00     0.009 A 
HETATM   17  N4  UNL     1       5.999  -0.285   0.207  1.00  0.00    -0.277 N 
HETATM   18  C8  UNL     1       8.658  -0.027   1.504  1.00  0.00     0.018 A 
HETATM   19  C12 UNL     1       9.405  -1.788   0.084  1.00  0.00     0.018 A 
HETATM   20  C9  UNL     1       9.929   0.046   2.065  1.00  0.00     0.037 A 
HETATM   21  C10 UNL     1      10.937  -0.788   1.644  1.00  0.00     0.102 A 
HETATM   22  C11 UNL     1      10.682  -1.708   0.654  1.00  0.00     0.037 A 
ATOM     23  H4  UNL     1       5.970   0.456   0.908  1.00  0.00     0.189 HD
BRANCH  21  24
HETATM   24  N3  UNL     1      12.232  -0.714   2.214  1.00  0.00    -0.116 N 
HETATM   25  O1  UNL     1      13.156  -1.453   1.851  1.00  0.00    -0.532 OA
HETATM   26  O2  UNL     1      12.482   0.205   3.202  1.00  0.00    -0.532 OA
ENDBRANCH  21  24
ENDBRANCH   8  11
ENDBRANCH   1   4
BRANCH   1  27
HETATM   27  N7  UNL     1      -1.429   0.990  -0.357  1.00  0.00    -0.362 N 
HETATM   28  C17 UNL     1      -1.852  -0.145  -1.135  1.00  0.00     0.152 C 
HETATM   29  C18 UNL     1      -2.512  -1.247  -0.400  1.00  0.00     0.252 C 
HETATM   30  N8  UNL     1      -3.095  -2.227  -1.293  1.00  0.00    -0.072 N 
HETATM   31  C19 UNL     1      -4.484  -2.006  -1.581  1.00  0.00     0.259 C 
ATOM     32  H82 UNL     1      -2.556  -2.288  -2.157  1.00  0.00     0.277 HD
ATOM     33  H81 UNL     1      -2.951  -3.170  -0.932  1.00  0.00     0.277 HD
HETATM   34  C20 UNL     1      -5.346  -2.700  -0.552  1.00  0.00     0.259 C 
HETATM   35  N9  UNL     1      -6.270  -1.761   0.032  1.00  0.00    -0.072 N 
HETATM   36  C21 UNL     1      -7.191  -1.242  -0.963  1.00  0.00     0.259 C 
ATOM     37  H92 UNL     1      -6.765  -2.167   0.826  1.00  0.00     0.277 HD
ATOM     38  H91 UNL     1      -5.783  -1.009   0.520  1.00  0.00     0.277 HD
HETATM   39  C22 UNL     1      -7.580   0.190  -0.669  1.00  0.00     0.259 C 
HETATM   40  N10 UNL     1      -6.968   0.573   0.586  1.00  0.00    -0.072 N 
HETATM   41  C23 UNL     1      -6.913   2.005   0.764  1.00  0.00     0.259 C 
ATOM     42 2H10 UNL     1      -7.435   0.124   1.373  1.00  0.00     0.277 HD
ATOM     43 1H10 UNL     1      -6.042   0.156   0.684  1.00  0.00     0.277 HD
HETATM   44  C24 UNL     1      -5.662   2.464   1.474  1.00  0.00     0.259 C 
HETATM   45  N11 UNL     1      -4.578   1.532   1.390  1.00  0.00    -0.072 N 
HETATM   46  C25 UNL     1      -3.696   1.793   0.241  1.00  0.00     0.252 C 
ATOM     47 2H11 UNL     1      -4.048   1.507   2.261  1.00  0.00     0.277 HD
ATOM     48 1H11 UNL     1      -4.921   0.571   1.378  1.00  0.00     0.277 HD
HETATM   49  C26 UNL     1      -2.303   1.475   0.673  1.00  0.00     0.152 C 
ENDBRANCH   1  27
BRANCH   2  50
HETATM   50  N6  UNL     1      -1.258   3.656  -1.303  1.00  0.00    -0.344 N 
ATOM     51  H62 UNL     1      -2.164   3.251  -1.065  1.00  0.00     0.176 HD
ATOM     52  H61 UNL     1      -1.311   4.613  -1.652  1.00  0.00     0.176 HD
ENDBRANCH   2  50
TORSDOF 5
