REMARK  8 active torsions:
REMARK  status: ('A' for Active; 'I' for Inactive)
REMARK    1  A    between atoms: C1_2  and  C2_3 
REMARK       I    between atoms: C1_2  and  N1_11 
REMARK    2  A    between atoms: C10_14  and  N2_15 
REMARK    3  A    between atoms: N2_15  and  C11_17 
REMARK    4  A    between atoms: C13_19  and  O2_20 
REMARK    5  A    between atoms: O2_20  and  C14_21 
REMARK    6  A    between atoms: C17_26  and  O3_27 
REMARK    7  A    between atoms: O3_27  and  C18_28 
REMARK    8  A    between atoms: C18_28  and  C19_29 
ROOT
HETATM    1  N2  UNL     1      -0.571   0.312  -1.467  1.00  0.00    -0.381 N 
ATOM      2  H2  UNL     1      -0.236  -0.645  -1.578  1.00  0.00     0.160 HD
ENDROOT
BRANCH   1   3
HETATM    3  C10 UNL     1       0.159   1.378  -2.074  1.00  0.00     0.101 C 
HETATM    4  C9  UNL     1       1.297   0.783  -2.888  1.00  0.00     0.046 C 
HETATM    5  C8  UNL     1       2.136   0.160  -1.794  1.00  0.00     0.128 C 
HETATM    6  N1  UNL     1       1.965   1.047  -0.677  1.00  0.00    -0.346 N 
HETATM    7  C1  UNL     1       2.614   0.982   0.571  1.00  0.00     0.255 C 
HETATM    8  C20 UNL     1       0.984   2.089  -0.992  1.00  0.00     0.151 C 
HETATM    9  O1  UNL     1       2.419   1.790   1.506  1.00  0.00    -0.267 OA
BRANCH   7  10
HETATM   10  C2  UNL     1       3.578  -0.081   0.814  1.00  0.00     0.053 A 
HETATM   11  C3  UNL     1       4.900   0.102   0.515  1.00  0.00     0.020 A 
HETATM   12  C4  UNL     1       5.814  -0.904   0.744  1.00  0.00     0.025 A 
HETATM   13  C5  UNL     1       5.377  -2.083   1.273  1.00  0.00     0.035 A 
HETATM   14 CL1  UNL     1       6.582  -3.340   1.549  1.00  0.00    -0.084 Cl
HETATM   15  C6  UNL     1       4.058  -2.304   1.586  1.00  0.00     0.048 A 
HETATM   16  C7  UNL     1       3.147  -1.275   1.347  1.00  0.00     0.051 A 
HETATM   17 CL2  UNL     1       1.453  -1.516   1.733  1.00  0.00    -0.083 Cl
ENDBRANCH   7  10
ENDBRANCH   1   3
BRANCH   1  18
HETATM   18  C11 UNL     1      -1.746   0.546  -0.716  1.00  0.00     0.064 A 
HETATM   19  C12 UNL     1      -2.234   1.818  -0.608  1.00  0.00     0.069 A 
HETATM   20  C13 UNL     1      -3.399   2.058   0.124  1.00  0.00     0.077 A 
HETATM   21  C15 UNL     1      -4.051   1.019   0.733  1.00  0.00     0.040 A 
HETATM   22  C16 UNL     1      -3.531  -0.251   0.604  1.00  0.00     0.042 A 
HETATM   23  C17 UNL     1      -2.389  -0.538  -0.106  1.00  0.00     0.095 A 
BRANCH  20  24
HETATM   24  O2  UNL     1      -3.874   3.337   0.222  1.00  0.00    -0.290 OA
BRANCH  24  25
HETATM   25  C14 UNL     1      -5.005   3.776   0.898  1.00  0.00     0.505 C 
HETATM   26  F1  UNL     1      -5.838   4.532   0.069  1.00  0.00    -0.184 F 
HETATM   27  F2  UNL     1      -4.561   4.659   1.894  1.00  0.00    -0.184 F 
ENDBRANCH  24  25
ENDBRANCH  20  24
BRANCH  23  28
HETATM   28  O3  UNL     1      -1.872  -1.825  -0.230  1.00  0.00    -0.344 OA
BRANCH  28  29
HETATM   29  C18 UNL     1      -2.553  -2.876   0.400  1.00  0.00     0.246 C 
BRANCH  29  30
HETATM   30  C19 UNL     1      -1.862  -4.198   0.166  1.00  0.00     0.377 C 
HETATM   31  F3  UNL     1      -2.583  -5.189   0.813  1.00  0.00    -0.212 F 
HETATM   32  F4  UNL     1      -1.862  -4.496  -1.183  1.00  0.00    -0.212 F 
ENDBRANCH  29  30
ENDBRANCH  28  29
ENDBRANCH  23  28
ENDBRANCH   1  18
TORSDOF 8
