REMARK  11 active torsions:
REMARK  status: ('A' for Active; 'I' for Inactive)
REMARK    1  A    between atoms: C2_2  and  C3_3 
REMARK    2  A    between atoms: C2_2  and  N1_17 
REMARK    3  A    between atoms: C4_4  and  C5_5 
REMARK    4  A    between atoms: C5_5  and  C6_6 
REMARK    5  A    between atoms: C10_11  and  C11_12 
REMARK    6  A    between atoms: N1_17  and  C14_19 
REMARK    7  A    between atoms: C14_19  and  C15_20 
REMARK    8  A    between atoms: C15_20  and  O3_21 
REMARK    9  A    between atoms: O3_21  and  C16_22 
REMARK   10  A    between atoms: C18_24  and  C19_25 
REMARK   11  A    between atoms: C21_30  and  C22_31 
ROOT
HETATM    1  N1  UNL     1      -1.338  -0.044   1.369  1.00  0.00    -0.412 N 
ATOM      2  H1  UNL     1      -1.374   0.909   1.006  1.00  0.00     0.153 HD
ENDROOT
BRANCH   1   3
HETATM    3  C2  UNL     1      -0.267  -0.965   1.041  1.00  0.00     0.095 C 
HETATM    4  C1  UNL     1       0.372  -1.509   2.325  1.00  0.00     0.036 C 
BRANCH   3   5
HETATM    5  C3  UNL     1       0.819  -0.102   0.469  1.00  0.00    -0.007 C 
HETATM    6  C4  UNL     1       1.089   0.168  -0.786  1.00  0.00    -0.026 C 
BRANCH   6   7
HETATM    7  C5  UNL     1       2.258   1.076  -1.008  1.00  0.00     0.067 C 
BRANCH   7   8
HETATM    8  C6  UNL     1       3.363   0.556  -1.825  1.00  0.00     0.098 C 
HETATM    9  C7  UNL     1       2.944   0.274  -3.247  1.00  0.00     0.050 C 
HETATM   10  C8  UNL     1       3.843  -0.807  -1.305  1.00  0.00     0.081 C 
HETATM   11  C9  UNL     1       5.386  -0.723  -1.404  1.00  0.00     0.205 C 
HETATM   12  F1  UNL     1       5.807  -2.008  -1.211  1.00  0.00    -0.246 F 
HETATM   13  C10 UNL     1       5.759   0.230  -0.292  1.00  0.00     0.198 C 
HETATM   14  O1  UNL     1       4.919   1.337  -0.464  1.00  0.00    -0.232 OA
HETATM   15  O2  UNL     1       4.452   1.392  -1.701  1.00  0.00    -0.229 OA
BRANCH  13  16
HETATM   16  C11 UNL     1       7.167   0.682  -0.292  1.00  0.00     0.020 A 
HETATM   17  C12 UNL     1       8.351  -0.189  -0.224  1.00  0.00     0.008 A 
HETATM   18  C13 UNL     1       7.893   0.417   1.065  1.00  0.00     0.008 A 
ENDBRANCH  13  16
ENDBRANCH   7   8
ENDBRANCH   6   7
ENDBRANCH   3   5
ENDBRANCH   1   3
BRANCH   1  19
HETATM   19  C14 UNL     1      -2.335  -0.571   2.236  1.00  0.00     0.141 C 
BRANCH  19  20
HETATM   20  C15 UNL     1      -3.221  -1.658   1.757  1.00  0.00     0.195 C 
BRANCH  20  21
HETATM   21  O3  UNL     1      -4.045  -1.468   0.688  1.00  0.00    -0.350 OA
BRANCH  21  22
HETATM   22  C16 UNL     1      -5.096  -0.669   0.415  1.00  0.00     0.070 A 
HETATM   23  C17 UNL     1      -5.744  -0.730  -0.843  1.00  0.00     0.052 A 
HETATM   24  C18 UNL     1      -6.809   0.085  -1.110  1.00  0.00     0.051 A 
HETATM   25  C20 UNL     1      -7.312   1.001  -0.190  1.00  0.00     0.032 A 
HETATM   26  C21 UNL     1      -6.693   1.070   1.034  1.00  0.00     0.051 A 
HETATM   27  C23 UNL     1      -5.612   0.237   1.289  1.00  0.00     0.052 A 
BRANCH  24  28
HETATM   28  C19 UNL     1      -7.478  -0.032  -2.453  1.00  0.00     0.417 C 
HETATM   29  F2  UNL     1      -8.850  -0.071  -2.265  1.00  0.00    -0.166 F 
HETATM   30  F3  UNL     1      -7.063  -1.168  -3.086  1.00  0.00    -0.166 F 
HETATM   31  F4  UNL     1      -7.136   1.067  -3.176  1.00  0.00    -0.166 F 
ENDBRANCH  24  28
BRANCH  26  32
HETATM   32  C22 UNL     1      -7.142   2.035   2.072  1.00  0.00     0.417 C 
HETATM   33  F5  UNL     1      -8.500   2.161   2.104  1.00  0.00    -0.166 F 
HETATM   34  F6  UNL     1      -6.647   1.596   3.282  1.00  0.00    -0.166 F 
HETATM   35  F7  UNL     1      -6.518   3.261   1.822  1.00  0.00    -0.166 F 
ENDBRANCH  26  32
ENDBRANCH  21  22
ENDBRANCH  20  21
ENDBRANCH  19  20
ENDBRANCH   1  19
TORSDOF 11
