REMARK  11 active torsions:
REMARK  status: ('A' for Active; 'I' for Inactive)
REMARK    1  A    between atoms: C2_2  and  C3_3 
REMARK    2  A    between atoms: C3_3  and  C4_4 
REMARK    3  A    between atoms: C4_4  and  C5_6 
REMARK    4  A    between atoms: C6_7  and  C7_8 
REMARK    5  A    between atoms: C7_8  and  N1_9 
REMARK    6  A    between atoms: N1_9  and  C8_12 
REMARK    7  A    between atoms: C8_12  and  C9_13 
REMARK    8  A    between atoms: C9_13  and  N2_14 
REMARK    9  A    between atoms: C16_24  and  C17_25 
REMARK   10  A    between atoms: C20_28  and  C21_29 
REMARK   11  A    between atoms: C23_33  and  C24_34 
ROOT
HETATM    1  C5  UNL     1      -1.448   0.912   0.139  1.00  0.00     0.054 A 
HETATM    2  C6  UNL     1      -0.288   1.000  -0.671  1.00  0.00     0.006 A 
HETATM    3  C15 UNL     1      -0.690   1.691  -1.780  1.00  0.00     0.152 A 
HETATM    4  O2  UNL     1      -1.935   1.974  -1.640  1.00  0.00    -0.320 OA
HETATM    5  C16 UNL     1      -2.464   1.548  -0.526  1.00  0.00     0.100 A 
ENDROOT
BRANCH   2   6
HETATM    6  C7  UNL     1       1.053   0.437  -0.322  1.00  0.00     0.273 C 
BRANCH   6   7
HETATM    7  N1  UNL     1       1.938   0.749  -1.412  1.00  0.00    -0.070 N 
ATOM      8  H12 UNL     1       1.587   0.391  -2.300  1.00  0.00     0.277 HD
ATOM      9  H11 UNL     1       1.929   1.744  -1.635  1.00  0.00     0.277 HD
BRANCH   7  10
HETATM   10  C8  UNL     1       3.262   0.278  -1.134  1.00  0.00     0.262 C 
BRANCH  10  11
HETATM   11  C9  UNL     1       3.312  -1.209  -1.148  1.00  0.00     0.299 C 
BRANCH  11  12
HETATM   12  N2  UNL     1       4.657  -1.716  -0.889  1.00  0.00     0.090 N 
HETATM   13  C10 UNL     1       5.061  -1.450   0.458  1.00  0.00     0.278 C 
HETATM   14  C11 UNL     1       6.286  -0.549   0.436  1.00  0.00     0.109 C 
HETATM   15  C12 UNL     1       7.436  -1.214  -0.286  1.00  0.00     0.246 C 
HETATM   16  F1  UNL     1       8.327  -0.228  -0.655  1.00  0.00    -0.206 F 
HETATM   17  F2  UNL     1       8.024  -2.084   0.612  1.00  0.00    -0.206 F 
HETATM   18  C13 UNL     1       6.938  -1.985  -1.491  1.00  0.00     0.109 C 
HETATM   19  C14 UNL     1       5.610  -1.353  -1.889  1.00  0.00     0.278 C 
ENDBRANCH  11  12
ENDBRANCH  10  11
ENDBRANCH   7  10
ENDBRANCH   6   7
ENDBRANCH   2   6
BRANCH   1  20
HETATM   20  C4  UNL     1      -1.378   0.194   1.400  1.00  0.00     0.163 C 
HETATM   21  O1  UNL     1      -1.031   0.730   2.505  1.00  0.00    -0.292 OA
BRANCH  20  22
HETATM   22  C3  UNL     1      -1.724  -1.251   1.431  1.00  0.00     0.084 C 
BRANCH  22  23
HETATM   23  C2  UNL     1      -1.588  -1.831   2.822  1.00  0.00     0.003 C 
HETATM   24  C1  UNL     1      -1.958  -3.293   2.752  1.00  0.00     0.005 C 
ENDBRANCH  22  23
ENDBRANCH  20  22
ENDBRANCH   1  20
BRANCH   5  25
HETATM   25  C17 UNL     1      -3.863   1.736  -0.130  1.00  0.00     0.014 A 
HETATM   26  C18 UNL     1      -4.297   1.475   1.156  1.00  0.00     0.016 A 
HETATM   27  C19 UNL     1      -5.638   1.618   1.543  1.00  0.00     0.013 A 
HETATM   28  C20 UNL     1      -6.594   2.026   0.663  1.00  0.00     0.006 A 
HETATM   29  C22 UNL     1      -6.182   2.288  -0.613  1.00  0.00     0.029 A 
HETATM   30  C23 UNL     1      -4.834   2.149  -1.019  1.00  0.00     0.061 A 
BRANCH  28  31
HETATM   31  C21 UNL     1      -8.025   2.183   1.065  1.00  0.00     0.386 C 
HETATM   32  F3  UNL     1      -8.568   0.982   1.474  1.00  0.00    -0.209 F 
HETATM   33  F4  UNL     1      -8.063   3.144   2.056  1.00  0.00    -0.209 F 
ENDBRANCH  28  31
BRANCH  30  34
HETATM   34  C24 UNL     1      -4.549   2.440  -2.427  1.00  0.00     0.418 C 
HETATM   35  F5  UNL     1      -4.050   1.373  -3.151  1.00  0.00    -0.166 F 
HETATM   36  F6  UNL     1      -3.815   3.553  -2.685  1.00  0.00    -0.166 F 
HETATM   37  F7  UNL     1      -5.809   2.667  -3.080  1.00  0.00    -0.166 F 
ENDBRANCH  30  34
ENDBRANCH   5  25
TORSDOF 11
