REMARK  3 active torsions:
REMARK  status: ('A' for Active; 'I' for Inactive)
REMARK    1  A    between atoms: O1_1  and  C1_3 
REMARK    2  A    between atoms: C1_3  and  C2_4 
REMARK    3  A    between atoms: C2_4  and  C3_5 
ROOT
HETATM    1  C1  UNL     1      -0.422   0.164  -0.684  1.00  0.00     0.080 C 
HETATM    2  C6  UNL     1      -0.660  -1.010   0.195  1.00  0.00     0.042 C 
HETATM    3  C7  UNL     1      -2.116  -1.410   0.299  1.00  0.00     0.029 C 
HETATM    4  C8  UNL     1      -2.991  -0.226   0.662  1.00  0.00     0.167 C 
HETATM    5  O2  UNL     1      -2.376   0.978   0.320  1.00  0.00    -0.388 OA
HETATM    6  C9  UNL     1      -1.792   0.832  -0.916  1.00  0.00     0.205 C 
ENDROOT
BRANCH   1   7
HETATM    7  O1  UNL     1      -0.022  -0.221  -1.971  1.00  0.00    -0.388 OA
ATOM      8  H1  UNL     1      -0.587  -0.883  -2.351  1.00  0.00     0.210 HD
ENDBRANCH   1   7
BRANCH   1   9
HETATM    9  C2  UNL     1       0.461   1.198  -0.090  1.00  0.00     0.055 C 
BRANCH   9  10
HETATM   10  C3  UNL     1       1.886   0.880   0.084  1.00  0.00     0.051 C 
HETATM   11  C4  UNL     1       2.331  -0.254   0.926  1.00  0.00     0.025 C 
HETATM   12  C5  UNL     1       3.708  -0.084   0.252  1.00  0.00     0.075 C 
HETATM   13  S1  UNL     1       2.756   0.117  -1.306  1.00  0.00    -0.164 SA
ENDBRANCH   9  10
ENDBRANCH   1   9
TORSDOF 3
