REMARK  13 active torsions:
REMARK  status: ('A' for Active; 'I' for Inactive)
REMARK    1  A    between atoms: C2_2  and  C3_3 
REMARK    2  A    between atoms: C3_3  and  S1_4 
REMARK    3  A    between atoms: S1_4  and  C4_6 
REMARK    4  A    between atoms: C4_6  and  C5_7 
REMARK    5  A    between atoms: C5_7  and  C6_8 
REMARK    6  A    between atoms: C6_8  and  N1_9 
REMARK    7  A    between atoms: N1_9  and  C7_12 
REMARK    8  A    between atoms: C7_12  and  C8_13 
REMARK    9  A    between atoms: C8_13  and  C9_14 
REMARK   10  A    between atoms: C9_14  and  N2_15 
REMARK   11  A    between atoms: N2_15  and  C10_17 
REMARK   12  A    between atoms: C11_20  and  N4_21 
REMARK   13  A    between atoms: C12_26  and  N6_27 
ROOT
HETATM    1  N2  UNL     1      -3.522  -0.853   1.290  1.00  0.00    -0.225 N 
ATOM      2  H2  UNL     1      -3.579  -1.146   2.265  1.00  0.00     0.177 HD
ENDROOT
BRANCH   1   3
HETATM    3  C9  UNL     1      -2.329  -1.172   0.551  1.00  0.00     0.139 C 
BRANCH   3   4
HETATM    4  C8  UNL     1      -1.369  -0.008   0.482  1.00  0.00     0.048 C 
BRANCH   4   5
HETATM    5  C7  UNL     1      -0.133  -0.357  -0.299  1.00  0.00     0.234 C 
BRANCH   5   6
HETATM    6  N1  UNL     1       0.619  -1.452   0.266  1.00  0.00    -0.075 N 
ATOM      7  H12 UNL     1       0.029  -2.272   0.407  1.00  0.00     0.277 HD
ATOM      8  H11 UNL     1       0.871  -1.266   1.237  1.00  0.00     0.277 HD
BRANCH   6   9
HETATM    9  C6  UNL     1       1.784  -1.774  -0.525  1.00  0.00     0.233 C 
BRANCH   9  10
HETATM   10  C5  UNL     1       2.838  -0.721  -0.509  1.00  0.00     0.040 C 
BRANCH  10  11
HETATM   11  C4  UNL     1       3.351  -0.444   0.892  1.00  0.00     0.110 C 
BRANCH  11  12
HETATM   12  S1  UNL     1       4.622   0.834   0.858  1.00  0.00     0.018 S 
HETATM   13  O1  UNL     1       4.116   2.136   0.297  1.00  0.00    -0.258 OA
BRANCH  12  14
HETATM   14  C3  UNL     1       6.005   0.298  -0.169  1.00  0.00     0.135 C 
BRANCH  14  15
HETATM   15  C2  UNL     1       7.049   1.353  -0.196  1.00  0.00    -0.025 C 
HETATM   16  C1  UNL     1       8.266   1.087   0.245  1.00  0.00     0.008 C 
ENDBRANCH  14  15
ENDBRANCH  12  14
ENDBRANCH  11  12
ENDBRANCH  10  11
ENDBRANCH   9  10
ENDBRANCH   6   9
ENDBRANCH   5   6
ENDBRANCH   4   5
ENDBRANCH   3   4
ENDBRANCH   1   3
BRANCH   1  17
HETATM   17  C10 UNL     1      -4.523  -0.216   0.785  1.00  0.00     0.707 A 
HETATM   18  N3  UNL     1      -4.539   0.208  -0.487  1.00  0.00    -0.022 N 
HETATM   19  C11 UNL     1      -5.569   0.879  -1.039  1.00  0.00     0.705 A 
ATOM     20  H3  UNL     1      -3.725   0.011  -1.070  1.00  0.00     0.203 HD
HETATM   21  N5  UNL     1      -6.638   1.131  -0.259  1.00  0.00    -0.022 N 
HETATM   22  C12 UNL     1      -6.668   0.724   1.023  1.00  0.00     0.705 A 
ATOM     23  H5  UNL     1      -7.435   1.637  -0.645  1.00  0.00     0.203 HD
HETATM   24  N7  UNL     1      -5.610   0.055   1.530  1.00  0.00    -0.022 N 
ATOM     25  H7  UNL     1      -5.636  -0.253   2.502  1.00  0.00     0.203 HD
BRANCH  19  26
HETATM   26  N4  UNL     1      -5.560   1.283  -2.276  1.00  0.00    -0.234 N 
ATOM     27  H42 UNL     1      -4.751   1.092  -2.867  1.00  0.00     0.174 HD
ATOM     28  H41 UNL     1      -6.340   1.791  -2.694  1.00  0.00     0.174 HD
ENDBRANCH  19  26
BRANCH  22  29
HETATM   29  N6  UNL     1      -7.707   0.980   1.750  1.00  0.00    -0.234 N 
ATOM     30  H62 UNL     1      -8.506   1.485   1.367  1.00  0.00     0.174 HD
ATOM     31  H61 UNL     1      -7.730   0.671   2.722  1.00  0.00     0.174 HD
ENDBRANCH  22  29
ENDBRANCH   1  17
TORSDOF 13
