REMARK  6 active torsions:
REMARK  status: ('A' for Active; 'I' for Inactive)
REMARK    1  A    between atoms: N1_2  and  C2_3 
REMARK    2  A    between atoms: N2_4  and  O1_6 
REMARK    3  A    between atoms: N3_10  and  C5_11 
REMARK    4  A    between atoms: C5_11  and  O2_12 
REMARK    5  A    between atoms: C6_14  and  C7_15 
REMARK    6  A    between atoms: C7_15  and  N4_16 
ROOT
HETATM    1  C1  UNL     1       1.833  -0.429  -1.163  1.00  0.00     0.280 C 
HETATM    2  N1  UNL     1       1.261  -0.321   0.165  1.00  0.00    -0.029 N 
HETATM    3  C3  UNL     1       0.728  -1.602   0.554  1.00  0.00     0.288 C 
HETATM    4  C4  UNL     1      -0.528  -1.958  -0.217  1.00  0.00     0.089 C 
HETATM    5  N3  UNL     1      -1.484  -0.924  -0.269  1.00  0.00    -0.363 N 
HETATM    6  C6  UNL     1      -1.018   0.390  -0.440  1.00  0.00     0.137 C 
HETATM    7  C8  UNL     1       0.273   0.714   0.258  1.00  0.00     0.271 C 
ENDROOT
BRANCH   2   8
HETATM    8  C2  UNL     1       2.302   0.000   1.094  1.00  0.00     0.316 C 
HETATM    9  N2  UNL     1       3.177   0.904   0.850  1.00  0.00    -0.258 N 
ATOM     10  H2  UNL     1       3.890   1.081   1.557  1.00  0.00     0.194 HD
BRANCH   9  11
HETATM   11  O1  UNL     1       3.216   1.640  -0.287  1.00  0.00    -0.289 OA
ATOM     12  H1  UNL     1       3.865   2.310  -0.468  1.00  0.00     0.244 HD
ENDBRANCH   9  11
ENDBRANCH   2   8
BRANCH   6  13
HETATM   13  C7  UNL     1      -2.042   1.426  -0.037  1.00  0.00     0.256 C 
BRANCH  13  14
HETATM   14  N4  UNL     1      -1.556   2.774  -0.215  1.00  0.00    -0.077 N 
ATOM     15  H43 UNL     1      -0.674   2.916   0.278  1.00  0.00     0.274 HD
ATOM     16  H42 UNL     1      -1.234   2.926  -1.171  1.00  0.00     0.274 HD
ATOM     17  H41 UNL     1      -2.247   3.473   0.057  1.00  0.00     0.274 HD
ENDBRANCH  13  14
ENDBRANCH   6  13
BRANCH   5  18
HETATM   18  C5  UNL     1      -2.611  -1.085   0.611  1.00  0.00     0.289 C 
BRANCH  18  19
HETATM   19  O2  UNL     1      -3.246  -2.293   0.237  1.00  0.00    -0.382 OA
ATOM     20  H2  UNL     1      -3.990  -2.399   0.818  1.00  0.00     0.211 HD
ENDBRANCH  18  19
ENDBRANCH   5  18
TORSDOF 6
