REMARK  12 active torsions:
REMARK  status: ('A' for Active; 'I' for Inactive)
REMARK    1  A    between atoms: C2_2  and  C3_3 
REMARK    2  A    between atoms: C3_3  and  C4_4 
REMARK    3  A    between atoms: C4_4  and  C5_5 
REMARK    4  A    between atoms: C5_5  and  O1_6 
REMARK    5  A    between atoms: O1_6  and  C6_7 
REMARK       I    between atoms: C6_7  and  N1_9 
REMARK    6  A    between atoms: N1_9  and  C7_11 
REMARK    7  A    between atoms: C10_14  and  C11_15 
REMARK       I    between atoms: N2_18  and  C14_19 
REMARK    8  A    between atoms: C14_19  and  O4_21 
REMARK    9  A    between atoms: O4_21  and  C15_22 
REMARK   10  A    between atoms: C15_22  and  C16_23 
REMARK   11  A    between atoms: C19_27  and  S1_28 
REMARK   12  A    between atoms: S1_28  and  O5_29 
ROOT
HETATM    1  C7  UNL     1      -1.507   1.638  -0.750  1.00  0.00     0.038 A 
HETATM    2  C8  UNL     1      -1.198   0.279  -0.647  1.00  0.00     0.030 A 
HETATM    3  C9  UNL     1       0.044  -0.153  -0.330  1.00  0.00     0.015 A 
HETATM    4  C10 UNL     1       1.083   0.780  -0.081  1.00  0.00    -0.015 A 
HETATM    5  C19 UNL     1       0.765   2.082  -0.171  1.00  0.00     0.040 A 
HETATM    6  C20 UNL     1      -0.529   2.543  -0.506  1.00  0.00     0.051 A 
ENDROOT
BRANCH   4   7
HETATM    7  C11 UNL     1       2.407   0.280   0.287  1.00  0.00    -0.065 C 
HETATM    8  C12 UNL     1       2.945  -0.523  -0.931  1.00  0.00     0.055 C 
HETATM    9  C13 UNL     1       4.385   0.092  -1.070  1.00  0.00     0.132 C 
HETATM   10  N2  UNL     1       5.036  -0.511   0.121  1.00  0.00    -0.327 N 
HETATM   11  C14 UNL     1       5.995  -1.499  -0.140  1.00  0.00     0.362 C 
HETATM   12  C17 UNL     1       4.561  -0.044   1.381  1.00  0.00     0.132 C 
HETATM   13  O3  UNL     1       6.269  -1.802  -1.329  1.00  0.00    -0.238 OA
HETATM   14  C18 UNL     1       3.381   0.953   1.092  1.00  0.00     0.055 C 
BRANCH  11  15
HETATM   15  O4  UNL     1       6.713  -2.241   0.814  1.00  0.00    -0.303 OA
BRANCH  15  16
HETATM   16  C15 UNL     1       7.641  -3.231   0.386  1.00  0.00     0.195 C 
BRANCH  16  17
HETATM   17  C16 UNL     1       8.790  -2.659  -0.369  1.00  0.00     0.141 C 
HETATM   18 CL1  UNL     1       9.926  -3.955  -0.895  1.00  0.00    -0.128 Cl
ENDBRANCH  16  17
ENDBRANCH  15  16
ENDBRANCH  11  15
ENDBRANCH   4   7
BRANCH   5  19
HETATM   19  S1  UNL     1       1.982   3.361   0.003  1.00  0.00     0.026 SA
BRANCH  19  20
HETATM   20  O5  UNL     1       2.008   4.255  -1.216  1.00  0.00    -0.325 OA
ATOM     21  H5  UNL     1       2.660   4.940  -1.123  1.00  0.00     0.228 HD
ENDBRANCH  19  20
ENDBRANCH   5  19
BRANCH   1  22
HETATM   22  N1  UNL     1      -2.790   2.028  -1.220  1.00  0.00    -0.303 N 
HETATM   23  C6  UNL     1      -4.006   1.850  -0.522  1.00  0.00     0.365 C 
HETATM   24  O2  UNL     1      -3.932   1.355   0.637  1.00  0.00    -0.238 OA
ATOM     25  H1  UNL     1      -2.837   2.473  -2.137  1.00  0.00     0.171 HD
BRANCH  23  26
HETATM   26  O1  UNL     1      -5.198   2.173  -1.075  1.00  0.00    -0.304 OA
BRANCH  26  27
HETATM   27  C5  UNL     1      -6.472   1.999  -0.511  1.00  0.00     0.180 C 
BRANCH  27  28
HETATM   28  C4  UNL     1      -6.592   0.536  -0.164  1.00  0.00     0.027 C 
BRANCH  28  29
HETATM   29  C3  UNL     1      -7.943   0.174   0.370  1.00  0.00     0.002 C 
BRANCH  29  30
HETATM   30  C2  UNL     1      -7.898  -1.322   0.796  1.00  0.00    -0.004 C 
HETATM   31  C1  UNL     1      -7.484  -2.114  -0.415  1.00  0.00     0.005 C 
ENDBRANCH  29  30
ENDBRANCH  28  29
ENDBRANCH  27  28
ENDBRANCH  26  27
ENDBRANCH  23  26
ENDBRANCH   1  22
TORSDOF 12
