REMARK  9 active torsions:
REMARK  status: ('A' for Active; 'I' for Inactive)
REMARK    1  A    between atoms: C2_2  and  C3_3 
REMARK    2  A    between atoms: C3_3  and  C4_4 
REMARK       I    between atoms: C4_4  and  N1_6 
REMARK    3  A    between atoms: N1_6  and  C5_8 
REMARK    4  A    between atoms: N2_18  and  C12_19 
REMARK    5  A    between atoms: C12_19  and  C13_20 
REMARK    6  A    between atoms: C13_20  and  C14_21 
REMARK    7  A    between atoms: C14_21  and  C15_22 
REMARK    8  A    between atoms: C15_22  and  C16_23 
REMARK    9  A    between atoms: C16_23  and  N3_24 
ROOT
HETATM    1  C5  UNL     1       4.052   1.314  -0.897  1.00  0.00     0.058 A 
HETATM    2  C6  UNL     1       2.958   0.547  -1.135  1.00  0.00     0.062 A 
HETATM    3  C7  UNL     1       1.775   1.061  -1.701  1.00  0.00     0.057 A 
HETATM    4  C8  UNL     1       1.816   2.373  -1.987  1.00  0.00     0.038 A 
HETATM    5  C9  UNL     1       2.909   3.187  -1.760  1.00  0.00     0.047 A 
HETATM    6  C10 UNL     1       4.062   2.677  -1.206  1.00  0.00     0.062 A 
HETATM    7 CL1  UNL     1       5.467   3.638  -0.894  1.00  0.00    -0.082 Cl
HETATM    8  S1  UNL     1       0.261   2.674  -2.646  1.00  0.00    -0.027 SA
HETATM    9  C11 UNL     1      -0.338   1.055  -2.502  1.00  0.00     0.291 A 
HETATM   10  O2  UNL     1      -1.503   0.740  -2.876  1.00  0.00    -0.259 OA
HETATM   11  N2  UNL     1       0.662   0.387  -1.968  1.00  0.00    -0.307 N 
ENDROOT
BRANCH  11  12
HETATM   12  C12 UNL     1       0.512  -1.067  -1.742  1.00  0.00     0.133 C 
BRANCH  12  13
HETATM   13  C13 UNL     1       0.159  -1.450  -0.370  1.00  0.00     0.021 C 
BRANCH  13  14
HETATM   14  C14 UNL     1      -1.109  -1.061   0.255  1.00  0.00     0.007 C 
BRANCH  14  15
HETATM   15  C15 UNL     1      -2.371  -1.595  -0.331  1.00  0.00     0.044 C 
BRANCH  15  16
HETATM   16  C16 UNL     1      -3.601  -1.183   0.390  1.00  0.00     0.063 C 
BRANCH  16  17
HETATM   17  N3  UNL     1      -3.918   0.173   0.497  1.00  0.00    -0.373 N 
HETATM   18  C17 UNL     1      -4.314   0.911  -0.632  1.00  0.00     0.063 C 
HETATM   19  C18 UNL     1      -5.742   1.317  -0.688  1.00  0.00     0.045 C 
HETATM   20  C19 UNL     1      -6.633   0.555   0.251  1.00  0.00     0.011 C 
HETATM   21  C20 UNL     1      -6.079   0.453   1.643  1.00  0.00     0.000 C 
HETATM   22  C21 UNL     1      -6.722   1.501   2.528  1.00  0.00     0.011 C 
HETATM   23  C22 UNL     1      -4.585   0.546   1.706  1.00  0.00     0.131 C 
ENDBRANCH  16  17
ENDBRANCH  15  16
ENDBRANCH  14  15
ENDBRANCH  13  14
ENDBRANCH  12  13
ENDBRANCH  11  12
BRANCH   1  24
HETATM   24  N1  UNL     1       5.244   0.804  -0.329  1.00  0.00    -0.326 N 
HETATM   25  C4  UNL     1       5.572  -0.486   0.078  1.00  0.00     0.222 C 
HETATM   26  O1  UNL     1       4.790  -1.444  -0.011  1.00  0.00    -0.273 OA
ATOM     27  H1  UNL     1       5.983   1.494  -0.196  1.00  0.00     0.169 HD
BRANCH  25  28
HETATM   28  C3  UNL     1       6.917  -0.820   0.666  1.00  0.00     0.103 C 
BRANCH  28  29
HETATM   29  C2  UNL     1       7.038  -2.265   1.003  1.00  0.00     0.005 C 
HETATM   30  C1  UNL     1       8.415  -2.510   1.583  1.00  0.00     0.005 C 
ENDBRANCH  28  29
ENDBRANCH  25  28
ENDBRANCH   1  24
TORSDOF 9
