REMARK  9 active torsions:
REMARK  status: ('A' for Active; 'I' for Inactive)
REMARK    1  A    between atoms: C3_3  and  C4_4 
REMARK    2  A    between atoms: C5_5  and  C6_6 
REMARK    3  A    between atoms: C6_6  and  C7_7 
REMARK    4  A    between atoms: C7_7  and  C8_8 
REMARK    5  A    between atoms: C8_8  and  C9_9 
REMARK    6  A    between atoms: C9_9  and  C10_10 
REMARK    7  A    between atoms: C10_10  and  C11_11 
REMARK    8  A    between atoms: C15_17  and  C17_19 
REMARK    9  A    between atoms: C17_19  and  O3_21 
ROOT
HETATM    1  C11 UNL     1      -0.722  -1.166  -1.232  1.00  0.00    -0.015 C 
HETATM    2  C12 UNL     1      -1.842  -0.461  -0.660  1.00  0.00     0.002 C 
HETATM    3  C13 UNL     1      -2.478   0.621  -1.458  1.00  0.00     0.176 C 
HETATM    4  O1  UNL     1      -1.893   1.240  -2.326  1.00  0.00    -0.291 OA
HETATM    5  C14 UNL     1      -3.882   0.926  -1.150  1.00  0.00     0.175 C 
HETATM    6 CL1  UNL     1      -4.111   2.679  -1.479  1.00  0.00    -0.115 Cl
HETATM    7  C15 UNL     1      -4.382   0.540   0.184  1.00  0.00     0.073 C 
HETATM    8  C16 UNL     1      -4.835   1.845   0.869  1.00  0.00     0.028 C 
HETATM    9  C19 UNL     1      -3.517  -0.195   1.096  1.00  0.00     0.026 C 
HETATM   10  C20 UNL     1      -3.793  -1.642   1.329  1.00  0.00     0.015 C 
HETATM   11  C21 UNL     1      -2.645  -2.052   2.228  1.00  0.00     0.080 C 
HETATM   12  C22 UNL     1      -1.523  -1.214   1.705  1.00  0.00     0.140 C 
HETATM   13  O4  UNL     1      -0.373  -1.429   2.059  1.00  0.00    -0.297 OA
HETATM   14  C23 UNL     1      -2.023  -0.175   0.768  1.00  0.00     0.052 C 
HETATM   15  C24 UNL     1      -1.562   1.180   1.261  1.00  0.00     0.029 C 
ENDROOT
BRANCH   1  16
HETATM   16  C10 UNL     1       0.522  -0.589  -1.714  1.00  0.00     0.028 C 
BRANCH  16  17
HETATM   17  C9  UNL     1       1.325   0.156  -0.714  1.00  0.00     0.004 C 
BRANCH  17  18
HETATM   18  C8  UNL     1       2.646   0.662  -1.322  1.00  0.00     0.001 C 
BRANCH  18  19
HETATM   19  C7  UNL     1       3.352   1.395  -0.199  1.00  0.00     0.004 C 
BRANCH  19  20
HETATM   20  C6  UNL     1       4.667   1.956  -0.631  1.00  0.00     0.027 C 
BRANCH  20  21
HETATM   21  C5  UNL     1       5.531   0.832  -1.082  1.00  0.00    -0.027 C 
HETATM   22  C4  UNL     1       6.693   0.604  -0.463  1.00  0.00    -0.004 C 
BRANCH  22  23
HETATM   23  C3  UNL     1       7.524  -0.498  -0.917  1.00  0.00    -0.005 C 
HETATM   24  C2  UNL     1       8.667  -0.732  -0.317  1.00  0.00    -0.031 C 
HETATM   25  C1  UNL     1       9.107   0.115   0.809  1.00  0.00     0.036 C 
ENDBRANCH  22  23
ENDBRANCH  20  21
ENDBRANCH  19  20
ENDBRANCH  18  19
ENDBRANCH  17  18
ENDBRANCH  16  17
ENDBRANCH   1  16
BRANCH   7  26
HETATM   26  C17 UNL     1      -5.661  -0.232  -0.002  1.00  0.00     0.269 C 
HETATM   27  O2  UNL     1      -6.746   0.097   0.507  1.00  0.00    -0.264 OA
BRANCH  26  28
HETATM   28  O3  UNL     1      -5.690  -1.400  -0.788  1.00  0.00    -0.326 OA
HETATM   29  C18 UNL     1      -6.888  -2.130  -0.967  1.00  0.00     0.213 C 
ENDBRANCH  26  28
ENDBRANCH   7  26
TORSDOF 9
