REMARK  10 active torsions:
REMARK  status: ('A' for Active; 'I' for Inactive)
REMARK    1  A    between atoms: C3_3  and  O1_4 
REMARK       I    between atoms: N1_8  and  C6_9 
REMARK       I    between atoms: C6_9  and  N2_11 
REMARK    2  A    between atoms: N2_11  and  C7_13 
REMARK    3  A    between atoms: C7_13  and  C8_14 
REMARK    4  A    between atoms: C7_13  and  C9_19 
REMARK    5  A    between atoms: C8_14  and  N3_15 
REMARK    6  A    between atoms: C9_19  and  O3_20 
REMARK    7  A    between atoms: C9_19  and  N4_22 
REMARK       I    between atoms: N5_25  and  C12_26 
REMARK       I    between atoms: C12_26  and  N7_33 
REMARK    8  A    between atoms: N6_27  and  C13_29 
REMARK    9  A    between atoms: C13_29  and  C15_31 
REMARK   10  A    between atoms: N7_33  and  C17_35 
ROOT
HETATM    1  C1  UNL     1       8.835   2.186   1.575  1.00  0.00     0.015 C 
HETATM    2  C2  UNL     1       8.773   1.040   1.172  1.00  0.00    -0.079 C 
HETATM    3  C3  UNL     1       8.709  -0.344   0.711  1.00  0.00     0.123 C 
HETATM    4  C4  UNL     1       7.857  -0.391  -0.523  1.00  0.00     0.071 C 
HETATM    5  C5  UNL     1       6.489   0.170  -0.194  1.00  0.00     0.131 C 
HETATM    6  N1  UNL     1       5.884  -0.393   0.971  1.00  0.00    -0.334 N 
HETATM    7  C6  UNL     1       4.523  -0.761   1.032  1.00  0.00     0.319 C 
HETATM    8  O2  UNL     1       4.042  -1.260   2.116  1.00  0.00    -0.247 OA
HETATM    9  N2  UNL     1       3.656  -0.609  -0.044  1.00  0.00    -0.329 N 
ATOM     10  H2  UNL     1       4.025  -0.220  -0.912  1.00  0.00     0.165 HD
HETATM   11  C26 UNL     1       6.699  -0.590   2.167  1.00  0.00     0.131 C 
HETATM   12  C27 UNL     1       8.010  -1.207   1.756  1.00  0.00     0.071 C 
ENDROOT
BRANCH   3  13
HETATM   13  O1  UNL     1       9.976  -0.882   0.501  1.00  0.00    -0.377 OA
ATOM     14  H1  UNL     1       9.934  -1.782   0.201  1.00  0.00     0.211 HD
ENDBRANCH   3  13
BRANCH   9  15
HETATM   15  C7  UNL     1       2.218  -0.985   0.007  1.00  0.00     0.186 C 
BRANCH  15  16
HETATM   16  C8  UNL     1       1.986  -1.995  -1.042  1.00  0.00     0.263 C 
BRANCH  16  17
HETATM   17  N3  UNL     1       2.842  -3.178  -0.875  1.00  0.00    -0.077 N 
ATOM     18  H33 UNL     1       3.827  -2.917  -0.826  1.00  0.00     0.274 HD
ATOM     19  H32 UNL     1       2.735  -3.582   0.056  1.00  0.00     0.274 HD
ATOM     20  H31 UNL     1       2.682  -3.877  -1.601  1.00  0.00     0.274 HD
ENDBRANCH  16  17
ENDBRANCH  15  16
BRANCH  15  21
HETATM   21  C9  UNL     1       1.419   0.245  -0.089  1.00  0.00     0.138 C 
BRANCH  21  22
HETATM   22  O3  UNL     1       2.078   1.304   0.326  1.00  0.00    -0.348 OA
ATOM     23  H3  UNL     1       1.562   2.099   0.264  1.00  0.00     0.219 HD
ENDBRANCH  21  22
BRANCH  21  24
HETATM   24  N4  UNL     1       0.136   0.511  -0.520  1.00  0.00    -0.359 N 
HETATM   25  C10 UNL     1      -0.758  -0.467  -1.076  1.00  0.00     0.145 C 
HETATM   26  C11 UNL     1      -1.957   0.254  -1.677  1.00  0.00     0.163 C 
HETATM   27  N5  UNL     1      -2.603   1.026  -0.656  1.00  0.00    -0.197 N 
HETATM   28  C12 UNL     1      -4.014   1.106  -0.577  1.00  0.00     0.678 C 
HETATM   29  C24 UNL     1      -1.725   1.738   0.271  1.00  0.00     0.217 C 
HETATM   30  N6  UNL     1      -4.710   0.136  -0.202  1.00  0.00    -0.222 N 
HETATM   31  N7  UNL     1      -4.704   2.335  -0.926  1.00  0.00    -0.189 N 
ATOM     32  H6  UNL     1      -5.708   0.344  -0.195  1.00  0.00     0.178 HD
ATOM     33  H7  UNL     1      -4.158   3.140  -1.232  1.00  0.00     0.184 HD
HETATM   34 CL3  UNL     1      -1.453   0.845   1.776  1.00  0.00    -0.100 Cl
HETATM   35  C25 UNL     1      -0.343   1.912  -0.385  1.00  0.00     0.166 C 
BRANCH  30  36
HETATM   36  C13 UNL     1      -4.423  -1.179   0.213  1.00  0.00     0.095 C 
HETATM   37  C14 UNL     1      -4.701  -2.225  -0.860  1.00  0.00     0.032 C 
BRANCH  36  38
HETATM   38  C15 UNL     1      -5.279  -1.501   1.459  1.00  0.00     0.021 C 
HETATM   39  C16 UNL     1      -5.017  -2.908   1.950  1.00  0.00     0.007 C 
ENDBRANCH  36  38
ENDBRANCH  30  36
BRANCH  31  40
HETATM   40  C17 UNL     1      -6.100   2.446  -0.854  1.00  0.00     0.091 A 
HETATM   41  C18 UNL     1      -6.909   2.146  -1.932  1.00  0.00     0.064 A 
HETATM   42 CL1  UNL     1      -6.152   1.620  -3.427  1.00  0.00    -0.082 Cl
HETATM   43  C19 UNL     1      -8.290   2.257  -1.835  1.00  0.00     0.050 A 
HETATM   44  C20 UNL     1      -8.908   2.668  -0.669  1.00  0.00     0.037 A 
HETATM   45 CL2  UNL     1     -10.667   2.802  -0.562  1.00  0.00    -0.084 Cl
HETATM   46  C21 UNL     1      -8.102   2.968   0.407  1.00  0.00     0.049 A 
HETATM   47  C22 UNL     1      -6.731   2.861   0.320  1.00  0.00     0.075 A 
HETATM   48  C23 UNL     1      -5.880   3.174   1.446  1.00  0.00     0.102 C 
HETATM   49  N8  UNL     1      -5.190   3.425   2.330  1.00  0.00    -0.191 NA
ENDBRANCH  31  40
ENDBRANCH  21  24
ENDBRANCH  15  21
ENDBRANCH   9  15
TORSDOF 10
