REMARK  2 active torsions:
REMARK  status: ('A' for Active; 'I' for Inactive)
REMARK       I    between atoms: N1_2  and  C2_4 
REMARK       I    between atoms: C2_4  and  N2_6 
REMARK    1  A    between atoms: N2_6  and  C3_8 
REMARK    2  A    between atoms: C3_8  and  C4_9 
ROOT
HETATM    1  C4  UNL     1       0.302  -0.239   1.013  1.00  0.00     0.150 C 
HETATM    2  C5  UNL     1      -0.233   1.140   0.599  1.00  0.00     0.136 C 
HETATM    3  C6  UNL     1      -1.755   0.936   0.668  1.00  0.00     0.287 C 
HETATM    4  O2  UNL     1      -2.031   0.883   2.053  1.00  0.00    -0.331 OA
HETATM    5  C7  UNL     1      -2.261   2.216   2.409  1.00  0.00     0.200 C 
HETATM    6  C8  UNL     1      -3.114   2.639   1.205  1.00  0.00     0.200 C 
HETATM    7  O3  UNL     1      -2.414   2.053   0.179  1.00  0.00    -0.331 OA
HETATM    8  O4  UNL     1      -2.186  -0.157   0.006  1.00  0.00    -0.295 OA
HETATM    9  C9  UNL     1      -1.339  -1.116  -0.375  1.00  0.00     0.170 C 
HETATM   10  C10 UNL     1      -1.898  -2.476   0.056  1.00  0.00     0.069 C 
HETATM   11  C11 UNL     1      -3.071  -2.665  -0.892  1.00  0.00     0.006 C 
HETATM   12  C12 UNL     1      -2.446  -2.248  -2.214  1.00  0.00     0.006 C 
HETATM   13  C13 UNL     1      -1.403  -1.225  -1.908  1.00  0.00     0.069 C 
HETATM   14  O5  UNL     1      -0.040  -1.070  -0.023  1.00  0.00    -0.348 OA
ENDROOT
BRANCH   1  15
HETATM   15  C3  UNL     1       1.781  -0.207   1.238  1.00  0.00     0.156 C 
BRANCH  15  16
HETATM   16  N2  UNL     1       2.491   0.254   0.089  1.00  0.00    -0.341 N 
HETATM   17  C2  UNL     1       3.912   0.346   0.135  1.00  0.00     0.315 C 
HETATM   18  N1  UNL     1       4.671   0.800  -0.984  1.00  0.00    -0.347 N 
HETATM   19  O1  UNL     1       4.534   0.022   1.183  1.00  0.00    -0.247 OA
HETATM   20  C1  UNL     1       6.114   0.882  -0.904  1.00  0.00     0.151 C 
ATOM     21  H1  UNL     1       4.195   1.068  -1.845  1.00  0.00     0.163 HD
ATOM     22  H2  UNL     1       1.986   0.515  -0.758  1.00  0.00     0.164 HD
ENDBRANCH  15  16
ENDBRANCH   1  15
TORSDOF 2
