REMARK  10 active torsions:
REMARK  status: ('A' for Active; 'I' for Inactive)
REMARK    1  A    between atoms: C2_2  and  C4_4 
REMARK    2  A    between atoms: C4_4  and  O1_5 
REMARK    3  A    between atoms: C4_4  and  C5_7 
REMARK    4  A    between atoms: C4_4  and  C16_18 
REMARK    5  A    between atoms: C5_7  and  C6_8 
REMARK       I    between atoms: C16_18  and  N1_20 
REMARK    6  A    between atoms: N1_20  and  C17_22 
REMARK    7  A    between atoms: C17_22  and  C18_23 
REMARK    8  A    between atoms: C18_23  and  C19_24 
REMARK    9  A    between atoms: C19_24  and  N2_25 
REMARK   10  A    between atoms: N2_25  and  C21_27 
ROOT
HETATM    1  C4  UNL     1      -0.748  -1.338  -0.421  1.00  0.00     0.141 C 
ENDROOT
BRANCH   1   2
HETATM    2  C2  UNL     1      -0.941  -2.402   0.604  1.00  0.00     0.021 C 
HETATM    3  C1  UNL     1      -1.309  -1.944   1.989  1.00  0.00     0.013 C 
HETATM    4  C3  UNL     1      -1.792  -3.554   0.132  1.00  0.00     0.013 C 
ENDBRANCH   1   2
BRANCH   1   5
HETATM    5  O1  UNL     1      -0.380  -2.174  -1.575  1.00  0.00    -0.380 OA
ATOM      6  H1  UNL     1      -0.257  -1.496  -2.229  1.00  0.00     0.211 HD
ENDBRANCH   1   5
BRANCH   1   7
HETATM    7  C5  UNL     1      -1.818  -0.582  -1.006  1.00  0.00     0.057 C 
BRANCH   7   8
HETATM    8  C6  UNL     1      -2.830   0.288  -0.437  1.00  0.00    -0.036 C 
HETATM    9  C7  UNL     1      -2.435   1.484   0.339  1.00  0.00     0.014 C 
HETATM   10  C8  UNL     1      -3.626   2.336   0.736  1.00  0.00    -0.013 C 
HETATM   11  C9  UNL     1      -4.102   3.029  -0.519  1.00  0.00     0.009 C 
HETATM   12  C13 UNL     1      -4.751   1.562   1.325  1.00  0.00     0.009 C 
HETATM   13  C10 UNL     1      -4.446   1.948  -1.500  1.00  0.00    -0.013 C 
HETATM   14  C11 UNL     1      -5.693   1.220  -0.978  1.00  0.00     0.009 C 
HETATM   15  C15 UNL     1      -3.427   0.935  -1.745  1.00  0.00     0.014 C 
HETATM   16  C12 UNL     1      -5.238   0.575   0.283  1.00  0.00    -0.013 C 
HETATM   17  C14 UNL     1      -4.092  -0.414   0.084  1.00  0.00     0.014 C 
ENDBRANCH   7   8
ENDBRANCH   1   7
BRANCH   1  18
HETATM   18  C16 UNL     1       0.526  -0.667  -0.144  1.00  0.00     0.252 C 
HETATM   19  O2  UNL     1       0.635   0.057   0.860  1.00  0.00    -0.270 OA
HETATM   20  N1  UNL     1       1.640  -0.814  -0.985  1.00  0.00    -0.358 N 
ATOM     21  H1  UNL     1       1.556  -1.406  -1.811  1.00  0.00     0.162 HD
BRANCH  20  22
HETATM   22  C17 UNL     1       2.923  -0.147  -0.720  1.00  0.00     0.124 C 
BRANCH  22  23
HETATM   23  C18 UNL     1       3.958  -0.454  -1.746  1.00  0.00     0.050 C 
BRANCH  23  24
HETATM   24  C19 UNL     1       5.221   0.308  -1.328  1.00  0.00     0.274 C 
BRANCH  24  25
HETATM   25  N2  UNL     1       5.612  -0.155  -0.025  1.00  0.00     0.091 N 
HETATM   26  C20 UNL     1       6.061  -1.528  -0.147  1.00  0.00     0.310 C 
BRANCH  25  27
HETATM   27  C21 UNL     1       6.658   0.621   0.569  1.00  0.00     0.259 A 
HETATM   28  C22 UNL     1       6.406   2.070   0.866  1.00  0.00     0.078 A 
HETATM   29  C23 UNL     1       6.494   1.100   2.006  1.00  0.00     0.205 A 
HETATM   30  F1  UNL     1       7.633   1.219   2.793  1.00  0.00    -0.247 F 
ENDBRANCH  25  27
ENDBRANCH  24  25
ENDBRANCH  23  24
ENDBRANCH  22  23
ENDBRANCH  20  22
ENDBRANCH   1  18
TORSDOF 10
