REMARK  12 active torsions:
REMARK  status: ('A' for Active; 'I' for Inactive)
REMARK    1  A    between atoms: C2_4  and  C3_5 
REMARK    2  A    between atoms: C2_4  and  N5_22 
REMARK    3  A    between atoms: C3_5  and  C4_6 
REMARK    4  A    between atoms: C4_6  and  C5_7 
REMARK    5  A    between atoms: C5_7  and  C6_8 
REMARK    6  A    between atoms: C6_8  and  C7_9 
REMARK    7  A    between atoms: C7_9  and  C8_10 
REMARK    8  A    between atoms: C8_10  and  C9_11 
REMARK    9  A    between atoms: C9_11  and  C10_12 
REMARK   10  A    between atoms: C10_12  and  N2_13 
REMARK   11  A    between atoms: N2_13  and  C11_15 
REMARK   12  A    between atoms: C14_24  and  N6_26 
ROOT
HETATM    1  C3  UNL     1      -1.892  -1.069  -0.953  1.00  0.00     0.076 C 
ENDROOT
BRANCH   1   2
HETATM    2  C2  UNL     1      -2.433   0.243  -0.594  1.00  0.00     0.077 C 
HETATM    3  N1  UNL     1      -1.721   1.141   0.004  1.00  0.00    -0.384 N 
HETATM    4  C1  UNL     1      -2.221   2.436   0.369  1.00  0.00     0.147 C 
ATOM      5  H1  UNL     1      -0.752   0.917   0.229  1.00  0.00     0.160 HD
BRANCH   2   6
HETATM    6  N5  UNL     1      -3.782   0.581  -0.873  1.00  0.00    -0.336 N 
HETATM    7  C14 UNL     1      -4.715   0.208  -0.074  1.00  0.00     0.077 C 
HETATM    8  C15 UNL     1      -4.298  -0.586   1.136  1.00  0.00     0.089 C 
ATOM      9  H5  UNL     1      -4.011   1.120  -1.708  1.00  0.00     0.168 HD
BRANCH   7  10
HETATM   10  N6  UNL     1      -6.082   0.517  -0.300  1.00  0.00    -0.348 N 
HETATM   11  C16 UNL     1      -6.640   1.838  -0.419  1.00  0.00     0.126 C 
HETATM   12  C17 UNL     1      -8.027   1.695   0.184  1.00  0.00     0.024 C 
HETATM   13  C18 UNL     1      -8.231   0.230   0.450  1.00  0.00     0.049 C 
HETATM   14  C19 UNL     1      -7.172  -0.404  -0.454  1.00  0.00     0.107 C 
HETATM   15  C20 UNL     1      -6.862  -1.808  -0.043  1.00  0.00     0.057 C 
HETATM   16 CL1  UNL     1      -7.823  -0.389  -2.106  1.00  0.00    -0.096 Cl
ENDBRANCH   7  10
ENDBRANCH   2   6
ENDBRANCH   1   2
BRANCH   1  17
HETATM   17  C4  UNL     1      -0.418  -1.228  -0.793  1.00  0.00     0.007 C 
BRANCH  17  18
HETATM   18  C5  UNL     1       0.367  -0.308  -1.670  1.00  0.00     0.000 C 
BRANCH  18  19
HETATM   19  C6  UNL     1       1.852  -0.544  -1.463  1.00  0.00     0.000 C 
BRANCH  19  20
HETATM   20  C7  UNL     1       2.290  -0.285  -0.052  1.00  0.00     0.000 C 
BRANCH  20  21
HETATM   21  C8  UNL     1       3.764  -0.550   0.076  1.00  0.00     0.002 C 
BRANCH  21  22
HETATM   22  C9  UNL     1       4.558   0.341  -0.819  1.00  0.00     0.020 C 
BRANCH  22  23
HETATM   23  C10 UNL     1       6.066   0.075  -0.666  1.00  0.00     0.122 C 
BRANCH  23  24
HETATM   24  N2  UNL     1       6.485   0.328   0.696  1.00  0.00    -0.362 N 
ATOM     25  H2  UNL     1       5.802   0.646   1.383  1.00  0.00     0.162 HD
BRANCH  24  26
HETATM   26  C11 UNL     1       7.857   0.135   1.091  1.00  0.00     0.171 C 
HETATM   27  N3  UNL     1       8.249  -0.963   1.638  1.00  0.00    -0.361 N 
HETATM   28  C12 UNL     1       9.648  -0.939   1.948  1.00  0.00     0.142 C 
ATOM     29  H3  UNL     1       7.636  -1.756   1.828  1.00  0.00     0.162 HD
HETATM   30  C13 UNL     1      10.146   0.324   1.297  1.00  0.00     0.142 C 
HETATM   31  N4  UNL     1       8.939   1.048   0.959  1.00  0.00    -0.361 N 
ATOM     32  H4  UNL     1       8.877   2.027   0.679  1.00  0.00     0.162 HD
ENDBRANCH  24  26
ENDBRANCH  23  24
ENDBRANCH  22  23
ENDBRANCH  21  22
ENDBRANCH  20  21
ENDBRANCH  19  20
ENDBRANCH  18  19
ENDBRANCH  17  18
ENDBRANCH   1  17
TORSDOF 12
