REMARK  1 active torsions:
REMARK  status: ('A' for Active; 'I' for Inactive)
REMARK    1  A    between atoms: C2_2  and  C3_4 
ROOT
HETATM    1  C3  UNL     1       0.356  -0.612  -0.429  1.00  0.00     0.200 C 
HETATM    2  C4  UNL     1      -0.718  -0.190  -1.347  1.00  0.00     0.034 C 
HETATM    3  C5  UNL     1      -1.936   0.388  -0.736  1.00  0.00     0.004 C 
HETATM    4  C6  UNL     1      -2.200   0.018   0.673  1.00  0.00     0.027 C 
HETATM    5  C7  UNL     1      -0.906   0.034   1.451  1.00  0.00     0.232 C 
HETATM    6  N1  UNL     1      -0.075  -0.998   0.888  1.00  0.00    -0.070 N 
ATOM      7  H11 UNL     1       0.710  -1.232   1.495  1.00  0.00     0.277 HD
ATOM      8  H12 UNL     1      -0.538  -1.907   0.889  1.00  0.00     0.277 HD
ENDROOT
BRANCH   1   9
HETATM    9  C2  UNL     1       1.474   0.394  -0.269  1.00  0.00     0.085 C 
HETATM   10  C1  UNL     1       2.461  -0.246   0.713  1.00  0.00     0.024 C 
HETATM   11  S1  UNL     1       2.377   0.669  -1.804  1.00  0.00    -0.091 SA
ENDBRANCH   1   9
TORSDOF 1
