REMARK  3 active torsions:
REMARK  status: ('A' for Active; 'I' for Inactive)
REMARK    1  A    between atoms: C3_7  and  N3_8 
REMARK    2  A    between atoms: N3_8  and  C4_10 
REMARK    3  A    between atoms: C4_10  and  C5_11 
ROOT
HETATM    1  C4  UNL     1       0.734  -1.713   0.011  1.00  0.00     0.199 C 
ENDROOT
BRANCH   1   2
HETATM    2  N3  UNL     1      -0.243  -1.199  -0.924  1.00  0.00    -0.381 N 
ATOM      3  H3  UNL     1      -0.238  -1.568  -1.875  1.00  0.00     0.160 HD
BRANCH   2   4
HETATM    4  C3  UNL     1      -1.195  -0.224  -0.600  1.00  0.00     0.062 A 
HETATM    5  C1  UNL     1      -2.115   0.325  -1.465  1.00  0.00     0.137 A 
HETATM    6  N1  UNL     1      -2.851   1.215  -0.775  1.00  0.00    -0.310 N 
HETATM    7  N2  UNL     1      -2.455   1.267   0.479  1.00  0.00    -0.310 N 
ATOM      8  H1  UNL     1      -3.610   1.772  -1.169  1.00  0.00     0.186 HD
HETATM    9  C2  UNL     1      -1.454   0.405   0.609  1.00  0.00     0.137 A 
ATOM     10  H2  UNL     1      -2.844   1.859   1.213  1.00  0.00     0.186 HD
ENDBRANCH   2   4
ENDBRANCH   1   2
BRANCH   1  11
HETATM   11  C5  UNL     1       1.625  -0.565   0.416  1.00  0.00     0.131 A 
HETATM   12  N4  UNL     1       2.562  -0.582   1.381  1.00  0.00    -0.271 N 
HETATM   13  N5  UNL     1       3.105   0.621   1.398  1.00  0.00    -0.227 N 
ATOM     14  H4  UNL     1       2.805  -1.370   1.982  1.00  0.00     0.190 HD
HETATM   15  N6  UNL     1       2.571   1.412   0.499  1.00  0.00    -0.227 N 
ATOM     16  H5  UNL     1       3.851   0.902   2.035  1.00  0.00     0.210 HD
HETATM   17  N7  UNL     1       1.658   0.676  -0.104  1.00  0.00    -0.271 N 
ATOM     18  H6  UNL     1       2.810   2.385   0.308  1.00  0.00     0.210 HD
ATOM     19  H7  UNL     1       1.058   1.003  -0.862  1.00  0.00     0.190 HD
ENDBRANCH   1  11
TORSDOF 3
