REMARK  4 active torsions:
REMARK  status: ('A' for Active; 'I' for Inactive)
REMARK    1  A    between atoms: C3_3  and  C4_4 
REMARK    2  A    between atoms: C4_4  and  N1_5 
REMARK    3  A    between atoms: N1_5  and  N2_6 
REMARK    4  A    between atoms: N2_6  and  C5_8 
ROOT
HETATM    1  N1  UNL     1       0.042  -1.479  -0.464  1.00  0.00    -0.133 NA
ENDROOT
BRANCH   1   2
HETATM    2  C4  UNL     1       0.874  -1.191   0.672  1.00  0.00     0.193 C 
BRANCH   2   3
HETATM    3  C3  UNL     1       1.983  -0.325   0.262  1.00  0.00     0.043 A 
HETATM    4  C2  UNL     1       1.812   1.069   0.288  1.00  0.00     0.046 A 
HETATM    5  C1  UNL     1       2.975   1.615  -0.181  1.00  0.00     0.109 A 
HETATM    6  N6  UNL     1       3.807   0.586  -0.475  1.00  0.00    -0.312 N 
HETATM    7  N5  UNL     1       3.172  -0.551  -0.195  1.00  0.00    -0.304 N 
ATOM      8  H6  UNL     1       4.754   0.668  -0.846  1.00  0.00     0.186 HD
ATOM      9  H5  UNL     1       3.572  -1.480  -0.324  1.00  0.00     0.186 HD
ENDBRANCH   2   3
ENDBRANCH   1   2
BRANCH   1  10
HETATM   10  N2  UNL     1      -0.731  -0.456  -0.869  1.00  0.00    -0.275 N 
ATOM     11  H2  UNL     1      -0.310   0.178  -1.548  1.00  0.00     0.185 HD
BRANCH  10  12
HETATM   12  C5  UNL     1      -2.046  -0.149  -0.476  1.00  0.00     0.189 A 
HETATM   13  N3  UNL     1      -3.090   0.340  -1.141  1.00  0.00    -0.345 N 
HETATM   14  C6  UNL     1      -3.985   0.339  -0.018  1.00  0.00     0.249 A 
ATOM     15  H3  UNL     1      -3.212   0.620  -2.114  1.00  0.00     0.164 HD
HETATM   16  N4  UNL     1      -2.848  -0.205   0.687  1.00  0.00    -0.345 N 
ATOM     17  H4  UNL     1      -2.687  -0.510   1.647  1.00  0.00     0.164 HD
ENDBRANCH  10  12
ENDBRANCH   1  10
TORSDOF 4
