REMARK  5 active torsions:
REMARK  status: ('A' for Active; 'I' for Inactive)
REMARK    1  A    between atoms: N1_1  and  C1_4 
REMARK    2  A    between atoms: C2_9  and  C3_10 
REMARK    3  A    between atoms: C3_10  and  C4_11 
REMARK    4  A    between atoms: C4_11  and  C5_12 
REMARK    5  A    between atoms: C5_12  and  N4_13 
ROOT
HETATM    1  C1  UNL     1      -3.078   1.457  -0.253  1.00  0.00     0.691 A 
HETATM    2  N2  UNL     1      -2.034   2.294  -0.117  1.00  0.00    -0.132 N 
ATOM      3  H2  UNL     1      -2.179   3.295  -0.247  1.00  0.00     0.205 HD
HETATM    4  N3  UNL     1      -0.824   1.851   0.181  1.00  0.00    -0.287 N 
ATOM      5  H3  UNL     1      -0.059   2.520   0.273  1.00  0.00     0.187 HD
HETATM    6  C2  UNL     1      -0.576   0.549   0.365  1.00  0.00     0.068 A 
HETATM    7  C6  UNL     1      -1.617  -0.364   0.238  1.00  0.00     0.155 A 
HETATM    8  N5  UNL     1      -1.423  -1.749   0.423  1.00  0.00    -0.080 NA
HETATM    9  N6  UNL     1      -2.829   0.150  -0.069  1.00  0.00    -0.176 N 
ATOM     10  H6  UNL     1      -3.609  -0.500  -0.168  1.00  0.00     0.185 HD
ENDROOT
BRANCH   6  11
HETATM   11  C3  UNL     1       0.794   0.096   0.693  1.00  0.00     0.064 C 
BRANCH  11  12
HETATM   12  C4  UNL     1       1.454  -0.497  -0.520  1.00  0.00     0.033 C 
BRANCH  12  13
HETATM   13  C5  UNL     1       2.861  -0.975  -0.205  1.00  0.00     0.230 C 
BRANCH  13  14
HETATM   14  N4  UNL     1       3.674   0.132   0.257  1.00  0.00    -0.079 N 
ATOM     15  H43 UNL     1       3.674   0.907  -0.406  1.00  0.00     0.274 HD
ATOM     16  H42 UNL     1       3.248   0.613   1.050  1.00  0.00     0.274 HD
ATOM     17  H41 UNL     1       4.619  -0.189   0.469  1.00  0.00     0.274 HD
ENDBRANCH  13  14
ENDBRANCH  12  13
ENDBRANCH  11  12
ENDBRANCH   6  11
BRANCH   1  18
HETATM   18  N1  UNL     1      -4.285   1.879  -0.549  1.00  0.00    -0.233 N 
ATOM     19  H12 UNL     1      -4.474   2.872  -0.689  1.00  0.00     0.174 HD
ATOM     20  H11 UNL     1      -5.077   1.244  -0.652  1.00  0.00     0.174 HD
ENDBRANCH   1  18
TORSDOF 5
