REMARK  5 active torsions:
REMARK  status: ('A' for Active; 'I' for Inactive)
REMARK    1  A    between atoms: N1_1  and  N2_4 
REMARK    2  A    between atoms: N3_6  and  C1_8 
REMARK    3  A    between atoms: C1_8  and  C2_9 
REMARK    4  A    between atoms: C3_12  and  N5_13 
REMARK    5  A    between atoms: C4_18  and  N7_19 
ROOT
HETATM    1  C2  UNL     1       0.383  -0.057  -0.662  1.00  0.00     0.132 A 
HETATM    2  N4  UNL     1      -0.767   0.284  -1.262  1.00  0.00    -0.178 N 
ATOM      3  H4  UNL     1      -0.752   0.536  -2.250  1.00  0.00     0.185 HD
HETATM    4  C3  UNL     1      -1.950   0.305  -0.598  1.00  0.00     0.691 A 
HETATM    5  N6  UNL     1      -2.007  -0.021   0.706  1.00  0.00    -0.023 N 
ATOM      6  H6  UNL     1      -2.892  -0.008   1.213  1.00  0.00     0.203 HD
HETATM    7  C4  UNL     1      -0.861  -0.365   1.320  1.00  0.00     0.691 A 
HETATM    8  N8  UNL     1       0.323  -0.382   0.639  1.00  0.00    -0.178 N 
ATOM      9  H8  UNL     1       1.178  -0.647   1.128  1.00  0.00     0.185 HD
ENDROOT
BRANCH   1  10
HETATM   10  C1  UNL     1       1.683  -0.084  -1.382  1.00  0.00     0.218 C 
BRANCH  10  11
HETATM   11  N3  UNL     1       2.770  -0.480  -0.539  1.00  0.00    -0.316 N 
HETATM   12  N2  UNL     1       3.507   0.289   0.074  1.00  0.00    -0.253 N 
ATOM     13  H2  UNL     1       4.086   0.675  -0.671  1.00  0.00     0.207 HD
ATOM     14  H3  UNL     1       2.947  -1.480  -0.439  1.00  0.00     0.182 HD
BRANCH  12  15
HETATM   15  N1  UNL     1       3.953   0.868   1.084  1.00  0.00    -0.331 N 
ATOM     16  H12 UNL     1       3.352   0.456   1.798  1.00  0.00     0.178 HD
ATOM     17  H11 UNL     1       4.565   1.506   1.593  1.00  0.00     0.178 HD
ENDBRANCH  12  15
ENDBRANCH  10  11
ENDBRANCH   1  10
BRANCH   4  18
HETATM   18  N5  UNL     1      -3.051   0.635  -1.185  1.00  0.00    -0.234 N 
ATOM     19  H52 UNL     1      -3.008   0.882  -2.174  1.00  0.00     0.174 HD
ATOM     20  H51 UNL     1      -3.940   0.651  -0.686  1.00  0.00     0.174 HD
ENDBRANCH   4  18
BRANCH   7  21
HETATM   21  N7  UNL     1      -0.881  -0.684   2.574  1.00  0.00    -0.234 N 
ATOM     22  H72 UNL     1      -1.765  -0.671   3.083  1.00  0.00     0.174 HD
ATOM     23  H71 UNL     1      -0.012  -0.945   3.040  1.00  0.00     0.174 HD
ENDBRANCH   7  21
TORSDOF 5
