REMARK  1 active torsions:
REMARK  status: ('A' for Active; 'I' for Inactive)
REMARK    1  A    between atoms: N4_12  and  C5_14 
ROOT
HETATM    1  N1  UNL     1      -5.260   1.813   0.271  1.00  0.00    -0.063 NA
HETATM    2  C1  UNL     1      -4.344   0.747   0.052  1.00  0.00     0.194 A 
HETATM    3  N2  UNL     1      -4.625  -0.521  -0.309  1.00  0.00    -0.323 N 
ATOM      4  H2  UNL     1      -5.559  -0.895  -0.478  1.00  0.00     0.169 HD
HETATM    5  C2  UNL     1      -3.473  -1.217  -0.411  1.00  0.00     0.110 A 
HETATM    6  S1  UNL     1      -3.030  -2.835  -0.813  1.00  0.00    -0.040 SA
HETATM    7  C3  UNL     1      -1.344  -3.074  -0.754  1.00  0.00     0.146 A 
HETATM    8  S2  UNL     1      -0.637  -4.510  -1.087  1.00  0.00    -0.052 SA
HETATM    9  N3  UNL     1      -0.643  -1.988  -0.411  1.00  0.00    -0.326 N 
ATOM     10  H3  UNL     1       0.369  -2.109  -0.369  1.00  0.00     0.169 HD
HETATM   11  C4  UNL     1      -1.091  -0.773  -0.118  1.00  0.00     0.134 A 
HETATM   12  N4  UNL     1      -0.264   0.174   0.197  1.00  0.00    -0.353 N 
ATOM     13  H4  UNL     1      -0.677   1.082   0.411  1.00  0.00     0.163 HD
HETATM   14  C10 UNL     1      -2.429  -0.384  -0.111  1.00  0.00     0.113 A 
HETATM   15  N6  UNL     1      -3.015   0.818   0.168  1.00  0.00    -0.325 N 
ATOM     16  H6  UNL     1      -2.504   1.661   0.431  1.00  0.00     0.169 HD
ENDROOT
BRANCH  12  17
HETATM   17  C5  UNL     1       1.149   0.092   0.278  1.00  0.00     0.178 C 
HETATM   18  C6  UNL     1       1.836   0.135  -1.088  1.00  0.00     0.046 C 
HETATM   19  C7  UNL     1       3.270  -0.270  -0.818  1.00  0.00     0.005 C 
HETATM   20  C8  UNL     1       3.897   0.771   0.066  1.00  0.00     0.019 C 
HETATM   21  C9  UNL     1       3.075   1.218   1.204  1.00  0.00     0.115 C 
HETATM   22  N5  UNL     1       1.668   1.180   1.038  1.00  0.00    -0.401 N 
ATOM     23  H5  UNL     1       1.060   1.893   1.441  1.00  0.00     0.155 HD
ENDBRANCH  12  17
TORSDOF 1
