REMARK  1 active torsions:
REMARK  status: ('A' for Active; 'I' for Inactive)
REMARK    1  A    between atoms: C5_9  and  N2_10 
ROOT
HETATM    1  C1  UNL     1      -0.151   4.121   0.653  1.00  0.00     0.041 C 
HETATM    2  C2  UNL     1      -0.109   2.796  -0.121  1.00  0.00     0.193 C 
HETATM    3  C3  UNL     1       1.376   2.436  -0.185  1.00  0.00     0.113 C 
HETATM    4  S1  UNL     1       1.676   0.936  -1.107  1.00  0.00    -0.113 SA
HETATM    5  C4  UNL     1       2.870  -0.143  -0.276  1.00  0.00     0.071 C 
HETATM    6  N1  UNL     1       4.012   0.345   0.012  1.00  0.00    -0.395 N 
ATOM      7  H11 UNL     1       4.684  -0.263   0.480  1.00  0.00     0.156 HD
ATOM      8  H12 UNL     1       4.237   1.312  -0.220  1.00  0.00     0.156 HD
HETATM    9  C5  UNL     1       2.544  -1.542   0.060  1.00  0.00     0.248 C 
HETATM   10  C6  UNL     1       1.710  -2.217  -1.027  1.00  0.00     0.113 C 
HETATM   11  S2  UNL     1       0.271  -3.004  -0.287  1.00  0.00    -0.164 SA
HETATM   12  C7  UNL     1      -1.285  -2.405  -0.927  1.00  0.00     0.112 C 
HETATM   13  C8  UNL     1      -1.858  -1.251  -0.130  1.00  0.00     0.129 C 
HETATM   14  C9  UNL     1      -1.404  -1.273   1.313  1.00  0.00     0.046 C 
HETATM   15  C10 UNL     1      -3.390  -1.318  -0.092  1.00  0.00     0.046 C 
HETATM   16  N3  UNL     1      -1.450  -0.031  -0.811  1.00  0.00    -0.043 N 
ATOM     17  H31 UNL     1      -1.767  -0.034  -1.781  1.00  0.00     0.280 HD
ATOM     18  H32 UNL     1      -0.441  -0.021  -0.963  1.00  0.00     0.280 HD
HETATM   19  C11 UNL     1      -1.874   1.158  -0.143  1.00  0.00     0.464 C 
HETATM   20  N4  UNL     1      -0.857   1.802   0.632  1.00  0.00    -0.047 N 
ATOM     21  H41 UNL     1      -1.250   2.209   1.481  1.00  0.00     0.279 HD
ATOM     22  H42 UNL     1      -0.230   1.115   1.051  1.00  0.00     0.279 HD
ENDROOT
BRANCH   9  23
HETATM   23  N2  UNL     1       3.803  -2.261   0.268  1.00  0.00    -0.068 N 
ATOM     24  H23 UNL     1       4.438  -2.183  -0.526  1.00  0.00     0.275 HD
ATOM     25  H22 UNL     1       4.401  -1.817   0.964  1.00  0.00     0.275 HD
ATOM     26  H21 UNL     1       3.578  -3.228   0.500  1.00  0.00     0.275 HD
ENDBRANCH   9  23
TORSDOF 1
