REMARK  6 active torsions:
REMARK  status: ('A' for Active; 'I' for Inactive)
REMARK    1  A    between atoms: C2_2  and  N1_3 
REMARK    2  A    between atoms: N1_3  and  C3_4 
REMARK    3  A    between atoms: N1_3  and  C5_6 
REMARK    4  A    between atoms: C6_7  and  N2_8 
REMARK    5  A    between atoms: N2_8  and  C7_10 
REMARK    6  A    between atoms: C9_14  and  C10_15 
ROOT
HETATM    1  C10 UNL     1       5.859   0.651  -0.284  1.00  0.00     0.171 C 
HETATM    2  C11 UNL     1       6.544  -0.565  -0.751  1.00  0.00     0.064 C 
HETATM    3  N4  UNL     1       7.085  -1.540  -1.102  1.00  0.00    -0.197 NA
ENDROOT
BRANCH   1   4
HETATM    4  C9  UNL     1       4.400   0.279  -0.250  1.00  0.00     0.014 A 
HETATM    5  C8  UNL     1       3.683  -0.255   0.792  1.00  0.00     0.105 A 
HETATM    6  N3  UNL     1       2.418  -0.495   0.595  1.00  0.00    -0.345 N 
HETATM    7  C7  UNL     1       1.883  -0.216  -0.587  1.00  0.00     0.150 A 
ATOM      8  H3  UNL     1       1.846  -0.892   1.340  1.00  0.00     0.167 HD
HETATM    9  S1  UNL     1       3.206   0.408  -1.466  1.00  0.00    -0.056 SA
BRANCH   7  10
HETATM   10  N2  UNL     1       0.674  -0.356  -1.020  1.00  0.00    -0.321 N 
ATOM     11  H2  UNL     1       0.456  -0.078  -1.977  1.00  0.00     0.169 HD
BRANCH  10  12
HETATM   12  C6  UNL     1      -0.358  -0.885  -0.205  1.00  0.00     0.137 A 
HETATM   13  C5  UNL     1      -1.577  -0.328   0.082  1.00  0.00     0.105 A 
HETATM   14  C14 UNL     1      -2.228  -1.223   0.912  1.00  0.00     0.111 A 
HETATM   15  C12 UNL     1      -1.416  -2.318   1.131  1.00  0.00     0.134 A 
HETATM   16  N7  UNL     1      -3.361  -1.475   1.612  1.00  0.00    -0.293 N 
HETATM   17  N5  UNL     1      -0.306  -2.077   0.445  1.00  0.00    -0.334 N 
HETATM   18  C13 UNL     1      -2.076  -3.207   1.960  1.00  0.00     0.289 A 
ATOM     19  H5  UNL     1       0.492  -2.712   0.410  1.00  0.00     0.168 HD
HETATM   20  O1  UNL     1      -1.671  -4.322   2.392  1.00  0.00    -0.264 OA
HETATM   21  N6  UNL     1      -3.256  -2.638   2.219  1.00  0.00    -0.264 N 
ATOM     22  H6  UNL     1      -3.979  -3.050   2.809  1.00  0.00     0.190 HD
ATOM     23  H7  UNL     1      -4.171  -0.857   1.661  1.00  0.00     0.187 HD
BRANCH  13  24
HETATM   24  N1  UNL     1      -2.107   0.910  -0.368  1.00  0.00    -0.377 N 
BRANCH  24  25
HETATM   25  C2  UNL     1      -2.889   0.970  -1.586  1.00  0.00     0.118 C 
HETATM   26  C1  UNL     1      -2.184   1.725  -2.701  1.00  0.00     0.026 C 
ENDBRANCH  24  25
BRANCH  24  27
HETATM   27  C3  UNL     1      -1.908   2.156   0.346  1.00  0.00     0.118 C 
HETATM   28  C4  UNL     1      -1.069   2.012   1.579  1.00  0.00     0.026 C 
ENDBRANCH  24  27
ENDBRANCH  13  24
ENDBRANCH  10  12
ENDBRANCH   7  10
ENDBRANCH   1   4
TORSDOF 6
