REMARK  8 active torsions:
REMARK  status: ('A' for Active; 'I' for Inactive)
REMARK    1  A    between atoms: N1_2  and  C2_4 
REMARK    2  A    between atoms: C4_10  and  N4_11 
REMARK    3  A    between atoms: N5_14  and  C7_15 
REMARK    4  A    between atoms: C7_15  and  C8_16 
REMARK    5  A    between atoms: C7_15  and  C16_24 
REMARK    6  A    between atoms: C8_16  and  C9_17 
REMARK    7  A    between atoms: C9_17  and  C10_18 
REMARK    8  A    between atoms: C10_18  and  C11_19 
ROOT
HETATM    1  N4  UNL     1       2.812  -0.483  -0.307  1.00  0.00    -0.362 N 
HETATM    2  C5  UNL     1       2.421   0.764   0.291  1.00  0.00     0.154 C 
HETATM    3  C6  UNL     1       1.530   1.487  -0.742  1.00  0.00     0.292 C 
HETATM    4  N5  UNL     1       0.245   0.858  -0.815  1.00  0.00     0.096 N 
HETATM    5  C21 UNL     1       0.459  -0.544  -0.613  1.00  0.00     0.292 C 
HETATM    6  C22 UNL     1       1.804  -0.989  -1.243  1.00  0.00     0.154 C 
ENDROOT
BRANCH   4   7
HETATM    7  C7  UNL     1      -0.774   1.470  -0.065  1.00  0.00     0.228 C 
BRANCH   7   8
HETATM    8  C8  UNL     1      -1.751   0.696   0.730  1.00  0.00     0.036 C 
BRANCH   8   9
HETATM    9  C9  UNL     1      -2.680  -0.190  -0.050  1.00  0.00     0.002 C 
BRANCH   9  10
HETATM   10  C10 UNL     1      -3.633  -0.931   0.872  1.00  0.00     0.005 C 
BRANCH  10  11
HETATM   11  C11 UNL     1      -4.553  -1.758   0.049  1.00  0.00    -0.014 C 
HETATM   12  C12 UNL     1      -5.565  -2.534   0.902  1.00  0.00     0.004 C 
HETATM   13  C13 UNL     1      -6.290  -3.302  -0.212  1.00  0.00     0.000 C 
HETATM   14  C14 UNL     1      -5.158  -3.750  -1.095  1.00  0.00     0.000 C 
HETATM   15  C15 UNL     1      -3.933  -2.893  -0.701  1.00  0.00     0.004 C 
ENDBRANCH  10  11
ENDBRANCH   9  10
ENDBRANCH   8   9
ENDBRANCH   7   8
BRANCH   7  16
HETATM   16  C16 UNL     1      -0.535   2.891   0.380  1.00  0.00     0.037 C 
HETATM   17  C17 UNL     1      -1.673   3.415   1.256  1.00  0.00     0.017 C 
HETATM   18  C18 UNL     1      -1.413   4.851   1.631  1.00  0.00     0.103 C 
HETATM   19  C19 UNL     1      -0.783   5.686   0.623  1.00  0.00     0.217 C 
HETATM   20  O1  UNL     1      -0.823   6.941   0.755  1.00  0.00    -0.274 OA
HETATM   21  N6  UNL     1      -0.128   5.113  -0.502  1.00  0.00    -0.361 N 
HETATM   22  C20 UNL     1      -0.572   3.799  -0.872  1.00  0.00     0.129 C 
ATOM     23  H6  UNL     1       0.608   5.603  -1.011  1.00  0.00     0.162 HD
ENDBRANCH   7  16
ENDBRANCH   4   7
BRANCH   1  24
HETATM   24  C4  UNL     1       3.982  -1.230  -0.098  1.00  0.00     0.130 A 
HETATM   25  N3  UNL     1       3.925  -2.515   0.371  1.00  0.00    -0.337 N 
HETATM   26  C3  UNL     1       5.027  -3.264   0.572  1.00  0.00     0.183 A 
ATOM     27  H3  UNL     1       3.012  -2.921   0.576  1.00  0.00     0.168 HD
HETATM   28  N2  UNL     1       6.265  -2.815   0.330  1.00  0.00    -0.337 N 
HETATM   29  C2  UNL     1       6.395  -1.547  -0.136  1.00  0.00     0.127 A 
ATOM     30  H2  UNL     1       7.081  -3.405   0.490  1.00  0.00     0.168 HD
HETATM   31  C23 UNL     1       5.271  -0.773  -0.343  1.00  0.00     0.121 A 
HETATM   32 CL1  UNL     1       5.506   0.848  -0.944  1.00  0.00    -0.076 Cl
BRANCH  29  33
HETATM   33  N1  UNL     1       7.570  -1.096  -0.371  1.00  0.00    -0.379 N 
HETATM   34  C1  UNL     1       8.745  -1.914  -0.144  1.00  0.00     0.147 C 
ATOM     35  H1  UNL     1       7.681  -0.145  -0.724  1.00  0.00     0.160 HD
ENDBRANCH  29  33
ENDBRANCH   1  24
TORSDOF 8
