REMARK  8 active torsions:
REMARK  status: ('A' for Active; 'I' for Inactive)
REMARK    1  A    between atoms: C1_2  and  C2_4 
REMARK    2  A    between atoms: C2_4  and  C3_5 
REMARK    3  A    between atoms: C6_8  and  N1_9 
REMARK    4  A    between atoms: N1_9  and  C7_10 
REMARK    5  A    between atoms: N1_9  and  C14_21 
REMARK    6  A    between atoms: C7_10  and  C8_11 
REMARK       I    between atoms: N2_14  and  C11_15 
REMARK    7  A    between atoms: C11_15  and  O4_17 
REMARK    8  A    between atoms: C19_26  and  C20_27 
ROOT
HETATM    1  N1  UNL     1       0.283  -0.716  -0.713  1.00  0.00    -0.383 N 
ENDROOT
BRANCH   1   2
HETATM    2  C6  UNL     1      -1.015  -0.334  -0.436  1.00  0.00     0.098 C 
HETATM    3  C5  UNL     1      -1.090   0.511   0.815  1.00  0.00     0.026 C 
HETATM    4  C4  UNL     1      -2.572   0.654   1.235  1.00  0.00     0.007 C 
HETATM    5  C3  UNL     1      -3.124   1.664   0.235  1.00  0.00    -0.004 C 
HETATM    6  C21 UNL     1      -2.548   1.577  -1.115  1.00  0.00     0.022 C 
HETATM    7  C19 UNL     1      -1.835   0.331  -1.504  1.00  0.00     0.110 C 
BRANCH   5   8
HETATM    8  C2  UNL     1      -4.615   1.777   0.347  1.00  0.00     0.117 C 
BRANCH   8   9
HETATM    9  C1  UNL     1      -5.035   2.252   1.685  1.00  0.00     0.172 C 
HETATM   10  O1  UNL     1      -4.507   3.296   2.151  1.00  0.00    -0.648 OA
HETATM   11  O2  UNL     1      -5.986   1.595   2.450  1.00  0.00    -0.648 OA
ENDBRANCH   8   9
ENDBRANCH   5   8
BRANCH   7  12
HETATM   12  C20 UNL     1      -2.841  -0.585  -2.108  1.00  0.00     0.179 C 
HETATM   13  O5  UNL     1      -2.848  -0.782  -3.355  1.00  0.00    -0.648 OA
HETATM   14  O6  UNL     1      -3.801  -1.258  -1.389  1.00  0.00    -0.648 OA
ENDBRANCH   7  12
ENDBRANCH   1   2
BRANCH   1  15
HETATM   15  C7  UNL     1       1.321   0.155  -1.026  1.00  0.00     0.064 C 
BRANCH  15  16
HETATM   16  C8  UNL     1       1.918   1.077  -0.051  1.00  0.00     0.027 C 
HETATM   17  C9  UNL     1       2.513   0.422   1.165  1.00  0.00     0.030 C 
HETATM   18  C10 UNL     1       3.948  -0.017   0.985  1.00  0.00     0.129 C 
HETATM   19  N2  UNL     1       4.721   1.226   0.923  1.00  0.00    -0.327 N 
HETATM   20  C11 UNL     1       6.024   1.365   1.418  1.00  0.00     0.379 C 
HETATM   21  C12 UNL     1       4.020   2.334   0.296  1.00  0.00     0.129 C 
HETATM   22  O3  UNL     1       6.668   0.440   1.967  1.00  0.00    -0.237 OA
HETATM   23  C13 UNL     1       3.144   1.721  -0.772  1.00  0.00     0.030 C 
BRANCH  20  24
HETATM   24  O4  UNL     1       6.653   2.602   1.298  1.00  0.00    -0.186 OA
HETATM   25 CL1  UNL     1       8.261   2.787   1.899  1.00  0.00     0.072 Cl
ENDBRANCH  20  24
ENDBRANCH  15  16
ENDBRANCH   1  15
BRANCH   1  26
HETATM   26  C14 UNL     1       0.624  -2.108  -0.822  1.00  0.00     0.084 C 
HETATM   27  C15 UNL     1       0.029  -2.878  -1.941  1.00  0.00     0.025 C 
HETATM   28  C16 UNL     1      -0.927  -3.889  -1.344  1.00  0.00     0.002 C 
HETATM   29  C17 UNL     1      -0.719  -3.868   0.143  1.00  0.00     0.002 C 
HETATM   30  C18 UNL     1       0.397  -2.907   0.442  1.00  0.00     0.025 C 
ENDBRANCH   1  26
TORSDOF 8
