REMARK  17 active torsions:
REMARK  status: ('A' for Active; 'I' for Inactive)
REMARK    1  A    between atoms: C2_2  and  C3_3 
REMARK    2  A    between atoms: C3_3  and  S1_4 
REMARK    3  A    between atoms: S1_4  and  C4_5 
REMARK    4  A    between atoms: C4_5  and  C5_6 
REMARK    5  A    between atoms: C5_6  and  C6_7 
REMARK       I    between atoms: C6_7  and  N1_9 
REMARK    6  A    between atoms: N1_9  and  C7_11 
REMARK    7  A    between atoms: C12_17  and  O3_18 
REMARK    8  A    between atoms: C12_17  and  C13_20 
REMARK    9  A    between atoms: C13_20  and  O4_21 
REMARK   10  A    between atoms: C13_20  and  C14_23 
REMARK   11  A    between atoms: C14_23  and  C16_25 
REMARK   12  A    between atoms: C16_25  and  C17_27 
REMARK   13  A    between atoms: C20_30  and  O6_32 
REMARK   14  A    between atoms: O6_32  and  C22_33 
REMARK   15  A    between atoms: C26_38  and  N2_39 
REMARK   16  A    between atoms: C28_43  and  O8_44 
REMARK   17  A    between atoms: C29_46  and  O9_47 
ROOT
HETATM    1  C7  UNL     1       2.654  -0.005   0.228  1.00  0.00     0.122 C 
HETATM    2  C8  UNL     1       2.275   0.667  -1.041  1.00  0.00     0.037 C 
HETATM    3  C9  UNL     1       3.598   1.320  -1.518  1.00  0.00     0.015 C 
HETATM    4  C10 UNL     1       1.223   1.699  -0.808  1.00  0.00     0.127 C 
HETATM    5  C11 UNL     1       1.711   2.907  -1.665  1.00  0.00     0.040 C 
HETATM    6  O2  UNL     1       0.027   1.327  -1.253  1.00  0.00    -0.344 OA
HETATM    7  C12 UNL     1      -0.946   0.778  -0.423  1.00  0.00     0.231 C 
HETATM    8  C20 UNL     1      -0.831  -0.715  -0.285  1.00  0.00     0.167 C 
HETATM    9  C21 UNL     1      -0.809  -1.097  -1.847  1.00  0.00     0.060 C 
HETATM   10  C29 UNL     1       0.464  -1.295   0.144  1.00  0.00     0.087 C 
HETATM   11  C30 UNL     1       1.533  -0.751   0.934  1.00  0.00    -0.029 C 
HETATM   12  C31 UNL     1       1.350  -0.270   2.333  1.00  0.00     0.048 C 
ENDROOT
BRANCH   8  13
HETATM   13  O6  UNL     1      -1.914  -1.310   0.041  1.00  0.00    -0.335 OA
BRANCH  13  14
HETATM   14  C22 UNL     1      -2.949  -1.879   0.354  1.00  0.00     0.292 C 
HETATM   15  O7  UNL     1      -2.844  -3.249   0.844  1.00  0.00    -0.354 OA
HETATM   16  C23 UNL     1      -3.613  -3.444   1.964  1.00  0.00     0.122 C 
HETATM   17  C24 UNL     1      -3.079  -2.688   3.179  1.00  0.00     0.040 C 
HETATM   18  C25 UNL     1      -4.999  -2.836   1.696  1.00  0.00     0.067 C 
HETATM   19  C26 UNL     1      -5.193  -2.821   0.221  1.00  0.00     0.221 C 
HETATM   20  C28 UNL     1      -4.167  -2.013  -0.548  1.00  0.00     0.204 C 
BRANCH  19  21
HETATM   21  N2  UNL     1      -6.543  -2.483  -0.177  1.00  0.00    -0.072 N 
HETATM   22  C27 UNL     1      -7.481  -3.475   0.310  1.00  0.00     0.267 C 
ATOM     23  H22 UNL     1      -6.800  -1.541   0.118  1.00  0.00     0.277 HD
ATOM     24  H21 UNL     1      -6.619  -2.353  -1.186  1.00  0.00     0.277 HD
ENDBRANCH  19  21
BRANCH  20  25
HETATM   25  O8  UNL     1      -3.957  -2.731  -1.704  1.00  0.00    -0.389 OA
ATOM     26  H8  UNL     1      -4.717  -2.815  -2.267  1.00  0.00     0.210 HD
ENDBRANCH  20  25
ENDBRANCH  13  14
ENDBRANCH   8  13
BRANCH   7  27
HETATM   27  O3  UNL     1      -2.110   0.921  -1.286  1.00  0.00    -0.360 OA
ATOM     28  H3  UNL     1      -2.774   0.546  -0.719  1.00  0.00     0.213 HD
ENDBRANCH   7  27
BRANCH   7  29
HETATM   29  C13 UNL     1      -1.425   1.629   0.677  1.00  0.00     0.216 C 
BRANCH  29  30
HETATM   30  O4  UNL     1      -2.209   0.964   1.633  1.00  0.00    -0.385 OA
ATOM     31  H4  UNL     1      -2.518   1.514   2.343  1.00  0.00     0.210 HD
ENDBRANCH  29  30
BRANCH  29  32
HETATM   32  C14 UNL     1      -2.311   2.815   0.370  1.00  0.00    -0.004 C 
HETATM   33  C15 UNL     1      -1.805   3.862  -0.519  1.00  0.00     0.050 C 
BRANCH  32  34
HETATM   34  C16 UNL     1      -3.759   2.550   0.294  1.00  0.00     0.157 C 
HETATM   35  O5  UNL     1      -4.173   1.459   0.561  1.00  0.00    -0.293 OA
BRANCH  34  36
HETATM   36  C17 UNL     1      -4.767   3.564  -0.098  1.00  0.00     0.052 C 
HETATM   37  C18 UNL     1      -4.717   4.783   0.828  1.00  0.00     0.018 C 
HETATM   38  C19 UNL     1      -4.743   3.939  -1.550  1.00  0.00     0.018 C 
ENDBRANCH  34  36
ENDBRANCH  32  34
ENDBRANCH  29  32
ENDBRANCH   7  29
BRANCH  10  39
HETATM   39  O9  UNL     1       1.139  -2.011  -0.883  1.00  0.00    -0.361 OA
ATOM     40  H9  UNL     1       1.969  -2.383  -0.608  1.00  0.00     0.217 HD
ENDBRANCH  10  39
BRANCH   1  41
HETATM   41  N1  UNL     1       3.780  -0.849  -0.071  1.00  0.00    -0.352 N 
HETATM   42  C6  UNL     1       5.118  -0.751   0.300  1.00  0.00     0.218 C 
HETATM   43  O1  UNL     1       5.487   0.222   1.016  1.00  0.00    -0.274 OA
ATOM     44  H1  UNL     1       3.561  -1.657  -0.654  1.00  0.00     0.163 HD
BRANCH  42  45
HETATM   45  C5  UNL     1       6.159  -1.723  -0.097  1.00  0.00     0.113 C 
BRANCH  45  46
HETATM   46  C4  UNL     1       7.513  -1.143   0.141  1.00  0.00     0.083 C 
BRANCH  46  47
HETATM   47  S1  UNL     1       8.836  -2.309  -0.281  1.00  0.00    -0.165 SA
BRANCH  47  48
HETATM   48  C3  UNL     1      10.418  -1.378  -0.179  1.00  0.00     0.100 C 
BRANCH  48  49
HETATM   49  C2  UNL     1      10.461  -0.395  -1.294  1.00  0.00    -0.027 C 
HETATM   50  C1  UNL     1      10.552   0.907  -1.119  1.00  0.00     0.007 C 
ENDBRANCH  48  49
ENDBRANCH  47  48
ENDBRANCH  46  47
ENDBRANCH  45  46
ENDBRANCH  42  45
ENDBRANCH   1  41
TORSDOF 17
