REMARK  17 active torsions:
REMARK  status: ('A' for Active; 'I' for Inactive)
REMARK    1  A    between atoms: O1_2  and  C2_3 
REMARK    2  A    between atoms: C2_3  and  C3_4 
REMARK    3  A    between atoms: C2_3  and  C14_19 
REMARK    4  A    between atoms: C3_4  and  C4_5 
REMARK    5  A    between atoms: C4_5  and  O2_6 
REMARK    6  A    between atoms: C5_8  and  O3_9 
REMARK    7  A    between atoms: C14_19  and  C16_21 
REMARK    8  A    between atoms: C16_21  and  N1_22 
REMARK    9  A    between atoms: N1_22  and  C17_24 
REMARK   10  A    between atoms: C20_27  and  O4_28 
REMARK   11  A    between atoms: O4_28  and  C21_29 
REMARK   12  A    between atoms: C22_33  and  C23_34 
REMARK   13  A    between atoms: C23_34  and  N3_35 
REMARK   14  A    between atoms: C24_37  and  C26_39 
REMARK   15  A    between atoms: C26_39  and  C27_40 
REMARK   16  A    between atoms: C27_40  and  O7_41 
REMARK   17  A    between atoms: C29_45  and  C30_46 
ROOT
HETATM    1  C17 UNL     1       0.936   0.227  -1.338  1.00  0.00     0.109 C 
HETATM    2  C18 UNL     1       0.789   0.148   0.135  1.00  0.00     0.039 C 
HETATM    3  C19 UNL     1       1.772   0.896   0.964  1.00  0.00     0.075 C 
HETATM    4  C20 UNL     1       2.379   0.060   2.062  1.00  0.00     0.278 C 
HETATM    5  O6  UNL     1       3.544   0.803   2.373  1.00  0.00    -0.347 OA
HETATM    6  C22 UNL     1       4.111   0.981   1.103  1.00  0.00     0.192 C 
HETATM    7  C28 UNL     1       2.938   1.467   0.257  1.00  0.00     0.165 C 
HETATM    8  O8  UNL     1       3.115   1.005  -1.030  1.00  0.00    -0.371 OA
HETATM    9  C29 UNL     1       1.978   1.217  -1.807  1.00  0.00     0.167 C 
ENDROOT
BRANCH   1  10
HETATM   10  N1  UNL     1      -0.327   0.429  -2.011  1.00  0.00    -0.414 N 
ATOM     11  H1  UNL     1      -0.719  -0.264  -2.648  1.00  0.00     0.153 HD
BRANCH  10  12
HETATM   12  C16 UNL     1      -0.987   1.653  -1.729  1.00  0.00     0.121 C 
BRANCH  12  13
HETATM   13  C14 UNL     1      -2.319   1.807  -2.399  1.00  0.00     0.028 C 
HETATM   14  C15 UNL     1      -2.890   3.154  -1.974  1.00  0.00     0.014 C 
BRANCH  13  15
HETATM   15  C2  UNL     1      -3.322   0.738  -2.012  1.00  0.00     0.129 C 
BRANCH  15  16
HETATM   16  O1  UNL     1      -4.497   1.070  -2.710  1.00  0.00    -0.390 OA
HETATM   17  C1  UNL     1      -4.766   0.100  -3.655  1.00  0.00     0.202 C 
ENDBRANCH  15  16
BRANCH  15  18
HETATM   18  C3  UNL     1      -3.526   0.672  -0.545  1.00  0.00     0.073 C 
BRANCH  18  19
HETATM   19  C4  UNL     1      -4.525  -0.313  -0.055  1.00  0.00     0.090 C 
HETATM   20  C5  UNL     1      -4.108  -1.745  -0.232  1.00  0.00     0.153 C 
HETATM   21  C6  UNL     1      -5.084  -2.470   0.682  1.00  0.00     0.044 C 
HETATM   22  C7  UNL     1      -5.342  -1.499   1.809  1.00  0.00    -0.035 C 
HETATM   23  C8  UNL     1      -4.938  -2.051   3.156  1.00  0.00     0.016 C 
HETATM   24  C9  UNL     1      -6.812  -1.188   1.867  1.00  0.00     0.010 C 
HETATM   25  C13 UNL     1      -4.616  -0.229   1.476  1.00  0.00     0.034 C 
HETATM   26  C10 UNL     1      -6.923   0.308   1.912  1.00  0.00     0.005 C 
HETATM   27  C11 UNL     1      -5.557   0.899   1.812  1.00  0.00    -0.011 C 
HETATM   28  C12 UNL     1      -5.169   1.499   3.137  1.00  0.00     0.010 C 
BRANCH  19  29
HETATM   29  O2  UNL     1      -5.803  -0.138  -0.512  1.00  0.00    -0.387 OA
ATOM     30  H2  UNL     1      -6.442  -0.768  -0.199  1.00  0.00     0.210 HD
ENDBRANCH  19  29
BRANCH  20  31
HETATM   31  O3  UNL     1      -2.826  -1.995   0.267  1.00  0.00    -0.393 OA
ATOM     32  H3  UNL     1      -2.562  -2.901   0.155  1.00  0.00     0.210 HD
ENDBRANCH  20  31
ENDBRANCH  18  19
ENDBRANCH  15  18
ENDBRANCH  13  15
ENDBRANCH  12  13
ENDBRANCH  10  12
ENDBRANCH   1  10
BRANCH   9  33
HETATM   33  C30 UNL     1       2.316   0.891  -3.210  1.00  0.00     0.009 C 
HETATM   34  C31 UNL     1       3.303   0.108  -3.606  1.00  0.00    -0.089 C 
HETATM   35  C32 UNL     1       4.247  -0.584  -2.682  1.00  0.00     0.042 C 
HETATM   36  C33 UNL     1       3.463  -0.070  -5.099  1.00  0.00     0.042 C 
ENDBRANCH   9  33
BRANCH   4  37
HETATM   37  O4  UNL     1       2.852  -1.151   1.511  1.00  0.00    -0.274 OA
BRANCH  37  38
HETATM   38  C21 UNL     1       2.560  -2.399   2.026  1.00  0.00     0.375 C 
HETATM   39  N2  UNL     1       3.072  -3.563   1.417  1.00  0.00    -0.032 NA
HETATM   40  O5  UNL     1       1.822  -2.426   3.054  1.00  0.00    -0.242 OA
ENDBRANCH  37  38
ENDBRANCH   4  37
BRANCH   6  41
HETATM   41  C23 UNL     1       5.204   1.995   1.162  1.00  0.00     0.095 C 
BRANCH  41  42
HETATM   42  N3  UNL     1       6.215   1.611   2.060  1.00  0.00    -0.374 N 
HETATM   43  C24 UNL     1       7.121   0.752   1.955  1.00  0.00    -0.016 C 
HETATM   44  C25 UNL     1       8.062   0.582   3.121  1.00  0.00     0.063 C 
ATOM     45  H3  UNL     1       6.210   2.117   2.946  1.00  0.00     0.164 HD
BRANCH  43  46
HETATM   46  C26 UNL     1       7.379  -0.137   0.793  1.00  0.00     0.078 C 
BRANCH  46  47
HETATM   47  C27 UNL     1       7.254  -1.599   1.176  1.00  0.00     0.169 C 
BRANCH  47  48
HETATM   48  O7  UNL     1       7.504  -2.370   0.044  1.00  0.00    -0.401 OA
ATOM     49  H7  UNL     1       7.426  -3.286   0.284  1.00  0.00     0.209 HD
ENDBRANCH  47  48
ENDBRANCH  46  47
ENDBRANCH  43  46
ENDBRANCH  41  42
ENDBRANCH   6  41
TORSDOF 17
