REMARK  12 active torsions:
REMARK  status: ('A' for Active; 'I' for Inactive)
REMARK    1  A    between atoms: N1_1  and  C1_5 
REMARK    2  A    between atoms: C1_5  and  C2_6 
REMARK    3  A    between atoms: C2_6  and  C3_7 
REMARK    4  A    between atoms: C2_6  and  N2_10 
REMARK    5  A    between atoms: C3_7  and  C4_8 
REMARK    6  A    between atoms: N2_10  and  C5_12 
REMARK    7  A    between atoms: C5_12  and  N3_14 
REMARK    8  A    between atoms: N3_14  and  N4_16 
REMARK    9  A    between atoms: N4_16  and  C6_18 
REMARK   10  A    between atoms: C6_18  and  N5_20 
REMARK   11  A    between atoms: N5_20  and  C7_22 
REMARK   12  A    between atoms: C7_22  and  C8_23 
ROOT
HETATM    1  C5  UNL     1      -0.075  -0.086   0.386  1.00  0.00     0.186 C 
HETATM    2  S2  UNL     1      -0.058  -0.054  -1.230  1.00  0.00    -0.040 SA
ENDROOT
BRANCH   1   3
HETATM    3  N2  UNL     1      -1.281  -0.132   1.102  1.00  0.00    -0.360 N 
ATOM      4  H2  UNL     1      -1.195  -0.141   2.118  1.00  0.00     0.162 HD
BRANCH   3   5
HETATM    5  C2  UNL     1      -2.623  -0.168   0.586  1.00  0.00     0.110 C 
BRANCH   5   6
HETATM    6  C1  UNL     1      -2.868  -1.402  -0.196  1.00  0.00     0.254 C 
BRANCH   6   7
HETATM    7  N1  UNL     1      -4.232  -1.653  -0.574  1.00  0.00    -0.077 N 
ATOM      8  H13 UNL     1      -4.827  -1.646   0.255  1.00  0.00     0.274 HD
ATOM      9  H12 UNL     1      -4.605  -0.847  -1.075  1.00  0.00     0.274 HD
ATOM     10  H11 UNL     1      -4.401  -2.503  -1.112  1.00  0.00     0.274 HD
ENDBRANCH   6   7
ENDBRANCH   5   6
BRANCH   5  11
HETATM   11  C3  UNL     1      -2.973   1.131  -0.051  1.00  0.00     0.038 C 
BRANCH  11  12
HETATM   12  C4  UNL     1      -4.398   1.331  -0.429  1.00  0.00     0.088 C 
HETATM   13  S1  UNL     1      -5.495   1.211   1.035  1.00  0.00    -0.098 SA
ENDBRANCH  11  12
ENDBRANCH   5  11
ENDBRANCH   3   5
ENDBRANCH   1   3
BRANCH   1  14
HETATM   14  N3  UNL     1       1.168  -0.057   1.060  1.00  0.00    -0.274 N 
ATOM     15  H3  UNL     1       1.156  -0.071   2.080  1.00  0.00     0.189 HD
BRANCH  14  16
HETATM   16  N4  UNL     1       2.411  -0.011   0.424  1.00  0.00    -0.274 N 
ATOM     17  H4  UNL     1       2.709   0.864  -0.008  1.00  0.00     0.189 HD
BRANCH  16  18
HETATM   18  C6  UNL     1       3.262  -1.120   0.357  1.00  0.00     0.186 C 
HETATM   19  S3  UNL     1       2.709  -2.516   1.071  1.00  0.00    -0.040 SA
BRANCH  18  20
HETATM   20  N5  UNL     1       4.531  -1.170  -0.250  1.00  0.00    -0.365 N 
ATOM     21  H5  UNL     1       5.016  -2.067  -0.223  1.00  0.00     0.161 HD
BRANCH  20  22
HETATM   22  C7  UNL     1       5.213  -0.090  -0.903  1.00  0.00     0.137 C 
BRANCH  22  23
HETATM   23  C8  UNL     1       5.708   0.994   0.010  1.00  0.00     0.134 C 
HETATM   24 CL1  UNL     1       6.519   2.236  -0.997  1.00  0.00    -0.129 Cl
ENDBRANCH  22  23
ENDBRANCH  20  22
ENDBRANCH  18  20
ENDBRANCH  16  18
ENDBRANCH  14  16
ENDBRANCH   1  14
TORSDOF 12
