REMARK  8 active torsions:
REMARK  status: ('A' for Active; 'I' for Inactive)
REMARK    1  A    between atoms: N1_3  and  C3_5 
REMARK    2  A    between atoms: C3_5  and  C4_9 
REMARK    3  A    between atoms: C6_11  and  N3_12 
REMARK    4  A    between atoms: C6_11  and  C7_16 
REMARK    5  A    between atoms: C7_16  and  C8_18 
REMARK    6  A    between atoms: C10_22  and  C12_25 
REMARK    7  A    between atoms: C12_25  and  C13_26 
REMARK    8  A    between atoms: C13_26  and  C14_27 
ROOT
HETATM    1  C1  UNL     1       2.471   4.746  -0.154  1.00  0.00     0.037 C 
HETATM    2  C2  UNL     1       1.553   3.968  -0.077  1.00  0.00     0.000 C 
HETATM    3  N1  UNL     1       0.471   3.054   0.039  1.00  0.00    -0.305 N 
ATOM      4  H1  UNL     1      -0.226   3.021  -0.705  1.00  0.00     0.177 HD
ENDROOT
BRANCH   3   5
HETATM    5  C3  UNL     1       0.324   2.187   1.150  1.00  0.00     0.088 C 
HETATM    6  N2  UNL     1       0.829   2.597   2.261  1.00  0.00    -0.388 N 
ATOM      7  H22 UNL     1       1.306   3.496   2.329  1.00  0.00     0.157 HD
ATOM      8  H21 UNL     1       0.723   1.973   3.061  1.00  0.00     0.157 HD
BRANCH   5   9
HETATM    9  C4  UNL     1      -0.347   0.923   1.054  1.00  0.00     0.078 C 
HETATM   10  C5  UNL     1      -1.734   1.077   0.479  1.00  0.00     0.056 C 
HETATM   11  C6  UNL     1      -2.118  -0.334   0.051  1.00  0.00     0.166 C 
HETATM   12  C9  UNL     1      -0.825  -0.869  -0.447  1.00  0.00     0.067 C 
HETATM   13  C10 UNL     1       0.319  -0.175   0.245  1.00  0.00     0.062 C 
HETATM   14  C11 UNL     1       0.884  -1.127   1.201  1.00  0.00     0.070 C 
HETATM   15  N4  UNL     1       1.302  -1.880   2.010  1.00  0.00    -0.196 NA
BRANCH  11  16
HETATM   16  N3  UNL     1      -3.096  -0.182  -1.017  1.00  0.00    -0.067 N 
ATOM     17  H33 UNL     1      -3.896   0.395  -0.756  1.00  0.00     0.275 HD
ATOM     18  H32 UNL     1      -2.768   0.401  -1.787  1.00  0.00     0.275 HD
ATOM     19  H31 UNL     1      -3.353  -1.127  -1.304  1.00  0.00     0.275 HD
ENDBRANCH  11  16
BRANCH  11  20
HETATM   20  C7  UNL     1      -2.699  -0.993   1.252  1.00  0.00     0.306 C 
HETATM   21  F1  UNL     1      -3.805  -0.218   1.627  1.00  0.00    -0.235 F 
BRANCH  20  22
HETATM   22  C8  UNL     1      -3.135  -2.378   1.082  1.00  0.00     0.211 C 
HETATM   23  O1  UNL     1      -4.376  -2.633   1.225  1.00  0.00    -0.646 OA
HETATM   24  O2  UNL     1      -2.314  -3.456   0.777  1.00  0.00    -0.646 OA
ENDBRANCH  20  22
ENDBRANCH  11  20
BRANCH  13  25
HETATM   25  C12 UNL     1       1.278   0.302  -0.736  1.00  0.00     0.032 C 
BRANCH  25  26
HETATM   26  C13 UNL     1       1.924  -0.722  -1.589  1.00  0.00     0.074 C 
BRANCH  26  27
HETATM   27  C14 UNL     1       2.788  -1.735  -1.003  1.00  0.00     0.086 C 
HETATM   28  N5  UNL     1       2.606  -3.019  -1.092  1.00  0.00    -0.391 N 
ATOM     29  H52 UNL     1       1.770  -3.321  -1.592  1.00  0.00     0.157 HD
ATOM     30  H51 UNL     1       3.212  -3.729  -0.681  1.00  0.00     0.157 HD
HETATM   31  N6  UNL     1       3.966  -1.310  -0.299  1.00  0.00    -0.088 NA
ENDBRANCH  26  27
ENDBRANCH  25  26
ENDBRANCH  13  25
ENDBRANCH   5   9
ENDBRANCH   3   5
TORSDOF 8
