REMARK  7 active torsions:
REMARK  status: ('A' for Active; 'I' for Inactive)
REMARK    1  A    between atoms: C2_2  and  C4_5 
REMARK    2  A    between atoms: C7_8  and  C8_9 
REMARK    3  A    between atoms: C10_12  and  C11_13 
REMARK       I    between atoms: N1_14  and  C12_15 
REMARK       I    between atoms: C12_15  and  N2_17 
REMARK    4  A    between atoms: N2_17  and  C13_19 
REMARK    5  A    between atoms: C13_19  and  C14_20 
REMARK    6  A    between atoms: C14_20  and  C15_21 
REMARK    7  A    between atoms: C15_21  and  C16_22 
ROOT
HETATM    1  C11 UNL     1      -1.456   1.283   0.403  1.00  0.00     0.174 C 
HETATM    2  N1  UNL     1      -2.298   0.724  -0.678  1.00  0.00    -0.233 N 
HETATM    3  C12 UNL     1      -3.641   0.376  -0.746  1.00  0.00     0.327 C 
HETATM    4  O1  UNL     1      -4.073  -0.105  -1.821  1.00  0.00    -0.247 OA
HETATM    5  N2  UNL     1      -4.552   0.546   0.354  1.00  0.00    -0.343 N 
ATOM      6  H2  UNL     1      -4.195   0.936   1.226  1.00  0.00     0.164 HD
HETATM    7  C17 UNL     1      -1.324   0.668  -1.751  1.00  0.00     0.372 C 
HETATM    8  O2  UNL     1      -1.325  -0.110  -2.734  1.00  0.00    -0.238 OA
HETATM    9  O3  UNL     1      -0.342   1.663  -1.502  1.00  0.00    -0.290 OA
HETATM   10  C18 UNL     1      -0.901   2.438  -0.444  1.00  0.00     0.091 C 
HETATM   11  C19 UNL     1      -0.004   3.360   0.253  1.00  0.00     0.049 C 
HETATM   12  C20 UNL     1      -2.115   3.125  -1.051  1.00  0.00     0.049 C 
ENDROOT
BRANCH   1  13
HETATM   13  C10 UNL     1      -0.420   0.212   0.609  1.00  0.00     0.010 A 
HETATM   14  S1  UNL     1      -0.663  -1.452   0.916  1.00  0.00    -0.103 SA
HETATM   15  C9  UNL     1       0.960  -1.967   0.983  1.00  0.00     0.062 A 
HETATM   16  C8  UNL     1       1.659  -0.814   0.760  1.00  0.00    -0.018 A 
HETATM   17  C21 UNL     1       0.942   0.311   0.569  1.00  0.00     0.029 A 
BRANCH  16  18
HETATM   18  C7  UNL     1       3.149  -0.833   0.715  1.00  0.00    -0.025 A 
HETATM   19  C6  UNL     1       3.847  -1.921   0.257  1.00  0.00     0.013 A 
HETATM   20  C5  UNL     1       5.223  -1.954   0.179  1.00  0.00     0.010 A 
HETATM   21  C4  UNL     1       5.945  -0.850   0.575  1.00  0.00    -0.035 A 
HETATM   22  C23 UNL     1       5.268   0.283   1.049  1.00  0.00     0.010 A 
HETATM   23  C22 UNL     1       3.890   0.269   1.110  1.00  0.00     0.013 A 
BRANCH  21  24
HETATM   24  C2  UNL     1       7.408  -0.870   0.485  1.00  0.00     0.057 C 
HETATM   25  C1  UNL     1       7.895  -2.217   0.032  1.00  0.00     0.037 C 
HETATM   26  C3  UNL     1       7.822   0.130  -0.601  1.00  0.00     0.037 C 
HETATM   27 CL1  UNL     1       8.182  -0.392   2.008  1.00  0.00    -0.115 Cl
ENDBRANCH  21  24
ENDBRANCH  16  18
ENDBRANCH   1  13
BRANCH   5  28
HETATM   28  C13 UNL     1      -5.952   0.189   0.279  1.00  0.00     0.125 C 
BRANCH  28  29
HETATM   29  C14 UNL     1      -6.243  -1.240   0.039  1.00  0.00     0.028 C 
BRANCH  29  30
HETATM   30  C15 UNL     1      -7.679  -1.604  -0.066  1.00  0.00     0.119 C 
BRANCH  30  31
HETATM   31  C16 UNL     1      -8.515  -1.299   1.124  1.00  0.00     0.388 C 
HETATM   32  F1  UNL     1      -8.071  -1.933   2.274  1.00  0.00    -0.171 F 
HETATM   33  F2  UNL     1      -9.789  -1.898   0.868  1.00  0.00    -0.171 F 
HETATM   34  F3  UNL     1      -8.725   0.037   1.274  1.00  0.00    -0.171 F 
ENDBRANCH  30  31
ENDBRANCH  29  30
ENDBRANCH  28  29
ENDBRANCH   5  28
TORSDOF 7
