REMARK  6 active torsions:
REMARK  status: ('A' for Active; 'I' for Inactive)
REMARK    1  A    between atoms: C1_2  and  C2_3 
REMARK    2  A    between atoms: C1_2  and  C13_19 
REMARK    3  A    between atoms: C5_7  and  C6_8 
REMARK    4  A    between atoms: C8_10  and  C9_11 
REMARK    5  A    between atoms: C14_20  and  N1_21 
REMARK       I    between atoms: N1_21  and  C15_23 
REMARK    6  A    between atoms: C15_23  and  C16_25 
ROOT
HETATM    1  C13 UNL     1       0.673   1.050  -0.745  1.00  0.00     0.058 A 
HETATM    2  C14 UNL     1       1.950   0.751  -0.324  1.00  0.00     0.092 A 
HETATM    3  S1  UNL     1       2.607   2.296   0.122  1.00  0.00    -0.075 SA
HETATM    4  C21 UNL     1       1.273   3.246  -0.230  1.00  0.00    -0.008 A 
HETATM    5  C22 UNL     1       0.320   2.357  -0.693  1.00  0.00    -0.028 A 
HETATM    6  C23 UNL     1      -0.948   3.079  -0.973  1.00  0.00     0.041 C 
HETATM    7  C24 UNL     1      -1.284   4.112   0.072  1.00  0.00     0.005 C 
HETATM    8  C25 UNL     1      -0.197   4.805   0.760  1.00  0.00     0.005 C 
HETATM    9  C26 UNL     1       1.024   4.724  -0.139  1.00  0.00     0.047 C 
ENDROOT
BRANCH   1  10
HETATM   10  C1  UNL     1      -0.181  -0.057  -1.179  1.00  0.00     0.220 C 
HETATM   11  O1  UNL     1       0.155  -1.231  -0.922  1.00  0.00    -0.284 OA
BRANCH  10  12
HETATM   12  C2  UNL     1      -1.410   0.096  -1.929  1.00  0.00     0.137 A 
HETATM   13  O2  UNL     1      -1.444   0.771  -3.108  1.00  0.00    -0.318 OA
HETATM   14  C3  UNL     1      -2.602   0.796  -3.616  1.00  0.00     0.143 A 
HETATM   15  C4  UNL     1      -3.477   0.125  -2.809  1.00  0.00     0.040 A 
HETATM   16  C5  UNL     1      -2.674  -0.329  -1.704  1.00  0.00     0.017 A 
BRANCH  16  17
HETATM   17  C6  UNL     1      -3.311  -1.058  -0.625  1.00  0.00     0.016 A 
HETATM   18  C7  UNL     1      -4.162  -0.356   0.267  1.00  0.00     0.031 A 
HETATM   19  C8  UNL     1      -4.862  -0.983   1.260  1.00  0.00     0.048 A 
HETATM   20  C10 UNL     1      -4.766  -2.354   1.447  1.00  0.00     0.019 A 
HETATM   21  C11 UNL     1      -3.938  -3.055   0.592  1.00  0.00     0.044 A 
HETATM   22  C12 UNL     1      -3.230  -2.397  -0.425  1.00  0.00     0.127 A 
HETATM   23  F4  UNL     1      -2.485  -3.169  -1.240  1.00  0.00    -0.205 F 
BRANCH  19  24
HETATM   24  C9  UNL     1      -5.801  -0.233   2.161  1.00  0.00     0.417 C 
HETATM   25  F1  UNL     1      -5.726  -0.711   3.437  1.00  0.00    -0.166 F 
HETATM   26  F2  UNL     1      -7.084  -0.474   1.680  1.00  0.00    -0.166 F 
HETATM   27  F3  UNL     1      -5.531   1.134   2.130  1.00  0.00    -0.166 F 
ENDBRANCH  19  24
ENDBRANCH  16  17
ENDBRANCH  10  12
ENDBRANCH   1  10
BRANCH   2  28
HETATM   28  N1  UNL     1       2.692  -0.454  -0.222  1.00  0.00    -0.320 N 
HETATM   29  C15 UNL     1       4.087  -0.398   0.188  1.00  0.00     0.226 C 
HETATM   30  O3  UNL     1       4.567   0.736   0.430  1.00  0.00    -0.273 OA
ATOM     31  H1  UNL     1       2.252  -1.350  -0.434  1.00  0.00     0.169 HD
BRANCH  29  32
HETATM   32  C16 UNL     1       4.958  -1.548   0.335  1.00  0.00     0.078 C 
HETATM   33  C17 UNL     1       4.735  -2.373   1.570  1.00  0.00     0.014 C 
HETATM   34  C18 UNL     1       5.137  -3.772   1.110  1.00  0.00     0.001 C 
HETATM   35  C19 UNL     1       4.566  -3.862  -0.297  1.00  0.00     0.001 C 
HETATM   36  C20 UNL     1       4.769  -2.458  -0.866  1.00  0.00     0.014 C 
ENDBRANCH  29  32
ENDBRANCH   2  28
TORSDOF 6
