REMARK  6 active torsions:
REMARK  status: ('A' for Active; 'I' for Inactive)
REMARK    1  A    between atoms: C3_3  and  C4_4 
REMARK    2  A    between atoms: C4_4  and  C5_5 
REMARK    3  A    between atoms: C5_5  and  C6_6 
REMARK    4  A    between atoms: N1_16  and  C11_17 
REMARK    5  A    between atoms: C11_17  and  C12_18 
REMARK    6  A    between atoms: C14_20  and  C15_21 
ROOT
HETATM    1  C1  UNL     1      -1.028   0.042  -2.052  1.00  0.00     0.069 C 
HETATM    2  C2  UNL     1      -1.528  -0.872  -0.976  1.00  0.00     0.016 A 
HETATM    3  C3  UNL     1      -2.799  -0.726  -0.397  1.00  0.00    -0.021 A 
HETATM    4  C7  UNL     1      -2.897  -1.755   0.539  1.00  0.00     0.030 A 
HETATM    5  C8  UNL     1      -3.879  -2.171   1.405  1.00  0.00     0.089 A 
HETATM    6 CL1  UNL     1      -5.484  -1.550   1.730  1.00  0.00    -0.075 Cl
HETATM    7  S1  UNL     1      -3.196  -3.528   2.160  1.00  0.00    -0.062 SA
HETATM    8  C9  UNL     1      -1.677  -3.548   1.366  1.00  0.00     0.103 A 
HETATM    9 CL2  UNL     1      -0.397  -4.728   1.619  1.00  0.00    -0.074 Cl
HETATM   10  C10 UNL     1      -1.760  -2.469   0.523  1.00  0.00     0.077 A 
HETATM   11  N1  UNL     1      -0.914  -1.920  -0.415  1.00  0.00    -0.343 N 
ENDROOT
BRANCH  11  12
HETATM   12  C11 UNL     1       0.410  -2.334  -0.807  1.00  0.00     0.175 C 
BRANCH  12  13
HETATM   13  C12 UNL     1       1.458  -1.555  -0.039  1.00  0.00     0.003 A 
HETATM   14  C13 UNL     1       2.175  -0.482  -0.510  1.00  0.00     0.028 A 
HETATM   15  C14 UNL     1       3.061   0.088   0.332  1.00  0.00     0.006 A 
HETATM   16  C18 UNL     1       3.166  -0.456   1.581  1.00  0.00     0.061 A 
HETATM   17 BR1  UNL     1       4.310   0.078   3.041  1.00  0.00    -0.042 Br
HETATM   18  S2  UNL     1       2.044  -1.728   1.549  1.00  0.00    -0.085 SA
BRANCH  15  19
HETATM   19  C15 UNL     1       3.935   1.284  -0.028  1.00  0.00     0.125 C 
HETATM   20  C16 UNL     1       5.393   0.903   0.097  1.00  0.00     0.057 C 
HETATM   21  C17 UNL     1       3.612   2.475   0.830  1.00  0.00     0.057 C 
HETATM   22  F1  UNL     1       3.722   1.646  -1.342  1.00  0.00    -0.238 F 
ENDBRANCH  15  19
ENDBRANCH  12  13
ENDBRANCH  11  12
BRANCH   3  23
HETATM   23  C4  UNL     1      -3.800   0.288  -0.769  1.00  0.00     0.052 C 
BRANCH  23  24
HETATM   24  C5  UNL     1      -3.479   1.694  -0.438  1.00  0.00     0.118 C 
BRANCH  24  25
HETATM   25  C6  UNL     1      -3.244   2.080   0.925  1.00  0.00     0.172 C 
HETATM   26  O1  UNL     1      -3.264   1.309   1.890  1.00  0.00    -0.648 OA
HETATM   27  O2  UNL     1      -2.970   3.423   1.195  1.00  0.00    -0.648 OA
ENDBRANCH  24  25
ENDBRANCH  23  24
ENDBRANCH   3  23
TORSDOF 6
