REMARK  7 active torsions:
REMARK  status: ('A' for Active; 'I' for Inactive)
REMARK    1  A    between atoms: C3_3  and  O1_4 
REMARK    2  A    between atoms: N1_8  and  N2_9 
REMARK    3  A    between atoms: C16_21  and  C17_22 
REMARK    4  A    between atoms: C17_22  and  C18_24 
REMARK    5  A    between atoms: C18_24  and  C19_25 
REMARK    6  A    between atoms: C19_25  and  C20_26 
REMARK    7  A    between atoms: C20_26  and  C21_27 
ROOT
HETATM    1  N2  UNL     1      -3.798  -1.518   0.448  1.00  0.00    -0.301 N 
ATOM      2  H2  UNL     1      -4.102  -2.488   0.537  1.00  0.00     0.187 HD
HETATM    3  C6  UNL     1      -2.624  -1.299  -0.045  1.00  0.00     0.004 C 
HETATM    4  C7  UNL     1      -2.168   0.071  -0.185  1.00  0.00     0.055 C 
HETATM    5  C8  UNL     1      -1.111   0.326  -1.215  1.00  0.00     0.016 C 
HETATM    6  C9  UNL     1      -0.406  -0.889  -1.720  1.00  0.00    -0.032 C 
HETATM    7  C10 UNL     1      -1.236  -1.399  -2.912  1.00  0.00     0.016 C 
HETATM    8  C11 UNL     1      -0.431  -2.035  -0.724  1.00  0.00    -0.000 C 
HETATM    9  C12 UNL     1       0.328  -1.732   0.517  1.00  0.00     0.006 C 
HETATM   10  C13 UNL     1       1.517  -0.804   0.291  1.00  0.00     0.011 C 
HETATM   11  C14 UNL     1       2.059  -0.910  -1.102  1.00  0.00    -0.026 C 
HETATM   12  C15 UNL     1       2.756  -2.245  -1.288  1.00  0.00     0.016 C 
HETATM   13  C16 UNL     1       3.113   0.119  -1.344  1.00  0.00     0.064 C 
HETATM   14  C22 UNL     1       2.260   1.349  -1.645  1.00  0.00     0.013 C 
HETATM   15  C23 UNL     1       1.268   0.751  -2.608  1.00  0.00     0.011 C 
HETATM   16  C24 UNL     1       1.004  -0.657  -2.154  1.00  0.00    -0.028 C 
HETATM   17  C25 UNL     1       1.329  -1.545  -3.339  1.00  0.00     0.016 C 
HETATM   18  C26 UNL     1      -1.844  -2.483  -0.424  1.00  0.00     0.059 C 
ENDROOT
BRANCH   1  19
HETATM   19  N1  UNL     1      -4.676  -0.523   0.866  1.00  0.00    -0.246 N 
HETATM   20  C4  UNL     1      -4.665   0.046   2.072  1.00  0.00     0.065 A 
HETATM   21  C3  UNL     1      -5.662   0.995   2.175  1.00  0.00     0.099 A 
HETATM   22  C5  UNL     1      -3.733  -0.268   3.170  1.00  0.00     0.073 C 
HETATM   23  C2  UNL     1      -6.309   0.998   0.967  1.00  0.00     0.014 A 
HETATM   24  C1  UNL     1      -7.463   1.877   0.632  1.00  0.00     0.054 C 
HETATM   25  C27 UNL     1      -5.677   0.052   0.184  1.00  0.00     0.134 A 
HETATM   26 CL1  UNL     1      -6.152  -0.309  -1.453  1.00  0.00    -0.062 Cl
BRANCH  21  27
HETATM   27  O1  UNL     1      -5.973   1.798   3.262  1.00  0.00    -0.358 OA
ATOM     28  H1  UNL     1      -5.524   1.796   4.099  1.00  0.00     0.217 HD
ENDBRANCH  21  27
ENDBRANCH   1  19
BRANCH  13  29
HETATM   29  C17 UNL     1       4.146   0.370  -0.379  1.00  0.00     0.131 C 
HETATM   30  O2  UNL     1       5.284  -0.071  -0.679  1.00  0.00    -0.298 OA
BRANCH  29  31
HETATM   31  C18 UNL     1       4.092   1.064   0.916  1.00  0.00     0.079 C 
BRANCH  31  32
HETATM   32  C19 UNL     1       5.427   1.104   1.608  1.00  0.00     0.016 C 
BRANCH  32  33
HETATM   33  C20 UNL     1       5.485   1.731   2.938  1.00  0.00     0.118 C 
BRANCH  33  34
HETATM   34  C21 UNL     1       5.070   3.161   2.950  1.00  0.00     0.387 C 
HETATM   35  F1  UNL     1       5.891   3.868   2.090  1.00  0.00    -0.171 F 
HETATM   36  F2  UNL     1       5.326   3.717   4.232  1.00  0.00    -0.171 F 
HETATM   37  F3  UNL     1       3.773   3.341   2.626  1.00  0.00    -0.171 F 
ENDBRANCH  33  34
ENDBRANCH  32  33
ENDBRANCH  31  32
ENDBRANCH  29  31
ENDBRANCH  13  29
TORSDOF 7
