REMARK  7 active torsions:
REMARK  status: ('A' for Active; 'I' for Inactive)
REMARK    1  A    between atoms: C2_2  and  C3_4 
REMARK    2  A    between atoms: C7_8  and  C8_9 
REMARK    3  A    between atoms: C9_10  and  O1_11 
REMARK    4  A    between atoms: C13_18  and  O4_19 
REMARK    5  A    between atoms: O4_19  and  C14_20 
REMARK    6  A    between atoms: C14_20  and  C15_21 
REMARK    7  A    between atoms: C18_24  and  C19_25 
ROOT
HETATM    1  C8  UNL     1      -1.946  -0.309   0.662  1.00  0.00     0.055 A 
HETATM    2  C9  UNL     1      -2.275  -1.422   1.422  1.00  0.00     0.194 A 
HETATM    3  O2  UNL     1      -1.395  -2.387   1.557  1.00  0.00    -0.291 OA
HETATM    4  C10 UNL     1      -0.214  -2.348   1.005  1.00  0.00     0.069 A 
HETATM    5  C11 UNL     1       0.172  -1.248   0.238  1.00  0.00     0.052 A 
HETATM    6  C12 UNL     1      -0.681  -0.220   0.054  1.00  0.00     0.194 A 
HETATM    7  O3  UNL     1      -0.302   0.749  -0.635  1.00  0.00    -0.287 OA
HETATM    8  C13 UNL     1       1.562  -1.354  -0.252  1.00  0.00     0.168 C 
HETATM    9  C22 UNL     1       1.578  -2.582  -1.120  1.00  0.00     0.046 C 
HETATM   10  C23 UNL     1       1.493  -3.769  -0.158  1.00  0.00    -0.039 C 
HETATM   11  C24 UNL     1       0.815  -4.952  -0.791  1.00  0.00     0.015 C 
HETATM   12  C25 UNL     1       2.931  -4.214   0.167  1.00  0.00     0.015 C 
HETATM   13  C26 UNL     1       0.807  -3.422   1.119  1.00  0.00     0.074 C 
ENDROOT
BRANCH   8  14
HETATM   14  O4  UNL     1       2.151  -0.230  -0.738  1.00  0.00    -0.352 OA
BRANCH  14  15
HETATM   15  C14 UNL     1       3.204   0.065   0.124  1.00  0.00     0.147 C 
BRANCH  15  16
HETATM   16  C15 UNL     1       4.065   1.193  -0.164  1.00  0.00    -0.014 A 
HETATM   17  C16 UNL     1       5.449   0.974  -0.087  1.00  0.00     0.014 A 
HETATM   18  C17 UNL     1       6.383   1.955  -0.274  1.00  0.00     0.017 A 
HETATM   19  C18 UNL     1       5.986   3.221  -0.553  1.00  0.00     0.048 A 
HETATM   20  C20 UNL     1       4.645   3.488  -0.642  1.00  0.00     0.017 A 
HETATM   21  C21 UNL     1       3.695   2.486  -0.450  1.00  0.00     0.014 A 
BRANCH  19  22
HETATM   22  C19 UNL     1       7.060   4.254  -0.717  1.00  0.00     0.417 C 
HETATM   23  F1  UNL     1       8.163   3.845   0.048  1.00  0.00    -0.166 F 
HETATM   24  F2  UNL     1       7.481   4.329  -2.034  1.00  0.00    -0.166 F 
HETATM   25  F3  UNL     1       6.698   5.489  -0.257  1.00  0.00    -0.166 F 
ENDBRANCH  19  22
ENDBRANCH  15  16
ENDBRANCH  14  15
ENDBRANCH   8  14
BRANCH   1  26
HETATM   26  C7  UNL     1      -2.909   0.773   0.529  1.00  0.00     0.032 C 
HETATM   27  C5  UNL     1      -2.835   1.630  -0.706  1.00  0.00    -0.010 C 
HETATM   28  C4  UNL     1      -4.312   1.764  -1.169  1.00  0.00     0.011 C 
HETATM   29  C6  UNL     1      -2.350   3.029  -0.469  1.00  0.00     0.010 C 
HETATM   30  C3  UNL     1      -5.019   1.722   0.168  1.00  0.00     0.005 C 
HETATM   31  C27 UNL     1      -4.348   0.478   0.811  1.00  0.00     0.016 C 
BRANCH  30  32
HETATM   32  C2  UNL     1      -6.495   1.596   0.098  1.00  0.00     0.082 C 
HETATM   33  C1  UNL     1      -7.000   0.341  -0.572  1.00  0.00     0.027 C 
HETATM   34 CL1  UNL     1      -7.171   1.826   1.713  1.00  0.00    -0.125 Cl
ENDBRANCH  30  32
ENDBRANCH   1  26
BRANCH   2  35
HETATM   35  O1  UNL     1      -3.518  -1.503   2.026  1.00  0.00    -0.340 OA
ATOM     36  H1  UNL     1      -3.743  -2.265   2.546  1.00  0.00     0.220 HD
ENDBRANCH   2  35
TORSDOF 7
