REMARK  7 active torsions:
REMARK  status: ('A' for Active; 'I' for Inactive)
REMARK    1  A    between atoms: C6_6  and  C7_7 
REMARK    2  A    between atoms: C7_7  and  O1_8 
REMARK    3  A    between atoms: C7_7  and  C8_10 
REMARK    4  A    between atoms: C7_7  and  C16_19 
REMARK    5  A    between atoms: C8_10  and  C9_11 
REMARK    6  A    between atoms: C17_23  and  C18_24 
REMARK    7  A    between atoms: C28_35  and  C29_36 
ROOT
HETATM    1  C7  UNL     1      -1.210  -0.476   0.770  1.00  0.00     0.128 C 
ENDROOT
BRANCH   1   2
HETATM    2  C6  UNL     1      -1.829  -1.757   0.959  1.00  0.00    -0.004 A 
HETATM    3  C5  UNL     1      -2.779  -1.890   2.033  1.00  0.00     0.011 A 
HETATM    4  C4  UNL     1      -3.412  -3.052   2.369  1.00  0.00     0.001 A 
HETATM    5  C3  UNL     1      -3.151  -4.193   1.664  1.00  0.00     0.007 A 
HETATM    6  C2  UNL     1      -2.241  -4.128   0.616  1.00  0.00    -0.046 A 
HETATM    7  C1  UNL     1      -1.979  -5.354  -0.180  1.00  0.00     0.049 C 
HETATM    8  C28 UNL     1      -1.583  -2.921   0.265  1.00  0.00     0.063 A 
BRANCH   8   9
HETATM    9  C29 UNL     1      -0.692  -2.976  -0.862  1.00  0.00     0.418 C 
HETATM   10  F2  UNL     1      -1.244  -3.245  -2.113  1.00  0.00    -0.166 F 
HETATM   11  F3  UNL     1       0.444  -2.265  -0.955  1.00  0.00    -0.166 F 
HETATM   12  F4  UNL     1       0.006  -4.263  -0.692  1.00  0.00    -0.166 F 
ENDBRANCH   8   9
ENDBRANCH   1   2
BRANCH   1  13
HETATM   13  O1  UNL     1      -1.690   0.353   1.882  1.00  0.00    -0.381 OA
ATOM     14  H1  UNL     1      -1.280   1.201   1.757  1.00  0.00     0.211 HD
ENDBRANCH   1  13
BRANCH   1  15
HETATM   15  C8  UNL     1      -1.621   0.402  -0.365  1.00  0.00     0.052 C 
BRANCH  15  16
HETATM   16  C9  UNL     1      -2.997   0.908  -0.497  1.00  0.00    -0.011 C 
HETATM   17  C10 UNL     1      -4.144   0.005  -0.699  1.00  0.00     0.008 C 
HETATM   18  C11 UNL     1      -5.381   0.746  -0.125  1.00  0.00     0.043 C 
HETATM   19  C12 UNL     1      -5.519   2.015  -0.877  1.00  0.00     0.100 C 
HETATM   20  C13 UNL     1      -5.580   3.253   0.027  1.00  0.00     0.051 C 
HETATM   21  F1  UNL     1      -6.771   1.975  -1.504  1.00  0.00    -0.243 F 
HETATM   22  C14 UNL     1      -4.536   2.207  -1.996  1.00  0.00     0.043 C 
HETATM   23  C15 UNL     1      -3.104   1.946  -1.638  1.00  0.00     0.008 C 
ENDBRANCH  15  16
ENDBRANCH   1  15
BRANCH   1  24
HETATM   24  C16 UNL     1       0.251  -0.282   1.054  1.00  0.00     0.281 A 
HETATM   25  N1  UNL     1       0.850  -0.671   2.239  1.00  0.00    -0.103 NA
HETATM   26  N2  UNL     1       2.140  -0.353   2.161  1.00  0.00    -0.284 N 
HETATM   27  C17 UNL     1       2.381   0.227   0.959  1.00  0.00     0.140 A 
ATOM     28  H2  UNL     1       2.836  -0.519   2.888  1.00  0.00     0.184 HD
HETATM   29  O2  UNL     1       1.221   0.236   0.361  1.00  0.00    -0.310 OA
BRANCH  27  30
HETATM   30  C18 UNL     1       3.677   0.733   0.448  1.00  0.00     0.027 C 
HETATM   31  C19 UNL     1       4.713   0.735   1.550  1.00  0.00     0.022 C 
HETATM   32  C20 UNL     1       6.079   1.034   1.036  1.00  0.00    -0.013 C 
HETATM   33  C21 UNL     1       6.457  -0.025   0.021  1.00  0.00     0.009 C 
HETATM   34  C25 UNL     1       6.082   2.413   0.421  1.00  0.00     0.009 C 
HETATM   35  C22 UNL     1       5.499   0.080  -1.133  1.00  0.00    -0.013 C 
HETATM   36  C23 UNL     1       5.509   1.471  -1.727  1.00  0.00     0.009 C 
HETATM   37  C27 UNL     1       4.117  -0.216  -0.704  1.00  0.00     0.022 C 
HETATM   38  C24 UNL     1       5.031   2.426  -0.673  1.00  0.00    -0.013 C 
HETATM   39  C26 UNL     1       3.643   2.109  -0.148  1.00  0.00     0.022 C 
ENDBRANCH  27  30
ENDBRANCH   1  24
TORSDOF 7
