REMARK  7 active torsions:
REMARK  status: ('A' for Active; 'I' for Inactive)
REMARK    1  A    between atoms: N2_5  and  C3_6 
REMARK    2  A    between atoms: C3_6  and  C4_7 
REMARK    3  A    between atoms: C4_7  and  C5_8 
REMARK    4  A    between atoms: N4_12  and  C7_14 
REMARK    5  A    between atoms: C8_16  and  C9_17 
REMARK    6  A    between atoms: C9_17  and  C10_18 
REMARK    7  A    between atoms: C11_19  and  O3_20 
ROOT
HETATM    1  C1  UNL     1      -0.752  -3.727  -0.183  1.00  0.00     0.045 C 
HETATM    2  C2  UNL     1      -0.358  -2.482   0.090  1.00  0.00     0.053 A 
HETATM    3  N1  UNL     1       0.921  -2.192   0.433  1.00  0.00    -0.297 N 
ATOM      4  H1  UNL     1       1.683  -2.865   0.515  1.00  0.00     0.187 HD
HETATM    5  N2  UNL     1       1.015  -0.870   0.647  1.00  0.00    -0.275 N 
HETATM    6  C6  UNL     1      -0.202  -0.318   0.441  1.00  0.00     0.137 A 
HETATM    7  N4  UNL     1      -0.516   0.905   0.542  1.00  0.00    -0.319 N 
ATOM      8  H4  UNL     1      -1.496   1.107   0.343  1.00  0.00     0.169 HD
HETATM    9  C8  UNL     1      -1.103  -1.335   0.082  1.00  0.00     0.038 A 
ENDROOT
BRANCH   9  10
HETATM   10  C9  UNL     1      -2.378  -1.239  -0.204  1.00  0.00     0.039 C 
BRANCH  10  11
HETATM   11  C10 UNL     1      -3.123   0.002  -0.199  1.00  0.00     0.086 A 
HETATM   12  C11 UNL     1      -3.255   0.931  -1.197  1.00  0.00     0.171 A 
HETATM   13  N5  UNL     1      -4.048   1.938  -0.748  1.00  0.00    -0.276 N 
HETATM   14  N6  UNL     1      -4.417   1.671   0.494  1.00  0.00    -0.264 N 
ATOM     15  H5  UNL     1      -4.315   2.765  -1.281  1.00  0.00     0.189 HD
HETATM   16  C12 UNL     1      -3.856   0.480   0.853  1.00  0.00     0.274 A 
ATOM     17  H6  UNL     1      -5.016   2.253   1.080  1.00  0.00     0.190 HD
HETATM   18  O4  UNL     1      -4.017  -0.048   1.977  1.00  0.00    -0.266 OA
BRANCH  12  19
HETATM   19  O3  UNL     1      -2.681   0.865  -2.455  1.00  0.00    -0.344 OA
ATOM     20  H3  UNL     1      -2.773   1.509  -3.147  1.00  0.00     0.219 HD
ENDBRANCH  12  19
ENDBRANCH  10  11
ENDBRANCH   9  10
BRANCH   5  21
HETATM   21  C3  UNL     1       2.269  -0.277   1.027  1.00  0.00     0.159 C 
BRANCH  21  22
HETATM   22  C4  UNL     1       3.085   0.155  -0.174  1.00  0.00     0.121 C 
BRANCH  22  23
HETATM   23  C5  UNL     1       4.363   0.759   0.276  1.00  0.00     0.232 C 
HETATM   24  N3  UNL     1       5.302   1.243  -0.690  1.00  0.00    -0.062 NA
HETATM   25  O1  UNL     1       4.589   0.830   1.505  1.00  0.00    -0.277 OA
ENDBRANCH  22  23
ENDBRANCH  21  22
ENDBRANCH   5  21
BRANCH   7  26
HETATM   26  C7  UNL     1       0.242   2.018   0.877  1.00  0.00     0.354 C 
HETATM   27  O2  UNL     1       0.608   2.830  -0.035  1.00  0.00    -0.283 OA
ENDBRANCH   7  26
TORSDOF 7
