REMARK  6 active torsions:
REMARK  status: ('A' for Active; 'I' for Inactive)
REMARK       I    between atoms: N1_2  and  C2_4 
REMARK    1  A    between atoms: C2_4  and  C3_6 
REMARK    2  A    between atoms: C3_6  and  N2_7 
REMARK    3  A    between atoms: N2_7  and  C4_9 
REMARK    4  A    between atoms: C5_12  and  N4_13 
REMARK    5  A    between atoms: N6_19  and  C7_21 
REMARK    6  A    between atoms: C7_21  and  C8_22 
ROOT
HETATM    1  C4  UNL     1      -1.341  -0.101  -0.198  1.00  0.00     0.707 A 
HETATM    2  N3  UNL     1      -1.142  -1.421  -0.363  1.00  0.00    -0.022 N 
ATOM      3  H3  UNL     1      -1.837  -1.984  -0.853  1.00  0.00     0.203 HD
HETATM    4  C5  UNL     1      -0.031  -1.998   0.116  1.00  0.00     0.705 A 
HETATM    5  N5  UNL     1       0.888  -1.236   0.767  1.00  0.00    -0.022 N 
ATOM      6  H5  UNL     1       1.734  -1.673   1.132  1.00  0.00     0.203 HD
HETATM    7  C6  UNL     1       0.700   0.077   0.936  1.00  0.00     0.707 A 
HETATM    8  N6  UNL     1       1.538   0.826   1.545  1.00  0.00    -0.219 N 
ATOM      9  H6  UNL     1       1.346   1.823   1.646  1.00  0.00     0.178 HD
HETATM   10  N8  UNL     1      -0.439   0.653   0.442  1.00  0.00    -0.021 N 
ATOM     11  H8  UNL     1      -0.600   1.653   0.561  1.00  0.00     0.203 HD
ENDROOT
BRANCH   8  12
HETATM   12  C7  UNL     1       2.744   0.276   2.087  1.00  0.00     0.195 C 
BRANCH  12  13
HETATM   13  C8  UNL     1       3.789   0.019   1.062  1.00  0.00     0.027 A 
HETATM   14  C9  UNL     1       3.619   0.451  -0.233  1.00  0.00     0.027 A 
HETATM   15  C10 UNL     1       4.581   0.224  -1.224  1.00  0.00     0.003 A 
HETATM   16  C11 UNL     1       5.709  -0.459  -0.826  1.00  0.00     0.017 A 
HETATM   17  C12 UNL     1       5.875  -0.889   0.465  1.00  0.00     0.088 A 
HETATM   18  N7  UNL     1       4.923  -0.647   1.380  1.00  0.00    -0.368 N 
ATOM     19  H7  UNL     1       5.058  -0.973   2.337  1.00  0.00     0.165 HD
ENDBRANCH  12  13
ENDBRANCH   8  12
BRANCH   4  20
HETATM   20  N4  UNL     1       0.202  -3.278  -0.023  1.00  0.00    -0.234 N 
ATOM     21  H42 UNL     1      -0.487  -3.850  -0.511  1.00  0.00     0.174 HD
ATOM     22  H41 UNL     1       1.047  -3.717   0.342  1.00  0.00     0.174 HD
ENDBRANCH   4  20
BRANCH   1  23
HETATM   23  N2  UNL     1      -2.434   0.364  -0.690  1.00  0.00    -0.216 N 
ATOM     24  H2  UNL     1      -3.046  -0.306  -1.156  1.00  0.00     0.178 HD
BRANCH  23  25
HETATM   25  C3  UNL     1      -2.881   1.715  -0.653  1.00  0.00     0.240 C 
BRANCH  25  26
HETATM   26  C2  UNL     1      -4.352   1.753  -0.631  1.00  0.00     0.235 C 
HETATM   27  N1  UNL     1      -5.078   0.544  -0.649  1.00  0.00    -0.364 N 
HETATM   28  C1  UNL     1      -6.547   0.556  -0.628  1.00  0.00     0.149 C 
ATOM     29  H1  UNL     1      -4.579  -0.345  -0.677  1.00  0.00     0.161 HD
HETATM   30  O1  UNL     1      -4.961   2.841  -0.598  1.00  0.00    -0.272 OA
ENDBRANCH  25  26
ENDBRANCH  23  25
ENDBRANCH   1  23
TORSDOF 6
