REMARK  8 active torsions:
REMARK  status: ('A' for Active; 'I' for Inactive)
REMARK    1  A    between atoms: C2_5  and  N2_6 
REMARK    2  A    between atoms: N2_6  and  C3_8 
REMARK    3  A    between atoms: C3_8  and  C4_9 
REMARK    4  A    between atoms: C4_9  and  N3_10 
REMARK    5  A    between atoms: C5_12  and  N4_13 
REMARK    6  A    between atoms: N4_13  and  O2_15 
REMARK    7  A    between atoms: C6_19  and  N6_20 
REMARK    8  A    between atoms: N6_20  and  C7_22 
ROOT
HETATM    1  O1  UNL     1      -0.783   0.503  -2.572  1.00  0.00    -0.246 OA
HETATM    2  C1  UNL     1      -0.693   0.130  -1.376  1.00  0.00     0.352 A 
HETATM    3  N1  UNL     1       0.537  -0.032  -0.811  1.00  0.00    -0.140 N 
ATOM      4  H1  UNL     1       1.363   0.156  -1.379  1.00  0.00     0.189 HD
HETATM    5  C2  UNL     1       0.707  -0.427   0.456  1.00  0.00     0.696 A 
HETATM    6  N5  UNL     1      -0.433  -0.665   1.172  1.00  0.00    -0.022 N 
ATOM      7  H5  UNL     1      -0.356  -0.968   2.143  1.00  0.00     0.203 HD
HETATM    8  C6  UNL     1      -1.650  -0.510   0.631  1.00  0.00     0.701 A 
HETATM    9  N7  UNL     1      -1.790  -0.112  -0.647  1.00  0.00    -0.140 N 
ATOM     10  H7  UNL     1      -2.718   0.004  -1.054  1.00  0.00     0.189 HD
ENDROOT
BRANCH   5  11
HETATM   11  N2  UNL     1       1.845  -0.592   1.030  1.00  0.00    -0.224 N 
ATOM     12  H2  UNL     1       1.842  -0.896   2.004  1.00  0.00     0.177 HD
BRANCH  11  13
HETATM   13  C3  UNL     1       3.124  -0.380   0.402  1.00  0.00     0.157 C 
BRANCH  13  14
HETATM   14  C4  UNL     1       3.528   1.092   0.395  1.00  0.00     0.140 C 
BRANCH  14  15
HETATM   15  N3  UNL     1       4.812   1.200  -0.250  1.00  0.00    -0.383 N 
HETATM   16  C5  UNL     1       5.921   1.046   0.383  1.00  0.00     0.199 C 
ATOM     17  H3  UNL     1       4.843   1.407  -1.248  1.00  0.00     0.160 HD
BRANCH  16  18
HETATM   18  N4  UNL     1       7.166   1.156  -0.270  1.00  0.00    -0.265 N 
ATOM     19  H4  UNL     1       7.913   1.722   0.132  1.00  0.00     0.194 HD
BRANCH  18  20
HETATM   20  O2  UNL     1       7.352   0.506  -1.427  1.00  0.00    -0.289 OA
ATOM     21  H2  UNL     1       8.191   0.580  -1.867  1.00  0.00     0.244 HD
ENDBRANCH  18  20
ENDBRANCH  16  18
ENDBRANCH  14  15
ENDBRANCH  13  14
ENDBRANCH  11  13
ENDBRANCH   5  11
BRANCH   8  22
HETATM   22  N6  UNL     1      -2.711  -0.751   1.359  1.00  0.00    -0.191 N 
ATOM     23  H6  UNL     1      -2.614  -1.053   2.328  1.00  0.00     0.184 HD
BRANCH  22  24
HETATM   24  C7  UNL     1      -3.999  -0.587   0.784  1.00  0.00     0.049 A 
HETATM   25  C8  UNL     1      -4.704   0.594   0.893  1.00  0.00     0.030 A 
HETATM   26  C9  UNL     1      -5.962   0.745   0.329  1.00  0.00     0.002 A 
HETATM   27  C10 UNL     1      -6.481  -0.347  -0.352  1.00  0.00     0.000 A 
HETATM   28  C11 UNL     1      -5.803  -1.531  -0.475  1.00  0.00     0.002 A 
HETATM   29  C12 UNL     1      -4.546  -1.648   0.102  1.00  0.00     0.030 A 
ENDBRANCH  22  24
ENDBRANCH   8  22
TORSDOF 8
