REMARK  6 active torsions:
REMARK  status: ('A' for Active; 'I' for Inactive)
REMARK    1  A    between atoms: N1_5  and  C5_6 
REMARK    2  A    between atoms: C5_6  and  C6_7 
REMARK    3  A    between atoms: C7_12  and  N4_13 
REMARK    4  A    between atoms: N4_13  and  C8_15 
REMARK    5  A    between atoms: C10_23  and  C11_24 
REMARK    6  A    between atoms: N7_25  and  O2_27 
ROOT
HETATM    1  C6  UNL     1       1.406   0.753  -0.466  1.00  0.00     0.113 A 
HETATM    2  N2  UNL     1       1.940   1.135   0.718  1.00  0.00    -0.283 N 
ATOM      3  H2  UNL     1       1.515   1.925   1.203  1.00  0.00     0.187 HD
HETATM    4  N3  UNL     1       2.973   0.549   1.280  1.00  0.00    -0.131 N 
ATOM      5  H3  UNL     1       3.318   0.896   2.175  1.00  0.00     0.205 HD
HETATM    6  C7  UNL     1       3.585  -0.497   0.701  1.00  0.00     0.700 A 
HETATM    7  N6  UNL     1       3.101  -0.916  -0.468  1.00  0.00    -0.153 N 
ATOM      8  H6  UNL     1       3.544  -1.709  -0.932  1.00  0.00     0.187 HD
HETATM    9  C9  UNL     1       2.028  -0.314  -1.063  1.00  0.00     0.285 A 
HETATM   10  O1  UNL     1       1.683  -0.809  -2.159  1.00  0.00    -0.265 OA
ENDROOT
BRANCH   1  11
HETATM   11  C5  UNL     1       0.223   1.427  -1.056  1.00  0.00     0.193 C 
BRANCH  11  12
HETATM   12  N1  UNL     1      -1.035   0.767  -0.830  1.00  0.00    -0.350 N 
HETATM   13  C4  UNL     1      -1.486  -0.149  -1.702  1.00  0.00     0.092 A 
HETATM   14  C3  UNL     1      -2.680  -0.854  -1.551  1.00  0.00     0.024 A 
HETATM   15  C2  UNL     1      -3.447  -0.603  -0.449  1.00  0.00    -0.059 A 
HETATM   16  C1  UNL     1      -4.739  -1.319  -0.206  1.00  0.00     0.048 C 
HETATM   17  C12 UNL     1      -2.973   0.351   0.450  1.00  0.00     0.038 A 
HETATM   18  C10 UNL     1      -1.789   1.038   0.282  1.00  0.00     0.052 A 
BRANCH  18  19
HETATM   19  C11 UNL     1      -1.393   2.061   1.235  1.00  0.00     0.143 C 
HETATM   20  N7  UNL     1      -1.939   2.370   2.326  1.00  0.00    -0.278 N 
ATOM     21  H7  UNL     1      -1.446   3.130   2.795  1.00  0.00     0.193 HD
BRANCH  20  22
HETATM   22  O2  UNL     1      -2.985   1.963   3.018  1.00  0.00    -0.290 OA
ATOM     23  H2  UNL     1      -3.397   2.196   3.842  1.00  0.00     0.244 HD
ENDBRANCH  20  22
ENDBRANCH  18  19
ENDBRANCH  11  12
ENDBRANCH   1  11
BRANCH   6  24
HETATM   24  N4  UNL     1       4.586  -1.024   1.306  1.00  0.00    -0.187 N 
ATOM     25  H4  UNL     1       4.909  -0.659   2.202  1.00  0.00     0.185 HD
BRANCH  24  26
HETATM   26  C8  UNL     1       5.230  -2.126   0.694  1.00  0.00     0.191 C 
HETATM   27  N5  UNL     1       6.060  -1.939  -0.265  1.00  0.00    -0.395 N 
ATOM     28  H52 UNL     1       6.246  -0.986  -0.576  1.00  0.00     0.156 HD
ATOM     29  H51 UNL     1       6.524  -2.733  -0.706  1.00  0.00     0.156 HD
ENDBRANCH  24  26
ENDBRANCH   6  24
TORSDOF 6
