REMARK  6 active torsions:
REMARK  status: ('A' for Active; 'I' for Inactive)
REMARK    1  A    between atoms: N1_2  and  N2_3 
REMARK    2  A    between atoms: N2_3  and  S1_5 
REMARK    3  A    between atoms: S1_5  and  C2_8 
REMARK    4  A    between atoms: C2_8  and  C3_9 
REMARK    5  A    between atoms: C7_13  and  S2_14 
REMARK    6  A    between atoms: S2_14  and  N3_15 
ROOT
HETATM    1  C3  UNL     1       0.489  -0.223  -0.919  1.00  0.00    -0.041 A 
HETATM    2  C4  UNL     1       0.935  -0.994  -1.986  1.00  0.00     0.008 A 
HETATM    3  C5  UNL     1       2.268  -1.317  -2.068  1.00  0.00     0.002 A 
HETATM    4  C6  UNL     1       3.152  -0.879  -1.102  1.00  0.00     0.025 A 
HETATM    5  C7  UNL     1       2.734  -0.107  -0.024  1.00  0.00     0.079 A 
HETATM    6  C8  UNL     1       1.393   0.202   0.034  1.00  0.00     0.033 A 
ENDROOT
BRANCH   1   7
HETATM    7  C2  UNL     1      -0.942   0.131  -0.820  1.00  0.00     0.202 C 
BRANCH   7   8
HETATM    8  S1  UNL     1      -1.853  -1.083   0.099  1.00  0.00     0.245 S 
HETATM    9  O1  UNL     1      -1.274  -1.099   1.508  1.00  0.00    -0.204 OA
HETATM   10  O2  UNL     1      -1.618  -2.415  -0.540  1.00  0.00    -0.204 OA
BRANCH   8  11
HETATM   11  N2  UNL     1      -3.506  -0.703   0.231  1.00  0.00    -0.231 N 
ATOM     12  H2  UNL     1      -4.202  -1.009  -0.449  1.00  0.00     0.195 HD
BRANCH  11  13
HETATM   13  N1  UNL     1      -3.824   0.059   1.344  1.00  0.00    -0.136 NA
HETATM   14  C1  UNL     1      -4.972   0.932   1.110  1.00  0.00     0.159 C 
ENDBRANCH  11  13
ENDBRANCH   8  11
ENDBRANCH   7   8
ENDBRANCH   1   7
BRANCH   5  15
HETATM   15  S2  UNL     1       3.880   0.432   1.184  1.00  0.00     0.256 S 
HETATM   16  O3  UNL     1       3.276   0.495   2.551  1.00  0.00    -0.201 OA
HETATM   17  O4  UNL     1       5.044  -0.547   1.256  1.00  0.00    -0.201 OA
BRANCH  15  18
HETATM   18  N3  UNL     1       4.567   1.963   0.771  1.00  0.00    -0.324 N 
ATOM     19  H32 UNL     1       4.324   2.477  -0.076  1.00  0.00     0.169 HD
ATOM     20  H31 UNL     1       5.235   2.277   1.475  1.00  0.00     0.169 HD
ENDBRANCH  15  18
ENDBRANCH   5  15
TORSDOF 6
