REMARK  5 active torsions:
REMARK  status: ('A' for Active; 'I' for Inactive)
REMARK    1  A    between atoms: O1_2  and  N1_3 
REMARK    2  A    between atoms: N1_3  and  S1_5 
REMARK    3  A    between atoms: S1_5  and  N2_8 
REMARK    4  A    between atoms: N2_8  and  C3_10 
REMARK    5  A    between atoms: C3_10  and  C4_11 
ROOT
HETATM    1  N2  UNL     1       0.821  -0.748   0.488  1.00  0.00    -0.335 N 
ATOM      2  H2  UNL     1       0.654  -0.592   1.482  1.00  0.00     0.170 HD
ENDROOT
BRANCH   1   3
HETATM    3  S1  UNL     1       2.519  -0.653  -0.191  1.00  0.00     0.121 S 
HETATM    4  C2  UNL     1       1.941   0.581  -1.514  1.00  0.00     0.162 C 
HETATM    5  O2  UNL     1       3.810  -1.114  -1.015  1.00  0.00    -0.227 OA
BRANCH   3   6
HETATM    6  N1  UNL     1       3.331  -0.318   1.285  1.00  0.00    -0.210 N 
ATOM      7  H1  UNL     1       2.830   0.288   1.935  1.00  0.00     0.205 HD
BRANCH   6   8
HETATM    8  O1  UNL     1       4.526  -0.741   1.697  1.00  0.00    -0.277 OA
HETATM    9  C1  UNL     1       5.488   0.187   1.261  1.00  0.00     0.238 C 
ENDBRANCH   6   8
ENDBRANCH   3   6
ENDBRANCH   1   3
BRANCH   1  10
HETATM   10  C3  UNL     1      -0.274  -1.045  -0.393  1.00  0.00     0.135 C 
BRANCH  10  11
HETATM   11  C4  UNL     1      -1.363  -0.035  -0.348  1.00  0.00     0.004 C 
HETATM   12  C5  UNL     1      -2.488  -0.492  -1.234  1.00  0.00     0.006 C 
HETATM   13  C6  UNL     1      -3.783  -0.620  -0.446  1.00  0.00     0.000 C 
HETATM   14  C7  UNL     1      -4.174   0.660   0.228  1.00  0.00     0.000 C 
HETATM   15  C8  UNL     1      -2.987   1.434   0.671  1.00  0.00     0.000 C 
HETATM   16  C9  UNL     1      -1.805   0.482   0.949  1.00  0.00     0.006 C 
ENDBRANCH  10  11
ENDBRANCH   1  10
TORSDOF 5
