REMARK  7 active torsions:
REMARK  status: ('A' for Active; 'I' for Inactive)
REMARK    1  A    between atoms: N1_1  and  C1_5 
REMARK    2  A    between atoms: C1_5  and  C2_6 
REMARK    3  A    between atoms: C2_6  and  N2_7 
REMARK    4  A    between atoms: N2_7  and  C3_9 
REMARK    5  A    between atoms: N3_12  and  C6_13 
REMARK    6  A    between atoms: C6_13  and  C7_14 
REMARK    7  A    between atoms: C10_17  and  C11_18 
ROOT
HETATM    1  C3  UNL     1      -0.740   0.391  -0.703  1.00  0.00     0.112 C 
HETATM    2  C4  UNL     1      -0.202  -0.745  -1.505  1.00  0.00     0.057 C 
HETATM    3  C5  UNL     1       1.307  -0.444  -1.508  1.00  0.00     0.275 C 
HETATM    4  N3  UNL     1       1.547   0.059  -0.194  1.00  0.00     0.096 N 
HETATM    5  C10 UNL     1       0.409   0.887   0.156  1.00  0.00     0.249 C 
ENDROOT
BRANCH   1   6
HETATM    6  N2  UNL     1      -1.854  -0.022   0.077  1.00  0.00    -0.413 N 
ATOM      7  H2  UNL     1      -1.841  -0.004   1.097  1.00  0.00     0.153 HD
BRANCH   6   8
HETATM    8  C2  UNL     1      -3.004  -0.468  -0.669  1.00  0.00     0.141 C 
BRANCH   8   9
HETATM    9  C1  UNL     1      -4.137  -0.863   0.293  1.00  0.00     0.248 C 
BRANCH   9  10
HETATM   10  N1  UNL     1      -5.314  -1.308  -0.412  1.00  0.00    -0.078 N 
ATOM     11  H13 UNL     1      -5.628  -0.610  -1.086  1.00  0.00     0.274 HD
ATOM     12  H12 UNL     1      -5.094  -2.067  -1.057  1.00  0.00     0.274 HD
ATOM     13  H11 UNL     1      -6.065  -1.570   0.226  1.00  0.00     0.274 HD
ENDBRANCH   9  10
ENDBRANCH   8   9
ENDBRANCH   6   8
ENDBRANCH   1   6
BRANCH   5  14
HETATM   14  C11 UNL     1       0.683   2.354  -0.029  1.00  0.00     0.021 A 
HETATM   15  C12 UNL     1      -0.462   3.259   0.297  1.00  0.00     0.007 A 
HETATM   16  C13 UNL     1       0.723   3.259   1.189  1.00  0.00     0.007 A 
ENDBRANCH   5  14
BRANCH   4  17
HETATM   17  C6  UNL     1       1.799  -0.860   0.834  1.00  0.00     0.277 C 
BRANCH  17  18
HETATM   18  C7  UNL     1       3.055  -1.606   0.921  1.00  0.00     0.014 A 
HETATM   19  C8  UNL     1       3.675  -2.523  -0.003  1.00  0.00     0.007 A 
HETATM   20  C9  UNL     1       4.272  -1.105   0.200  1.00  0.00     0.007 A 
ENDBRANCH  17  18
ENDBRANCH   4  17
TORSDOF 7
