REMARK  6 active torsions:
REMARK  status: ('A' for Active; 'I' for Inactive)
REMARK    1  A    between atoms: N1_2  and  C3_4 
REMARK    2  A    between atoms: C3_4  and  C4_5 
REMARK    3  A    between atoms: C4_5  and  N2_6 
REMARK    4  A    between atoms: N2_6  and  C5_8 
REMARK    5  A    between atoms: C5_8  and  C6_9 
REMARK    6  A    between atoms: C6_9  and  C7_10 
ROOT
HETATM    1  C7  UNL     1      -1.588   0.805  -0.338  1.00  0.00     0.030 C 
HETATM    2  C8  UNL     1      -2.571   1.839   0.166  1.00  0.00     0.065 C 
HETATM    3  N3  UNL     1      -3.834   1.821  -0.430  1.00  0.00    -0.382 N 
ATOM      4  H3  UNL     1      -4.306   2.693  -0.670  1.00  0.00     0.164 HD
HETATM    5  C9  UNL     1      -4.444   0.584  -0.693  1.00  0.00     0.065 C 
HETATM    6  C10 UNL     1      -3.582  -0.552  -1.039  1.00  0.00     0.029 C 
HETATM    7  C11 UNL     1      -3.833  -1.728  -0.098  1.00  0.00     0.010 C 
HETATM    8  C12 UNL     1      -2.492  -1.409   0.592  1.00  0.00     0.007 C 
HETATM    9  C13 UNL     1      -2.166  -0.534  -0.569  1.00  0.00     0.003 C 
ENDROOT
BRANCH   1  10
HETATM   10  C6  UNL     1      -0.491   0.737   0.704  1.00  0.00     0.029 C 
BRANCH  10  11
HETATM   11  C5  UNL     1       0.543  -0.263   0.285  1.00  0.00     0.114 C 
BRANCH  11  12
HETATM   12  N2  UNL     1       1.616  -0.380   1.227  1.00  0.00    -0.420 N 
ATOM     13  H2  UNL     1       1.733  -1.210   1.808  1.00  0.00     0.153 HD
BRANCH  12  14
HETATM   14  C4  UNL     1       2.507   0.722   1.307  1.00  0.00     0.133 C 
BRANCH  14  15
HETATM   15  C3  UNL     1       3.367   0.817   0.030  1.00  0.00     0.135 C 
BRANCH  15  16
HETATM   16  N1  UNL     1       4.109  -0.342  -0.183  1.00  0.00    -0.419 N 
HETATM   17  C1  UNL     1       4.971  -0.362  -1.281  1.00  0.00     0.142 C 
HETATM   18  C2  UNL     1       4.293  -1.312   0.804  1.00  0.00     0.142 C 
ENDBRANCH  15  16
ENDBRANCH  14  15
ENDBRANCH  12  14
ENDBRANCH  11  12
ENDBRANCH  10  11
ENDBRANCH   1  10
TORSDOF 6
