REMARK  6 active torsions:
REMARK  status: ('A' for Active; 'I' for Inactive)
REMARK    1  A    between atoms: N1_2  and  C2_4 
REMARK    2  A    between atoms: C6_11  and  C7_12 
REMARK    3  A    between atoms: C7_12  and  N3_13 
REMARK    4  A    between atoms: N3_13  and  N4_15 
REMARK    5  A    between atoms: N4_15  and  C8_17 
REMARK    6  A    between atoms: C11_22  and  C12_23 
ROOT
HETATM    1  N4  UNL     1      -0.632   0.987  -0.624  1.00  0.00    -0.286 N 
ATOM      2  H4  UNL     1      -0.862   1.978  -0.556  1.00  0.00     0.188 HD
ENDROOT
BRANCH   1   3
HETATM    3  N3  UNL     1       0.668   0.615  -0.910  1.00  0.00    -0.309 N 
ATOM      4  H3  UNL     1       0.862   0.246  -1.841  1.00  0.00     0.186 HD
BRANCH   3   5
HETATM    5  C7  UNL     1       1.650   0.702  -0.083  1.00  0.00     0.124 C 
BRANCH   5   6
HETATM    6  C6  UNL     1       2.971   0.276  -0.512  1.00  0.00     0.051 C 
HETATM    7  C5  UNL     1       3.086  -0.199  -1.796  1.00  0.00     0.257 C 
HETATM    8  N2  UNL     1       4.196  -0.565  -2.478  1.00  0.00    -0.333 N 
HETATM    9  O1  UNL     1       1.993  -0.298  -2.397  1.00  0.00    -0.267 OA
HETATM   10  C4  UNL     1       5.489  -0.412  -2.143  1.00  0.00     0.093 C 
ATOM     11  H2  UNL     1       4.028  -1.022  -3.374  1.00  0.00     0.168 HD
HETATM   12  C3  UNL     1       6.028  -0.026  -0.913  1.00  0.00     0.046 C 
HETATM   13  C2  UNL     1       5.374   0.324   0.257  1.00  0.00     0.029 C 
HETATM   14  C17 UNL     1       4.003   0.380   0.396  1.00  0.00     0.047 C 
BRANCH  13  15
HETATM   15  N1  UNL     1       6.129   0.598   1.222  1.00  0.00    -0.394 N 
HETATM   16  C1  UNL     1       5.821   0.989   2.545  1.00  0.00     0.146 C 
ATOM     17  H1  UNL     1       7.126   0.527   1.018  1.00  0.00     0.159 HD
ENDBRANCH  13  15
ENDBRANCH   5   6
ENDBRANCH   3   5
ENDBRANCH   1   3
BRANCH   1  18
HETATM   18  C8  UNL     1      -1.561   0.111  -0.441  1.00  0.00     0.122 A 
HETATM   19  C9  UNL     1      -1.318  -1.254  -0.520  1.00  0.00     0.067 A 
HETATM   20  C10 UNL     1      -2.316  -2.180  -0.324  1.00  0.00     0.093 A 
HETATM   21  N5  UNL     1      -3.581  -1.760  -0.044  1.00  0.00    -0.351 N 
HETATM   22  C11 UNL     1      -3.806  -0.445   0.029  1.00  0.00     0.117 A 
ATOM     23  H5  UNL     1      -4.335  -2.430   0.106  1.00  0.00     0.166 HD
HETATM   24  N7  UNL     1      -2.817   0.479  -0.165  1.00  0.00    -0.327 N 
ATOM     25  H7  UNL     1      -3.042   1.472  -0.098  1.00  0.00     0.169 HD
BRANCH  22  26
HETATM   26  C12 UNL     1      -5.146   0.044   0.325  1.00  0.00     0.011 A 
HETATM   27  C13 UNL     1      -5.392   1.416   0.405  1.00  0.00     0.032 A 
HETATM   28  C14 UNL     1      -6.659   1.867   0.685  1.00  0.00     0.088 A 
HETATM   29  N6  UNL     1      -7.686   1.026   0.888  1.00  0.00    -0.375 N 
HETATM   30  C15 UNL     1      -7.474  -0.297   0.817  1.00  0.00     0.088 A 
ATOM     31  H6  UNL     1      -8.617   1.389   1.094  1.00  0.00     0.164 HD
HETATM   32  C16 UNL     1      -6.200  -0.801   0.535  1.00  0.00     0.032 A 
ENDBRANCH  22  26
ENDBRANCH   1  18
TORSDOF 6
