REMARK  8 active torsions:
REMARK  status: ('A' for Active; 'I' for Inactive)
REMARK    1  A    between atoms: N1_1  and  C1_4 
REMARK    2  A    between atoms: C3_8  and  C4_9 
REMARK    3  A    between atoms: C4_9  and  C5_10 
REMARK    4  A    between atoms: C5_10  and  C6_11 
REMARK    5  A    between atoms: C6_11  and  O1_12 
REMARK    6  A    between atoms: O1_12  and  C7_13 
REMARK    7  A    between atoms: C7_13  and  C8_14 
REMARK    8  A    between atoms: C8_14  and  N3_15 
ROOT
HETATM    1  C1  UNL     1       5.549   1.182   0.590  1.00  0.00     0.676 A 
HETATM    2  N2  UNL     1       4.573   2.008   0.172  1.00  0.00    -0.202 N 
ATOM      3  H2  UNL     1       4.695   3.014   0.289  1.00  0.00     0.183 HD
HETATM    4  C2  UNL     1       3.442   1.553  -0.395  1.00  0.00     0.116 A 
HETATM    5  C3  UNL     1       3.237   0.197  -0.574  1.00  0.00    -0.000 A 
HETATM    6  C13 UNL     1       4.234  -0.656  -0.148  1.00  0.00     0.139 A 
HETATM    7  N4  UNL     1       4.109  -2.067  -0.293  1.00  0.00    -0.082 NA
HETATM    8  N5  UNL     1       5.354  -0.137   0.418  1.00  0.00    -0.179 N 
ATOM      9  H5  UNL     1       6.083  -0.779   0.728  1.00  0.00     0.185 HD
ENDROOT
BRANCH   5  10
HETATM   10  C4  UNL     1       2.014  -0.356  -1.190  1.00  0.00     0.045 C 
BRANCH  10  11
HETATM   11  C5  UNL     1       1.107  -0.939  -0.125  1.00  0.00     0.031 C 
BRANCH  11  12
HETATM   12  C6  UNL     1       0.695   0.116   0.874  1.00  0.00     0.168 C 
BRANCH  12  13
HETATM   13  O1  UNL     1       0.032   1.123   0.227  1.00  0.00    -0.389 OA
BRANCH  13  14
HETATM   14  C7  UNL     1      -1.112   0.756  -0.449  1.00  0.00     0.198 C 
BRANCH  14  15
HETATM   15  C8  UNL     1      -2.113   0.137   0.509  1.00  0.00     0.298 C 
BRANCH  15  16
HETATM   16  N3  UNL     1      -3.333  -0.251  -0.217  1.00  0.00     0.090 N 
HETATM   17  C9  UNL     1      -4.048   0.919  -0.679  1.00  0.00     0.272 C 
HETATM   18  C10 UNL     1      -5.501   0.727  -0.353  1.00  0.00     0.032 C 
HETATM   19  C11 UNL     1      -5.556  -0.727   0.059  1.00  0.00     0.032 C 
HETATM   20  C12 UNL     1      -4.216  -0.897   0.748  1.00  0.00     0.272 C 
ENDBRANCH  15  16
ENDBRANCH  14  15
ENDBRANCH  13  14
ENDBRANCH  12  13
ENDBRANCH  11  12
ENDBRANCH  10  11
ENDBRANCH   5  10
BRANCH   1  21
HETATM   21  N1  UNL     1       6.637   1.637   1.136  1.00  0.00    -0.234 N 
ATOM     22  H12 UNL     1       6.785   2.638   1.266  1.00  0.00     0.174 HD
ATOM     23  H11 UNL     1       7.377   1.011   1.453  1.00  0.00     0.174 HD
ENDBRANCH   1  21
TORSDOF 8
