REMARK  18 active torsions:
REMARK  status: ('A' for Active; 'I' for Inactive)
REMARK    1  A    between atoms: C2_2  and  O2_4 
REMARK    2  A    between atoms: O2_4  and  C3_5 
REMARK    3  A    between atoms: C6_8  and  C7_9 
REMARK       I    between atoms: C7_9  and  N1_11 
REMARK    4  A    between atoms: N1_11  and  C8_13 
REMARK    5  A    between atoms: C8_13  and  C9_14 
REMARK    6  A    between atoms: C9_14  and  C10_15 
REMARK    7  A    between atoms: C10_15  and  O4_16 
REMARK    8  A    between atoms: C10_15  and  N2_18 
REMARK    9  A    between atoms: N2_18  and  N3_20 
REMARK   10  A    between atoms: N3_20  and  C11_21 
REMARK   11  A    between atoms: C11_21  and  O5_22 
REMARK   12  A    between atoms: C11_21  and  C12_24 
REMARK   13  A    between atoms: C12_24  and  C13_25 
REMARK   14  A    between atoms: C15_29  and  N5_30 
REMARK   15  A    between atoms: C16_34  and  O6_35 
REMARK   16  A    between atoms: C21_43  and  N7_44 
REMARK   17  A    between atoms: C22_47  and  O9_48 
REMARK   18  A    between atoms: C23_50  and  N8_51 
ROOT
HETATM    1  C3  UNL     1      -5.037  -0.135   0.377  1.00  0.00     0.106 A 
HETATM    2  C4  UNL     1      -3.960   0.191   1.195  1.00  0.00     0.027 A 
HETATM    3  C5  UNL     1      -2.700  -0.272   0.948  1.00  0.00     0.036 A 
HETATM    4  C6  UNL     1      -1.595   0.016   1.741  1.00  0.00     0.066 A 
HETATM    5  C16 UNL     1      -1.780   0.824   2.851  1.00  0.00     0.083 A 
HETATM    6  C17 UNL     1      -3.048   1.305   3.121  1.00  0.00     0.067 A 
HETATM    7  C18 UNL     1      -4.125   0.997   2.313  1.00  0.00     0.048 A 
HETATM    8  N6  UNL     1      -5.337   1.450   2.590  1.00  0.00    -0.355 N 
ATOM      9  H6  UNL     1      -5.455   2.042   3.412  1.00  0.00     0.166 HD
HETATM   10  C19 UNL     1      -6.425   1.170   1.842  1.00  0.00     0.050 A 
HETATM   11  C20 UNL     1      -7.649   1.662   2.204  1.00  0.00     0.069 A 
HETATM   12  C21 UNL     1      -8.810   1.382   1.471  1.00  0.00     0.140 A 
HETATM   13  C22 UNL     1      -8.677   0.595   0.375  1.00  0.00     0.133 A 
HETATM   14  C23 UNL     1      -7.408   0.097   0.014  1.00  0.00     0.153 A 
HETATM   15  C24 UNL     1      -6.268   0.355   0.706  1.00  0.00     0.061 A 
ENDROOT
BRANCH   4  16
HETATM   16  C7  UNL     1      -0.301  -0.515   1.404  1.00  0.00     0.254 C 
HETATM   17  O3  UNL     1      -0.270  -1.262   0.355  1.00  0.00    -0.268 OA
HETATM   18  N1  UNL     1       0.922  -0.338   2.043  1.00  0.00    -0.357 N 
ATOM     19  H1  UNL     1       0.952   0.253   2.874  1.00  0.00     0.162 HD
BRANCH  18  20
HETATM   20  C8  UNL     1       2.168  -0.955   1.585  1.00  0.00     0.127 C 
BRANCH  20  21
HETATM   21  C9  UNL     1       2.590  -0.557   0.211  1.00  0.00     0.074 C 
BRANCH  21  22
HETATM   22  C10 UNL     1       3.913  -1.269  -0.096  1.00  0.00     0.231 C 
BRANCH  22  23
HETATM   23  O4  UNL     1       3.771  -2.633  -0.030  1.00  0.00    -0.376 OA
ATOM     24  H4  UNL     1       4.591  -3.074  -0.220  1.00  0.00     0.212 HD
ENDBRANCH  22  23
BRANCH  22  25
HETATM   25  N2  UNL     1       4.477  -0.917  -1.341  1.00  0.00    -0.309 N 
ATOM     26  H2  UNL     1       4.606  -1.615  -2.074  1.00  0.00     0.178 HD
BRANCH  25  27
HETATM   27  N3  UNL     1       4.846   0.386  -1.539  1.00  0.00    -0.111 NA
BRANCH  27  28
HETATM   28  C11 UNL     1       6.305   0.475  -1.740  1.00  0.00     0.235 C 
BRANCH  28  29
HETATM   29  O5  UNL     1       6.639   1.798  -1.868  1.00  0.00    -0.378 OA
ATOM     30  H5  UNL     1       7.578   1.855  -1.997  1.00  0.00     0.211 HD
ENDBRANCH  28  29
BRANCH  28  31
HETATM   31  C12 UNL     1       7.011  -0.214  -0.598  1.00  0.00     0.098 C 
BRANCH  31  32
HETATM   32  C13 UNL     1       8.499  -0.124  -0.806  1.00  0.00     0.005 A 
HETATM   33  C14 UNL     1       9.305  -0.999  -1.481  1.00  0.00     0.105 A 
HETATM   34  N4  UNL     1      10.578  -0.741  -1.533  1.00  0.00    -0.346 N 
HETATM   35  C15 UNL     1      11.032   0.359  -0.928  1.00  0.00     0.142 A 
ATOM     36  H4  UNL     1      11.216  -1.366  -2.026  1.00  0.00     0.167 HD
HETATM   37  S1  UNL     1       9.618   1.047  -0.267  1.00  0.00    -0.058 SA
BRANCH  35  38
HETATM   38  N5  UNL     1      12.279   0.776  -0.878  1.00  0.00    -0.380 N 
ATOM     39  H52 UNL     1      13.125   0.365  -1.273  1.00  0.00     0.158 HD
ATOM     40  H51 UNL     1      12.626   1.616  -0.416  1.00  0.00     0.158 HD
ENDBRANCH  35  38
ENDBRANCH  31  32
ENDBRANCH  28  31
ENDBRANCH  27  28
ENDBRANCH  25  27
ENDBRANCH  22  25
ENDBRANCH  21  22
ENDBRANCH  20  21
ENDBRANCH  18  20
ENDBRANCH   4  16
BRANCH   5  41
HETATM   41  O6  UNL     1      -0.751   1.174   3.702  1.00  0.00    -0.360 OA
ATOM     42  H6  UNL     1      -0.878   1.728   4.463  1.00  0.00     0.217 HD
ENDBRANCH   5  41
BRANCH   1  43
HETATM   43  O2  UNL     1      -4.824  -0.925  -0.721  1.00  0.00    -0.277 OA
BRANCH  43  44
HETATM   44  C2  UNL     1      -4.167  -0.396  -1.865  1.00  0.00     0.260 C 
HETATM   45  C1  UNL     1      -3.966  -1.307  -3.018  1.00  0.00     0.126 C 
HETATM   46  O1  UNL     1      -3.797   0.798  -1.836  1.00  0.00    -0.265 OA
ENDBRANCH  43  44
ENDBRANCH   1  43
BRANCH  14  47
HETATM   47  N8  UNL     1      -7.411  -0.726  -1.126  1.00  0.00    -0.112 N 
HETATM   48  O10 UNL     1      -7.597  -0.213  -2.243  1.00  0.00    -0.532 OA
HETATM   49  O11 UNL     1      -7.265  -2.080  -1.036  1.00  0.00    -0.532 OA
ENDBRANCH  14  47
BRANCH  13  50
HETATM   50  O9  UNL     1      -9.769   0.261  -0.409  1.00  0.00    -0.356 OA
ATOM     51  H9  UNL     1      -9.676  -0.290  -1.177  1.00  0.00     0.218 HD
ENDBRANCH  13  50
BRANCH  12  52
HETATM   52  N7  UNL     1     -10.047   1.941   1.915  1.00  0.00    -0.113 N 
HETATM   53  O7  UNL     1     -10.957   2.300   1.202  1.00  0.00    -0.532 OA
HETATM   54  O8  UNL     1     -10.183   2.094   3.291  1.00  0.00    -0.532 OA
ENDBRANCH  12  52
TORSDOF 18
