REMARK  14 active torsions:
REMARK  status: ('A' for Active; 'I' for Inactive)
REMARK    1  A    between atoms: C2_2  and  N1_3 
REMARK    2  A    between atoms: C2_2  and  S4_53 
REMARK    3  A    between atoms: C4_8  and  N3_9 
REMARK    4  A    between atoms: N4_11  and  C5_13 
REMARK    5  A    between atoms: C5_13  and  C6_14 
REMARK    6  A    between atoms: C5_13  and  C10_24 
REMARK    7  A    between atoms: C6_14  and  C7_15 
REMARK       I    between atoms: C10_24  and  N7_26 
REMARK    8  A    between atoms: N7_26  and  C11_28 
REMARK    9  A    between atoms: C11_28  and  C12_29 
REMARK   10  A    between atoms: C11_28  and  C15_41 
REMARK   11  A    between atoms: C13_34  and  N10_35 
REMARK   12  A    between atoms: N10_35  and  O2_37 
REMARK   13  A    between atoms: C17_44  and  N12_45 
REMARK   14  A    between atoms: C18_50  and  O3_51 
ROOT
HETATM    1  C5  UNL     1       0.395   2.517  -0.115  1.00  0.00     0.197 C 
ENDROOT
BRANCH   1   2
HETATM    2  N4  UNL     1       1.602   2.765  -0.829  1.00  0.00    -0.321 N 
HETATM    3  N3  UNL     1       2.532   1.983  -0.920  1.00  0.00    -0.285 N 
ATOM      4  H3  UNL     1       3.308   2.342  -1.476  1.00  0.00     0.188 HD
ATOM      5  H4  UNL     1       1.695   3.665  -1.300  1.00  0.00     0.181 HD
BRANCH   3   6
HETATM    6  C4  UNL     1       2.757   0.701  -0.424  1.00  0.00     0.174 A 
HETATM    7  N2  UNL     1       2.092  -0.010   0.514  1.00  0.00    -0.317 N 
HETATM    8  C3  UNL     1       2.691  -1.200   0.658  1.00  0.00     0.162 A 
ATOM      9  H2  UNL     1       1.270   0.307   1.028  1.00  0.00     0.169 HD
HETATM   10  N1  UNL     1       3.730  -1.290  -0.158  1.00  0.00    -0.283 N 
HETATM   11  S1  UNL     1       2.205  -2.529   1.781  1.00  0.00    -0.013 SA
HETATM   12  C18 UNL     1       3.804  -0.135  -0.843  1.00  0.00     0.192 A 
BRANCH  10  13
HETATM   13  C2  UNL     1       4.681  -2.369  -0.361  1.00  0.00     0.234 C 
HETATM   14  C1  UNL     1       4.958  -3.145   0.904  1.00  0.00     0.052 C 
BRANCH  13  15
HETATM   15  S4  UNL     1       4.166  -3.513  -1.614  1.00  0.00     0.125 S 
HETATM   16  O4  UNL     1       2.865  -4.152  -1.220  1.00  0.00    -0.594 OA
HETATM   17  O5  UNL     1       4.036  -2.833  -2.964  1.00  0.00    -0.594 OA
HETATM   18  O6  UNL     1       5.338  -4.690  -1.761  1.00  0.00    -0.594 OA
ENDBRANCH  13  15
ENDBRANCH  10  13
BRANCH  12  19
HETATM   19  O3  UNL     1       4.729   0.236  -1.814  1.00  0.00    -0.343 OA
ATOM     20  H3  UNL     1       4.781   1.052  -2.298  1.00  0.00     0.219 HD
ENDBRANCH  12  19
ENDBRANCH   3   6
ENDBRANCH   1   2
BRANCH   1  21
HETATM   21  C6  UNL     1      -0.454   3.738   0.071  1.00  0.00     0.093 C 
BRANCH  21  22
HETATM   22  C7  UNL     1       0.315   4.776   0.878  1.00  0.00     0.020 A 
HETATM   23  C8  UNL     1       1.509   4.523   1.495  1.00  0.00     0.078 A 
HETATM   24  S2  UNL     1       1.894   6.034   2.188  1.00  0.00    -0.064 SA
HETATM   25  C9  UNL     1       0.529   6.900   1.662  1.00  0.00     0.142 A 
HETATM   26  N5  UNL     1       0.236   8.166   1.885  1.00  0.00    -0.380 N 
HETATM   27  N6  UNL     1      -0.165   6.006   0.981  1.00  0.00    -0.340 N 
ATOM     28  H52 UNL     1       0.772   8.856   2.411  1.00  0.00     0.158 HD
ATOM     29  H51 UNL     1      -0.583   8.686   1.569  1.00  0.00     0.158 HD
ATOM     30  H6  UNL     1      -1.052   6.258   0.544  1.00  0.00     0.167 HD
ENDBRANCH  21  22
ENDBRANCH   1  21
BRANCH   1  31
HETATM   31  C10 UNL     1      -0.404   1.520  -0.926  1.00  0.00     0.243 C 
HETATM   32  O1  UNL     1      -0.018   1.127  -2.056  1.00  0.00    -0.271 OA
HETATM   33  N7  UNL     1      -1.620   1.008  -0.411  1.00  0.00    -0.342 N 
ATOM     34  H7  UNL     1      -1.945   1.314   0.506  1.00  0.00     0.163 HD
BRANCH  33  35
HETATM   35  C11 UNL     1      -2.407   0.059  -1.165  1.00  0.00     0.204 C 
BRANCH  35  36
HETATM   36  C12 UNL     1      -2.592  -1.209  -0.401  1.00  0.00     0.127 A 
HETATM   37  N8  UNL     1      -3.760  -1.902  -0.277  1.00  0.00    -0.284 N 
HETATM   38  N9  UNL     1      -3.567  -2.979   0.468  1.00  0.00    -0.273 N 
ATOM     39  H8  UNL     1      -4.650  -1.631  -0.696  1.00  0.00     0.188 HD
HETATM   40  C13 UNL     1      -2.293  -3.010   0.838  1.00  0.00     0.199 A 
ATOM     41  H9  UNL     1      -4.277  -3.668   0.716  1.00  0.00     0.189 HD
HETATM   42  N11 UNL     1      -1.702  -1.926   0.304  1.00  0.00    -0.316 N 
ATOM     43  H11 UNL     1      -0.718  -1.683   0.418  1.00  0.00     0.170 HD
BRANCH  40  44
HETATM   44  N10 UNL     1      -1.700  -4.003   1.637  1.00  0.00    -0.136 NA
HETATM   45  C14 UNL     1      -2.675  -5.011   2.009  1.00  0.00     0.153 C 
BRANCH  44  46
HETATM   46  O2  UNL     1      -1.201  -3.512   2.801  1.00  0.00    -0.306 OA
ATOM     47  H2  UNL     1      -0.800  -4.183   3.341  1.00  0.00     0.237 HD
ENDBRANCH  44  46
ENDBRANCH  40  44
ENDBRANCH  35  36
BRANCH  35  48
HETATM   48  C15 UNL     1      -3.802   0.629  -1.397  1.00  0.00     0.048 A 
HETATM   49  C16 UNL     1      -4.393   0.528  -2.623  1.00  0.00     0.081 A 
HETATM   50  S3  UNL     1      -5.892   1.298  -2.364  1.00  0.00    -0.064 SA
HETATM   51  C17 UNL     1      -5.682   1.702  -0.721  1.00  0.00     0.142 A 
HETATM   52  N13 UNL     1      -4.470   1.227  -0.443  1.00  0.00    -0.338 N 
ATOM     53  H13 UNL     1      -4.071   1.327   0.491  1.00  0.00     0.168 HD
BRANCH  51  54
HETATM   54  N12 UNL     1      -6.497   2.329   0.101  1.00  0.00    -0.380 N 
ATOM     55 2H12 UNL     1      -7.426   2.693  -0.112  1.00  0.00     0.158 HD
ATOM     56 1H12 UNL     1      -6.371   2.571   1.084  1.00  0.00     0.158 HD
ENDBRANCH  51  54
ENDBRANCH  35  48
ENDBRANCH  33  35
ENDBRANCH   1  31
TORSDOF 14
