REMARK  17 active torsions:
REMARK  status: ('A' for Active; 'I' for Inactive)
REMARK    1  A    between atoms: O1_2  and  C2_3 
REMARK    2  A    between atoms: C2_3  and  C3_5 
REMARK    3  A    between atoms: C5_7  and  O3_8 
REMARK    4  A    between atoms: N1_18  and  C12_19 
REMARK    5  A    between atoms: C12_19  and  C13_20 
REMARK    6  A    between atoms: C13_20  and  C14_21 
REMARK    7  A    between atoms: C14_21  and  N2_22 
REMARK    8  A    between atoms: N2_22  and  C15_25 
REMARK    9  A    between atoms: C15_25  and  C16_26 
REMARK   10  A    between atoms: C16_26  and  C17_27 
REMARK   11  A    between atoms: C17_27  and  N3_28 
REMARK       I    between atoms: N3_28  and  C18_30 
REMARK   12  A    between atoms: C18_30  and  C19_32 
REMARK   13  A    between atoms: C22_38  and  O7_39 
REMARK   14  A    between atoms: C24_42  and  O8_43 
REMARK   15  A    between atoms: C24_42  and  C25_45 
REMARK   16  A    between atoms: C25_45  and  O9_46 
REMARK   17  A    between atoms: C27_50  and  O10_51 
ROOT
HETATM    1  C3  UNL     1      -6.252   3.536  -0.510  1.00  0.00     0.043 A 
HETATM    2  C4  UNL     1      -6.912   2.691  -1.374  1.00  0.00     0.055 A 
HETATM    3  C5  UNL     1      -6.572   1.369  -1.529  1.00  0.00     0.082 A 
HETATM    4  C6  UNL     1      -5.519   0.824  -0.797  1.00  0.00     0.065 A 
HETATM    5  C7  UNL     1      -5.224  -0.495  -0.987  1.00  0.00     0.202 A 
HETATM    6  O4  UNL     1      -5.942  -1.137  -1.833  1.00  0.00    -0.286 OA
HETATM    7  C8  UNL     1      -4.231  -1.220  -0.364  1.00  0.00     0.084 A 
HETATM    8  C9  UNL     1      -3.358  -0.740   0.562  1.00  0.00     0.094 A 
HETATM    9  S1  UNL     1      -3.583   0.921   0.929  1.00  0.00    -0.070 SA
HETATM   10  C10 UNL     1      -4.856   1.654   0.065  1.00  0.00     0.025 A 
HETATM   11  C11 UNL     1      -5.217   2.982   0.204  1.00  0.00     0.037 A 
HETATM   12  N1  UNL     1      -2.318  -1.539   1.206  1.00  0.00    -0.337 N 
HETATM   13  C23 UNL     1      -2.197  -2.888   0.869  1.00  0.00     0.094 A 
HETATM   14  C24 UNL     1      -1.431  -3.745   1.462  1.00  0.00     0.095 C 
HETATM   15  C26 UNL     1      -3.159  -3.417  -0.158  1.00  0.00     0.110 A 
HETATM   16  N6  UNL     1      -3.069  -4.795  -0.549  1.00  0.00    -0.097 NA
HETATM   17  C27 UNL     1      -4.072  -2.643  -0.702  1.00  0.00     0.109 A 
ENDROOT
BRANCH  12  18
HETATM   18  C12 UNL     1      -1.435  -0.729   1.995  1.00  0.00     0.132 C 
BRANCH  18  19
HETATM   19  C13 UNL     1      -0.290  -0.103   1.299  1.00  0.00     0.048 C 
BRANCH  19  20
HETATM   20  C14 UNL     1       0.672  -0.952   0.561  1.00  0.00     0.234 C 
BRANCH  20  21
HETATM   21  N2  UNL     1       1.729  -0.160  -0.077  1.00  0.00    -0.075 N 
ATOM     22  H22 UNL     1       1.374   0.612  -0.642  1.00  0.00     0.277 HD
ATOM     23  H21 UNL     1       2.267   0.405   0.580  1.00  0.00     0.277 HD
BRANCH  21  24
HETATM   24  C15 UNL     1       2.535  -1.099  -0.825  1.00  0.00     0.234 C 
BRANCH  24  25
HETATM   25  C16 UNL     1       3.315  -2.058   0.006  1.00  0.00     0.047 C 
BRANCH  25  26
HETATM   26  C17 UNL     1       4.309  -1.425   0.942  1.00  0.00     0.124 C 
BRANCH  26  27
HETATM   27  N3  UNL     1       5.286  -0.669   0.204  1.00  0.00    -0.355 N 
HETATM   28  C18 UNL     1       6.358   0.022   0.876  1.00  0.00     0.278 C 
HETATM   29  O5  UNL     1       6.420  -0.048   2.125  1.00  0.00    -0.265 OA
ATOM     30  H3  UNL     1       5.219  -0.621  -0.813  1.00  0.00     0.162 HD
BRANCH  28  31
HETATM   31  C19 UNL     1       7.327   0.771   0.096  1.00  0.00     0.180 A 
HETATM   32  O6  UNL     1       7.324   0.893  -1.202  1.00  0.00    -0.285 OA
HETATM   33  C20 UNL     1       8.306   1.619  -1.642  1.00  0.00     0.185 A 
HETATM   34  N4  UNL     1       8.603   1.956  -2.990  1.00  0.00    -0.072 NA
HETATM   35  C21 UNL     1       9.022   2.015  -0.552  1.00  0.00     0.130 A 
HETATM   36  N5  UNL     1      10.190   2.825  -0.549  1.00  0.00    -0.095 NA
HETATM   37  C22 UNL     1       8.405   1.477   0.582  1.00  0.00     0.133 A 
BRANCH  37  38
HETATM   38  O7  UNL     1       8.833   1.652   1.878  1.00  0.00    -0.356 OA
ATOM     39  H7  UNL     1       9.577   2.139   2.213  1.00  0.00     0.218 HD
ENDBRANCH  37  38
ENDBRANCH  28  31
ENDBRANCH  26  27
ENDBRANCH  25  26
ENDBRANCH  24  25
ENDBRANCH  21  24
ENDBRANCH  20  21
ENDBRANCH  19  20
ENDBRANCH  18  19
ENDBRANCH  12  18
BRANCH  14  40
HETATM   40  O8  UNL     1      -1.474  -5.110   0.915  1.00  0.00    -0.360 OA
ATOM     41  H8  UNL     1      -0.911  -5.739   1.351  1.00  0.00     0.217 HD
ENDBRANCH  14  40
BRANCH  14  42
HETATM   42  C25 UNL     1      -0.507  -3.715   2.573  1.00  0.00     0.230 C 
BRANCH  42  43
HETATM   43  O9  UNL     1      -0.894  -4.601   3.611  1.00  0.00    -0.394 OA
ATOM     44  H9  UNL     1      -0.287  -4.581   4.341  1.00  0.00     0.209 HD
ENDBRANCH  42  43
ENDBRANCH  14  42
BRANCH  17  45
HETATM   45  O10 UNL     1      -4.916  -3.230  -1.643  1.00  0.00    -0.358 OA
ATOM     46  H10 UNL     1      -4.813  -4.149  -1.861  1.00  0.00     0.217 HD
ENDBRANCH  17  45
BRANCH   3  47
HETATM   47  O3  UNL     1      -7.290   0.599  -2.420  1.00  0.00    -0.360 OA
ATOM     48  H3  UNL     1      -7.055  -0.315  -2.527  1.00  0.00     0.217 HD
ENDBRANCH   3  47
BRANCH   1  49
HETATM   49  C2  UNL     1      -6.636   4.918  -0.367  1.00  0.00     0.293 C 
HETATM   50  O2  UNL     1      -7.610   5.368  -1.058  1.00  0.00    -0.259 OA
BRANCH  49  51
HETATM   51  O1  UNL     1      -6.009   5.809   0.484  1.00  0.00    -0.323 OA
HETATM   52  C1  UNL     1      -6.468   7.162   0.553  1.00  0.00     0.213 C 
ENDBRANCH  49  51
ENDBRANCH   1  49
TORSDOF 17
