REMARK  20 active torsions:
REMARK  status: ('A' for Active; 'I' for Inactive)
REMARK    1  A    between atoms: C2_2  and  C3_3 
REMARK    2  A    between atoms: C3_3  and  C4_4 
REMARK    3  A    between atoms: C4_4  and  C5_5 
REMARK    4  A    between atoms: C5_5  and  C6_6 
REMARK    5  A    between atoms: C6_6  and  N1_7 
REMARK       I    between atoms: N1_7  and  C7_9 
REMARK       I    between atoms: C7_9  and  N2_11 
REMARK    6  A    between atoms: N2_11  and  C8_13 
REMARK    7  A    between atoms: C9_15  and  C10_16 
REMARK    8  A    between atoms: C10_16  and  O2_17 
REMARK    9  A    between atoms: C10_16  and  O3_19 
REMARK   10  A    between atoms: O3_19  and  C11_20 
REMARK   11  A    between atoms: C11_20  and  O4_21 
REMARK   12  A    between atoms: O4_21  and  C12_22 
REMARK   13  A    between atoms: C14_25  and  N3_26 
REMARK   14  A    between atoms: N3_26  and  C15_28 
REMARK   15  A    between atoms: C15_28  and  O6_29 
REMARK   16  A    between atoms: C15_28  and  C16_31 
REMARK   17  A    between atoms: N5_38  and  C19_39 
REMARK   18  A    between atoms: C23_44  and  O9_45 
REMARK   19  A    between atoms: C24_47  and  O10_48 
REMARK   20  A    between atoms: C25_50  and  O11_51 
ROOT
HETATM    1  C8  UNL     1       2.450  -0.477  -0.391  1.00  0.00     0.115 A 
HETATM    2  S1  UNL     1       1.466   0.919  -0.158  1.00  0.00    -0.062 SA
HETATM    3  C9  UNL     1      -0.102   0.779  -0.861  1.00  0.00     0.094 A 
HETATM    4  C14 UNL     1      -0.313  -0.426  -1.484  1.00  0.00     0.089 A 
HETATM    5  C24 UNL     1       0.568  -1.459  -1.600  1.00  0.00     0.130 A 
HETATM    6  C25 UNL     1       1.847  -1.483  -1.095  1.00  0.00     0.135 A 
ENDROOT
BRANCH   4   7
HETATM    7  N3  UNL     1      -1.694  -0.699  -1.867  1.00  0.00    -0.356 N 
ATOM      8  H3  UNL     1      -2.128  -0.382  -2.734  1.00  0.00     0.162 HD
BRANCH   7   9
HETATM    9  C15 UNL     1      -2.370  -1.488  -0.842  1.00  0.00     0.262 C 
BRANCH   9  10
HETATM   10  O6  UNL     1      -2.163  -0.759   0.366  1.00  0.00    -0.372 OA
ATOM     11  H6  UNL     1      -2.603  -1.273   1.033  1.00  0.00     0.212 HD
ENDBRANCH   9  10
BRANCH   9  12
HETATM   12  C16 UNL     1      -3.852  -1.521  -0.968  1.00  0.00     0.067 A 
HETATM   13  S2  UNL     1      -4.959  -0.239  -1.114  1.00  0.00    -0.068 SA
HETATM   14  C17 UNL     1      -6.422  -1.126  -1.093  1.00  0.00     0.097 A 
HETATM   15  N4  UNL     1      -7.764  -0.802  -1.144  1.00  0.00    -0.301 N 
HETATM   16  C22 UNL     1      -6.001  -2.403  -0.975  1.00  0.00     0.100 A 
HETATM   17  C18 UNL     1      -8.690  -1.796  -1.075  1.00  0.00     0.330 A 
ATOM     18  H4  UNL     1      -8.057   0.171  -1.232  1.00  0.00     0.171 HD
HETATM   19  O7  UNL     1      -9.927  -1.451  -1.124  1.00  0.00    -0.246 OA
HETATM   20  N5  UNL     1      -8.309  -3.047  -0.962  1.00  0.00    -0.266 N 
HETATM   21  C21 UNL     1      -7.013  -3.378  -0.909  1.00  0.00     0.267 A 
HETATM   22  O8  UNL     1      -6.759  -4.609  -0.798  1.00  0.00    -0.267 OA
HETATM   23  C23 UNL     1      -4.663  -2.617  -0.909  1.00  0.00     0.101 A 
BRANCH  20  24
HETATM   24  C19 UNL     1      -9.317  -4.129  -0.872  1.00  0.00     0.132 C 
HETATM   25  C20 UNL     1      -9.628  -4.410   0.572  1.00  0.00     0.027 C 
ENDBRANCH  20  24
BRANCH  23  26
HETATM   26  O9  UNL     1      -4.085  -3.922  -0.780  1.00  0.00    -0.358 OA
ATOM     27  H9  UNL     1      -4.650  -4.685  -0.739  1.00  0.00     0.217 HD
ENDBRANCH  23  26
ENDBRANCH   9  12
ENDBRANCH   7   9
ENDBRANCH   4   7
BRANCH   3  28
HETATM   28  C10 UNL     1      -0.990   1.955  -0.888  1.00  0.00     0.200 C 
BRANCH  28  29
HETATM   29  O2  UNL     1      -1.264   2.425   0.359  1.00  0.00    -0.340 OA
ATOM     30  H2  UNL     1      -1.836   3.183   0.342  1.00  0.00     0.220 HD
ENDBRANCH  28  29
BRANCH  28  31
HETATM   31  O3  UNL     1      -2.022   1.974  -1.777  1.00  0.00    -0.303 OA
BRANCH  31  32
HETATM   32  C11 UNL     1      -1.635   2.861  -2.804  1.00  0.00     0.357 C 
BRANCH  32  33
HETATM   33  O4  UNL     1      -0.474   2.361  -3.470  1.00  0.00    -0.295 OA
BRANCH  33  34
HETATM   34  C12 UNL     1       0.182   3.167  -4.402  1.00  0.00     0.256 C 
HETATM   35  C13 UNL     1       1.381   2.778  -5.155  1.00  0.00     0.126 C 
HETATM   36  O5  UNL     1      -0.346   4.324  -4.575  1.00  0.00    -0.266 OA
ENDBRANCH  33  34
ENDBRANCH  32  33
ENDBRANCH  31  32
ENDBRANCH  28  31
ENDBRANCH   3  28
BRANCH   5  37
HETATM   37  O10 UNL     1       0.195  -2.636  -2.295  1.00  0.00    -0.356 OA
ATOM     38  H10 UNL     1       0.809  -3.356  -2.376  1.00  0.00     0.218 HD
ENDBRANCH   5  37
BRANCH   6  39
HETATM   39  O11 UNL     1       2.655  -2.619  -1.291  1.00  0.00    -0.356 OA
ATOM     40  H11 UNL     1       2.236  -3.318  -1.780  1.00  0.00     0.218 HD
ENDBRANCH   6  39
BRANCH   1  41
HETATM   41  N2  UNL     1       3.641  -0.565   0.061  1.00  0.00    -0.300 N 
HETATM   42  C7  UNL     1       4.271   0.471   0.803  1.00  0.00     0.321 C 
HETATM   43  N1  UNL     1       4.770   0.209   2.096  1.00  0.00    -0.343 N 
HETATM   44  O1  UNL     1       4.367   1.599   0.307  1.00  0.00    -0.247 OA
ATOM     45  H1  UNL     1       4.713  -0.728   2.496  1.00  0.00     0.164 HD
ATOM     46  H2  UNL     1       4.166  -1.421  -0.119  1.00  0.00     0.171 HD
BRANCH  43  47
HETATM   47  C6  UNL     1       5.370   1.308   2.851  1.00  0.00     0.124 C 
BRANCH  47  48
HETATM   48  C5  UNL     1       6.583   1.905   2.236  1.00  0.00     0.020 C 
BRANCH  48  49
HETATM   49  C4  UNL     1       7.087   3.087   3.019  1.00  0.00     0.002 C 
BRANCH  49  50
HETATM   50  C3  UNL     1       7.500   2.772   4.416  1.00  0.00    -0.000 C 
BRANCH  50  51
HETATM   51  C2  UNL     1       8.586   1.705   4.459  1.00  0.00    -0.005 C 
HETATM   52  C1  UNL     1       9.003   1.471   5.879  1.00  0.00     0.005 C 
ENDBRANCH  50  51
ENDBRANCH  49  50
ENDBRANCH  48  49
ENDBRANCH  47  48
ENDBRANCH  43  47
ENDBRANCH   1  41
TORSDOF 20
