REMARK  20 active torsions:
REMARK  status: ('A' for Active; 'I' for Inactive)
REMARK    1  A    between atoms: N1_1  and  N2_4 
REMARK    2  A    between atoms: N2_4  and  N3_5 
REMARK    3  A    between atoms: C1_6  and  S1_7 
REMARK    4  A    between atoms: S1_7  and  S2_8 
REMARK    5  A    between atoms: S2_8  and  C2_9 
REMARK    6  A    between atoms: C3_12  and  S3_13 
REMARK    7  A    between atoms: S3_13  and  C4_14 
REMARK    8  A    between atoms: C5_15  and  C6_16 
REMARK    9  A    between atoms: C6_16  and  O1_17 
REMARK   10  A    between atoms: C6_16  and  N5_19 
REMARK       I    between atoms: N5_19  and  C7_21 
REMARK   11  A    between atoms: C7_21  and  C8_23 
REMARK   12  A    between atoms: C8_23  and  C9_24 
REMARK   13  A    between atoms: C8_23  and  C10_29 
REMARK   14  A    between atoms: C9_24  and  N6_25 
REMARK   15  A    between atoms: C10_29  and  N7_30 
REMARK   16  A    between atoms: N7_30  and  C11_32 
REMARK   17  A    between atoms: C15_36  and  O3_37 
REMARK   18  A    between atoms: C17_42  and  C18_43 
REMARK   19  A    between atoms: C19_46  and  O6_47 
REMARK   20  A    between atoms: N9_49  and  C20_50 
ROOT
HETATM    1  C2  UNL     1       3.869   1.961  -0.430  1.00  0.00     0.117 A 
HETATM    2  N4  UNL     1       2.592   1.461  -0.661  1.00  0.00    -0.328 N 
ATOM      3  H4  UNL     1       2.250   1.127  -1.562  1.00  0.00     0.168 HD
HETATM    4  C3  UNL     1       1.887   1.482   0.454  1.00  0.00     0.150 A 
HETATM    5  N8  UNL     1       2.675   1.982   1.392  1.00  0.00    -0.329 N 
ATOM      6  H8  UNL     1       2.403   2.119   2.365  1.00  0.00     0.168 HD
HETATM    7  C17 UNL     1       3.908   2.291   0.876  1.00  0.00     0.146 A 
ENDROOT
BRANCH   4   8
HETATM    8  S3  UNL     1       0.181   0.947   0.703  1.00  0.00    -0.066 SA
BRANCH   8   9
HETATM    9  C4  UNL     1       0.157  -0.753   1.135  1.00  0.00     0.057 C 
HETATM   10  C5  UNL     1      -0.607  -1.740   0.972  1.00  0.00     0.063 C 
BRANCH  10  11
HETATM   11  C6  UNL     1      -1.828  -2.069   0.382  1.00  0.00     0.142 C 
BRANCH  11  12
HETATM   12  O1  UNL     1      -2.126  -3.420   0.585  1.00  0.00    -0.346 OA
ATOM     13  H1  UNL     1      -2.957  -3.644   0.183  1.00  0.00     0.219 HD
ENDBRANCH  11  12
BRANCH  11  14
HETATM   14  N5  UNL     1      -2.832  -1.512  -0.327  1.00  0.00    -0.307 N 
HETATM   15  C7  UNL     1      -3.174  -0.293  -0.877  1.00  0.00     0.231 C 
HETATM   16  O2  UNL     1      -2.583   0.792  -0.902  1.00  0.00    -0.273 OA
ATOM     17  H5  UNL     1      -3.560  -2.202  -0.513  1.00  0.00     0.171 HD
BRANCH  15  18
HETATM   18  C8  UNL     1      -4.548  -0.256  -1.594  1.00  0.00     0.121 C 
BRANCH  18  19
HETATM   19  C9  UNL     1      -4.673   1.043  -2.311  1.00  0.00     0.245 C 
BRANCH  19  20
HETATM   20  N6  UNL     1      -4.594   2.186  -1.433  1.00  0.00    -0.078 N 
ATOM     21  H63 UNL     1      -5.283   2.117  -0.684  1.00  0.00     0.274 HD
ATOM     22  H62 UNL     1      -3.739   2.159  -0.877  1.00  0.00     0.274 HD
ATOM     23  H61 UNL     1      -4.680   3.076  -1.924  1.00  0.00     0.274 HD
ENDBRANCH  19  20
ENDBRANCH  18  19
BRANCH  18  24
HETATM   24  C10 UNL     1      -5.566  -0.427  -0.500  1.00  0.00     0.135 C 
BRANCH  24  25
HETATM   25  N7  UNL     1      -6.913  -0.415  -0.977  1.00  0.00    -0.389 N 
ATOM     26  H7  UNL     1      -7.092  -0.311  -1.976  1.00  0.00     0.159 HD
BRANCH  25  27
HETATM   27  C11 UNL     1      -8.004  -0.545  -0.081  1.00  0.00     0.030 A 
HETATM   28  C12 UNL     1      -9.323  -0.537  -0.483  1.00  0.00     0.029 A 
HETATM   29  C13 UNL     1     -10.364  -0.661   0.408  1.00  0.00     0.005 A 
HETATM   30  C14 UNL     1     -10.097  -0.799   1.756  1.00  0.00     0.036 A 
HETATM   31  C15 UNL     1      -8.785  -0.811   2.195  1.00  0.00     0.067 A 
HETATM   32  C16 UNL     1      -7.757  -0.685   1.285  1.00  0.00     0.065 A 
BRANCH  31  33
HETATM   33  O3  UNL     1      -8.511  -0.950   3.563  1.00  0.00    -0.361 OA
ATOM     34  H3  UNL     1      -7.610  -0.958   3.864  1.00  0.00     0.217 HD
ENDBRANCH  31  33
ENDBRANCH  25  27
ENDBRANCH  24  25
ENDBRANCH  18  24
ENDBRANCH  15  18
ENDBRANCH  11  14
ENDBRANCH  10  11
ENDBRANCH   8   9
ENDBRANCH   4   8
BRANCH   1  35
HETATM   35  S2  UNL     1       5.022   2.098  -1.744  1.00  0.00    -0.030 SA
BRANCH  35  36
HETATM   36  S1  UNL     1       6.969   2.494  -1.237  1.00  0.00    -0.025 SA
BRANCH  36  37
HETATM   37  C1  UNL     1       7.905   1.004  -1.066  1.00  0.00     0.189 A 
HETATM   38  N3  UNL     1       8.576   0.434  -2.113  1.00  0.00     0.012 N 
HETATM   39  C21 UNL     1       9.183  -0.679  -1.665  1.00  0.00     0.721 A 
HETATM   40  N9  UNL     1       8.924  -0.846  -0.354  1.00  0.00    -0.098 N 
HETATM   41  N11 UNL     1       9.915  -1.493  -2.355  1.00  0.00    -0.231 N 
HETATM   42  C19 UNL     1       8.124   0.213   0.007  1.00  0.00     0.204 A 
ATOM     43 2H11 UNL     1      10.111  -1.367  -3.348  1.00  0.00     0.174 HD
ATOM     44 1H11 UNL     1      10.375  -2.337  -2.015  1.00  0.00     0.174 HD
BRANCH  38  45
HETATM   45  N2  UNL     1       8.619   0.910  -3.379  1.00  0.00    -0.220 NA
BRANCH  45  46
HETATM   46  N1  UNL     1       8.651   1.295  -4.450  1.00  0.00    -0.259 N 
ATOM     47  H12 UNL     1       8.476   0.456  -3.897  1.00  0.00     0.193 HD
ATOM     48  H11 UNL     1       8.683   1.654  -5.404  1.00  0.00     0.193 HD
ENDBRANCH  45  46
ENDBRANCH  38  45
BRANCH  40  49
HETATM   49  C20 UNL     1       9.369  -1.886   0.506  1.00  0.00     0.209 C 
HETATM   50  N10 UNL     1      10.250  -2.868   0.043  1.00  0.00    -0.069 NA
HETATM   51  S4  UNL     1       8.839  -1.920   2.045  1.00  0.00    -0.043 SA
ENDBRANCH  40  49
BRANCH  42  52
HETATM   52  O6  UNL     1       7.643   0.393   1.289  1.00  0.00    -0.343 OA
ATOM     53  H6  UNL     1       7.797  -0.163   2.044  1.00  0.00     0.219 HD
ENDBRANCH  42  52
ENDBRANCH  36  37
ENDBRANCH  35  36
ENDBRANCH   1  35
BRANCH   7  54
HETATM   54  C18 UNL     1       4.911   2.892   1.697  1.00  0.00     0.229 C 
HETATM   55  O4  UNL     1       6.021   3.240   1.303  1.00  0.00    -0.643 OA
HETATM   56  O5  UNL     1       4.684   3.137   3.073  1.00  0.00    -0.643 OA
ENDBRANCH   7  54
TORSDOF 20
