REMARK  4 active torsions:
REMARK  status: ('A' for Active; 'I' for Inactive)
REMARK    1  A    between atoms: C8_9  and  N1_10 
REMARK    2  A    between atoms: N1_10  and  C9_12 
REMARK    3  A    between atoms: C9_12  and  N2_14 
REMARK    4  A    between atoms: N2_14  and  C10_16 
ROOT
HETATM    1  N1  UNL     1       0.136  -0.526   0.493  1.00  0.00    -0.358 N 
ATOM      2  H1  UNL     1       0.366  -1.030   1.349  1.00  0.00     0.162 HD
ENDROOT
BRANCH   1   3
HETATM    3  C8  UNL     1      -1.258  -0.276   0.294  1.00  0.00     0.036 C 
HETATM    4  C7  UNL     1      -1.558   1.180   0.202  1.00  0.00     0.035 C 
HETATM    5  C5  UNL     1      -3.045   1.404  -0.023  1.00  0.00    -0.009 C 
HETATM    6  C4  UNL     1      -3.424   0.732  -1.311  1.00  0.00     0.009 C 
HETATM    7  C6  UNL     1      -3.785   0.856   1.154  1.00  0.00     0.048 C 
HETATM    8  C3  UNL     1      -3.232  -0.749  -1.155  1.00  0.00    -0.009 C 
HETATM    9  C2  UNL     1      -3.993  -1.324   0.017  1.00  0.00     0.048 C 
HETATM   10  C14 UNL     1      -1.759  -1.012  -0.909  1.00  0.00     0.035 C 
HETATM   11  C1  UNL     1      -3.504  -0.634   1.265  1.00  0.00     0.106 C 
HETATM   12  F1  UNL     1      -4.229  -1.080   2.370  1.00  0.00    -0.243 F 
HETATM   13  C15 UNL     1      -2.044  -0.821   1.508  1.00  0.00     0.074 C 
ENDBRANCH   1   3
BRANCH   1  14
HETATM   14  C9  UNL     1       1.233  -0.186  -0.305  1.00  0.00     0.168 C 
HETATM   15  S1  UNL     1       1.037   0.619  -1.704  1.00  0.00    -0.041 SA
BRANCH  14  16
HETATM   16  N2  UNL     1       2.556  -0.563   0.132  1.00  0.00    -0.361 N 
ATOM     17  H2  UNL     1       2.676  -1.069   1.010  1.00  0.00     0.162 HD
BRANCH  16  18
HETATM   18  C10 UNL     1       3.693  -0.232  -0.657  1.00  0.00     0.111 C 
HETATM   19  C11 UNL     1       4.990  -0.720  -0.044  1.00  0.00     0.054 C 
HETATM   20  C12 UNL     1       5.979   0.091  -0.865  1.00  0.00     0.234 C 
HETATM   21  N3  UNL     1       5.413   1.422  -0.722  1.00  0.00    -0.073 N 
HETATM   22  C13 UNL     1       3.978   1.264  -0.704  1.00  0.00     0.257 C 
ATOM     23  H32 UNL     1       5.772   1.927   0.088  1.00  0.00     0.277 HD
ATOM     24  H31 UNL     1       5.737   2.076  -1.435  1.00  0.00     0.277 HD
ENDBRANCH  16  18
ENDBRANCH  14  16
ENDBRANCH   1  14
TORSDOF 4
