REMARK  3 active torsions:
REMARK  status: ('A' for Active; 'I' for Inactive)
REMARK    1  A    between atoms: C8_13  and  N3_14 
REMARK    2  A    between atoms: N3_14  and  C9_16 
REMARK    3  A    between atoms: C9_16  and  C10_17 
ROOT
HETATM    1 CL1  UNL     1      -6.089   1.807  -0.559  1.00  0.00    -0.124 Cl
HETATM    2  C1  UNL     1      -4.454   1.394   0.068  1.00  0.00     0.092 C 
HETATM    3  C2  UNL     1      -4.571   0.481   1.229  1.00  0.00     0.021 C 
HETATM    4  C3  UNL     1      -3.614  -0.665   1.247  1.00  0.00     0.006 C 
HETATM    5  C4  UNL     1      -3.409  -1.335  -0.073  1.00  0.00    -0.009 C 
HETATM    6  C5  UNL     1      -1.922  -1.436  -0.349  1.00  0.00     0.049 C 
HETATM    7  C6  UNL     1      -1.402  -0.042  -0.427  1.00  0.00     0.012 A 
HETATM    8  C7  UNL     1      -2.221   1.014  -0.769  1.00  0.00     0.041 A 
HETATM    9  N1  UNL     1      -1.477   2.135  -0.755  1.00  0.00    -0.302 N 
ATOM     10  H1  UNL     1      -1.813   3.074  -0.967  1.00  0.00     0.186 HD
HETATM   11  N2  UNL     1      -0.234   1.815  -0.419  1.00  0.00    -0.285 N 
ATOM     12  H2  UNL     1       0.538   2.476  -0.333  1.00  0.00     0.188 HD
HETATM   13  C8  UNL     1      -0.143   0.483  -0.208  1.00  0.00     0.124 A 
HETATM   14  C15 UNL     1      -3.664   0.858  -1.084  1.00  0.00     0.056 C 
HETATM   15  C16 UNL     1      -4.031  -0.604  -1.230  1.00  0.00     0.017 C 
ENDROOT
BRANCH  13  16
HETATM   16  N3  UNL     1       0.887  -0.219   0.133  1.00  0.00    -0.374 N 
ATOM     17  H3  UNL     1       0.823  -1.229   0.263  1.00  0.00     0.161 HD
BRANCH  16  18
HETATM   18  C9  UNL     1       2.134   0.488   0.323  1.00  0.00     0.126 C 
BRANCH  18  19
HETATM   19  C10 UNL     1       3.169  -0.350   1.028  1.00  0.00     0.006 C 
HETATM   20  C11 UNL     1       3.450  -1.582   0.210  1.00  0.00     0.034 C 
HETATM   21  C12 UNL     1       4.940  -1.760   0.062  1.00  0.00     0.232 C 
HETATM   22  N4  UNL     1       5.554  -0.654  -0.641  1.00  0.00    -0.075 N 
HETATM   23  C13 UNL     1       5.190   0.629  -0.089  1.00  0.00     0.232 C 
ATOM     24  H42 UNL     1       6.568  -0.762  -0.678  1.00  0.00     0.277 HD
ATOM     25  H41 UNL     1       5.347  -0.695  -1.639  1.00  0.00     0.277 HD
HETATM   26  C14 UNL     1       4.407   0.496   1.197  1.00  0.00     0.034 C 
ENDBRANCH  18  19
ENDBRANCH  16  18
ENDBRANCH  13  16
TORSDOF 3
