REMARK  5 active torsions:
REMARK  status: ('A' for Active; 'I' for Inactive)
REMARK       I    between atoms: C1_2  and  N1_3 
REMARK    1  A    between atoms: C1_2  and  C7_18 
REMARK    2  A    between atoms: N1_3  and  C2_5 
REMARK    3  A    between atoms: C2_5  and  N2_7 
REMARK    4  A    between atoms: N2_7  and  C3_9 
REMARK    5  A    between atoms: C5_15  and  C6_16 
ROOT
HETATM    1  C2  UNL     1       1.470  -0.121   1.765  1.00  0.00     0.180 C 
HETATM    2  S1  UNL     1       1.668  -0.631   3.291  1.00  0.00    -0.040 SA
ENDROOT
BRANCH   1   3
HETATM    3  N1  UNL     1       0.188   0.058   1.193  1.00  0.00    -0.303 N 
HETATM    4  C1  UNL     1      -0.961  -0.219   1.985  1.00  0.00     0.228 C 
HETATM    5  O1  UNL     1      -0.872  -0.618   3.174  1.00  0.00    -0.273 OA
ATOM      6  H1  UNL     1       0.090   0.380   0.230  1.00  0.00     0.171 HD
BRANCH   4   7
HETATM    7  C7  UNL     1      -2.288  -0.026   1.369  1.00  0.00     0.078 C 
HETATM    8  C8  UNL     1      -2.396   1.427   0.951  1.00  0.00     0.014 C 
HETATM    9  C9  UNL     1      -3.679   1.647   0.212  1.00  0.00     0.001 C 
HETATM   10  C10 UNL     1      -3.660   0.868  -1.065  1.00  0.00     0.000 C 
HETATM   11  C11 UNL     1      -2.621  -0.198  -1.106  1.00  0.00     0.001 C 
HETATM   12  C12 UNL     1      -2.538  -0.949   0.200  1.00  0.00     0.014 C 
ENDBRANCH   4   7
ENDBRANCH   1   3
BRANCH   1  13
HETATM   13  N2  UNL     1       2.609   0.159   0.963  1.00  0.00    -0.318 N 
ATOM     14  H2  UNL     1       3.182   0.971   1.191  1.00  0.00     0.170 HD
BRANCH  13  15
HETATM   15  C3  UNL     1       2.946  -0.575  -0.043  1.00  0.00     0.131 A 
HETATM   16  N3  UNL     1       2.364  -1.665  -0.523  1.00  0.00    -0.285 N 
HETATM   17  N4  UNL     1       3.051  -2.089  -1.562  1.00  0.00    -0.310 N 
ATOM     18  H3  UNL     1       1.522  -2.103  -0.149  1.00  0.00     0.188 HD
HETATM   19  C4  UNL     1       4.102  -1.284  -1.789  1.00  0.00     0.119 A 
ATOM     20  H4  UNL     1       2.818  -2.913  -2.117  1.00  0.00     0.186 HD
HETATM   21  C5  UNL     1       4.046  -0.310  -0.821  1.00  0.00     0.018 A 
BRANCH  21  22
HETATM   22  C6  UNL     1       4.996   0.814  -0.654  1.00  0.00     0.158 C 
HETATM   23 CL1  UNL     1       4.287   2.333  -1.235  1.00  0.00    -0.125 Cl
ENDBRANCH  21  22
ENDBRANCH  13  15
ENDBRANCH   1  13
TORSDOF 5
