REMARK  4 active torsions:
REMARK  status: ('A' for Active; 'I' for Inactive)
REMARK    1  A    between atoms: C3_3  and  C4_4 
REMARK    2  A    between atoms: C4_4  and  N1_5 
REMARK    3  A    between atoms: N1_5  and  C5_8 
REMARK    4  A    between atoms: C5_8  and  C6_9 
ROOT
HETATM    1  N1  UNL     1       0.305   0.105  -1.312  1.00  0.00    -0.071 N 
ATOM      2  H11 UNL     1       1.101   0.566  -1.753  1.00  0.00     0.277 HD
ATOM      3  H12 UNL     1      -0.105  -0.347  -2.129  1.00  0.00     0.277 HD
ENDROOT
BRANCH   1   4
HETATM    4  C4  UNL     1      -0.616   1.090  -0.751  1.00  0.00     0.270 C 
BRANCH   4   5
HETATM    5  C3  UNL     1      -1.979   0.550  -0.481  1.00  0.00    -0.033 A 
HETATM    6  C2  UNL     1      -2.613  -0.507   0.279  1.00  0.00     0.009 A 
HETATM    7  C1  UNL     1      -3.832  -0.184  -0.149  1.00  0.00     0.001 A 
HETATM    8  C9  UNL     1      -3.216   0.891  -0.927  1.00  0.00     0.009 A 
ENDBRANCH   4   5
ENDBRANCH   1   4
BRANCH   1   9
HETATM    9  C5  UNL     1       0.748  -0.871  -0.363  1.00  0.00     0.237 C 
BRANCH   9  10
HETATM   10  C6  UNL     1       1.691  -0.161   0.620  1.00  0.00     0.011 A 
HETATM   11  C7  UNL     1       2.938   0.446   0.061  1.00  0.00     0.007 A 
HETATM   12  C8  UNL     1       3.010  -0.797   0.924  1.00  0.00     0.007 A 
ENDBRANCH   9  10
ENDBRANCH   1   9
TORSDOF 4
