REMARK  6 active torsions:
REMARK  status: ('A' for Active; 'I' for Inactive)
REMARK    1  A    between atoms: C2_2  and  C3_3 
REMARK    2  A    between atoms: C3_3  and  O1_4 
REMARK    3  A    between atoms: O1_4  and  C4_5 
REMARK    4  A    between atoms: C4_5  and  C5_6 
REMARK    5  A    between atoms: C6_7  and  C7_8 
REMARK    6  A    between atoms: C7_8  and  O2_9 
ROOT
HETATM    1  C5  UNL     1       0.475   0.726  -0.049  1.00  0.00    -0.002 C 
HETATM    2  C6  UNL     1       1.153  -0.142  -0.789  1.00  0.00     0.008 C 
ENDROOT
BRANCH   1   3
HETATM    3  C4  UNL     1      -0.992   0.624   0.022  1.00  0.00     0.195 C 
BRANCH   3   4
HETATM    4  O1  UNL     1      -1.371   0.416   1.357  1.00  0.00    -0.384 OA
BRANCH   4   5
HETATM    5  C3  UNL     1      -2.766   0.326   1.383  1.00  0.00     0.194 C 
BRANCH   5   6
HETATM    6  C2  UNL     1      -3.192  -0.811   0.532  1.00  0.00    -0.011 C 
HETATM    7  C1  UNL     1      -3.979  -0.588  -0.497  1.00  0.00     0.009 C 
ENDBRANCH   5   6
ENDBRANCH   4   5
ENDBRANCH   3   4
ENDBRANCH   1   3
BRANCH   2   8
HETATM    8  C7  UNL     1       2.635  -0.005  -0.835  1.00  0.00     0.076 A 
HETATM    9  C8  UNL     1       3.480  -0.902   0.014  1.00  0.00     0.045 A 
HETATM   10  C9  UNL     1       3.277   0.528   0.409  1.00  0.00     0.045 A 
BRANCH   8  11
HETATM   11  O2  UNL     1       3.111   0.400  -2.088  1.00  0.00    -0.386 OA
ATOM     12  H2  UNL     1       4.057   0.487  -2.117  1.00  0.00     0.211 HD
ENDBRANCH   8  11
ENDBRANCH   2   8
TORSDOF 6
