REMARK  1 active torsions:
REMARK  status: ('A' for Active; 'I' for Inactive)
REMARK    1  A    between atoms: C6_11  and  C7_12 
ROOT
HETATM    1  N1  UNL     1      -1.067   2.189  -0.441  1.00  0.00    -0.104 NA
HETATM    2  C1  UNL     1      -1.321   0.794  -0.398  1.00  0.00     0.060 A 
HETATM    3  C2  UNL     1      -2.499   0.386   0.016  1.00  0.00     0.084 A 
HETATM    4 BR1  UNL     1      -3.813   1.672   0.539  1.00  0.00    -0.045 Br
HETATM    5  C3  UNL     1      -2.844  -1.040   0.092  1.00  0.00     0.213 A 
HETATM    6  O1  UNL     1      -3.964  -1.439   0.485  1.00  0.00    -0.285 OA
HETATM    7  C4  UNL     1      -1.818  -1.977  -0.314  1.00  0.00     0.104 A 
HETATM    8 CL1  UNL     1      -2.107  -3.723  -0.270  1.00  0.00    -0.079 Cl
HETATM    9  C5  UNL     1      -0.648  -1.569  -0.725  1.00  0.00     0.053 A 
HETATM   10 CL2  UNL     1       0.576  -2.781  -1.212  1.00  0.00    -0.086 Cl
HETATM   11  C6  UNL     1      -0.302  -0.148  -0.801  1.00  0.00     0.132 A 
ENDROOT
BRANCH  11  12
HETATM   12  C7  UNL     1       0.993   0.033  -0.099  1.00  0.00     0.039 A 
HETATM   13  C8  UNL     1       1.070  -0.154   1.251  1.00  0.00     0.116 A 
HETATM   14  N2  UNL     1       2.252   0.014   1.873  1.00  0.00    -0.340 N 
HETATM   15  C9  UNL     1       3.345   0.367   1.140  1.00  0.00     0.203 A 
ATOM     16  H2  UNL     1       2.328  -0.121   2.881  1.00  0.00     0.167 HD
HETATM   17  F1  UNL     1       4.563   0.549   1.718  1.00  0.00    -0.185 F 
HETATM   18  C10 UNL     1       3.275   0.557  -0.226  1.00  0.00     0.149 A 
HETATM   19  N3  UNL     1       2.070   0.378  -0.804  1.00  0.00    -0.363 N 
ATOM     20  H3  UNL     1       1.980   0.511  -1.811  1.00  0.00     0.165 HD
ENDBRANCH  11  12
TORSDOF 1
