REMARK  4 active torsions:
REMARK  status: ('A' for Active; 'I' for Inactive)
REMARK    1  A    between atoms: N1_2  and  C2_4 
REMARK    2  A    between atoms: C2_4  and  O1_5 
REMARK    3  A    between atoms: C2_4  and  N2_7 
REMARK    4  A    between atoms: N5_24  and  C13_25 
ROOT
HETATM    1  N2  UNL     1       1.341  -0.001   0.341  1.00  0.00    -0.257 N 
HETATM    2  C3  UNL     1       1.290   1.085   1.359  1.00  0.00     0.358 C 
HETATM    3  F1  UNL     1       0.718   0.603   2.494  1.00  0.00    -0.177 F 
HETATM    4  F2  UNL     1       2.593   1.536   1.596  1.00  0.00    -0.177 F 
HETATM    5  C4  UNL     1       0.511   2.150   0.739  1.00  0.00     0.045 A 
HETATM    6  C5  UNL     1       0.310   3.472   1.080  1.00  0.00     0.016 A 
HETATM    7  C6  UNL     1      -0.482   4.314   0.328  1.00  0.00     0.001 A 
HETATM    8  C7  UNL     1      -1.091   3.811  -0.801  1.00  0.00     0.001 A 
HETATM    9  C8  UNL     1      -0.916   2.476  -1.186  1.00  0.00     0.011 A 
HETATM   10  C9  UNL     1      -0.116   1.704  -0.389  1.00  0.00    -0.005 A 
HETATM   11  C10 UNL     1       0.263   0.247  -0.531  1.00  0.00     0.135 A 
HETATM   12  C11 UNL     1       0.449  -0.020  -1.962  1.00  0.00     0.104 A 
HETATM   13  N3  UNL     1      -0.482  -0.832  -2.393  1.00  0.00    -0.351 N 
ATOM     14  H3  UNL     1      -0.574  -1.166  -3.352  1.00  0.00     0.166 HD
HETATM   15  C12 UNL     1      -1.342  -1.176  -1.321  1.00  0.00     0.131 A 
HETATM   16  N4  UNL     1      -2.429  -1.909  -1.024  1.00  0.00    -0.279 N 
ATOM     17  H4  UNL     1      -2.949  -2.479  -1.692  1.00  0.00     0.189 HD
HETATM   18  N5  UNL     1      -2.728  -1.786   0.257  1.00  0.00    -0.241 N 
HETATM   19  C14 UNL     1      -1.817  -0.955   0.807  1.00  0.00     0.130 A 
HETATM   20  C15 UNL     1      -0.938  -0.559  -0.156  1.00  0.00     0.043 A 
ENDROOT
BRANCH   1  21
HETATM   21  C2  UNL     1       2.308  -1.026   0.331  1.00  0.00     0.221 C 
BRANCH  21  22
HETATM   22  N1  UNL     1       2.459  -2.090  -0.559  1.00  0.00    -0.361 N 
HETATM   23  C1  UNL     1       3.528  -3.044  -0.395  1.00  0.00     0.150 C 
ATOM     24  H1  UNL     1       1.805  -2.194  -1.335  1.00  0.00     0.162 HD
ENDBRANCH  21  22
BRANCH  21  25
HETATM   25  O1  UNL     1       3.205  -1.001   1.280  1.00  0.00    -0.333 OA
ATOM     26  H1  UNL     1       3.102  -0.277   1.886  1.00  0.00     0.220 HD
ENDBRANCH  21  25
ENDBRANCH   1  21
BRANCH  18  27
HETATM   27  C13 UNL     1      -3.836  -2.429   0.944  1.00  0.00     0.479 C 
HETATM   28  F3  UNL     1      -4.981  -1.635   0.791  1.00  0.00    -0.189 F 
HETATM   29  F4  UNL     1      -4.022  -3.662   0.349  1.00  0.00    -0.189 F 
ENDBRANCH  18  27
TORSDOF 4
