REMARK  6 active torsions:
REMARK  status: ('A' for Active; 'I' for Inactive)
REMARK    1  A    between atoms: C3_3  and  C4_4 
REMARK    2  A    between atoms: C5_7  and  O2_8 
REMARK    3  A    between atoms: C5_7  and  C6_10 
REMARK    4  A    between atoms: N3_12  and  O3_14 
REMARK    5  A    between atoms: O3_14  and  C7_15 
REMARK    6  A    between atoms: C7_15  and  C8_17 
ROOT
HETATM    1  C1  UNL     1      -4.194  -0.555   0.956  1.00  0.00     0.069 C 
HETATM    2  C2  UNL     1      -3.223  -0.118  -0.123  1.00  0.00     0.024 C 
HETATM    3  C3  UNL     1      -2.098  -0.743  -0.284  1.00  0.00     0.091 C 
HETATM    4  C5  UNL     1      -1.121  -0.267  -1.310  1.00  0.00     0.229 C 
HETATM    5  N6  UNL     1      -1.669   0.702  -2.170  1.00  0.00    -0.323 N 
ATOM      6  H6  UNL     1      -1.150   0.955  -3.011  1.00  0.00     0.166 HD
HETATM    7  C11 UNL     1      -2.904   1.342  -1.925  1.00  0.00     0.191 C 
HETATM    8  N7  UNL     1      -3.276   2.430  -2.805  1.00  0.00    -0.063 NA
HETATM    9  N8  UNL     1      -3.659   0.977  -0.970  1.00  0.00    -0.334 N 
ATOM     10  H8  UNL     1      -4.551   1.443  -0.803  1.00  0.00     0.168 HD
ENDROOT
BRANCH   4  11
HETATM   11  O2  UNL     1      -0.785  -1.380  -2.141  1.00  0.00    -0.361 OA
ATOM     12  H2  UNL     1      -0.164  -1.077  -2.793  1.00  0.00     0.213 HD
ENDBRANCH   4  11
BRANCH   4  13
HETATM   13  C6  UNL     1       0.149   0.163  -0.675  1.00  0.00     0.174 C 
HETATM   14  N2  UNL     1       0.143   1.206   0.264  1.00  0.00    -0.080 NA
HETATM   15  N3  UNL     1       1.241  -0.412  -0.981  1.00  0.00    -0.242 N 
ATOM     16  H3  UNL     1       1.177  -1.162  -1.670  1.00  0.00     0.196 HD
BRANCH  15  17
HETATM   17  O3  UNL     1       2.475  -0.148  -0.503  1.00  0.00    -0.192 OA
BRANCH  17  18
HETATM   18  C7  UNL     1       2.846  -0.300   0.825  1.00  0.00     0.333 C 
HETATM   19  O4  UNL     1       2.001  -0.710   1.662  1.00  0.00    -0.256 OA
BRANCH  18  20
HETATM   20  C8  UNL     1       4.197   0.009   1.245  1.00  0.00     0.126 A 
HETATM   21  C9  UNL     1       5.243   0.464   0.474  1.00  0.00     0.124 A 
HETATM   22  N4  UNL     1       6.339   0.633   1.232  1.00  0.00    -0.360 N 
HETATM   23  C10 UNL     1       5.985   0.286   2.477  1.00  0.00     0.180 A 
ATOM     24  H4  UNL     1       7.255   0.959   0.923  1.00  0.00     0.166 HD
HETATM   25  N5  UNL     1       4.672  -0.096   2.484  1.00  0.00    -0.346 N 
ATOM     26  H5  UNL     1       4.146  -0.408   3.300  1.00  0.00     0.167 HD
ENDBRANCH  18  20
ENDBRANCH  17  18
ENDBRANCH  15  17
ENDBRANCH   4  13
BRANCH   3  27
HETATM   27  C4  UNL     1      -1.720  -1.887   0.552  1.00  0.00     0.268 C 
HETATM   28  N1  UNL     1      -2.437  -2.473   1.596  1.00  0.00    -0.057 NA
HETATM   29  O1  UNL     1      -0.580  -2.451   0.320  1.00  0.00    -0.271 OA
ENDBRANCH   3  27
TORSDOF 6
