REMARK  6 active torsions:
REMARK  status: ('A' for Active; 'I' for Inactive)
REMARK    1  A    between atoms: C2_2  and  N1_4 
REMARK    2  A    between atoms: C2_2  and  C4_8 
REMARK       I    between atoms: C4_8  and  N2_10 
REMARK    3  A    between atoms: N2_10  and  C5_12 
REMARK    4  A    between atoms: C5_12  and  C6_13 
REMARK    5  A    between atoms: C5_12  and  C7_20 
REMARK       I    between atoms: C6_13  and  N3_15 
REMARK    6  A    between atoms: N3_15  and  N4_17 
ROOT
HETATM    1  C5  UNL     1      -0.333   1.257   0.743  1.00  0.00     0.248 C 
ENDROOT
BRANCH   1   2
HETATM    2  N2  UNL     1      -1.316   0.213   0.587  1.00  0.00    -0.339 N 
HETATM    3  C4  UNL     1      -1.944  -0.411   1.688  1.00  0.00     0.254 C 
HETATM    4  O1  UNL     1      -1.630  -0.038   2.838  1.00  0.00    -0.271 OA
ATOM      5  H2  UNL     1      -1.568  -0.086  -0.355  1.00  0.00     0.163 HD
BRANCH   3   6
HETATM    6  C2  UNL     1      -2.947  -1.477   1.509  1.00  0.00     0.196 C 
HETATM    7  C1  UNL     1      -2.513  -2.784   2.136  1.00  0.00     0.056 C 
HETATM    8  C3  UNL     1      -4.256  -1.069   2.163  1.00  0.00     0.056 C 
BRANCH   6   9
HETATM    9  N1  UNL     1      -3.145  -1.737   0.088  1.00  0.00    -0.062 N 
ATOM     10  H13 UNL     1      -2.328  -2.148  -0.363  1.00  0.00     0.275 HD
ATOM     11  H12 UNL     1      -3.792  -2.505  -0.094  1.00  0.00     0.275 HD
ATOM     12  H11 UNL     1      -3.438  -0.856  -0.335  1.00  0.00     0.275 HD
ENDBRANCH   6   9
ENDBRANCH   3   6
ENDBRANCH   1   2
BRANCH   1  13
HETATM   13  C6  UNL     1      -0.793   2.444  -0.022  1.00  0.00     0.266 C 
HETATM   14  O2  UNL     1      -1.885   2.432  -0.668  1.00  0.00    -0.269 OA
HETATM   15  N3  UNL     1      -0.050   3.652  -0.077  1.00  0.00    -0.275 N 
ATOM     16  H3  UNL     1       0.833   3.695   0.432  1.00  0.00     0.189 HD
BRANCH  15  17
HETATM   17  N4  UNL     1      -0.454   4.782  -0.784  1.00  0.00    -0.343 N 
ATOM     18  H42 UNL     1      -1.339   4.721  -1.287  1.00  0.00     0.176 HD
ATOM     19  H41 UNL     1       0.080   5.650  -0.824  1.00  0.00     0.176 HD
ENDBRANCH  15  17
ENDBRANCH   1  13
BRANCH   1  20
HETATM   20  C7  UNL     1       0.909   0.773   0.063  1.00  0.00     0.132 A 
HETATM   21  N5  UNL     1       0.882   0.192  -1.151  1.00  0.00    -0.322 N 
HETATM   22  C8  UNL     1       2.130  -0.131  -1.494  1.00  0.00     0.215 A 
ATOM     23  H5  UNL     1       0.048   0.027  -1.714  1.00  0.00     0.169 HD
HETATM   24  C9  UNL     1       2.603  -0.741  -2.636  1.00  0.00     0.295 A 
HETATM   25  N9  UNL     1       2.949   0.246  -0.496  1.00  0.00    -0.170 N 
HETATM   26  O3  UNL     1       1.819  -1.088  -3.563  1.00  0.00    -0.264 OA
HETATM   27  N6  UNL     1       3.943  -0.953  -2.726  1.00  0.00    -0.293 N 
HETATM   28  C10 UNL     1       4.764  -0.577  -1.728  1.00  0.00     0.211 A 
ATOM     29  H6  UNL     1       4.329  -1.401  -3.557  1.00  0.00     0.172 HD
HETATM   30  N7  UNL     1       6.172  -0.796  -1.813  1.00  0.00    -0.062 NA
HETATM   31  N8  UNL     1       4.232   0.016  -0.637  1.00  0.00    -0.250 N 
ATOM     32  H8  UNL     1       4.860   0.299   0.115  1.00  0.00     0.192 HD
HETATM   33  N10 UNL     1       2.176   0.798   0.447  1.00  0.00    -0.263 N 
ATOM     34  H10 UNL     1       2.513   1.181   1.330  1.00  0.00     0.190 HD
ENDBRANCH   1  20
TORSDOF 6
