REMARK  5 active torsions:
REMARK  status: ('A' for Active; 'I' for Inactive)
REMARK       I    between atoms: C1_4  and  N3_6 
REMARK    1  A    between atoms: N3_6  and  N4_8 
REMARK    2  A    between atoms: C2_10  and  C3_11 
REMARK       I    between atoms: C3_11  and  N5_13 
REMARK    3  A    between atoms: N5_13  and  N6_15 
REMARK    4  A    between atoms: C5_20  and  N9_21 
REMARK    5  A    between atoms: C9_29  and  N11_30 
ROOT
HETATM    1  N6  UNL     1       0.059   0.089  -0.236  1.00  0.00    -0.158 N 
HETATM    2  N7  UNL     1      -0.344  -1.008  -0.854  1.00  0.00     0.003 NA
HETATM    3  N8  UNL     1      -1.653  -1.146  -0.738  1.00  0.00    -0.275 N 
ATOM      4  H8  UNL     1      -2.212  -1.907  -1.124  1.00  0.00     0.184 HD
HETATM    5  C4  UNL     1      -2.120  -0.108  -0.022  1.00  0.00     0.139 A 
HETATM    6  C5  UNL     1      -3.391   0.238   0.388  1.00  0.00     0.158 A 
HETATM    7  N10 UNL     1      -3.500   1.376   1.111  1.00  0.00    -0.174 N 
ATOM      8  H10 UNL     1      -4.423   1.666   1.433  1.00  0.00     0.186 HD
HETATM    9  C9  UNL     1      -2.443   2.136   1.420  1.00  0.00     0.679 A 
HETATM   10  N12 UNL     1      -1.223   1.776   1.009  1.00  0.00    -0.171 N 
ATOM     11  H12 UNL     1      -0.421   2.359   1.248  1.00  0.00     0.186 HD
HETATM   12  C10 UNL     1      -1.036   0.658   0.286  1.00  0.00     0.190 A 
ENDROOT
BRANCH   1  13
HETATM   13  N5  UNL     1       1.346   0.604  -0.115  1.00  0.00    -0.244 N 
HETATM   14  C3  UNL     1       2.443  -0.068  -0.702  1.00  0.00     0.278 C 
HETATM   15  O1  UNL     1       2.242  -1.133  -1.332  1.00  0.00    -0.265 OA
ATOM     16  H5  UNL     1       1.499   1.471   0.400  1.00  0.00     0.192 HD
BRANCH  14  17
HETATM   17  C2  UNL     1       3.791   0.447  -0.590  1.00  0.00     0.182 C 
HETATM   18  N4  UNL     1       4.775  -0.169  -1.125  1.00  0.00    -0.304 N 
ATOM     19  H4  UNL     1       4.613  -1.035  -1.639  1.00  0.00     0.186 HD
BRANCH  18  20
HETATM   20  N3  UNL     1       6.064   0.336  -1.010  1.00  0.00    -0.274 N 
HETATM   21  C1  UNL     1       7.048  -0.449  -0.368  1.00  0.00     0.200 C 
HETATM   22  N1  UNL     1       7.629  -1.428  -0.959  1.00  0.00    -0.372 N 
HETATM   23  N2  UNL     1       7.394  -0.136   0.969  1.00  0.00    -0.062 NA
ATOM     24  H12 UNL     1       8.339  -1.995  -0.496  1.00  0.00     0.158 HD
ATOM     25  H11 UNL     1       7.380  -1.653  -1.922  1.00  0.00     0.158 HD
ATOM     26  H3  UNL     1       6.296   1.257  -1.382  1.00  0.00     0.189 HD
ENDBRANCH  18  20
ENDBRANCH  14  17
ENDBRANCH   1  13
BRANCH   6  27
HETATM   27  N9  UNL     1      -4.516  -0.568   0.062  1.00  0.00    -0.296 N 
HETATM   28  C6  UNL     1      -4.825  -1.767  -0.646  1.00  0.00     0.180 C 
HETATM   29  C7  UNL     1      -6.210  -1.819  -0.062  1.00  0.00     0.280 C 
HETATM   30  F1  UNL     1      -7.240  -1.793  -0.982  1.00  0.00    -0.238 F 
HETATM   31  C8  UNL     1      -5.909  -0.428   0.376  1.00  0.00     0.261 C 
HETATM   32  O2  UNL     1      -6.649   0.476   0.840  1.00  0.00    -0.270 OA
ENDBRANCH   6  27
BRANCH   9  33
HETATM   33  N11 UNL     1      -2.568   3.211   2.106  1.00  0.00    -0.234 N 
ATOM     34 2H11 UNL     1      -3.499   3.486   2.420  1.00  0.00     0.174 HD
ATOM     35 1H11 UNL     1      -1.762   3.790   2.342  1.00  0.00     0.174 HD
ENDBRANCH   9  33
TORSDOF 5
