REMARK  7 active torsions:
REMARK  status: ('A' for Active; 'I' for Inactive)
REMARK    1  A    between atoms: C2_2  and  C4_4 
REMARK    2  A    between atoms: C4_4  and  O1_5 
REMARK    3  A    between atoms: O1_5  and  C5_6 
REMARK    4  A    between atoms: C5_6  and  O3_8 
REMARK    5  A    between atoms: O3_8  and  C6_9 
REMARK    6  A    between atoms: C6_9  and  C7_11 
REMARK    7  A    between atoms: C8_12  and  N1_13 
ROOT
HETATM    1  O3  UNL     1       1.445  -0.562   0.273  1.00  0.00    -0.210 OA
ENDROOT
BRANCH   1   2
HETATM    2  C5  UNL     1       0.104  -0.987   0.310  1.00  0.00     0.415 C 
HETATM    3  O2  UNL     1      -0.162  -2.197   0.490  1.00  0.00    -0.229 OA
BRANCH   2   4
HETATM    4  O1  UNL     1      -0.926  -0.098   0.151  1.00  0.00    -0.293 OA
BRANCH   4   5
HETATM    5  C4  UNL     1      -2.298  -0.439   0.174  1.00  0.00     0.214 C 
BRANCH   5   6
HETATM    6  C2  UNL     1      -3.063   0.819  -0.035  1.00  0.00    -0.069 C 
HETATM    7  C1  UNL     1      -3.912   1.245   0.871  1.00  0.00     0.016 C 
HETATM    8  C3  UNL     1      -2.830   1.569  -1.301  1.00  0.00     0.044 C 
ENDBRANCH   5   6
ENDBRANCH   4   5
ENDBRANCH   2   4
ENDBRANCH   1   2
BRANCH   1   9
HETATM    9  C6  UNL     1       2.503  -1.443   0.431  1.00  0.00     0.349 C 
HETATM   10  O4  UNL     1       2.230  -2.662   0.613  1.00  0.00    -0.249 OA
BRANCH   9  11
HETATM   11  C7  UNL     1       3.869  -0.970   0.388  1.00  0.00     0.025 C 
HETATM   12  C8  UNL     1       5.004  -0.555   0.353  1.00  0.00     0.014 C 
BRANCH  12  13
HETATM   13  N1  UNL     1       6.324  -0.050   0.302  1.00  0.00    -0.359 N 
ATOM     14  H12 UNL     1       5.375   0.223   0.046  1.00  0.00     0.166 HD
ATOM     15  H11 UNL     1       7.282   0.300   0.272  1.00  0.00     0.166 HD
ENDBRANCH  12  13
ENDBRANCH   9  11
ENDBRANCH   1   9
TORSDOF 7
