REMARK  4 active torsions:
REMARK  status: ('A' for Active; 'I' for Inactive)
REMARK    1  A    between atoms: O1_2  and  C2_3 
REMARK    2  A    between atoms: C3_5  and  C4_6 
REMARK    3  A    between atoms: C4_6  and  O3_7 
REMARK    4  A    between atoms: C6_11  and  O5_13 
ROOT
HETATM    1  C2  UNL     1      -0.631   0.309   0.175  1.00  0.00     0.327 C 
HETATM    2  O2  UNL     1       0.596   0.542   0.849  1.00  0.00    -0.315 OA
HETATM    3  C3  UNL     1       1.747   0.090   0.207  1.00  0.00     0.095 C 
HETATM    4  C5  UNL     1       1.635  -0.830  -0.729  1.00  0.00     0.173 C 
HETATM    5  O4  UNL     1       0.397  -1.373  -1.106  1.00  0.00    -0.319 OA
HETATM    6  C6  UNL     1      -0.667  -1.163  -0.166  1.00  0.00     0.213 C 
HETATM    7  C7  UNL     1      -1.949  -1.568  -0.817  1.00  0.00     0.085 C 
ENDROOT
BRANCH   3   8
HETATM    8  C4  UNL     1       3.064   0.657   0.597  1.00  0.00     0.230 C 
BRANCH   8   9
HETATM    9  O3  UNL     1       3.120   2.032   0.398  1.00  0.00    -0.394 OA
ATOM     10  H3  UNL     1       3.962   2.394   0.647  1.00  0.00     0.209 HD
ENDBRANCH   8   9
ENDBRANCH   3   8
BRANCH   1  11
HETATM   11  O1  UNL     1      -1.646   0.706   1.000  1.00  0.00    -0.360 OA
HETATM   12  C1  UNL     1      -2.405   1.671   0.345  1.00  0.00     0.205 C 
ENDBRANCH   1  11
BRANCH   6  13
HETATM   13  O5  UNL     1      -0.402  -1.973   0.926  1.00  0.00    -0.362 OA
ATOM     14  H5  UNL     1      -0.425  -2.898   0.712  1.00  0.00     0.213 HD
ENDBRANCH   6  13
TORSDOF 4
