REMARK  5 active torsions:
REMARK  status: ('A' for Active; 'I' for Inactive)
REMARK    1  A    between atoms: C2_2  and  C3_6 
REMARK    2  A    between atoms: C3_6  and  N2_7 
REMARK    3  A    between atoms: C3_6  and  C4_11 
REMARK    4  A    between atoms: C4_11  and  O2_13 
REMARK    5  A    between atoms: O2_13  and  C5_14 
ROOT
HETATM    1  C5  UNL     1      -2.063  -0.147  -0.477  1.00  0.00     0.151 C 
HETATM    2  C6  UNL     1      -1.668  -0.325  -1.927  1.00  0.00     0.063 C 
HETATM    3  C7  UNL     1      -2.678   1.216  -0.302  1.00  0.00     0.063 C 
HETATM    4  C8  UNL     1      -3.123  -1.133  -0.201  1.00  0.00     0.097 C 
HETATM    5  N3  UNL     1      -3.948  -1.920   0.006  1.00  0.00    -0.194 NA
ENDROOT
BRANCH   1   6
HETATM    6  O2  UNL     1      -1.018  -0.402   0.411  1.00  0.00    -0.294 OA
BRANCH   6   7
HETATM    7  C4  UNL     1       0.157   0.331   0.365  1.00  0.00     0.297 C 
HETATM    8  O1  UNL     1       0.205   1.223  -0.519  1.00  0.00    -0.262 OA
BRANCH   7   9
HETATM    9  C3  UNL     1       1.301   0.090   1.298  1.00  0.00     0.326 C 
BRANCH   9  10
HETATM   10  C2  UNL     1       2.526  -0.191   0.545  1.00  0.00     0.016 C 
HETATM   11  C1  UNL     1       3.078   0.811  -0.408  1.00  0.00     0.065 C 
HETATM   12  N1  UNL     1       3.138  -1.286   0.689  1.00  0.00    -0.404 N 
ATOM     13  H12 UNL     1       3.991  -1.482   0.165  1.00  0.00     0.155 HD
ATOM     14  H11 UNL     1       2.760  -1.972   1.342  1.00  0.00     0.155 HD
ENDBRANCH   9  10
BRANCH   9  15
HETATM   15  N2  UNL     1       0.949  -0.995   2.197  1.00  0.00    -0.061 N 
ATOM     16  H23 UNL     1       0.880  -1.881   1.697  1.00  0.00     0.275 HD
ATOM     17  H22 UNL     1       1.722  -1.222   2.822  1.00  0.00     0.275 HD
ATOM     18  H21 UNL     1       0.096  -0.799   2.721  1.00  0.00     0.275 HD
ENDBRANCH   9  15
ENDBRANCH   7   9
ENDBRANCH   6   7
ENDBRANCH   1   6
TORSDOF 5
