REMARK  3 active torsions:
REMARK  status: ('A' for Active; 'I' for Inactive)
REMARK    1  A    between atoms: C2_2  and  C3_3 
REMARK    2  A    between atoms: C3_3  and  C4_4 
REMARK    3  A    between atoms: C6_9  and  N3_10 
ROOT
HETATM    1  C3  UNL     1      -0.547   0.092  -0.273  1.00  0.00     0.171 C 
HETATM    2  N1  UNL     1       0.503   0.377  -1.188  1.00  0.00    -0.300 N 
ATOM      3  H1  UNL     1       0.371   0.252  -2.192  1.00  0.00     0.179 HD
HETATM    4  N2  UNL     1       1.688   0.820  -0.691  1.00  0.00    -0.086 NA
HETATM    5  C6  UNL     1       2.234  -0.134   0.225  1.00  0.00     0.433 C 
HETATM    6  N4  UNL     1       1.166  -0.769   0.973  1.00  0.00    -0.140 N 
HETATM    7  C7  UNL     1       1.523  -1.837   1.805  1.00  0.00     0.209 C 
HETATM    8  N5  UNL     1       1.839  -2.722   2.499  1.00  0.00    -0.170 NA
HETATM    9  O1  UNL     1      -0.109  -0.406   0.918  1.00  0.00    -0.231 OA
ENDROOT
BRANCH   5  10
HETATM   10  N3  UNL     1       2.961  -1.194  -0.464  1.00  0.00    -0.040 N 
ATOM     11  H33 UNL     1       2.378  -1.647  -1.168  1.00  0.00     0.278 HD
ATOM     12  H32 UNL     1       3.682  -0.812  -1.076  1.00  0.00     0.278 HD
ATOM     13  H31 UNL     1       3.350  -1.874   0.189  1.00  0.00     0.278 HD
ENDBRANCH   5  10
BRANCH   1  14
HETATM   14  C2  UNL     1      -1.386   1.360  -0.081  1.00  0.00     0.060 C 
HETATM   15  C1  UNL     1      -0.633   2.448   0.610  1.00  0.00     0.010 C 
ENDBRANCH   1  14
BRANCH   1  16
HETATM   16  C4  UNL     1      -1.493  -0.887  -0.989  1.00  0.00     0.060 C 
HETATM   17  C5  UNL     1      -2.713  -1.167  -0.168  1.00  0.00     0.010 C 
ENDBRANCH   1  16
TORSDOF 3
