REMARK  3 active torsions:
REMARK  status: ('A' for Active; 'I' for Inactive)
REMARK    1  A    between atoms: C2_2  and  C4_4 
REMARK    2  A    between atoms: C6_8  and  C7_9 
REMARK    3  A    between atoms: C9_12  and  C10_13 
ROOT
HETATM    1  C4  UNL     1       0.680  -0.241  -0.261  1.00  0.00     0.035 C 
HETATM    2  C5  UNL     1       0.104  -0.483  -1.637  1.00  0.00     0.133 C 
HETATM    3  N1  UNL     1      -1.282  -0.796  -1.650  1.00  0.00    -0.394 N 
ATOM      4  H1  UNL     1      -1.787  -0.974  -2.518  1.00  0.00     0.155 HD
HETATM    5  C6  UNL     1      -1.932  -0.848  -0.366  1.00  0.00     0.127 C 
HETATM    6  C8  UNL     1      -2.215   0.482   0.235  1.00  0.00     0.063 C 
HETATM    7  C9  UNL     1      -1.055   1.082   0.996  1.00  0.00     0.019 C 
HETATM    8  C11 UNL     1       0.224   1.102   0.204  1.00  0.00     0.026 C 
HETATM    9  N2  UNL     1      -1.040  -1.633   0.507  1.00  0.00    -0.353 N 
ATOM     10  H2  UNL     1      -1.422  -2.398   1.063  1.00  0.00     0.163 HD
HETATM   11  C12 UNL     1       0.217  -1.362   0.575  1.00  0.00     0.101 C 
HETATM   12  N3  UNL     1       1.154  -2.058   1.381  1.00  0.00    -0.087 NA
ENDROOT
BRANCH   1  13
HETATM   13  C2  UNL     1       2.190  -0.246  -0.337  1.00  0.00    -0.006 C 
HETATM   14  C1  UNL     1       2.857  -0.013   0.968  1.00  0.00     0.011 C 
HETATM   15  C3  UNL     1       2.719   0.702  -1.368  1.00  0.00     0.011 C 
ENDBRANCH   1  13
BRANCH   7  16
HETATM   16  C10 UNL     1      -1.416   2.553   1.238  1.00  0.00     0.227 C 
HETATM   17  F2  UNL     1      -2.575   2.668   1.969  1.00  0.00    -0.255 F 
ENDBRANCH   7  16
BRANCH   5  18
HETATM   18  C7  UNL     1      -3.190  -1.685  -0.495  1.00  0.00     0.275 C 
HETATM   19  F1  UNL     1      -4.076  -1.162  -1.413  1.00  0.00    -0.251 F 
ENDBRANCH   5  18
TORSDOF 3
