REMARK  4 active torsions:
REMARK  status: ('A' for Active; 'I' for Inactive)
REMARK    1  A    between atoms: O1_2  and  C2_3 
REMARK    2  A    between atoms: C2_3  and  C3_4 
REMARK    3  A    between atoms: C6_11  and  C7_12 
REMARK    4  A    between atoms: C8_13  and  C9_14 
ROOT
HETATM    1  C3  UNL     1      -3.025  -0.129  -0.632  1.00  0.00     0.090 A 
HETATM    2  N1  UNL     1      -4.120  -0.844  -0.491  1.00  0.00    -0.297 N 
ATOM      3  H1  UNL     1      -5.072  -0.493  -0.592  1.00  0.00     0.187 HD
HETATM    4  N2  UNL     1      -3.777  -2.142  -0.186  1.00  0.00    -0.303 N 
ATOM      5  H2  UNL     1      -4.426  -2.913  -0.027  1.00  0.00     0.186 HD
HETATM    6  C4  UNL     1      -2.467  -2.211  -0.136  1.00  0.00     0.043 A 
HETATM    7  C5  UNL     1      -1.569  -3.356   0.174  1.00  0.00     0.071 C 
HETATM    8  C6  UNL     1      -1.958  -0.939  -0.419  1.00  0.00     0.071 A 
ENDROOT
BRANCH   8   9
HETATM    9  C7  UNL     1      -0.572  -0.587  -0.304  1.00  0.00    -0.057 C 
HETATM   10  C8  UNL     1       0.569  -0.316  -0.061  1.00  0.00    -0.060 C 
BRANCH  10  11
HETATM   11  C9  UNL     1       1.945  -0.091   0.351  1.00  0.00     0.033 A 
HETATM   12  C10 UNL     1       2.417  -0.772   1.447  1.00  0.00     0.023 A 
HETATM   13  C11 UNL     1       3.692  -0.641   1.820  1.00  0.00     0.019 A 
HETATM   14  C12 UNL     1       4.552   0.146   1.131  1.00  0.00     0.090 A 
HETATM   15  N3  UNL     1       4.104   0.830   0.033  1.00  0.00    -0.369 N 
HETATM   16  C13 UNL     1       5.047   1.692  -0.637  1.00  0.00     0.154 C 
HETATM   17  C14 UNL     1       2.809   0.705  -0.337  1.00  0.00     0.110 A 
ENDBRANCH  10  11
ENDBRANCH   8   9
BRANCH   1  18
HETATM   18  C2  UNL     1      -2.852   1.246  -1.261  1.00  0.00     0.166 C 
BRANCH  18  19
HETATM   19  O1  UNL     1      -3.056   2.332  -0.633  1.00  0.00    -0.365 OA
HETATM   20  C1  UNL     1      -4.020   2.863   0.044  1.00  0.00     0.209 C 
ENDBRANCH  18  19
ENDBRANCH   1  18
TORSDOF 4
