REMARK  3 active torsions:
REMARK  status: ('A' for Active; 'I' for Inactive)
REMARK    1  A    between atoms: C2_2  and  C3_3 
REMARK    2  A    between atoms: N1_6  and  O1_7 
REMARK    3  A    between atoms: N3_13  and  C8_14 
ROOT
HETATM    1  C3  UNL     1      -1.058   0.319  -0.354  1.00  0.00     0.059 A 
HETATM    2  C4  UNL     1      -2.403  -0.010  -0.358  1.00  0.00     0.062 A 
HETATM    3  C5  UNL     1      -3.418   1.001  -0.739  1.00  0.00     0.073 C 
HETATM    4  N1  UNL     1      -2.803  -1.254  -0.017  1.00  0.00    -0.214 N 
HETATM    5  C6  UNL     1      -1.937  -2.218   0.336  1.00  0.00     0.120 A 
HETATM    6  C7  UNL     1      -2.404  -3.587   0.708  1.00  0.00     0.093 C 
HETATM    7  N2  UNL     1      -0.635  -1.886   0.336  1.00  0.00    -0.280 N 
ATOM      8  H2  UNL     1       0.053  -2.592   0.599  1.00  0.00     0.189 HD
HETATM    9  N3  UNL     1      -0.208  -0.658   0.002  1.00  0.00    -0.257 N 
ENDROOT
BRANCH   9  10
HETATM   10  C8  UNL     1       1.186  -0.367   0.020  1.00  0.00     0.056 A 
HETATM   11  C9  UNL     1       1.753   0.138   1.165  1.00  0.00     0.033 A 
HETATM   12  C10 UNL     1       3.083   0.431   1.242  1.00  0.00     0.029 A 
HETATM   13  C11 UNL     1       3.869   0.204   0.114  1.00  0.00     0.046 A 
HETATM   14  N4  UNL     1       5.253   0.513   0.210  1.00  0.00    -0.102 NA
HETATM   15  C12 UNL     1       3.297  -0.302  -1.034  1.00  0.00     0.029 A 
HETATM   16  C13 UNL     1       1.951  -0.594  -1.097  1.00  0.00     0.033 A 
ENDBRANCH   9  10
BRANCH   1  17
HETATM   17  C2  UNL     1      -0.580   1.664  -0.717  1.00  0.00     0.057 C 
HETATM   18  C1  UNL     1      -0.784   2.696   0.356  1.00  0.00     0.011 C 
ENDBRANCH   1  17
BRANCH   4  19
HETATM   19  O1  UNL     1      -4.155  -1.594  -0.018  1.00  0.00    -0.281 OA
ATOM     20  H1  UNL     1      -4.436  -2.469   0.222  1.00  0.00     0.245 HD
ENDBRANCH   4  19
TORSDOF 3
