REMARK  3 active torsions:
REMARK  status: ('A' for Active; 'I' for Inactive)
REMARK    1  A    between atoms: C6_9  and  O4_10 
REMARK    2  A    between atoms: C7_12  and  C8_13 
REMARK    3  A    between atoms: C12_17  and  N1_18 
ROOT
HETATM    1  C1  UNL     1      -4.339   0.483  -0.741  1.00  0.00     0.078 C 
HETATM    2  C2  UNL     1      -3.388   0.054   0.342  1.00  0.00     0.165 C 
HETATM    3  C3  UNL     1      -4.187  -0.377   1.530  1.00  0.00     0.078 C 
HETATM    4  O1  UNL     1      -2.660   1.234   0.698  1.00  0.00    -0.303 OA
HETATM    5  C4  UNL     1      -1.409   0.850   0.558  1.00  0.00     0.418 C 
HETATM    6  O2  UNL     1      -1.429  -0.251   1.469  1.00  0.00    -0.305 OA
HETATM    7  C5  UNL     1      -1.471  -1.309   0.557  1.00  0.00     0.300 C 
HETATM    8  O3  UNL     1      -2.596  -0.968  -0.187  1.00  0.00    -0.323 OA
HETATM    9  C6  UNL     1      -0.126  -1.044  -0.125  1.00  0.00     0.207 C 
HETATM   10  C7  UNL     1       0.612   0.131   0.501  1.00  0.00     0.193 C 
HETATM   11  O7  UNL     1      -0.202   1.286   0.705  1.00  0.00    -0.326 OA
ENDROOT
BRANCH  10  12
HETATM   12  C8  UNL     1       1.861   0.437  -0.147  1.00  0.00    -0.024 A 
HETATM   13  C9  UNL     1       1.939   1.272  -1.243  1.00  0.00     0.010 A 
HETATM   14  C10 UNL     1       3.156   1.540  -1.836  1.00  0.00     0.003 A 
HETATM   15  C11 UNL     1       4.311   0.980  -1.346  1.00  0.00     0.036 A 
HETATM   16  C12 UNL     1       4.275   0.130  -0.240  1.00  0.00     0.103 A 
HETATM   17  C13 UNL     1       3.044  -0.106   0.316  1.00  0.00     0.045 A 
BRANCH  16  18
HETATM   18  N1  UNL     1       5.453  -0.451   0.272  1.00  0.00    -0.116 N 
HETATM   19  O5  UNL     1       6.546  -0.217  -0.252  1.00  0.00    -0.532 OA
HETATM   20  O6  UNL     1       5.388  -1.279   1.356  1.00  0.00    -0.532 OA
ENDBRANCH  16  18
ENDBRANCH  10  12
BRANCH   9  21
HETATM   21  O4  UNL     1       0.673  -2.159   0.112  1.00  0.00    -0.388 OA
ATOM     22  H4  UNL     1       1.508  -1.995  -0.311  1.00  0.00     0.210 HD
ENDBRANCH   9  21
TORSDOF 3
