REMARK  4 active torsions:
REMARK  status: ('A' for Active; 'I' for Inactive)
REMARK    1  A    between atoms: C3_3  and  C4_4 
REMARK    2  A    between atoms: C5_5  and  O1_6 
REMARK    3  A    between atoms: C12_19  and  O5_20 
REMARK    4  A    between atoms: O5_20  and  C13_21 
ROOT
HETATM    1  C4  UNL     1       0.539   0.952  -0.327  1.00  0.00     0.089 C 
HETATM    2  C5  UNL     1      -0.058   1.906   0.639  1.00  0.00     0.227 C 
HETATM    3  N1  UNL     1      -1.472   1.953   0.485  1.00  0.00    -0.368 N 
ATOM      4  H1  UNL     1      -1.824   2.910   0.493  1.00  0.00     0.161 HD
HETATM    5  C6  UNL     1      -2.386   1.124   0.343  1.00  0.00     0.018 C 
HETATM    6  C7  UNL     1      -3.799   1.667   0.212  1.00  0.00     0.066 C 
HETATM    7  C8  UNL     1      -2.359  -0.324   0.274  1.00  0.00     0.136 C 
HETATM    8  C9  UNL     1      -3.629  -0.912  -0.301  1.00  0.00     0.056 C 
HETATM    9  O2  UNL     1      -2.168  -0.983   1.535  1.00  0.00    -0.278 OA
HETATM   10  C10 UNL     1      -1.804  -2.284   1.141  1.00  0.00     0.408 C 
HETATM   11  O3  UNL     1      -1.926  -3.264   1.942  1.00  0.00    -0.229 OA
HETATM   12  O4  UNL     1      -1.334  -2.271  -0.166  1.00  0.00    -0.286 OA
HETATM   13  C11 UNL     1      -1.184  -0.891  -0.494  1.00  0.00     0.205 C 
HETATM   14  C12 UNL     1       0.129  -0.457   0.065  1.00  0.00     0.176 C 
ENDROOT
BRANCH  14  15
HETATM   15  O5  UNL     1       1.120  -1.323  -0.468  1.00  0.00    -0.313 OA
BRANCH  15  16
HETATM   16  C13 UNL     1       1.942  -2.105   0.332  1.00  0.00     0.255 C 
HETATM   17  C14 UNL     1       2.950  -2.981  -0.332  1.00  0.00     0.126 C 
HETATM   18  O6  UNL     1       1.799  -2.037   1.562  1.00  0.00    -0.266 OA
ENDBRANCH  15  16
ENDBRANCH  14  15
BRANCH   1  19
HETATM   19  C3  UNL     1       2.009   0.970  -0.447  1.00  0.00    -0.020 C 
HETATM   20  C2  UNL     1       2.874   1.670   0.226  1.00  0.00    -0.034 C 
HETATM   21  C1  UNL     1       4.338   1.569  -0.025  1.00  0.00     0.036 C 
ENDBRANCH   1  19
BRANCH   2  22
HETATM   22  O1  UNL     1       0.454   3.210   0.491  1.00  0.00    -0.376 OA
ATOM     23  H1  UNL     1       0.072   3.821   1.110  1.00  0.00     0.212 HD
ENDBRANCH   2  22
TORSDOF 4
