REMARK  5 active torsions:
REMARK  status: ('A' for Active; 'I' for Inactive)
REMARK    1  A    between atoms: O1_2  and  C2_3 
REMARK    2  A    between atoms: C2_3  and  C3_5 
REMARK    3  A    between atoms: C4_7  and  O4_8 
REMARK    4  A    between atoms: C6_11  and  O5_12 
REMARK    5  A    between atoms: O5_12  and  C7_13 
ROOT
HETATM    1  C3  UNL     1       1.856   0.309   0.451  1.00  0.00     0.372 C 
HETATM    2  O3  UNL     1       2.368   0.344  -0.863  1.00  0.00    -0.289 OA
HETATM    3  C4  UNL     1       2.443  -0.840  -1.584  1.00  0.00     0.181 C 
HETATM    4  C5  UNL     1       1.471  -1.725  -1.354  1.00  0.00     0.096 C 
HETATM    5  C6  UNL     1       0.444  -1.335  -0.367  1.00  0.00     0.296 C 
HETATM    6  O7  UNL     1       1.090  -0.792   0.727  1.00  0.00    -0.318 OA
ENDROOT
BRANCH   5   7
HETATM    7  O5  UNL     1      -0.429  -0.377  -0.876  1.00  0.00    -0.324 OA
BRANCH   7   8
HETATM    8  C7  UNL     1      -1.768  -0.812  -0.791  1.00  0.00     0.299 A 
HETATM    9  O6  UNL     1      -2.270  -0.795  -2.073  1.00  0.00    -0.328 OA
HETATM   10  C8  UNL     1      -3.288   0.009  -2.496  1.00  0.00     0.139 A 
HETATM   11  C9  UNL     1      -3.902   0.865  -1.697  1.00  0.00     0.031 A 
HETATM   12  C10 UNL     1      -3.421   0.898  -0.326  1.00  0.00    -0.053 A 
HETATM   13  C11 UNL     1      -4.032   1.827   0.686  1.00  0.00     0.048 C 
HETATM   14  C12 UNL     1      -2.447   0.138   0.101  1.00  0.00    -0.023 A 
HETATM   15  C13 UNL     1      -2.018   0.248   1.552  1.00  0.00     0.049 C 
ENDBRANCH   7   8
ENDBRANCH   5   7
BRANCH   3  16
HETATM   16  O4  UNL     1       3.460  -1.104  -2.493  1.00  0.00    -0.341 OA
ATOM     17  H4  UNL     1       3.511  -1.914  -2.986  1.00  0.00     0.220 HD
ENDBRANCH   3  16
BRANCH   1  18
HETATM   18  C2  UNL     1       3.018   0.295   1.398  1.00  0.00     0.314 C 
HETATM   19  O2  UNL     1       2.852   0.265   2.649  1.00  0.00    -0.260 OA
BRANCH  18  20
HETATM   20  O1  UNL     1       4.326   0.316   0.931  1.00  0.00    -0.323 OA
HETATM   21  C1  UNL     1       5.399   0.302   1.842  1.00  0.00     0.213 C 
ENDBRANCH  18  20
ENDBRANCH   1  18
TORSDOF 5
