REMARK  3 active torsions:
REMARK  status: ('A' for Active; 'I' for Inactive)
REMARK    1  A    between atoms: C5_7  and  O3_8 
REMARK    2  A    between atoms: O3_8  and  C6_9 
REMARK    3  A    between atoms: C7_12  and  C8_13 
ROOT
HETATM    1  C1  UNL     1      -4.039  -1.432  -0.253  1.00  0.00     0.078 C 
HETATM    2  C2  UNL     1      -3.084  -0.275  -0.032  1.00  0.00     0.160 C 
HETATM    3  C3  UNL     1      -3.857   0.983  -0.373  1.00  0.00     0.078 C 
HETATM    4  O1  UNL     1      -2.658  -0.171   1.263  1.00  0.00    -0.323 OA
HETATM    5  C4  UNL     1      -1.264   0.040   1.221  1.00  0.00     0.296 C 
HETATM    6  O2  UNL     1      -0.941   1.364   1.101  1.00  0.00    -0.327 OA
HETATM    7  C5  UNL     1      -0.200   1.555  -0.030  1.00  0.00     0.286 C 
HETATM    8  C7  UNL     1       0.279   0.225  -0.525  1.00  0.00     0.108 C 
HETATM    9  C14 UNL     1      -0.889  -0.656  -0.054  1.00  0.00     0.193 C 
HETATM   10  O6  UNL     1      -1.994  -0.489  -0.839  1.00  0.00    -0.345 OA
ENDROOT
BRANCH   8  11
HETATM   11  C8  UNL     1       1.531  -0.252   0.049  1.00  0.00    -0.045 A 
HETATM   12  C9  UNL     1       1.925   0.026   1.334  1.00  0.00     0.008 A 
HETATM   13  C10 UNL     1       3.125  -0.454   1.859  1.00  0.00     0.002 A 
HETATM   14  C11 UNL     1       3.939  -1.230   1.062  1.00  0.00     0.026 A 
HETATM   15  C12 UNL     1       3.563  -1.527  -0.249  1.00  0.00     0.046 A 
HETATM   16  N1  UNL     1       4.444  -2.322  -0.997  1.00  0.00    -0.102 NA
HETATM   17  C13 UNL     1       2.370  -1.035  -0.734  1.00  0.00     0.034 A 
ENDBRANCH   8  11
BRANCH   7  18
HETATM   18  O3  UNL     1       0.834   2.501   0.113  1.00  0.00    -0.263 OA
BRANCH  18  19
HETATM   19  C6  UNL     1       0.881   3.660  -0.634  1.00  0.00     0.335 C 
HETATM   20  O4  UNL     1      -0.063   3.829  -1.462  1.00  0.00    -0.624 OA
HETATM   21  O5  UNL     1       1.905   4.603  -0.498  1.00  0.00    -0.624 OA
ENDBRANCH  18  19
ENDBRANCH   7  18
TORSDOF 3
