REMARK  3 active torsions:
REMARK  status: ('A' for Active; 'I' for Inactive)
REMARK    1  A    between atoms: C2_2  and  C3_3 
REMARK    2  A    between atoms: C3_3  and  C5_5 
REMARK    3  A    between atoms: C13_19  and  O7_20 
ROOT
HETATM    1  C5  UNL     1       1.991   0.140  -0.012  1.00  0.00     0.152 C 
HETATM    2  C6  UNL     1       2.123  -1.329  -0.011  1.00  0.00     0.200 C 
HETATM    3  O1  UNL     1       0.909  -1.936  -0.363  1.00  0.00    -0.376 OA
HETATM    4  C7  UNL     1      -0.079  -1.542   0.494  1.00  0.00     0.213 C 
HETATM    5  C8  UNL     1      -0.209  -0.019   0.295  1.00  0.00     0.298 C 
HETATM    6  O2  UNL     1       0.914   0.524   0.843  1.00  0.00    -0.351 OA
HETATM    7  O3  UNL     1      -1.381   0.216   0.957  1.00  0.00    -0.295 OA
HETATM    8  C9  UNL     1      -2.267  -0.704   0.403  1.00  0.00     0.345 C 
HETATM    9  O4  UNL     1      -3.278  -1.005   1.342  1.00  0.00    -0.165 OA
HETATM   10  O5  UNL     1      -3.921   0.166   1.349  1.00  0.00    -0.196 OA
HETATM   11  C10 UNL     1      -4.092   0.375  -0.020  1.00  0.00     0.196 C 
HETATM   12  C11 UNL     1      -5.348  -0.370  -0.421  1.00  0.00     0.081 C 
HETATM   13  C12 UNL     1      -4.197   1.851  -0.313  1.00  0.00     0.081 C 
HETATM   14  O6  UNL     1      -2.993  -0.213  -0.650  1.00  0.00    -0.290 OA
HETATM   15  C13 UNL     1      -1.462  -1.940   0.067  1.00  0.00     0.247 C 
ENDROOT
BRANCH  15  16
HETATM   16  O7  UNL     1      -1.961  -3.039   0.713  1.00  0.00    -0.385 OA
ATOM     17  H7  UNL     1      -2.836  -3.291   0.443  1.00  0.00     0.210 HD
ENDBRANCH  15  16
BRANCH   1  18
HETATM   18  C3  UNL     1       3.134   0.978   0.384  1.00  0.00     0.012 C 
HETATM   19  C4  UNL     1       2.601   2.444   0.259  1.00  0.00     0.012 C 
BRANCH  18  20
HETATM   20  C2  UNL     1       4.396   0.916  -0.377  1.00  0.00     0.002 C 
HETATM   21  C1  UNL     1       5.062  -0.417  -0.334  1.00  0.00     0.005 C 
ENDBRANCH  18  20
ENDBRANCH   1  18
TORSDOF 3
