REMARK  5 active torsions:
REMARK  status: ('A' for Active; 'I' for Inactive)
REMARK    1  A    between atoms: N1_4  and  C4_5 
REMARK    2  A    between atoms: C4_5  and  C5_6 
REMARK    3  A    between atoms: C5_6  and  N2_7 
REMARK    4  A    between atoms: C6_8  and  O1_9 
REMARK    5  A    between atoms: C9_13  and  O2_14 
ROOT
HETATM    1  N2  UNL     1      -0.059  -0.506   0.048  1.00  0.00    -0.306 N 
HETATM    2  C6  UNL     1      -0.933  -1.090   0.890  1.00  0.00     0.152 A 
HETATM    3  C7  UNL     1      -2.191  -0.697   0.518  1.00  0.00     0.013 A 
HETATM    4  C8  UNL     1      -2.047   0.140  -0.571  1.00  0.00     0.031 A 
HETATM    5  C9  UNL     1      -0.696   0.253  -0.858  1.00  0.00     0.153 A 
HETATM    6  C10 UNL     1      -3.423   0.563  -0.975  1.00  0.00     0.087 C 
HETATM    7 CL1  UNL     1      -3.597   1.130  -2.563  1.00  0.00    -0.109 Cl
HETATM    8  C11 UNL     1      -3.956   1.399   0.138  1.00  0.00     0.001 C 
HETATM    9  C12 UNL     1      -4.095   0.586   1.212  1.00  0.00    -0.019 C 
HETATM   10  C13 UNL     1      -3.647  -0.778   0.784  1.00  0.00     0.048 C 
HETATM   11  C14 UNL     1      -4.176  -0.750  -0.662  1.00  0.00     0.048 C 
ENDROOT
BRANCH   1  12
HETATM   12  C5  UNL     1       1.377  -0.679   0.101  1.00  0.00     0.163 C 
BRANCH  12  13
HETATM   13  C4  UNL     1       1.987   0.352   1.012  1.00  0.00     0.293 C 
BRANCH  13  14
HETATM   14  N1  UNL     1       3.376   0.205   1.097  1.00  0.00     0.098 N 
HETATM   15  C2  UNL     1       4.365   0.443   0.133  1.00  0.00     0.247 A 
HETATM   16  C1  UNL     1       4.188   1.003  -1.218  1.00  0.00     0.045 C 
HETATM   17  C3  UNL     1       3.948  -0.970   0.466  1.00  0.00     0.308 A 
ENDBRANCH  13  14
ENDBRANCH  12  13
ENDBRANCH   1  12
BRANCH   2  18
HETATM   18  O1  UNL     1      -0.593  -1.929   1.928  1.00  0.00    -0.345 OA
ATOM     19  H1  UNL     1      -1.209  -2.341   2.522  1.00  0.00     0.219 HD
ENDBRANCH   2  18
BRANCH   5  20
HETATM   20  O2  UNL     1      -0.108   1.012  -1.892  1.00  0.00    -0.345 OA
ATOM     21  H2  UNL     1      -0.559   1.549  -2.533  1.00  0.00     0.219 HD
ENDBRANCH   5  20
TORSDOF 5
