REMARK  3 active torsions:
REMARK  status: ('A' for Active; 'I' for Inactive)
REMARK    1  A    between atoms: C7_8  and  O1_9 
REMARK    2  A    between atoms: O1_9  and  C8_10 
REMARK    3  A    between atoms: C8_10  and  C9_12 
ROOT
HETATM    1  O1  UNL     1       1.331  -0.409  -0.306  1.00  0.00    -0.312 OA
ENDROOT
BRANCH   1   2
HETATM    2  C7  UNL     1       0.077  -0.762   0.265  1.00  0.00     0.136 C 
HETATM    3  C6  UNL     1      -0.255   0.396   1.234  1.00  0.00     0.068 C 
HETATM    4  C5  UNL     1      -1.721   0.738   1.183  1.00  0.00     0.225 C 
HETATM    5  N1  UNL     1      -2.409  -0.500   1.009  1.00  0.00     0.093 N 
HETATM    6  C4  UNL     1      -1.966   1.588  -0.041  1.00  0.00     0.038 C 
HETATM    7  C1  UNL     1      -3.696  -0.528   1.621  1.00  0.00     0.310 C 
HETATM    8  C2  UNL     1      -2.368  -0.674  -0.403  1.00  0.00     0.225 C 
HETATM    9  C3  UNL     1      -2.738   0.703  -0.968  1.00  0.00     0.038 C 
HETATM   10  C13 UNL     1      -0.927  -0.925  -0.821  1.00  0.00     0.068 C 
ENDBRANCH   1   2
BRANCH   1  11
HETATM   11  C8  UNL     1       2.533  -1.058  -0.023  1.00  0.00     0.296 C 
HETATM   12  O2  UNL     1       2.595  -1.993   0.715  1.00  0.00    -0.259 OA
BRANCH  11  13
HETATM   13  C9  UNL     1       3.728  -0.457  -0.722  1.00  0.00     0.070 A 
HETATM   14  C10 UNL     1       4.534   0.409  -0.074  1.00  0.00     0.051 A 
HETATM   15  C11 UNL     1       5.539   0.996  -0.794  1.00  0.00     0.077 A 
HETATM   16 CL1  UNL     1       6.745   2.154  -0.244  1.00  0.00    -0.076 Cl
HETATM   17  S1  UNL     1       5.326   0.316  -2.369  1.00  0.00    -0.065 SA
HETATM   18  C12 UNL     1       3.956  -0.684  -2.031  1.00  0.00     0.092 A 
HETATM   19 CL2  UNL     1       3.080  -1.755  -3.146  1.00  0.00    -0.075 Cl
ENDBRANCH  11  13
ENDBRANCH   1  11
TORSDOF 3
