REMARK  3 active torsions:
REMARK  status: ('A' for Active; 'I' for Inactive)
REMARK    1  A    between atoms: C1_2  and  O2_3 
REMARK    2  A    between atoms: C1_2  and  C6_8 
REMARK    3  A    between atoms: O2_3  and  C2_4 
ROOT
HETATM    1  C6  UNL     1       2.035   0.172   0.012  1.00  0.00     0.083 A 
HETATM    2  C7  UNL     1       3.174   0.911  -0.173  1.00  0.00     0.050 A 
HETATM    3  C8  UNL     1       4.345   0.296   0.029  1.00  0.00     0.059 A 
HETATM    4 CL1  UNL     1       5.932   1.101  -0.165  1.00  0.00    -0.082 Cl
HETATM    5  C9  UNL     1       4.314  -1.018   0.404  1.00  0.00     0.074 A 
HETATM    6 BR1  UNL     1       5.743  -2.229   0.783  1.00  0.00    -0.041 Br
HETATM    7  S1  UNL     1       2.654  -1.364   0.465  1.00  0.00    -0.075 SA
ENDROOT
BRANCH   1   8
HETATM    8  C1  UNL     1       0.630   0.598  -0.142  1.00  0.00     0.300 C 
HETATM    9  O1  UNL     1       0.444   1.784  -0.485  1.00  0.00    -0.259 OA
BRANCH   8  10
HETATM   10  O2  UNL     1      -0.424  -0.246   0.075  1.00  0.00    -0.312 OA
BRANCH  10  11
HETATM   11  C2  UNL     1      -1.727   0.220  -0.088  1.00  0.00     0.132 C 
HETATM   12  C3  UNL     1      -2.699  -0.113   1.027  1.00  0.00     0.032 C 
HETATM   13  C4  UNL     1      -3.768  -0.166  -0.077  1.00  0.00     0.005 C 
HETATM   14  C5  UNL     1      -2.622  -0.662  -0.971  1.00  0.00     0.032 C 
ENDBRANCH  10  11
ENDBRANCH   8  10
ENDBRANCH   1   8
TORSDOF 3
