REMARK  3 active torsions:
REMARK  status: ('A' for Active; 'I' for Inactive)
REMARK    1  A    between atoms: C6_9  and  S2_10 
REMARK    2  A    between atoms: S2_10  and  N1_13 
REMARK    3  A    between atoms: N1_13  and  C7_15 
ROOT
HETATM    1  C1  UNL     1      -2.385  -1.849  -0.881  1.00  0.00     0.018 C 
HETATM    2  C2  UNL     1      -1.917  -0.824  -0.415  1.00  0.00    -0.074 C 
HETATM    3  C3  UNL     1      -1.340   0.413   0.135  1.00  0.00     0.071 A 
HETATM    4  C4  UNL     1      -2.132   1.527   0.201  1.00  0.00     0.096 A 
HETATM    5 CL1  UNL     1      -3.821   1.747  -0.290  1.00  0.00    -0.075 Cl
HETATM    6  S1  UNL     1      -1.113   2.705   0.880  1.00  0.00    -0.063 SA
HETATM    7  C5  UNL     1       0.297   1.763   1.068  1.00  0.00     0.101 A 
HETATM    8 CL2  UNL     1       1.877   2.238   1.726  1.00  0.00    -0.074 Cl
HETATM    9  C6  UNL     1      -0.075   0.538   0.588  1.00  0.00     0.129 A 
ENDROOT
BRANCH   9  10
HETATM   10  S2  UNL     1       1.091  -0.807   0.567  1.00  0.00     0.266 S 
HETATM   11  O1  UNL     1       1.953  -0.667   1.763  1.00  0.00    -0.200 OA
HETATM   12  O2  UNL     1       0.363  -2.119   0.623  1.00  0.00    -0.200 OA
BRANCH  10  13
HETATM   13  N1  UNL     1       1.967  -0.781  -0.909  1.00  0.00    -0.281 N 
ATOM     14  H1  UNL     1       1.519  -1.004  -1.798  1.00  0.00     0.179 HD
BRANCH  13  15
HETATM   15  C7  UNL     1       3.213  -0.468  -0.846  1.00  0.00     0.181 C 
HETATM   16  S3  UNL     1       4.810  -0.677  -0.844  1.00  0.00    -0.074 SA
ENDBRANCH  13  15
ENDBRANCH  10  13
ENDBRANCH   9  10
TORSDOF 3
