REMARK  8 active torsions:
REMARK  status: ('A' for Active; 'I' for Inactive)
REMARK    1  A    between atoms: N1_1  and  C1_4 
REMARK    2  A    between atoms: C2_7  and  S1_8 
REMARK    3  A    between atoms: S1_8  and  C3_9 
REMARK    4  A    between atoms: C4_12  and  N4_13 
REMARK    5  A    between atoms: N6_18  and  C5_19 
REMARK    6  A    between atoms: C5_19  and  O1_20 
REMARK    7  A    between atoms: N7_22  and  N8_24 
REMARK    8  A    between atoms: N8_24  and  N9_26 
ROOT
HETATM    1  C3  UNL     1      -0.132   0.797   0.047  1.00  0.00     0.192 A 
HETATM    2  N3  UNL     1       0.592   1.860   0.444  1.00  0.00    -0.167 N 
ATOM      3  H3  UNL     1       1.582   1.872   0.691  1.00  0.00     0.186 HD
HETATM    4  C4  UNL     1      -0.269   2.919   0.449  1.00  0.00     0.693 A 
HETATM    5  N5  UNL     1      -1.467   2.463   0.060  1.00  0.00    -0.120 N 
ATOM      6  H5  UNL     1      -2.307   3.034  -0.030  1.00  0.00     0.206 HD
HETATM    7  N6  UNL     1      -1.404   1.149  -0.194  1.00  0.00    -0.180 N 
ENDROOT
BRANCH   1   8
HETATM    8  S1  UNL     1       0.499  -0.872  -0.139  1.00  0.00    -0.013 SA
BRANCH   8   9
HETATM    9  C2  UNL     1       2.233  -0.937   0.275  1.00  0.00     0.182 A 
HETATM   10  N2  UNL     1       3.223  -0.747  -0.612  1.00  0.00    -0.168 N 
HETATM   11  C1  UNL     1       4.421  -0.862   0.024  1.00  0.00     0.692 A 
ATOM     12  H2  UNL     1       3.097  -0.548  -1.605  1.00  0.00     0.186 HD
HETATM   13  N11 UNL     1       4.158  -1.123   1.299  1.00  0.00    -0.130 N 
HETATM   14  N10 UNL     1       2.838  -1.168   1.449  1.00  0.00    -0.265 N 
ATOM     15  H11 UNL     1       4.849  -1.264   2.036  1.00  0.00     0.205 HD
ATOM     16  H10 UNL     1       2.356  -1.351   2.329  1.00  0.00     0.189 HD
BRANCH  11  17
HETATM   17  N1  UNL     1       5.578  -0.733  -0.551  1.00  0.00    -0.233 N 
ATOM     18  H12 UNL     1       5.780  -0.532  -1.530  1.00  0.00     0.174 HD
ATOM     19  H11 UNL     1       6.476  -0.819  -0.074  1.00  0.00     0.174 HD
ENDBRANCH  11  17
ENDBRANCH   8   9
ENDBRANCH   1   8
BRANCH   7  20
HETATM   20  C5  UNL     1      -2.430   0.276  -0.626  1.00  0.00     0.262 C 
HETATM   21  N7  UNL     1      -2.637  -0.870  -0.085  1.00  0.00    -0.249 N 
ATOM     22  H7  UNL     1      -2.040  -1.167   0.687  1.00  0.00     0.192 HD
BRANCH  20  23
HETATM   23  O1  UNL     1      -3.246   0.666  -1.672  1.00  0.00    -0.330 OA
ATOM     24  H1  UNL     1      -3.935   0.080  -1.962  1.00  0.00     0.221 HD
ENDBRANCH  20  23
BRANCH  21  25
HETATM   25  N8  UNL     1      -3.647  -1.718  -0.517  1.00  0.00    -0.246 N 
ATOM     26  H8  UNL     1      -4.065  -1.549  -1.432  1.00  0.00     0.208 HD
BRANCH  25  27
HETATM   27  N9  UNL     1      -4.115  -2.784   0.237  1.00  0.00    -0.331 N 
ATOM     28  H92 UNL     1      -3.686  -2.938   1.149  1.00  0.00     0.178 HD
ATOM     29  H91 UNL     1      -4.857  -3.407  -0.081  1.00  0.00     0.178 HD
ENDBRANCH  25  27
ENDBRANCH  21  25
ENDBRANCH   7  20
BRANCH   4  30
HETATM   30  N4  UNL     1       0.110   4.097   0.784  1.00  0.00    -0.233 N 
ATOM     31  H42 UNL     1       1.022   4.444   1.080  1.00  0.00     0.174 HD
ATOM     32  H41 UNL     1      -0.533   4.888   0.788  1.00  0.00     0.174 HD
ENDBRANCH   4  30
TORSDOF 8
