REMARK  4 active torsions:
REMARK  status: ('A' for Active; 'I' for Inactive)
REMARK    1  A    between atoms: C2_2  and  C4_4 
REMARK    2  A    between atoms: N2_7  and  C5_8 
REMARK    3  A    between atoms: C8_14  and  C9_15 
REMARK    4  A    between atoms: N5_17  and  C11_18 
ROOT
HETATM    1  C5  UNL     1       4.220   2.367   0.878  1.00  0.00     0.229 C 
HETATM    2  C6  UNL     1       4.450   2.997  -0.500  1.00  0.00     0.052 C 
HETATM    3  C7  UNL     1       3.736   3.350   1.817  1.00  0.00     0.088 C 
HETATM    4  N3  UNL     1       3.361   4.226   2.480  1.00  0.00    -0.195 NA
ENDROOT
BRANCH   1   5
HETATM    5  N2  UNL     1       3.309   1.279   0.759  1.00  0.00    -0.216 N 
HETATM    6  N1  UNL     1       3.634  -0.042   1.079  1.00  0.00    -0.285 N 
HETATM    7  C4  UNL     1       2.676  -0.850   0.867  1.00  0.00     0.055 A 
ATOM      8  H1  UNL     1       4.543  -0.327   1.444  1.00  0.00     0.188 HD
HETATM    9  C8  UNL     1       1.590  -0.048   0.297  1.00  0.00     0.060 A 
HETATM   10  N4  UNL     1       2.136   1.129   0.331  1.00  0.00    -0.285 N 
ATOM     11  H4  UNL     1       1.609   1.940   0.008  1.00  0.00     0.188 HD
BRANCH   7  12
HETATM   12  C2  UNL     1       2.647  -2.311   0.925  1.00  0.00     0.031 C 
HETATM   13  C1  UNL     1       3.371  -2.784  -0.375  1.00  0.00     0.016 C 
HETATM   14  C3  UNL     1       3.572  -2.810   2.063  1.00  0.00     0.016 C 
ENDBRANCH   7  12
BRANCH   9  15
HETATM   15  C9  UNL     1       0.379  -0.647  -0.268  1.00  0.00     0.096 C 
HETATM   16  C10 UNL     1      -0.796   0.164   0.206  1.00  0.00     0.287 C 
HETATM   17  N5  UNL     1      -2.061  -0.316  -0.327  1.00  0.00     0.100 N 
HETATM   18  C16 UNL     1      -2.040   0.127  -1.762  1.00  0.00     0.247 C 
HETATM   19  C17 UNL     1      -1.791  -1.077  -2.647  1.00  0.00     0.040 C 
HETATM   20  C20 UNL     1      -1.103   1.248  -2.066  1.00  0.00     0.204 C 
HETATM   21  C18 UNL     1      -0.334  -1.449  -2.572  1.00  0.00     0.035 C 
HETATM   22  C19 UNL     1       0.471  -0.426  -1.824  1.00  0.00     0.133 C 
HETATM   23  O2  UNL     1       0.217   0.866  -2.211  1.00  0.00    -0.383 OA
BRANCH  17  24
HETATM   24  C11 UNL     1      -3.112   0.469   0.281  1.00  0.00     0.227 C 
HETATM   25  C12 UNL     1      -2.995   0.465   1.793  1.00  0.00     0.062 C 
HETATM   26  C13 UNL     1      -4.274   0.984   2.380  1.00  0.00     0.169 C 
HETATM   27  O1  UNL     1      -5.117   1.565   1.454  1.00  0.00    -0.391 OA
HETATM   28  C14 UNL     1      -5.545   0.697   0.465  1.00  0.00     0.169 C 
HETATM   29  C15 UNL     1      -4.465  -0.311   0.079  1.00  0.00     0.062 C 
ENDBRANCH  17  24
ENDBRANCH   9  15
ENDBRANCH   1   5
TORSDOF 4
