REMARK  10 active torsions:
REMARK  status: ('A' for Active; 'I' for Inactive)
REMARK    1  A    between atoms: O1_2  and  C2_3 
REMARK    2  A    between atoms: C4_5  and  O2_6 
REMARK    3  A    between atoms: O2_6  and  C5_7 
REMARK    4  A    between atoms: C5_7  and  C6_8 
REMARK    5  A    between atoms: C10_12  and  C11_13 
REMARK    6  A    between atoms: C14_16  and  N1_17 
REMARK    7  A    between atoms: C20_26  and  C21_27 
REMARK    8  A    between atoms: N2_30  and  O6_32 
REMARK    9  A    between atoms: C23_34  and  O7_35 
REMARK   10  A    between atoms: C24_37  and  O8_38 
ROOT
HETATM    1  C2  UNL     1       3.362  -0.653  -0.401  1.00  0.00     0.079 A 
HETATM    2  C3  UNL     1       1.989  -0.506  -0.403  1.00  0.00     0.074 A 
HETATM    3  C4  UNL     1       1.263  -0.417   0.767  1.00  0.00     0.071 A 
HETATM    4  C18 UNL     1       1.981  -0.480   1.974  1.00  0.00     0.037 A 
HETATM    5  C19 UNL     1       3.336  -0.625   1.953  1.00  0.00     0.015 A 
HETATM    6  C20 UNL     1       4.066  -0.716   0.816  1.00  0.00     0.007 A 
ENDROOT
BRANCH   3   7
HETATM    7  O2  UNL     1      -0.082  -0.272   0.895  1.00  0.00    -0.347 OA
BRANCH   7   8
HETATM    8  C5  UNL     1      -1.015  -0.183  -0.112  1.00  0.00     0.214 C 
BRANCH   8   9
HETATM    9  C6  UNL     1      -2.380  -0.051   0.478  1.00  0.00    -0.033 A 
HETATM   10  C7  UNL     1      -2.483   0.089   1.840  1.00  0.00     0.009 A 
HETATM   11  C8  UNL     1      -3.726   0.195   2.424  1.00  0.00     0.002 A 
HETATM   12  C9  UNL     1      -4.871   0.162   1.664  1.00  0.00     0.012 A 
HETATM   13  C10 UNL     1      -4.791   0.020   0.275  1.00  0.00    -0.025 A 
HETATM   14  C17 UNL     1      -3.534  -0.082  -0.265  1.00  0.00     0.021 A 
BRANCH  13  15
HETATM   15  C11 UNL     1      -6.025  -0.046  -0.496  1.00  0.00    -0.023 A 
HETATM   16  C12 UNL     1      -6.076   0.457  -1.776  1.00  0.00     0.015 A 
HETATM   17  C13 UNL     1      -7.211   0.402  -2.554  1.00  0.00     0.040 A 
HETATM   18  C14 UNL     1      -8.342  -0.173  -2.048  1.00  0.00     0.141 A 
HETATM   19  C15 UNL     1      -8.302  -0.681  -0.759  1.00  0.00     0.150 A 
HETATM   20  F1  UNL     1      -9.415  -1.255  -0.261  1.00  0.00    -0.203 F 
HETATM   21  C16 UNL     1      -7.170  -0.629   0.023  1.00  0.00     0.057 A 
BRANCH  18  22
HETATM   22  N1  UNL     1      -9.516  -0.242  -2.839  1.00  0.00    -0.113 N 
HETATM   23  O3  UNL     1     -10.287  -1.218  -2.673  1.00  0.00    -0.532 OA
HETATM   24  O4  UNL     1      -9.798   0.732  -3.761  1.00  0.00    -0.532 OA
ENDBRANCH  18  22
ENDBRANCH  13  15
ENDBRANCH   8   9
ENDBRANCH   7   8
ENDBRANCH   3   7
BRANCH   1  25
HETATM   25  O1  UNL     1       4.045  -0.739  -1.593  1.00  0.00    -0.355 OA
HETATM   26  C1  UNL     1       3.450  -0.686  -2.855  1.00  0.00     0.210 C 
ENDBRANCH   1  25
BRANCH   6  27
HETATM   27  C21 UNL     1       5.530  -0.906   0.713  1.00  0.00     0.198 C 
HETATM   28  O5  UNL     1       6.020  -0.011  -0.256  1.00  0.00    -0.323 OA
HETATM   29  C22 UNL     1       6.793   0.997   0.317  1.00  0.00     0.170 C 
HETATM   30  N2  UNL     1       7.551   1.834  -0.272  1.00  0.00    -0.249 N 
HETATM   31  C23 UNL     1       6.559   0.912   1.805  1.00  0.00     0.226 C 
ATOM     32  H2  UNL     1       8.074   2.535   0.253  1.00  0.00     0.196 HD
HETATM   33  C24 UNL     1       6.305  -0.588   1.940  1.00  0.00     0.189 C 
BRANCH  30  34
HETATM   34  O6  UNL     1       7.640   1.757  -1.657  1.00  0.00    -0.288 OA
ATOM     35  H6  UNL     1       8.205   2.381  -2.096  1.00  0.00     0.244 HD
ENDBRANCH  30  34
BRANCH  31  36
HETATM   36  O7  UNL     1       7.679   1.326   2.479  1.00  0.00    -0.385 OA
ATOM     37  H7  UNL     1       7.532   1.272   3.416  1.00  0.00     0.210 HD
ENDBRANCH  31  36
BRANCH  33  38
HETATM   38  O8  UNL     1       7.544  -1.226   1.892  1.00  0.00    -0.390 OA
ATOM     39  H8  UNL     1       8.040  -1.023   2.677  1.00  0.00     0.210 HD
ENDBRANCH  33  38
ENDBRANCH   6  27
TORSDOF 10
