REMARK  9 active torsions:
REMARK  status: ('A' for Active; 'I' for Inactive)
REMARK    1  A    between atoms: C2_2  and  N1_3 
REMARK       I    between atoms: N1_3  and  C3_5 
REMARK       I    between atoms: C3_5  and  N2_7 
REMARK    2  A    between atoms: N2_7  and  C4_9 
REMARK    3  A    between atoms: C6_11  and  O2_12 
REMARK    4  A    between atoms: C8_14  and  C9_15 
REMARK    5  A    between atoms: C10_16  and  C11_17 
REMARK    6  A    between atoms: C11_17  and  N3_20 
REMARK       I    between atoms: N3_20  and  C14_22 
REMARK    7  A    between atoms: C14_22  and  O4_24 
REMARK    8  A    between atoms: O4_24  and  C15_25 
REMARK    9  A    between atoms: C20_35  and  O5_36 
ROOT
HETATM    1  C9  UNL     1      -0.144  -2.536   1.399  1.00  0.00     0.094 A 
HETATM    2  C10 UNL     1      -1.323  -2.855   0.806  1.00  0.00     0.084 A 
HETATM    3  N4  UNL     1      -1.801  -3.939   1.499  1.00  0.00    -0.285 N 
ATOM      4  H4  UNL     1      -2.673  -4.434   1.310  1.00  0.00     0.188 HD
HETATM    5  N5  UNL     1      -0.942  -4.228   2.446  1.00  0.00    -0.240 N 
ATOM      6  H5  UNL     1      -1.053  -4.993   3.112  1.00  0.00     0.208 HD
HETATM    7  N6  UNL     1       0.068  -3.415   2.426  1.00  0.00    -0.279 N 
HETATM    8  C19 UNL     1       1.251  -3.404   3.298  1.00  0.00     0.179 C 
ENDROOT
BRANCH   1   9
HETATM    9  C8  UNL     1       0.836  -1.537   1.033  1.00  0.00     0.061 A 
HETATM   10  C6  UNL     1       1.565  -1.421  -0.099  1.00  0.00     0.085 A 
HETATM   11  C5  UNL     1       2.395  -0.313  -0.358  1.00  0.00     0.067 A 
HETATM   12  C4  UNL     1       2.517   0.712   0.520  1.00  0.00     0.041 A 
HETATM   13  C22 UNL     1       1.772   0.605   1.696  1.00  0.00     0.067 A 
HETATM   14  C20 UNL     1       0.980  -0.461   1.931  1.00  0.00     0.085 A 
BRANCH  10  15
HETATM   15  O2  UNL     1       1.527  -2.411  -1.045  1.00  0.00    -0.355 OA
HETATM   16  C7  UNL     1       2.203  -2.461  -2.256  1.00  0.00     0.210 C 
ENDBRANCH  10  15
BRANCH  12  17
HETATM   17  N2  UNL     1       3.317   1.854   0.396  1.00  0.00    -0.309 N 
HETATM   18  C3  UNL     1       4.358   1.988  -0.535  1.00  0.00     0.320 C 
HETATM   19  N1  UNL     1       5.129   3.210  -0.605  1.00  0.00    -0.343 N 
HETATM   20  O1  UNL     1       4.711   1.113  -1.358  1.00  0.00    -0.247 OA
ATOM     21  H1  UNL     1       4.922   3.987   0.023  1.00  0.00     0.164 HD
ATOM     22  H2  UNL     1       3.131   2.638   1.022  1.00  0.00     0.170 HD
BRANCH  19  23
HETATM   23  C2  UNL     1       6.191   3.318  -1.569  1.00  0.00     0.120 C 
HETATM   24  C1  UNL     1       7.208   2.236  -1.298  1.00  0.00     0.026 C 
ENDBRANCH  19  23
ENDBRANCH  12  17
BRANCH  14  25
HETATM   25  O5  UNL     1       0.257  -0.525   3.108  1.00  0.00    -0.355 OA
HETATM   26  C21 UNL     1       0.376   0.535   4.029  1.00  0.00     0.210 C 
ENDBRANCH  14  25
ENDBRANCH   1   9
BRANCH   2  27
HETATM   27  C11 UNL     1      -2.111  -2.264  -0.287  1.00  0.00     0.074 C 
HETATM   28  C12 UNL     1      -1.664  -2.439  -1.673  1.00  0.00     0.045 C 
HETATM   29  C13 UNL     1      -3.510  -2.941  -0.228  1.00  0.00     0.045 C 
BRANCH  27  30
HETATM   30  N3  UNL     1      -2.428  -0.871   0.078  1.00  0.00    -0.323 N 
HETATM   31  C14 UNL     1      -3.389  -0.083  -0.586  1.00  0.00     0.362 C 
HETATM   32  O3  UNL     1      -4.028  -0.548  -1.540  1.00  0.00    -0.238 OA
ATOM     33  H3  UNL     1      -1.921  -0.453   0.858  1.00  0.00     0.166 HD
BRANCH  31  34
HETATM   34  O4  UNL     1      -3.641   1.207  -0.197  1.00  0.00    -0.294 OA
BRANCH  34  35
HETATM   35  C15 UNL     1      -4.559   2.079  -0.769  1.00  0.00     0.061 C 
HETATM   36  C16 UNL     1      -5.981   1.620  -0.738  1.00  0.00     0.046 C 
HETATM   37  C17 UNL     1      -4.208   2.471  -2.188  1.00  0.00     0.046 C 
HETATM   38  C18 UNL     1      -4.503   3.378   0.050  1.00  0.00     0.046 C 
ENDBRANCH  34  35
ENDBRANCH  31  34
ENDBRANCH  27  30
ENDBRANCH   2  27
TORSDOF 9
