REMARK  13 active torsions:
REMARK  status: ('A' for Active; 'I' for Inactive)
REMARK    1  A    between atoms: C2_2  and  C3_3 
REMARK    2  A    between atoms: C3_3  and  O1_4 
REMARK    3  A    between atoms: C3_3  and  C16_23 
REMARK    4  A    between atoms: O1_4  and  N1_5 
REMARK    5  A    between atoms: C5_7  and  C6_8 
REMARK    6  A    between atoms: C6_8  and  O2_9 
REMARK       I    between atoms: N2_11  and  C8_13 
REMARK    7  A    between atoms: C13_19  and  O4_20 
REMARK    8  A    between atoms: C18_26  and  C19_27 
REMARK    9  A    between atoms: C19_27  and  C20_28 
REMARK   10  A    between atoms: C20_28  and  O5_29 
REMARK   11  A    between atoms: C20_28  and  N3_31 
REMARK   12  A    between atoms: N3_31  and  O6_33 
REMARK   13  A    between atoms: C22_37  and  O7_38 
ROOT
HETATM    1  C3  UNL     1       1.519   0.079  -0.162  1.00  0.00     0.195 C 
ENDROOT
BRANCH   1   2
HETATM    2  C2  UNL     1       1.622   1.567   0.154  1.00  0.00     0.036 C 
HETATM    3  C1  UNL     1       2.312   2.356  -0.920  1.00  0.00     0.008 C 
ENDBRANCH   1   2
BRANCH   1   4
HETATM    4  O1  UNL     1       0.849  -0.197  -1.291  1.00  0.00    -0.268 OA
BRANCH   4   5
HETATM    5  N1  UNL     1      -0.432  -0.520  -1.266  1.00  0.00    -0.266 N 
HETATM    6  C4  UNL     1      -1.364   0.480  -0.919  1.00  0.00     0.129 C 
HETATM    7  C5  UNL     1      -2.538   0.187  -0.327  1.00  0.00     0.021 C 
HETATM    8  C10 UNL     1      -2.878  -1.196  -0.144  1.00  0.00     0.013 C 
HETATM    9  C11 UNL     1      -4.363  -1.373  -0.525  1.00  0.00     0.023 C 
HETATM   10  C12 UNL     1      -2.756  -1.540   1.330  1.00  0.00     0.023 C 
HETATM   11  C13 UNL     1      -2.100  -2.252  -0.923  1.00  0.00     0.153 C 
HETATM   12  C15 UNL     1      -0.875  -1.824  -1.601  1.00  0.00     0.188 C 
BRANCH   7  13
HETATM   13  C6  UNL     1      -3.378   1.320  -0.035  1.00  0.00     0.153 C 
HETATM   14  N2  UNL     1      -4.528   1.731   0.575  1.00  0.00    -0.303 N 
HETATM   15  C7  UNL     1      -4.905   3.196   0.198  1.00  0.00     0.161 C 
HETATM   16  C8  UNL     1      -5.432   1.277   1.517  1.00  0.00     0.221 C 
HETATM   17  C9  UNL     1      -6.610   2.189   1.940  1.00  0.00     0.117 C 
HETATM   18  O3  UNL     1      -5.445   0.196   2.104  1.00  0.00    -0.273 OA
BRANCH  13  19
HETATM   19  O2  UNL     1      -2.810   2.487  -0.589  1.00  0.00    -0.345 OA
ATOM     20  H2  UNL     1      -3.364   3.234  -0.396  1.00  0.00     0.219 HD
ENDBRANCH  13  19
ENDBRANCH   7  13
BRANCH  11  21
HETATM   21  O4  UNL     1      -1.965  -3.351  -0.085  1.00  0.00    -0.388 OA
HETATM   22  C14 UNL     1      -2.656  -4.456  -0.443  1.00  0.00     0.202 C 
ENDBRANCH  11  21
ENDBRANCH   4   5
ENDBRANCH   1   4
BRANCH   1  23
HETATM   23  C16 UNL     1       2.920  -0.423  -0.174  1.00  0.00     0.051 A 
HETATM   24  S1  UNL     1       4.362   0.477  -0.140  1.00  0.00    -0.086 SA
HETATM   25  C17 UNL     1       5.529  -0.761  -0.206  1.00  0.00     0.047 A 
HETATM   26  C18 UNL     1       6.976  -0.723  -0.215  1.00  0.00     0.026 C 
HETATM   27  C21 UNL     1       4.717  -1.889  -0.254  1.00  0.00     0.167 A 
HETATM   28  F1  UNL     1       5.308  -3.151  -0.318  1.00  0.00    -0.202 F 
HETATM   29  C22 UNL     1       3.400  -1.706  -0.237  1.00  0.00     0.121 A 
BRANCH  26  30
HETATM   30  C19 UNL     1       7.810   0.237  -0.167  1.00  0.00     0.059 C 
BRANCH  30  31
HETATM   31  C20 UNL     1       7.679   1.665  -0.085  1.00  0.00     0.159 C 
BRANCH  31  32
HETATM   32  O5  UNL     1       8.894   2.421  -0.055  1.00  0.00    -0.345 OA
ATOM     33  H5  UNL     1       8.807   3.365  -0.001  1.00  0.00     0.219 HD
ENDBRANCH  31  32
BRANCH  31  34
HETATM   34  N3  UNL     1       6.641   2.382  -0.033  1.00  0.00    -0.248 N 
ATOM     35  H3  UNL     1       5.741   1.903  -0.050  1.00  0.00     0.196 HD
BRANCH  34  36
HETATM   36  O6  UNL     1       6.624   3.735   0.044  1.00  0.00    -0.288 OA
ATOM     37  H6  UNL     1       5.843   4.274   0.083  1.00  0.00     0.244 HD
ENDBRANCH  34  36
ENDBRANCH  31  34
ENDBRANCH  30  31
ENDBRANCH  26  30
BRANCH  29  38
HETATM   38  O7  UNL     1       2.456  -2.766  -0.280  1.00  0.00    -0.357 OA
ATOM     39  H7  UNL     1       2.789  -3.655  -0.324  1.00  0.00     0.218 HD
ENDBRANCH  29  38
ENDBRANCH   1  23
TORSDOF 13
