REMARK  11 active torsions:
REMARK  status: ('A' for Active; 'I' for Inactive)
REMARK    1  A    between atoms: C2_2  and  C3_3 
REMARK    2  A    between atoms: C3_3  and  O1_4 
REMARK    3  A    between atoms: O1_4  and  C4_5 
REMARK    4  A    between atoms: C7_8  and  N1_9 
REMARK       I    between atoms: N1_9  and  C8_11 
REMARK       I    between atoms: C8_11  and  N2_13 
REMARK    5  A    between atoms: N2_13  and  C9_15 
REMARK    6  A    between atoms: C9_15  and  C10_16 
REMARK    7  A    between atoms: C10_16  and  S1_17 
REMARK    8  A    between atoms: S1_17  and  N3_20 
REMARK    9  A    between atoms: N3_20  and  C11_22 
REMARK   10  A    between atoms: C11_22  and  C12_23 
REMARK   11  A    between atoms: C12_23  and  C13_24 
ROOT
HETATM    1  N1  UNL     1       1.988   2.096  -0.946  1.00  0.00    -0.309 N 
ATOM      2  H1  UNL     1       2.010   2.684  -1.779  1.00  0.00     0.170 HD
HETATM    3  C8  UNL     1       0.840   2.136  -0.136  1.00  0.00     0.320 C 
HETATM    4  O2  UNL     1       0.751   1.464   0.894  1.00  0.00    -0.247 OA
HETATM    5  N2  UNL     1      -0.232   3.005  -0.569  1.00  0.00    -0.342 N 
ATOM      6  H2  UNL     1      -0.141   3.560  -1.420  1.00  0.00     0.164 HD
ENDROOT
BRANCH   5   7
HETATM    7  C9  UNL     1      -1.425   3.070   0.224  1.00  0.00     0.141 C 
BRANCH   7   8
HETATM    8  C10 UNL     1      -2.105   1.740   0.289  1.00  0.00     0.182 C 
BRANCH   8   9
HETATM    9  S1  UNL     1      -2.549   1.167  -1.336  1.00  0.00     0.228 S 
HETATM   10  O3  UNL     1      -3.399   2.171  -2.057  1.00  0.00    -0.206 OA
HETATM   11  O4  UNL     1      -1.276   1.000  -2.118  1.00  0.00    -0.206 OA
BRANCH   9  12
HETATM   12  N3  UNL     1      -3.330  -0.361  -1.271  1.00  0.00    -0.319 N 
ATOM     13  H3  UNL     1      -2.969  -1.208  -1.710  1.00  0.00     0.172 HD
BRANCH  12  14
HETATM   14  C11 UNL     1      -4.568  -0.300  -0.514  1.00  0.00     0.138 C 
BRANCH  14  15
HETATM   15  C12 UNL     1      -5.251  -1.648  -0.460  1.00  0.00     0.078 C 
BRANCH  15  16
HETATM   16  C13 UNL     1      -6.499  -1.488   0.329  1.00  0.00     0.027 A 
HETATM   17  C14 UNL     1      -7.443  -2.473   0.635  1.00  0.00     0.114 A 
HETATM   18  N4  UNL     1      -8.407  -1.901   1.363  1.00  0.00    -0.360 N 
HETATM   19  C15 UNL     1      -8.120  -0.598   1.536  1.00  0.00     0.180 A 
ATOM     20  H4  UNL     1      -9.231  -2.378   1.730  1.00  0.00     0.166 HD
HETATM   21  N5  UNL     1      -6.973  -0.371   0.908  1.00  0.00    -0.355 N 
ATOM     22  H5  UNL     1      -6.509   0.537   0.869  1.00  0.00     0.166 HD
ENDBRANCH  15  16
ENDBRANCH  14  15
ENDBRANCH  12  14
ENDBRANCH   9  12
ENDBRANCH   8   9
ENDBRANCH   7   8
ENDBRANCH   5   7
BRANCH   1  23
HETATM   23  C7  UNL     1       3.107   1.292  -0.674  1.00  0.00     0.036 A 
HETATM   24  C6  UNL     1       3.107   0.186   0.118  1.00  0.00     0.032 A 
HETATM   25  C5  UNL     1       4.272  -0.520   0.338  1.00  0.00     0.039 A 
HETATM   26  C4  UNL     1       5.487  -0.176  -0.206  1.00  0.00     0.069 A 
HETATM   27  C17 UNL     1       5.475   0.949  -1.009  1.00  0.00     0.039 A 
HETATM   28  C16 UNL     1       4.335   1.669  -1.246  1.00  0.00     0.032 A 
BRANCH  26  29
HETATM   29  O1  UNL     1       6.640  -0.901   0.031  1.00  0.00    -0.348 OA
BRANCH  29  30
HETATM   30  C3  UNL     1       6.546  -2.038   0.869  1.00  0.00     0.202 C 
BRANCH  30  31
HETATM   31  C2  UNL     1       7.872  -2.692   1.013  1.00  0.00    -0.011 C 
HETATM   32  C1  UNL     1       8.918  -2.173   0.384  1.00  0.00     0.009 C 
ENDBRANCH  30  31
ENDBRANCH  29  30
ENDBRANCH  26  29
ENDBRANCH   1  23
TORSDOF 11
