REMARK  12 active torsions:
REMARK  status: ('A' for Active; 'I' for Inactive)
REMARK    1  A    between atoms: C1_4  and  C2_6 
REMARK    2  A    between atoms: C2_6  and  C3_7 
REMARK    3  A    between atoms: C3_7  and  C4_8 
REMARK    4  A    between atoms: C3_7  and  O1_15 
REMARK    5  A    between atoms: C4_8  and  C5_9 
REMARK    6  A    between atoms: O1_15  and  C11_16 
REMARK    7  A    between atoms: C11_16  and  C12_17 
REMARK    8  A    between atoms: C12_17  and  O2_18 
REMARK    9  A    between atoms: C12_17  and  C13_20 
REMARK   10  A    between atoms: C13_20  and  N3_21 
REMARK   11  A    between atoms: N3_21  and  S1_23 
REMARK   12  A    between atoms: S1_23  and  C14_26 
ROOT
HETATM    1  C11 UNL     1      -0.410  -2.190   1.037  1.00  0.00     0.201 C 
ENDROOT
BRANCH   1   2
HETATM    2  O1  UNL     1      -0.505  -1.192   0.097  1.00  0.00    -0.383 OA
BRANCH   2   3
HETATM    3  C3  UNL     1      -1.815  -0.695  -0.056  1.00  0.00     0.132 C 
BRANCH   3   4
HETATM    4  C2  UNL     1      -1.819   0.705   0.403  1.00  0.00     0.104 C 
BRANCH   4   5
HETATM    5  C1  UNL     1      -0.947   1.649  -0.293  1.00  0.00     0.089 C 
HETATM    6  N1  UNL     1      -0.135   1.376  -1.241  1.00  0.00    -0.391 N 
ATOM      7  H12 UNL     1       0.474   2.035  -1.727  1.00  0.00     0.157 HD
ATOM      8  H11 UNL     1      -0.087   0.406  -1.553  1.00  0.00     0.157 HD
HETATM    9  N2  UNL     1      -1.015   3.018   0.148  1.00  0.00    -0.088 NA
ENDBRANCH   4   5
ENDBRANCH   3   4
BRANCH   3  10
HETATM   10  C4  UNL     1      -2.230  -0.982  -1.449  1.00  0.00     0.070 C 
BRANCH  10  11
HETATM   11  C5  UNL     1      -3.603  -0.586  -1.808  1.00  0.00    -0.056 A 
HETATM   12  C6  UNL     1      -3.823   0.640  -2.363  1.00  0.00     0.007 A 
HETATM   13  C7  UNL     1      -5.108   1.068  -2.714  1.00  0.00     0.001 A 
HETATM   14  C8  UNL     1      -6.142   0.190  -2.472  1.00  0.00     0.000 A 
HETATM   15  C9  UNL     1      -5.927  -1.039  -1.916  1.00  0.00     0.001 A 
HETATM   16  C10 UNL     1      -4.660  -1.430  -1.583  1.00  0.00     0.007 A 
ENDBRANCH  10  11
ENDBRANCH   3  10
ENDBRANCH   2   3
ENDBRANCH   1   2
BRANCH   1  17
HETATM   17  C12 UNL     1       1.008  -2.663   1.140  1.00  0.00     0.160 C 
BRANCH  17  18
HETATM   18  O2  UNL     1       1.421  -3.158  -0.108  1.00  0.00    -0.392 OA
ATOM     19  H2  UNL     1       2.320  -3.458  -0.043  1.00  0.00     0.210 HD
ENDBRANCH  17  18
BRANCH  17  20
HETATM   20  C13 UNL     1       1.928  -1.515   1.523  1.00  0.00     0.166 C 
BRANCH  20  21
HETATM   21  N3  UNL     1       3.303  -1.983   1.608  1.00  0.00    -0.313 N 
ATOM     22  H3  UNL     1       3.604  -2.942   1.435  1.00  0.00     0.172 HD
BRANCH  21  23
HETATM   23  S1  UNL     1       4.347  -0.688   2.041  1.00  0.00     0.258 S 
HETATM   24  O3  UNL     1       5.745  -1.266   2.153  1.00  0.00    -0.201 OA
HETATM   25  O4  UNL     1       3.931  -0.104   3.359  1.00  0.00    -0.201 OA
BRANCH  23  26
HETATM   26  C14 UNL     1       4.306   0.560   0.843  1.00  0.00     0.079 A 
HETATM   27  C15 UNL     1       3.404   1.600   0.933  1.00  0.00     0.025 A 
HETATM   28  C16 UNL     1       3.365   2.599  -0.019  1.00  0.00     0.002 A 
HETATM   29  C17 UNL     1       4.244   2.565  -1.086  1.00  0.00     0.000 A 
HETATM   30  C18 UNL     1       5.145   1.538  -1.187  1.00  0.00     0.002 A 
HETATM   31  C19 UNL     1       5.170   0.552  -0.232  1.00  0.00     0.025 A 
ENDBRANCH  23  26
ENDBRANCH  21  23
ENDBRANCH  20  21
ENDBRANCH  17  20
ENDBRANCH   1  17
TORSDOF 12
