REMARK  11 active torsions:
REMARK  status: ('A' for Active; 'I' for Inactive)
REMARK    1  A    between atoms: O1_2  and  C2_3 
REMARK    2  A    between atoms: C2_3  and  C3_4 
REMARK    3  A    between atoms: C3_4  and  S1_5 
REMARK    4  A    between atoms: S1_5  and  N1_8 
REMARK    5  A    between atoms: N1_8  and  C4_10 
REMARK    6  A    between atoms: C8_14  and  C9_15 
REMARK    7  A    between atoms: C9_15  and  C10_16 
REMARK    8  A    between atoms: C10_16  and  N2_17 
REMARK    9  A    between atoms: N2_17  and  C11_20 
REMARK   10  A    between atoms: C11_20  and  C12_21 
REMARK   11  A    between atoms: C16_25  and  C17_26 
ROOT
HETATM    1  C9  UNL     1      -0.357  -0.174  -0.627  1.00  0.00     0.066 C 
ENDROOT
BRANCH   1   2
HETATM    2  C8  UNL     1       0.983  -0.757  -0.331  1.00  0.00    -0.054 A 
HETATM    3  C7  UNL     1       1.337  -1.964  -0.913  1.00  0.00     0.007 A 
HETATM    4  C6  UNL     1       2.572  -2.518  -0.651  1.00  0.00     0.003 A 
HETATM    5  C5  UNL     1       3.479  -1.892   0.188  1.00  0.00     0.030 A 
HETATM    6  C4  UNL     1       3.144  -0.685   0.779  1.00  0.00     0.042 A 
HETATM    7  C19 UNL     1       1.901  -0.158   0.496  1.00  0.00     0.037 A 
BRANCH   6   8
HETATM    8  N1  UNL     1       4.052  -0.017   1.644  1.00  0.00    -0.285 N 
ATOM      9  H1  UNL     1       3.693   0.365   2.519  1.00  0.00     0.178 HD
BRANCH   8  10
HETATM   10  S1  UNL     1       5.714   0.181   1.298  1.00  0.00     0.232 S 
HETATM   11  O2  UNL     1       6.404   0.954   2.377  1.00  0.00    -0.206 OA
HETATM   12  O3  UNL     1       6.444  -1.107   1.123  1.00  0.00    -0.206 OA
BRANCH  10  13
HETATM   13  C3  UNL     1       5.845   1.142  -0.198  1.00  0.00     0.189 C 
BRANCH  13  14
HETATM   14  C2  UNL     1       7.293   1.365  -0.579  1.00  0.00     0.183 C 
BRANCH  14  15
HETATM   15  O1  UNL     1       7.946   0.166  -0.792  1.00  0.00    -0.395 OA
HETATM   16  C1  UNL     1       9.272   0.415  -1.139  1.00  0.00     0.201 C 
ENDBRANCH  14  15
ENDBRANCH  13  14
ENDBRANCH  10  13
ENDBRANCH   8  10
ENDBRANCH   6   8
ENDBRANCH   1   2
BRANCH   1  17
HETATM   17  C10 UNL     1      -1.395  -0.650   0.367  1.00  0.00     0.237 C 
BRANCH  17  18
HETATM   18  N2  UNL     1      -2.656  -0.046   0.017  1.00  0.00    -0.071 N 
ATOM     19  H22 UNL     1      -2.580   0.970  -0.036  1.00  0.00     0.277 HD
ATOM     20  H21 UNL     1      -2.904  -0.238  -0.954  1.00  0.00     0.277 HD
BRANCH  18  21
HETATM   21  C11 UNL     1      -3.717  -0.451   0.925  1.00  0.00     0.270 C 
BRANCH  21  22
HETATM   22  C12 UNL     1      -4.969   0.209   0.496  1.00  0.00    -0.032 A 
HETATM   23  C13 UNL     1      -5.310   1.431   0.987  1.00  0.00     0.009 A 
HETATM   24  C14 UNL     1      -6.486   2.080   0.601  1.00  0.00     0.002 A 
HETATM   25  C15 UNL     1      -7.277   1.419  -0.299  1.00  0.00     0.015 A 
HETATM   26  C16 UNL     1      -6.957   0.175  -0.817  1.00  0.00     0.005 A 
HETATM   27  C18 UNL     1      -5.792  -0.425  -0.410  1.00  0.00     0.023 A 
BRANCH  26  28
HETATM   28  C17 UNL     1      -7.865  -0.441  -1.767  1.00  0.00     0.120 C 
HETATM   29  N3  UNL     1      -7.684  -1.574  -2.311  1.00  0.00    -0.387 N 
ATOM     30  H32 UNL     1      -6.832  -2.068  -2.045  1.00  0.00     0.157 HD
ATOM     31  H31 UNL     1      -8.322  -2.007  -2.979  1.00  0.00     0.157 HD
HETATM   32  N4  UNL     1      -9.071   0.258  -2.144  1.00  0.00    -0.082 NA
ENDBRANCH  26  28
ENDBRANCH  21  22
ENDBRANCH  18  21
ENDBRANCH  17  18
ENDBRANCH   1  17
TORSDOF 11
