REMARK  9 active torsions:
REMARK  status: ('A' for Active; 'I' for Inactive)
REMARK    1  A    between atoms: O1_2  and  C2_3 
REMARK    2  A    between atoms: C4_5  and  C5_6 
REMARK    3  A    between atoms: N1_11  and  C8_12 
REMARK    4  A    between atoms: C8_12  and  C9_13 
REMARK    5  A    between atoms: C9_13  and  C10_14 
REMARK    6  A    between atoms: C10_14  and  C11_15 
REMARK    7  A    between atoms: C11_15  and  C12_16 
REMARK    8  A    between atoms: C12_16  and  C13_17 
REMARK    9  A    between atoms: C22_28  and  O4_29 
ROOT
HETATM    1  C5  UNL     1      -2.303  -1.836  -0.910  1.00  0.00     0.036 C 
HETATM    2  C6  UNL     1      -1.288  -1.398  -1.564  1.00  0.00     0.079 C 
HETATM    3  S1  UNL     1      -0.151  -2.537  -2.425  1.00  0.00    -0.023 SA
HETATM    4  C7  UNL     1       0.641  -1.279  -3.410  1.00  0.00     0.293 C 
HETATM    5  O2  UNL     1       1.400  -1.469  -4.417  1.00  0.00    -0.259 OA
HETATM    6  N1  UNL     1       0.251  -0.049  -2.841  1.00  0.00    -0.274 N 
HETATM    7  C19 UNL     1      -0.757  -0.105  -1.877  1.00  0.00     0.268 C 
HETATM    8  O3  UNL     1      -1.178   0.975  -1.307  1.00  0.00    -0.266 OA
ENDROOT
BRANCH   1   9
HETATM    9  C4  UNL     1      -3.251  -1.006  -0.194  1.00  0.00    -0.030 A 
HETATM   10  C3  UNL     1      -4.598  -1.130  -0.573  1.00  0.00     0.051 A 
HETATM   11  C2  UNL     1      -5.542  -0.402   0.109  1.00  0.00     0.104 A 
HETATM   12  C22 UNL     1      -5.198   0.440   1.148  1.00  0.00     0.125 A 
HETATM   13  C21 UNL     1      -3.888   0.572   1.531  1.00  0.00     0.083 A 
HETATM   14  C20 UNL     1      -2.953  -0.160   0.843  1.00  0.00     0.041 A 
HETATM   15  N2  UNL     1      -3.501   1.441   2.608  1.00  0.00    -0.099 NA
BRANCH  11  16
HETATM   16  O1  UNL     1      -6.898  -0.513  -0.255  1.00  0.00    -0.353 OA
HETATM   17  C1  UNL     1      -7.223  -1.373  -1.313  1.00  0.00     0.210 C 
ENDBRANCH  11  16
BRANCH  12  18
HETATM   18  O4  UNL     1      -6.189   1.148   1.798  1.00  0.00    -0.351 OA
HETATM   19  C23 UNL     1      -6.879   0.657   2.928  1.00  0.00     0.210 C 
ENDBRANCH  12  18
ENDBRANCH   1   9
BRANCH   6  20
HETATM   20  C8  UNL     1       0.911   1.201  -3.277  1.00  0.00     0.136 C 
BRANCH  20  21
HETATM   21  C9  UNL     1       2.095   1.524  -2.436  1.00  0.00     0.020 C 
BRANCH  21  22
HETATM   22  C10 UNL     1       3.183   0.494  -2.428  1.00  0.00     0.002 C 
BRANCH  22  23
HETATM   23  C11 UNL     1       4.350   0.897  -1.565  1.00  0.00     0.000 C 
BRANCH  23  24
HETATM   24  C12 UNL     1       4.020   1.118  -0.139  1.00  0.00     0.004 C 
BRANCH  24  25
HETATM   25  C13 UNL     1       3.458  -0.036   0.594  1.00  0.00    -0.014 C 
HETATM   26  C14 UNL     1       3.187   0.396   2.037  1.00  0.00     0.004 C 
HETATM   27  C15 UNL     1       4.420   0.906   2.714  1.00  0.00     0.000 C 
HETATM   28  C16 UNL     1       5.545  -0.061   2.533  1.00  0.00     0.000 C 
HETATM   29  C17 UNL     1       5.094  -1.369   1.948  1.00  0.00     0.000 C 
HETATM   30  C18 UNL     1       4.386  -1.219   0.627  1.00  0.00     0.004 C 
ENDBRANCH  24  25
ENDBRANCH  23  24
ENDBRANCH  22  23
ENDBRANCH  21  22
ENDBRANCH  20  21
ENDBRANCH   6  20
TORSDOF 9
