REMARK  10 active torsions:
REMARK  status: ('A' for Active; 'I' for Inactive)
REMARK    1  A    between atoms: C2_2  and  C3_3 
REMARK    2  A    between atoms: C3_3  and  C4_4 
REMARK    3  A    between atoms: C4_4  and  C5_5 
REMARK    4  A    between atoms: C5_5  and  C6_6 
REMARK    5  A    between atoms: C6_6  and  C7_7 
REMARK    6  A    between atoms: C8_8  and  C9_9 
REMARK    7  A    between atoms: C10_10  and  C11_11 
REMARK    8  A    between atoms: C13_14  and  O2_15 
REMARK    9  A    between atoms: C14_18  and  C15_19 
REMARK   10  A    between atoms: C19_23  and  O4_24 
ROOT
HETATM    1  C11 UNL     1       0.364  -0.744  -0.731  1.00  0.00     0.102 A 
HETATM    2  C12 UNL     1       1.446  -1.326  -1.208  1.00  0.00     0.098 A 
HETATM    3  O1  UNL     1       1.762  -2.525  -1.834  1.00  0.00    -0.298 OA
HETATM    4  C13 UNL     1       3.148  -2.901  -1.720  1.00  0.00     0.416 C 
HETATM    5  O3  UNL     1       3.715  -2.541  -0.536  1.00  0.00    -0.328 OA
HETATM    6  C14 UNL     1       3.556  -1.232  -0.125  1.00  0.00     0.176 C 
HETATM    7  C22 UNL     1       2.652  -0.438  -1.013  1.00  0.00     0.145 A 
HETATM    8  C23 UNL     1       2.018   0.759  -0.434  1.00  0.00     0.209 A 
HETATM    9  O5  UNL     1       0.679   0.510  -0.194  1.00  0.00    -0.308 OA
HETATM   10  O6  UNL     1       2.719   1.739   0.227  1.00  0.00    -0.341 OA
HETATM   11  C24 UNL     1       2.292   2.127  -1.023  1.00  0.00     0.185 A 
HETATM   12  C25 UNL     1       3.232   2.160  -2.193  1.00  0.00     0.045 C 
ENDROOT
BRANCH   1  13
HETATM   13  C10 UNL     1      -0.948  -1.367  -0.781  1.00  0.00     0.039 C 
HETATM   14  C9  UNL     1      -1.979  -0.711  -0.279  1.00  0.00     0.003 C 
BRANCH  14  15
HETATM   15  C8  UNL     1      -3.288  -1.304  -0.316  1.00  0.00    -0.004 C 
HETATM   16  C7  UNL     1      -4.339  -0.706   0.162  1.00  0.00    -0.027 C 
BRANCH  16  17
HETATM   17  C6  UNL     1      -4.378   0.627   0.800  1.00  0.00     0.027 C 
BRANCH  17  18
HETATM   18  C5  UNL     1      -5.290   1.566   0.041  1.00  0.00     0.004 C 
BRANCH  18  19
HETATM   19  C4  UNL     1      -6.713   1.079  -0.045  1.00  0.00     0.000 C 
BRANCH  19  20
HETATM   20  C3  UNL     1      -7.340   0.912   1.314  1.00  0.00    -0.000 C 
BRANCH  20  21
HETATM   21  C2  UNL     1      -8.763   0.431   1.083  1.00  0.00    -0.005 C 
HETATM   22  C1  UNL     1      -9.494   0.227   2.389  1.00  0.00     0.005 C 
ENDBRANCH  20  21
ENDBRANCH  19  20
ENDBRANCH  18  19
ENDBRANCH  17  18
ENDBRANCH  16  17
ENDBRANCH  14  15
ENDBRANCH   1  13
BRANCH   4  23
HETATM   23  O2  UNL     1       3.115  -4.317  -1.740  1.00  0.00    -0.349 OA
ATOM     24  H2  UNL     1       4.029  -4.565  -1.665  1.00  0.00     0.215 HD
ENDBRANCH   4  23
BRANCH   6  25
HETATM   25  C15 UNL     1       4.876  -0.589  -0.044  1.00  0.00    -0.026 A 
HETATM   26  C16 UNL     1       5.781  -0.703  -1.062  1.00  0.00     0.010 A 
HETATM   27  C17 UNL     1       7.027  -0.097  -0.972  1.00  0.00     0.003 A 
HETATM   28  C18 UNL     1       7.376   0.622   0.128  1.00  0.00     0.037 A 
HETATM   29  C19 UNL     1       6.468   0.748   1.171  1.00  0.00     0.068 A 
HETATM   30  C21 UNL     1       5.233   0.138   1.063  1.00  0.00     0.046 A 
BRANCH  29  31
HETATM   31  O4  UNL     1       6.783   1.475   2.316  1.00  0.00    -0.356 OA
HETATM   32  C20 UNL     1       8.052   2.081   2.386  1.00  0.00     0.210 C 
ENDBRANCH  29  31
ENDBRANCH   6  25
TORSDOF 10
