REMARK  7 active torsions:
REMARK  status: ('A' for Active; 'I' for Inactive)
REMARK    1  A    between atoms: C2_2  and  O1_3 
REMARK    2  A    between atoms: O1_3  and  C3_4 
REMARK       I    between atoms: C3_4  and  N1_6 
REMARK    3  A    between atoms: N1_6  and  C4_8 
REMARK    4  A    between atoms: C4_8  and  N2_9 
REMARK    5  A    between atoms: C4_8  and  C5_13 
REMARK    6  A    between atoms: C4_8  and  C7_22 
REMARK    7  A    between atoms: C5_13  and  N3_14 
ROOT
HETATM    1  C4  UNL     1       0.052  -1.164   0.850  1.00  0.00     0.296 C 
ENDROOT
BRANCH   1   2
HETATM    2  N1  UNL     1      -0.691  -0.128   0.155  1.00  0.00    -0.295 N 
HETATM    3  C3  UNL     1      -1.673  -0.491  -0.794  1.00  0.00     0.362 C 
HETATM    4  O2  UNL     1      -1.891  -1.698  -1.029  1.00  0.00    -0.238 OA
ATOM      5  H1  UNL     1      -0.505   0.856   0.351  1.00  0.00     0.167 HD
BRANCH   3   6
HETATM    6  O1  UNL     1      -2.410   0.458  -1.480  1.00  0.00    -0.304 OA
BRANCH   6   7
HETATM    7  C2  UNL     1      -3.393   0.116  -2.429  1.00  0.00     0.176 C 
HETATM    8  C1  UNL     1      -3.988   1.387  -2.972  1.00  0.00     0.034 C 
ENDBRANCH   6   7
ENDBRANCH   3   6
ENDBRANCH   1   2
BRANCH   1   9
HETATM    9  N2  UNL     1       0.599  -2.073  -0.086  1.00  0.00    -0.042 N 
ATOM     10  H23 UNL     1      -0.113  -2.461  -0.704  1.00  0.00     0.278 HD
ATOM     11  H22 UNL     1       1.166  -1.602  -0.791  1.00  0.00     0.278 HD
ATOM     12  H21 UNL     1       1.121  -2.801   0.402  1.00  0.00     0.278 HD
ENDBRANCH   1   9
BRANCH   1  13
HETATM   13  C5  UNL     1       1.072  -0.526   1.773  1.00  0.00     0.238 C 
BRANCH  13  14
HETATM   14  N3  UNL     1       2.013   0.300   1.014  1.00  0.00    -0.211 N 
HETATM   15  N4  UNL     1       3.081   1.035   1.537  1.00  0.00    -0.257 N 
HETATM   16  C6  UNL     1       3.372   2.009   0.707  1.00  0.00     0.221 C 
ATOM     17  H4  UNL     1       3.556   0.845   2.419  1.00  0.00     0.191 HD
HETATM   18  N5  UNL     1       4.388   2.984   0.857  1.00  0.00    -0.061 NA
HETATM   19  N6  UNL     1       2.463   1.893  -0.381  1.00  0.00    -0.255 N 
HETATM   20  N7  UNL     1       2.055   0.533  -0.365  1.00  0.00    -0.002 NA
ATOM     21  H6  UNL     1       2.169   2.624  -1.029  1.00  0.00     0.187 HD
ENDBRANCH  13  14
ENDBRANCH   1  13
BRANCH   1  22
HETATM   22  C7  UNL     1      -0.888  -1.891   1.731  1.00  0.00     0.290 C 
HETATM   23  N8  UNL     1      -0.397  -2.973   2.497  1.00  0.00    -0.058 NA
HETATM   24  O3  UNL     1      -2.085  -1.573   1.808  1.00  0.00    -0.272 OA
ENDBRANCH   1  22
TORSDOF 7
