REMARK  8 active torsions:
REMARK  status: ('A' for Active; 'I' for Inactive)
REMARK    1  A    between atoms: N1_1  and  N2_4 
REMARK    2  A    between atoms: N2_4  and  C1_6 
REMARK    3  A    between atoms: N5_17  and  C5_18 
REMARK    4  A    between atoms: C5_18  and  C6_19 
REMARK    5  A    between atoms: C6_19  and  C7_20 
REMARK    6  A    between atoms: C7_20  and  C8_21 
REMARK    7  A    between atoms: C8_21  and  N6_22 
REMARK    8  A    between atoms: N6_22  and  N7_23 
ROOT
HETATM    1  C1  UNL     1      -2.222  -0.261   0.042  1.00  0.00     0.195 C 
HETATM    2  C2  UNL     1      -3.559  -0.023  -0.286  1.00  0.00     0.295 C 
HETATM    3  O1  UNL     1      -4.274  -1.040  -0.474  1.00  0.00    -0.264 OA
HETATM    4  N3  UNL     1      -4.154   1.169  -0.419  1.00  0.00    -0.272 N 
ATOM      5  H3  UNL     1      -5.055   1.170  -0.897  1.00  0.00     0.174 HD
HETATM    6  C3  UNL     1      -3.703   2.376   0.005  1.00  0.00     0.331 C 
HETATM    7  O2  UNL     1      -4.462   3.344  -0.270  1.00  0.00    -0.246 OA
HETATM    8  N4  UNL     1      -2.569   2.652   0.669  1.00  0.00    -0.260 N 
ATOM      9  H4  UNL     1      -2.478   3.612   1.002  1.00  0.00     0.175 HD
HETATM   10  C4  UNL     1      -1.528   1.833   0.959  1.00  0.00     0.332 C 
HETATM   11  O3  UNL     1      -0.566   2.351   1.582  1.00  0.00    -0.246 OA
HETATM   12  N5  UNL     1      -1.345   0.529   0.689  1.00  0.00    -0.280 N 
ENDROOT
BRANCH  12  13
HETATM   13  C5  UNL     1      -0.104  -0.067   1.130  1.00  0.00     0.135 C 
BRANCH  13  14
HETATM   14  C6  UNL     1       0.981   0.035   0.083  1.00  0.00     0.022 C 
BRANCH  14  15
HETATM   15  C7  UNL     1       2.254  -0.603   0.597  1.00  0.00     0.019 C 
BRANCH  15  16
HETATM   16  C8  UNL     1       3.304  -0.485  -0.458  1.00  0.00     0.134 C 
BRANCH  16  17
HETATM   17  N6  UNL     1       4.569  -1.068  -0.065  1.00  0.00    -0.148 NA
BRANCH  17  18
HETATM   18  N7  UNL     1       5.542  -0.962  -1.035  1.00  0.00    -0.348 N 
ATOM     19  H72 UNL     1       5.372  -0.514  -1.935  1.00  0.00     0.172 HD
ATOM     20  H71 UNL     1       6.434  -1.373  -0.758  1.00  0.00     0.172 HD
ENDBRANCH  17  18
ENDBRANCH  16  17
ENDBRANCH  15  16
ENDBRANCH  14  15
ENDBRANCH  13  14
ENDBRANCH  12  13
BRANCH   1  21
HETATM   21  N2  UNL     1      -1.730  -1.382  -0.310  1.00  0.00    -0.287 N 
ATOM     22  H2  UNL     1      -0.759  -1.610  -0.097  1.00  0.00     0.188 HD
BRANCH  21  23
HETATM   23  N1  UNL     1      -2.538  -2.294  -0.991  1.00  0.00    -0.343 N 
ATOM     24  H12 UNL     1      -3.507  -2.051  -1.196  1.00  0.00     0.176 HD
ATOM     25  H11 UNL     1      -2.144  -3.192  -1.273  1.00  0.00     0.176 HD
ENDBRANCH  21  23
ENDBRANCH   1  21
TORSDOF 8
