REMARK  11 active torsions:
REMARK  status: ('A' for Active; 'I' for Inactive)
REMARK    1  A    between atoms: N1_1  and  C1_4 
REMARK    2  A    between atoms: N4_11  and  C4_12 
REMARK    3  A    between atoms: C4_12  and  C5_13 
REMARK       I    between atoms: C5_13  and  N5_15 
REMARK    4  A    between atoms: N5_15  and  C6_17 
REMARK    5  A    between atoms: C6_17  and  C7_18 
REMARK    6  A    between atoms: C7_18  and  N6_19 
REMARK    7  A    between atoms: N6_19  and  C8_22 
REMARK    8  A    between atoms: C8_22  and  C9_23 
REMARK    9  A    between atoms: C10_25  and  C11_26 
REMARK   10  A    between atoms: C11_26  and  N7_27 
REMARK   11  A    between atoms: C12_31  and  O3_32 
ROOT
HETATM    1  C5  UNL     1       1.662  -0.887   1.036  1.00  0.00     0.235 C 
HETATM    2  O1  UNL     1       0.722  -1.621   1.389  1.00  0.00    -0.272 OA
HETATM    3  N5  UNL     1       1.678  -0.063  -0.080  1.00  0.00    -0.358 N 
ATOM      4  H5  UNL     1       2.548   0.454  -0.209  1.00  0.00     0.162 HD
ENDROOT
BRANCH   3   5
HETATM    5  C6  UNL     1       0.696   0.186  -1.072  1.00  0.00     0.150 C 
BRANCH   5   6
HETATM    6  C7  UNL     1      -0.550   0.850  -0.582  1.00  0.00     0.252 C 
BRANCH   6   7
HETATM    7  N6  UNL     1      -1.255   0.076   0.377  1.00  0.00    -0.071 N 
ATOM      8  H62 UNL     1      -1.468  -0.850   0.006  1.00  0.00     0.277 HD
ATOM      9  H61 UNL     1      -0.642  -0.187   1.149  1.00  0.00     0.277 HD
BRANCH   7  10
HETATM   10  C8  UNL     1      -2.450   0.715   0.870  1.00  0.00     0.266 C 
BRANCH  10  11
HETATM   11  C9  UNL     1      -3.450   0.769  -0.254  1.00  0.00     0.179 C 
HETATM   12  O2  UNL     1      -3.824  -0.471  -0.770  1.00  0.00    -0.372 OA
HETATM   13  C10 UNL     1      -5.067   0.103  -1.027  1.00  0.00     0.178 C 
HETATM   14  C12 UNL     1      -4.907   0.900   0.217  1.00  0.00     0.179 C 
BRANCH  13  15
HETATM   15  C11 UNL     1      -6.219  -0.845  -1.101  1.00  0.00     0.264 C 
BRANCH  15  16
HETATM   16  N7  UNL     1      -6.438  -1.595   0.107  1.00  0.00    -0.077 N 
ATOM     17  H73 UNL     1      -5.587  -2.086   0.383  1.00  0.00     0.274 HD
ATOM     18  H72 UNL     1      -6.541  -0.967   0.904  1.00  0.00     0.274 HD
ATOM     19  H71 UNL     1      -7.225  -2.242   0.056  1.00  0.00     0.274 HD
ENDBRANCH  15  16
ENDBRANCH  13  15
BRANCH  14  20
HETATM   20  O3  UNL     1      -5.388   2.207   0.152  1.00  0.00    -0.390 OA
ATOM     21  H3  UNL     1      -6.289   2.288   0.443  1.00  0.00     0.210 HD
ENDBRANCH  14  20
ENDBRANCH  10  11
ENDBRANCH   7  10
ENDBRANCH   6   7
ENDBRANCH   5   6
ENDBRANCH   3   5
BRANCH   1  22
HETATM   22  C4  UNL     1       2.863  -0.949   1.955  1.00  0.00     0.234 C 
BRANCH  22  23
HETATM   23  N4  UNL     1       3.912  -0.065   1.507  1.00  0.00    -0.317 N 
HETATM   24  C3  UNL     1       4.072   1.234   1.842  1.00  0.00     0.186 A 
HETATM   25  N3  UNL     1       5.153   1.700   1.223  1.00  0.00    -0.335 N 
HETATM   26  C2  UNL     1       5.683   0.708   0.497  1.00  0.00     0.167 A 
ATOM     27  H3  UNL     1       5.516   2.651   1.290  1.00  0.00     0.168 HD
HETATM   28  N2  UNL     1       6.666   0.330  -0.344  1.00  0.00    -0.173 N 
HETATM   29  C13 UNL     1       4.905  -0.406   0.672  1.00  0.00     0.169 A 
HETATM   30  C1  UNL     1       6.499  -0.955  -0.669  1.00  0.00     0.679 A 
ATOM     31  H2  UNL     1       7.419   0.931  -0.680  1.00  0.00     0.186 HD
HETATM   32  N8  UNL     1       5.411  -1.421  -0.045  1.00  0.00    -0.173 N 
ATOM     33  H8  UNL     1       5.037  -2.368  -0.103  1.00  0.00     0.186 HD
BRANCH  30  34
HETATM   34  N1  UNL     1       7.252  -1.650  -1.454  1.00  0.00    -0.234 N 
ATOM     35  H12 UNL     1       8.081  -1.295  -1.930  1.00  0.00     0.174 HD
ATOM     36  H11 UNL     1       7.124  -2.631  -1.702  1.00  0.00     0.174 HD
ENDBRANCH  30  34
ENDBRANCH  22  23
ENDBRANCH   1  22
TORSDOF 11
