REMARK  14 active torsions:
REMARK  status: ('A' for Active; 'I' for Inactive)
REMARK    1  A    between atoms: C2_2  and  N1_3 
REMARK    2  A    between atoms: N1_3  and  C3_4 
REMARK    3  A    between atoms: N1_3  and  C5_8 
REMARK    4  A    between atoms: C3_4  and  C4_5 
REMARK    5  A    between atoms: C4_5  and  O1_6 
REMARK    6  A    between atoms: C5_8  and  C6_9 
REMARK    7  A    between atoms: C6_9  and  N2_10 
REMARK       I    between atoms: N2_10  and  C7_12 
REMARK    8  A    between atoms: C7_12  and  C8_14 
REMARK    9  A    between atoms: C8_14  and  N3_15 
REMARK   10  A    between atoms: N3_15  and  C9_17 
REMARK   11  A    between atoms: C10_20  and  N5_21 
REMARK   12  A    between atoms: C12_28  and  N8_29 
REMARK   13  A    between atoms: N8_29  and  N9_30 
REMARK   14  A    between atoms: N8_29  and  O3_33 
ROOT
HETATM    1  C9  UNL     1       3.321   0.193   0.444  1.00  0.00     0.146 A 
HETATM    2  N4  UNL     1       2.677   1.328   0.149  1.00  0.00    -0.175 N 
ATOM      3  H4  UNL     1       1.676   1.391   0.337  1.00  0.00     0.186 HD
HETATM    4  C10 UNL     1       3.312   2.395  -0.391  1.00  0.00     0.678 A 
HETATM    5  N6  UNL     1       4.631   2.344  -0.648  1.00  0.00    -0.177 N 
ATOM      6  H6  UNL     1       5.096   3.156  -1.053  1.00  0.00     0.185 HD
HETATM    7  C11 UNL     1       5.355   1.221  -0.374  1.00  0.00     0.161 A 
HETATM    8  N7  UNL     1       6.743   1.177  -0.652  1.00  0.00    -0.080 NA
HETATM    9  C12 UNL     1       4.669   0.157   0.175  1.00  0.00     0.144 A 
ENDROOT
BRANCH   1  10
HETATM   10  N3  UNL     1       2.732  -0.822   0.938  1.00  0.00    -0.365 N 
ATOM     11  H3  UNL     1       3.326  -1.630   1.122  1.00  0.00     0.161 HD
BRANCH  10  12
HETATM   12  C8  UNL     1       1.359  -0.981   1.267  1.00  0.00     0.224 C 
BRANCH  12  13
HETATM   13  C7  UNL     1       0.527  -1.076   0.052  1.00  0.00     0.235 C 
HETATM   14  N2  UNL     1      -0.876  -1.250   0.146  1.00  0.00    -0.355 N 
ATOM     15  H2  UNL     1      -1.310  -1.314   1.067  1.00  0.00     0.162 HD
HETATM   16  O2  UNL     1       1.051  -1.004  -1.084  1.00  0.00    -0.272 OA
BRANCH  14  17
HETATM   17  C6  UNL     1      -1.711  -1.340  -1.039  1.00  0.00     0.167 C 
BRANCH  17  18
HETATM   18  C5  UNL     1      -3.151  -1.542  -0.696  1.00  0.00     0.082 C 
BRANCH  18  19
HETATM   19  N1  UNL     1      -3.779  -0.554   0.081  1.00  0.00    -0.371 N 
BRANCH  19  20
HETATM   20  C2  UNL     1      -5.080  -0.874   0.474  1.00  0.00     0.059 C 
HETATM   21  C1  UNL     1      -5.455  -0.600   1.887  1.00  0.00     0.055 C 
ENDBRANCH  19  20
BRANCH  19  22
HETATM   22  C3  UNL     1      -3.379   0.781   0.012  1.00  0.00     0.153 C 
BRANCH  22  23
HETATM   23  C4  UNL     1      -4.097   1.593  -1.076  1.00  0.00     0.184 C 
BRANCH  23  24
HETATM   24  O1  UNL     1      -3.853   1.036  -2.298  1.00  0.00    -0.399 OA
ATOM     25  H1  UNL     1      -4.297   1.538  -2.971  1.00  0.00     0.209 HD
ENDBRANCH  23  24
ENDBRANCH  22  23
ENDBRANCH  19  22
ENDBRANCH  18  19
ENDBRANCH  17  18
ENDBRANCH  14  17
ENDBRANCH  12  13
ENDBRANCH  10  12
ENDBRANCH   1  10
BRANCH   9  26
HETATM   26  N8  UNL     1       5.421  -1.024   0.468  1.00  0.00    -0.070 NA
BRANCH  26  27
HETATM   27  N9  UNL     1       4.594  -2.014   1.025  1.00  0.00    -0.336 NA
ATOM     28  H92 UNL     1       4.276  -1.647   1.922  1.00  0.00     0.173 HD
ATOM     29  H91 UNL     1       5.130  -2.856   1.234  1.00  0.00     0.173 HD
ENDBRANCH  26  27
BRANCH  26  30
HETATM   30  O3  UNL     1       5.843  -1.511  -0.724  1.00  0.00    -0.289 OA
ATOM     31  H3  UNL     1       6.342  -2.295  -0.529  1.00  0.00     0.239 HD
ENDBRANCH  26  30
ENDBRANCH   9  26
BRANCH   4  32
HETATM   32  N5  UNL     1       2.690   3.494  -0.679  1.00  0.00    -0.234 N 
ATOM     33  H52 UNL     1       1.690   3.533  -0.484  1.00  0.00     0.174 HD
ATOM     34  H51 UNL     1       3.168   4.298  -1.086  1.00  0.00     0.174 HD
ENDBRANCH   4  32
TORSDOF 14
