REMARK  6 active torsions:
REMARK  status: ('A' for Active; 'I' for Inactive)
REMARK    1  A    between atoms: C2_2  and  C3_3 
REMARK    2  A    between atoms: C3_3  and  N1_4 
REMARK    3  A    between atoms: C3_3  and  C4_9 
REMARK    4  A    between atoms: C4_9  and  C5_10 
REMARK    5  A    between atoms: C4_9  and  N7_22 
REMARK    6  A    between atoms: C5_10  and  C6_11 
ROOT
HETATM    1  C4  UNL     1      -0.383  -0.150  -0.128  1.00  0.00     0.129 C 
ENDROOT
BRANCH   1   2
HETATM    2  C3  UNL     1      -1.763  -0.747   0.018  1.00  0.00     0.122 C 
BRANCH   2   3
HETATM    3  C2  UNL     1      -1.788  -2.129  -0.589  1.00  0.00     0.024 C 
HETATM    4  C1  UNL     1      -3.187  -2.704  -0.423  1.00  0.00     0.007 C 
ENDBRANCH   2   3
BRANCH   2   5
HETATM    5  N1  UNL     1      -2.742   0.102  -0.658  1.00  0.00    -0.336 N 
HETATM    6  N2  UNL     1      -3.628   0.698  -0.024  1.00  0.00    -0.349 N 
ATOM      7  H22 UNL     1      -3.659   0.582   0.989  1.00  0.00     0.176 HD
ATOM      8  H21 UNL     1      -4.311   1.290  -0.496  1.00  0.00     0.176 HD
ATOM      9  H1  UNL     1      -2.697   0.207  -1.672  1.00  0.00     0.180 HD
ENDBRANCH   2   5
ENDBRANCH   1   2
BRANCH   1  10
HETATM   10  C5  UNL     1       0.632  -0.979   0.562  1.00  0.00     0.106 C 
BRANCH  10  11
HETATM   11  C6  UNL     1       2.010  -0.429   0.456  1.00  0.00     0.114 A 
HETATM   12  N3  UNL     1       2.652   0.424   1.264  1.00  0.00    -0.274 N 
HETATM   13  N4  UNL     1       3.870   0.666   0.816  1.00  0.00    -0.131 N 
ATOM     14  H3  UNL     1       2.254   0.831   2.110  1.00  0.00     0.189 HD
HETATM   15  C7  UNL     1       4.024  -0.048  -0.312  1.00  0.00     0.691 A 
ATOM     16  H4  UNL     1       4.563   1.279   1.245  1.00  0.00     0.205 HD
HETATM   17  N5  UNL     1       5.116  -0.043  -1.019  1.00  0.00    -0.233 N 
HETATM   18  N6  UNL     1       2.878  -0.718  -0.528  1.00  0.00    -0.178 N 
ATOM     19  H52 UNL     1       5.985   0.465  -0.855  1.00  0.00     0.174 HD
ATOM     20  H51 UNL     1       5.233  -0.585  -1.875  1.00  0.00     0.174 HD
ATOM     21  H6  UNL     1       2.697  -1.344  -1.312  1.00  0.00     0.185 HD
ENDBRANCH  10  11
ENDBRANCH   1  10
BRANCH   1  22
HETATM   22  N7  UNL     1      -0.362   1.235   0.246  1.00  0.00    -0.254 N 
HETATM   23  C8  UNL     1      -0.594   1.761   1.541  1.00  0.00     0.332 A 
HETATM   24  O1  UNL     1      -0.859   1.140   2.607  1.00  0.00    -0.246 OA
HETATM   25  N8  UNL     1      -0.481   3.200   1.490  1.00  0.00    -0.271 N 
HETATM   26  C9  UNL     1      -0.176   3.581   0.154  1.00  0.00     0.318 A 
ATOM     27  H8  UNL     1      -0.600   3.836   2.279  1.00  0.00     0.174 HD
HETATM   28  O2  UNL     1      -0.017   4.773  -0.205  1.00  0.00    -0.262 OA
HETATM   29  C10 UNL     1      -0.107   2.350  -0.598  1.00  0.00     0.320 A 
HETATM   30  O3  UNL     1       0.147   2.310  -1.835  1.00  0.00    -0.262 OA
ENDBRANCH   1  22
TORSDOF 6
