REMARK  8 active torsions:
REMARK  status: ('A' for Active; 'I' for Inactive)
REMARK    1  A    between atoms: N2_3  and  N3_5 
REMARK    2  A    between atoms: N3_5  and  C2_7 
REMARK       I    between atoms: N4_8  and  C3_10 
REMARK    3  A    between atoms: C3_10  and  C4_12 
REMARK    4  A    between atoms: C4_12  and  O2_13 
REMARK    5  A    between atoms: C4_12  and  C5_15 
REMARK    6  A    between atoms: C9_19  and  N5_20 
REMARK    7  A    between atoms: N5_20  and  S1_22 
REMARK    8  A    between atoms: S1_22  and  N6_23 
ROOT
HETATM    1  C5  UNL     1       0.869   0.456  -0.142  1.00  0.00     0.072 A 
HETATM    2  C6  UNL     1       1.177   1.664  -0.697  1.00  0.00     0.032 A 
HETATM    3  C7  UNL     1       2.504   2.044  -0.977  1.00  0.00     0.006 A 
HETATM    4  C8  UNL     1       3.486   1.130  -0.663  1.00  0.00     0.049 A 
HETATM    5  C9  UNL     1       3.188  -0.093  -0.103  1.00  0.00     0.116 A 
HETATM    6  N7  UNL     1       1.912  -0.396   0.140  1.00  0.00    -0.340 N 
ATOM      7  H7  UNL     1       1.699  -1.303   0.555  1.00  0.00     0.167 HD
ENDROOT
BRANCH   1   8
HETATM    8  C4  UNL     1      -0.477   0.055   0.150  1.00  0.00     0.161 C 
BRANCH   8   9
HETATM    9  C3  UNL     1      -1.660   0.818  -0.081  1.00  0.00     0.281 C 
HETATM   10  N4  UNL     1      -2.975   0.275   0.271  1.00  0.00    -0.316 N 
HETATM   11  C2  UNL     1      -3.619   0.762   1.268  1.00  0.00     0.200 C 
ATOM     12  H4  UNL     1      -3.377  -0.487  -0.275  1.00  0.00     0.170 HD
HETATM   13  O1  UNL     1      -1.652   1.965  -0.583  1.00  0.00    -0.265 OA
BRANCH  11  14
HETATM   14  N3  UNL     1      -4.891   0.259   1.632  1.00  0.00    -0.296 N 
ATOM     15  H3  UNL     1      -5.061  -0.042   2.592  1.00  0.00     0.187 HD
BRANCH  14  16
HETATM   16  N2  UNL     1      -5.910   0.172   0.691  1.00  0.00    -0.298 N 
HETATM   17  C1  UNL     1      -6.291  -0.966   0.210  1.00  0.00     0.206 C 
HETATM   18  N1  UNL     1      -7.325  -1.081  -0.748  1.00  0.00    -0.095 NA
ATOM     19  H2  UNL     1      -6.368   1.026   0.372  1.00  0.00     0.187 HD
ENDBRANCH  14  16
ENDBRANCH  11  14
ENDBRANCH   8   9
BRANCH   8  20
HETATM   20  O2  UNL     1      -0.682  -1.117   0.680  1.00  0.00    -0.354 OA
ATOM     21  H2  UNL     1       0.106  -1.625   0.834  1.00  0.00     0.218 HD
ENDBRANCH   8  20
ENDBRANCH   1   8
BRANCH   5  22
HETATM   22  N5  UNL     1       4.113  -0.910   0.174  1.00  0.00    -0.253 N 
ATOM     23  H5  UNL     1       3.829  -1.798   0.587  1.00  0.00     0.182 HD
BRANCH  22  24
HETATM   24  S1  UNL     1       5.779  -0.683  -0.069  1.00  0.00     0.318 S 
HETATM   25  O3  UNL     1       6.340   0.518   0.607  1.00  0.00    -0.183 OA
HETATM   26  O4  UNL     1       6.005  -0.495  -1.564  1.00  0.00    -0.183 OA
BRANCH  24  27
HETATM   27  N6  UNL     1       6.711  -2.056   0.390  1.00  0.00    -0.311 N 
ATOM     28  H62 UNL     1       6.293  -2.907   0.766  1.00  0.00     0.170 HD
ATOM     29  H61 UNL     1       7.711  -1.920   0.244  1.00  0.00     0.170 HD
ENDBRANCH  24  27
ENDBRANCH  22  24
ENDBRANCH   5  22
TORSDOF 8
