REMARK  5 active torsions:
REMARK  status: ('A' for Active; 'I' for Inactive)
REMARK    1  A    between atoms: N3_4  and  C2_6 
REMARK    2  A    between atoms: N4_7  and  S1_9 
REMARK    3  A    between atoms: S1_9  and  C3_12 
REMARK    4  A    between atoms: C3_12  and  C4_13 
REMARK    5  A    between atoms: C4_13  and  C5_14 
ROOT
HETATM    1  C4  UNL     1      -1.161  -1.435   0.391  1.00  0.00     0.051 C 
ENDROOT
BRANCH   1   2
HETATM    2  C3  UNL     1       0.266  -1.214   0.187  1.00  0.00     0.166 C 
BRANCH   2   3
HETATM    3  S1  UNL     1       0.859   0.049  -0.841  1.00  0.00     0.231 S 
HETATM    4  O1  UNL     1       0.468   1.434  -0.420  1.00  0.00    -0.206 OA
HETATM    5  O2  UNL     1       0.630  -0.184  -2.312  1.00  0.00    -0.206 OA
BRANCH   3   6
HETATM    6  N4  UNL     1       2.631  -0.019  -0.720  1.00  0.00    -0.281 N 
HETATM    7  C2  UNL     1       3.286   1.089  -0.801  1.00  0.00     0.193 C 
ATOM      8  H4  UNL     1       3.115  -0.907  -0.590  1.00  0.00     0.179 HD
BRANCH   7   9
HETATM    9  N3  UNL     1       4.703   1.086  -0.710  1.00  0.00    -0.329 N 
HETATM   10  C1  UNL     1       5.293   1.579   0.329  1.00  0.00     0.201 C 
HETATM   11  N1  UNL     1       4.527   2.125   1.385  1.00  0.00    -0.066 NA
HETATM   12  N2  UNL     1       6.701   1.571   0.406  1.00  0.00    -0.066 NA
ATOM     13  H3  UNL     1       5.259   0.692  -1.469  1.00  0.00     0.168 HD
ENDBRANCH   7   9
ENDBRANCH   3   6
ENDBRANCH   2   3
ENDBRANCH   1   2
BRANCH   1  14
HETATM   14  C5  UNL     1      -2.088  -1.786  -0.701  1.00  0.00     0.179 C 
HETATM   15  N5  UNL     1      -2.241  -0.825  -1.749  1.00  0.00    -0.330 N 
HETATM   16  C6  UNL     1      -2.828   0.482  -1.571  1.00  0.00     0.321 C 
ATOM     17  H5  UNL     1      -1.915  -1.079  -2.681  1.00  0.00     0.165 HD
HETATM   18  O3  UNL     1      -2.372   1.393  -2.334  1.00  0.00    -0.247 OA
HETATM   19  N6  UNL     1      -3.841   0.822  -0.644  1.00  0.00    -0.305 N 
HETATM   20  C7  UNL     1      -4.631   0.030   0.250  1.00  0.00     0.187 C 
ATOM     21  H6  UNL     1      -4.048   1.820  -0.605  1.00  0.00     0.171 HD
HETATM   22  N7  UNL     1      -4.571  -1.380   0.034  1.00  0.00    -0.321 N 
HETATM   23  C8  UNL     1      -3.420  -2.173  -0.133  1.00  0.00     0.245 C 
ATOM     24  H7  UNL     1      -5.465  -1.869  -0.004  1.00  0.00     0.169 HD
HETATM   25  O4  UNL     1      -3.494  -3.363   0.233  1.00  0.00    -0.271 OA
ENDBRANCH   1  14
TORSDOF 5
