REMARK  7 active torsions:
REMARK  status: ('A' for Active; 'I' for Inactive)
REMARK    1  A    between atoms: C3_5  and  C4_6 
REMARK    2  A    between atoms: C4_6  and  C5_7 
REMARK    3  A    between atoms: C7_9  and  O1_10 
REMARK    4  A    between atoms: N3_14  and  C9_15 
REMARK    5  A    between atoms: C9_15  and  C10_16 
REMARK    6  A    between atoms: C10_16  and  C11_17 
REMARK    7  A    between atoms: C11_17  and  N4_18 
ROOT
HETATM    1  C5  UNL     1      -0.611  -0.417  -1.019  1.00  0.00     0.057 A 
HETATM    2  C6  UNL     1      -0.652  -1.221  -2.131  1.00  0.00     0.088 A 
HETATM    3  C7  UNL     1       0.337  -2.160  -1.955  1.00  0.00     0.159 A 
HETATM    4  N2  UNL     1       0.933  -1.907  -0.775  1.00  0.00    -0.273 N 
HETATM    5  C8  UNL     1       2.031  -2.746  -0.278  1.00  0.00     0.180 C 
HETATM    6  N3  UNL     1       0.366  -0.869  -0.223  1.00  0.00    -0.288 N 
ENDROOT
BRANCH   1   7
HETATM    7  C4  UNL     1      -1.476   0.725  -0.760  1.00  0.00     0.066 C 
BRANCH   7   8
HETATM    8  C3  UNL     1      -2.621   0.687  -0.138  1.00  0.00     0.103 A 
HETATM    9  N1  UNL     1      -3.319   1.832   0.030  1.00  0.00    -0.348 N 
HETATM   10  C2  UNL     1      -4.498   1.909   0.650  1.00  0.00     0.092 A 
ATOM     11  H1  UNL     1      -2.918   2.693  -0.341  1.00  0.00     0.166 HD
HETATM   12  C1  UNL     1      -5.167   3.037   0.806  1.00  0.00     0.049 C 
HETATM   13  C14 UNL     1      -5.040   0.725   1.154  1.00  0.00     0.274 A 
HETATM   14  N6  UNL     1      -4.369  -0.428   1.001  1.00  0.00    -0.287 N 
HETATM   15  O3  UNL     1      -6.147   0.735   1.748  1.00  0.00    -0.266 OA
HETATM   16  C13 UNL     1      -3.164  -0.455   0.359  1.00  0.00     0.275 A 
ATOM     17  H6  UNL     1      -4.764  -1.294   1.369  1.00  0.00     0.172 HD
HETATM   18  O2  UNL     1      -2.581  -1.568   0.246  1.00  0.00    -0.266 OA
ENDBRANCH   7   8
ENDBRANCH   1   7
BRANCH   6  19
HETATM   19  C9  UNL     1       0.730  -0.306   1.074  1.00  0.00     0.151 C 
BRANCH  19  20
HETATM   20  C10 UNL     1       1.710   0.811   1.008  1.00  0.00     0.041 C 
BRANCH  20  21
HETATM   21  C11 UNL     1       3.036   0.474   0.378  1.00  0.00     0.121 C 
BRANCH  21  22
HETATM   22  N4  UNL     1       3.893   1.668   0.400  1.00  0.00    -0.388 N 
HETATM   23  C12 UNL     1       5.170   1.557   0.526  1.00  0.00     0.185 C 
HETATM   24  N5  UNL     1       5.722   0.254   0.642  1.00  0.00    -0.097 NA
ATOM     25  H4  UNL     1       3.472   2.593   0.315  1.00  0.00     0.159 HD
ENDBRANCH  21  22
ENDBRANCH  20  21
ENDBRANCH  19  20
ENDBRANCH   6  19
BRANCH   3  26
HETATM   26  O1  UNL     1       0.606  -3.160  -2.881  1.00  0.00    -0.345 OA
ATOM     27  H1  UNL     1       1.289  -3.809  -2.759  1.00  0.00     0.219 HD
ENDBRANCH   3  26
TORSDOF 7
