REMARK  4 active torsions:
REMARK  status: ('A' for Active; 'I' for Inactive)
REMARK    1  A    between atoms: C3_3  and  O1_4 
REMARK    2  A    between atoms: O1_4  and  C4_5 
REMARK    3  A    between atoms: C5_6  and  C6_7 
REMARK    4  A    between atoms: N1_8  and  N2_10 
REMARK       I    between atoms: N2_10  and  C7_12 
ROOT
HETATM    1  C1  UNL     1      -0.492   4.658   0.654  1.00  0.00     0.014 C 
HETATM    2  C2  UNL     1      -0.830   3.517   0.759  1.00  0.00    -0.091 C 
HETATM    3  C3  UNL     1      -1.215   2.128   0.890  1.00  0.00     0.270 C 
ENDROOT
BRANCH   3   4
HETATM    4  O1  UNL     1      -1.036   1.423  -0.347  1.00  0.00    -0.323 OA
BRANCH   4   5
HETATM    5  C4  UNL     1      -1.390   0.064  -0.297  1.00  0.00     0.158 A 
HETATM    6  C5  UNL     1      -0.451  -0.925  -0.065  1.00  0.00     0.051 A 
HETATM    7  C8  UNL     1      -0.845  -2.233  -0.026  1.00  0.00     0.034 A 
HETATM    8  C9  UNL     1       0.101  -3.282   0.212  1.00  0.00    -0.077 C 
HETATM    9  C11 UNL     1      -2.196  -2.520  -0.225  1.00  0.00     0.039 A 
HETATM   10  C10 UNL     1       0.878  -4.186   0.411  1.00  0.00     0.018 C 
HETATM   11  C12 UNL     1      -3.122  -1.525  -0.456  1.00  0.00     0.094 A 
HETATM   12  N5  UNL     1      -2.678  -0.248  -0.484  1.00  0.00    -0.341 N 
HETATM   13  C13 UNL     1      -3.637   0.836  -0.728  1.00  0.00     0.158 C 
BRANCH   6  14
HETATM   14  C6  UNL     1       0.927  -0.498   0.127  1.00  0.00     0.124 C 
HETATM   15  N1  UNL     1       1.926  -1.258   0.351  1.00  0.00    -0.309 N 
ATOM     16  H1  UNL     1       1.761  -2.263   0.404  1.00  0.00     0.186 HD
BRANCH  15  17
HETATM   17  N2  UNL     1       3.228  -0.799   0.528  1.00  0.00    -0.274 N 
HETATM   18  C7  UNL     1       3.875   0.076  -0.383  1.00  0.00     0.200 C 
HETATM   19  N3  UNL     1       3.467   0.156  -1.603  1.00  0.00    -0.372 N 
HETATM   20  N4  UNL     1       4.975   0.881   0.010  1.00  0.00    -0.062 NA
ATOM     21  H32 UNL     1       2.676  -0.423  -1.886  1.00  0.00     0.158 HD
ATOM     22  H31 UNL     1       3.932   0.785  -2.258  1.00  0.00     0.158 HD
ATOM     23  H2  UNL     1       3.743  -1.107   1.353  1.00  0.00     0.189 HD
ENDBRANCH  15  17
ENDBRANCH   6  14
ENDBRANCH   4   5
ENDBRANCH   3   4
TORSDOF 4
