REMARK  4 active torsions:
REMARK  status: ('A' for Active; 'I' for Inactive)
REMARK    1  A    between atoms: C3_6  and  C4_7 
REMARK    2  A    between atoms: N5_19  and  C11_21 
REMARK    3  A    between atoms: C11_21  and  C12_22 
REMARK    4  A    between atoms: C12_22  and  N6_23 
ROOT
HETATM    1  C1  UNL     1       2.015  -3.070  -0.795  1.00  0.00     0.197 C 
HETATM    2  N1  UNL     1       1.186  -1.920  -0.415  1.00  0.00    -0.128 N 
HETATM    3  N2  UNL     1      -0.179  -1.944  -0.666  1.00  0.00    -0.279 N 
ATOM      4  H2  UNL     1      -0.577  -2.770  -1.113  1.00  0.00     0.188 HD
HETATM    5  C2  UNL     1      -1.066  -0.849  -0.322  1.00  0.00     0.119 A 
HETATM    6  C3  UNL     1      -2.341  -0.958  -0.556  1.00  0.00     0.066 C 
HETATM    7  C9  UNL     1      -0.398   0.273   0.309  1.00  0.00     0.287 A 
HETATM    8  O1  UNL     1      -1.067   1.276   0.656  1.00  0.00    -0.265 OA
HETATM    9  N4  UNL     1       1.016   0.322   0.580  1.00  0.00    -0.153 N 
ATOM     10  H4  UNL     1       1.437   1.136   1.027  1.00  0.00     0.187 HD
HETATM   11  C10 UNL     1       1.799  -0.788   0.209  1.00  0.00     0.697 A 
HETATM   12  N5  UNL     1       3.049  -0.829   0.410  1.00  0.00    -0.223 N 
ATOM     13  H5  UNL     1       3.571  -1.657   0.124  1.00  0.00     0.177 HD
ENDROOT
BRANCH   6  14
HETATM   14  C4  UNL     1      -3.436  -0.066  -0.338  1.00  0.00     0.034 A 
HETATM   15  C5  UNL     1      -3.604   1.203  -0.819  1.00  0.00     0.029 A 
HETATM   16  C6  UNL     1      -4.720   1.932  -0.486  1.00  0.00     0.004 A 
HETATM   17  C7  UNL     1      -5.690   1.392   0.340  1.00  0.00     0.017 A 
HETATM   18  C8  UNL     1      -5.511   0.105   0.822  1.00  0.00     0.088 A 
HETATM   19  N3  UNL     1      -4.425  -0.564   0.480  1.00  0.00    -0.366 N 
ATOM     20  H3  UNL     1      -4.312  -1.510   0.845  1.00  0.00     0.165 HD
ENDBRANCH   6  14
BRANCH  12  21
HETATM   21  C11 UNL     1       3.750   0.258   1.029  1.00  0.00     0.165 C 
BRANCH  21  22
HETATM   22  C12 UNL     1       4.055   1.312  -0.024  1.00  0.00     0.249 C 
BRANCH  22  23
HETATM   23  N6  UNL     1       4.754   2.420   0.555  1.00  0.00    -0.078 N 
ATOM     24  H63 UNL     1       4.247   2.814   1.348  1.00  0.00     0.274 HD
ATOM     25  H62 UNL     1       5.597   2.121   1.045  1.00  0.00     0.274 HD
ATOM     26  H61 UNL     1       4.959   3.127  -0.151  1.00  0.00     0.274 HD
ENDBRANCH  22  23
ENDBRANCH  21  22
ENDBRANCH  12  21
TORSDOF 4
