REMARK  7 active torsions:
REMARK  status: ('A' for Active; 'I' for Inactive)
REMARK    1  A    between atoms: C2_2  and  C3_3 
REMARK    2  A    between atoms: C3_3  and  C4_4 
REMARK    3  A    between atoms: C4_4  and  N1_5 
REMARK    4  A    between atoms: N1_5  and  C5_7 
REMARK    5  A    between atoms: N3_10  and  N4_11 
REMARK    6  A    between atoms: C10_20  and  N6_21 
REMARK    7  A    between atoms: N6_21  and  C11_23 
ROOT
HETATM    1  C5  UNL     1       0.145   0.514   0.400  1.00  0.00     0.699 C 
HETATM    2  N2  UNL     1       0.381  -0.755   0.772  1.00  0.00    -0.111 N 
ATOM      3  H2  UNL     1       1.123  -0.889   1.459  1.00  0.00     0.208 HD
HETATM    4  N3  UNL     1      -0.241  -1.870   0.349  1.00  0.00    -0.187 N 
HETATM    5  C6  UNL     1      -1.516  -2.018  -0.077  1.00  0.00     0.106 A 
HETATM    6  C7  UNL     1      -2.136  -3.196  -0.441  1.00  0.00     0.053 A 
HETATM    7  C8  UNL     1      -3.443  -2.946  -0.820  1.00  0.00     0.091 A 
HETATM    8  N5  UNL     1      -3.612  -1.609  -0.683  1.00  0.00    -0.361 N 
ATOM      9  H5  UNL     1      -4.477  -1.107  -0.886  1.00  0.00     0.165 HD
HETATM   10  C9  UNL     1      -2.478  -1.038  -0.242  1.00  0.00     0.107 A 
HETATM   11  C10 UNL     1      -2.288   0.318   0.011  1.00  0.00     0.146 C 
HETATM   12  N7  UNL     1      -1.126   0.977   0.178  1.00  0.00    -0.173 N 
ATOM     13  H7  UNL     1      -1.205   1.993   0.131  1.00  0.00     0.186 HD
ENDROOT
BRANCH   1  14
HETATM   14  N1  UNL     1       1.095   1.351   0.234  1.00  0.00    -0.204 N 
ATOM     15  H1  UNL     1       0.785   2.281  -0.049  1.00  0.00     0.183 HD
BRANCH  14  16
HETATM   16  C4  UNL     1       2.483   1.229   0.368  1.00  0.00     0.079 C 
BRANCH  16  17
HETATM   17  C3  UNL     1       3.026  -0.113   0.744  1.00  0.00     0.045 C 
BRANCH  17  18
HETATM   18  C2  UNL     1       4.561  -0.060   0.846  1.00  0.00     0.001 C 
HETATM   19  C1  UNL     1       5.075   0.354  -0.516  1.00  0.00     0.005 C 
ENDBRANCH  17  18
ENDBRANCH  16  17
ENDBRANCH  14  16
ENDBRANCH   1  14
BRANCH   4  20
HETATM   20  N4  UNL     1       0.480  -3.059   0.328  1.00  0.00    -0.323 N 
ATOM     21  H42 UNL     1       1.442  -2.947   0.649  1.00  0.00     0.179 HD
ATOM     22  H41 UNL     1       0.008  -3.905   0.007  1.00  0.00     0.179 HD
ENDBRANCH   4  20
BRANCH  11  23
HETATM   23  N6  UNL     1      -3.375   1.001   0.089  1.00  0.00    -0.374 N 
ATOM     24  H6  UNL     1      -4.250   0.493  -0.039  1.00  0.00     0.161 HD
BRANCH  23  25
HETATM   25  C11 UNL     1      -3.471   2.411   0.340  1.00  0.00     0.116 C 
HETATM   26  C12 UNL     1      -3.281   3.253  -0.905  1.00  0.00     0.026 C 
ENDBRANCH  23  25
ENDBRANCH  11  23
TORSDOF 7
