REMARK  7 active torsions:
REMARK  status: ('A' for Active; 'I' for Inactive)
REMARK    1  A    between atoms: C3_5  and  C4_6 
REMARK    2  A    between atoms: C4_6  and  C5_7 
REMARK    3  A    between atoms: C8_10  and  O1_11 
REMARK    4  A    between atoms: O1_11  and  C9_12 
REMARK    5  A    between atoms: C9_12  and  C10_13 
REMARK    6  A    between atoms: C10_13  and  O2_14 
REMARK    7  A    between atoms: C13_18  and  N2_19 
ROOT
HETATM    1  C4  UNL     1      -1.162   1.766   0.156  1.00  0.00     0.044 C 
ENDROOT
BRANCH   1   2
HETATM    2  C3  UNL     1      -2.302   1.125  -0.033  1.00  0.00     0.078 A 
HETATM    3  N1  UNL     1      -3.503   1.712  -0.225  1.00  0.00    -0.340 N 
HETATM    4  C2  UNL     1      -4.456   0.763  -0.385  1.00  0.00     0.099 A 
ATOM      5  H1  UNL     1      -3.668   2.718  -0.246  1.00  0.00     0.167 HD
HETATM    6  C1  UNL     1      -5.753   0.949  -0.595  1.00  0.00     0.064 C 
HETATM    7  N3  UNL     1      -3.806  -0.411  -0.286  1.00  0.00    -0.323 N 
HETATM    8  C13 UNL     1      -2.490  -0.241  -0.071  1.00  0.00     0.129 A 
HETATM    9  C14 UNL     1      -4.432  -1.712  -0.394  1.00  0.00     0.159 C 
BRANCH   8  10
HETATM   10  N2  UNL     1      -1.569  -1.129   0.074  1.00  0.00    -0.383 N 
ATOM     11  H22 UNL     1      -0.570  -1.000   0.237  1.00  0.00     0.157 HD
ATOM     12  H21 UNL     1      -1.708  -2.139   0.046  1.00  0.00     0.157 HD
ENDBRANCH   8  10
ENDBRANCH   1   2
BRANCH   1  13
HETATM   13  C5  UNL     1       0.105   1.099   0.359  1.00  0.00    -0.034 A 
HETATM   14  C6  UNL     1       0.954   0.744  -0.659  1.00  0.00     0.014 A 
HETATM   15  C7  UNL     1       2.170   0.101  -0.408  1.00  0.00     0.037 A 
HETATM   16  C8  UNL     1       2.557  -0.200   0.879  1.00  0.00     0.068 A 
HETATM   17  C11 UNL     1       1.689   0.161   1.925  1.00  0.00     0.037 A 
HETATM   18  C12 UNL     1       0.508   0.791   1.628  1.00  0.00     0.014 A 
BRANCH  16  19
HETATM   19  O1  UNL     1       3.715  -0.818   1.206  1.00  0.00    -0.349 OA
BRANCH  19  20
HETATM   20  C9  UNL     1       4.781  -1.288   0.495  1.00  0.00     0.201 C 
BRANCH  20  21
HETATM   21  C10 UNL     1       5.582  -0.279  -0.286  1.00  0.00     0.190 C 
BRANCH  21  22
HETATM   22  O2  UNL     1       6.644  -0.903  -0.967  1.00  0.00    -0.399 OA
ATOM     23  H2  UNL     1       7.149  -0.267  -1.459  1.00  0.00     0.209 HD
ENDBRANCH  21  22
ENDBRANCH  20  21
ENDBRANCH  19  20
ENDBRANCH  16  19
ENDBRANCH   1  13
TORSDOF 7
