REMARK  5 active torsions:
REMARK  status: ('A' for Active; 'I' for Inactive)
REMARK    1  A    between atoms: C2_2  and  N1_3 
REMARK    2  A    between atoms: C4_6  and  C5_7 
REMARK    3  A    between atoms: C5_7  and  C6_8 
REMARK    4  A    between atoms: C6_8  and  N3_9 
REMARK    5  A    between atoms: N5_16  and  N6_18 
ROOT
HETATM    1  N1  UNL     1      -2.546  -0.009   0.340  1.00  0.00    -0.298 N 
HETATM    2  C3  UNL     1      -1.260  -0.384   0.083  1.00  0.00     0.144 A 
HETATM    3  N2  UNL     1      -0.906  -1.702   0.521  1.00  0.00    -0.080 NA
HETATM    4  C4  UNL     1      -0.356   0.442  -0.563  1.00  0.00     0.054 A 
HETATM    5  N4  UNL     1      -0.795   1.662  -0.942  1.00  0.00    -0.337 N 
ATOM      6  H4  UNL     1      -0.147   2.289  -1.420  1.00  0.00     0.167 HD
HETATM    7  C10 UNL     1      -2.052   2.084  -0.715  1.00  0.00     0.189 A 
HETATM    8  N5  UNL     1      -2.381   3.264  -1.113  1.00  0.00    -0.287 N 
ATOM      9  H5  UNL     1      -1.690   3.846  -1.586  1.00  0.00     0.188 HD
HETATM   10  C11 UNL     1      -2.914   1.225  -0.069  1.00  0.00     0.294 A 
HETATM   11  O1  UNL     1      -4.099   1.579   0.163  1.00  0.00    -0.264 OA
ENDROOT
BRANCH   4  12
HETATM   12  C5  UNL     1       1.031  -0.005  -0.823  1.00  0.00     0.088 C 
BRANCH  12  13
HETATM   13  C6  UNL     1       1.945   0.050   0.347  1.00  0.00     0.242 C 
BRANCH  13  14
HETATM   14  N3  UNL     1       3.281  -0.391   0.063  1.00  0.00    -0.078 N 
HETATM   15  C7  UNL     1       3.822  -1.240   1.101  1.00  0.00     0.271 C 
HETATM   16  C8  UNL     1       4.138   0.773  -0.058  1.00  0.00     0.271 C 
HETATM   17  C9  UNL     1       3.384  -1.118  -1.185  1.00  0.00     0.271 C 
ENDBRANCH  13  14
ENDBRANCH  12  13
ENDBRANCH   4  12
BRANCH   1  18
HETATM   18  C2  UNL     1      -3.448  -0.906   1.015  1.00  0.00     0.129 C 
HETATM   19  C1  UNL     1      -4.226  -1.805   0.111  1.00  0.00     0.027 C 
ENDBRANCH   1  18
BRANCH   8  20
HETATM   20  N6  UNL     1      -3.666   3.755  -0.907  1.00  0.00    -0.343 N 
ATOM     21  H62 UNL     1      -4.345   3.160  -0.433  1.00  0.00     0.176 HD
ATOM     22  H61 UNL     1      -3.927   4.689  -1.222  1.00  0.00     0.176 HD
ENDBRANCH   8  20
TORSDOF 5
