REMARK  6 active torsions:
REMARK  status: ('A' for Active; 'I' for Inactive)
REMARK    1  A    between atoms: C1_2  and  C2_4 
REMARK    2  A    between atoms: C4_6  and  O3_7 
REMARK    3  A    between atoms: C5_9  and  O4_10 
REMARK    4  A    between atoms: C6_12  and  C7_13 
REMARK    5  A    between atoms: C7_13  and  O5_14 
REMARK    6  A    between atoms: C7_13  and  C8_16 
ROOT
HETATM    1  C2  UNL     1      -2.298  -1.083  -0.152  1.00  0.00     0.181 C 
HETATM    2  C3  UNL     1      -3.374  -0.173   0.335  1.00  0.00     0.070 C 
HETATM    3  C4  UNL     1      -3.136   1.158  -0.361  1.00  0.00     0.151 C 
HETATM    4  C5  UNL     1      -1.828   1.666   0.138  1.00  0.00     0.171 C 
HETATM    5  C6  UNL     1      -0.664   0.727  -0.186  1.00  0.00     0.138 C 
HETATM    6  N1  UNL     1      -0.962  -0.631  -0.007  1.00  0.00    -0.399 N 
ATOM      7  H1  UNL     1      -0.221  -1.291   0.227  1.00  0.00     0.154 HD
ENDROOT
BRANCH   5   8
HETATM    8  C7  UNL     1       0.488   1.229   0.591  1.00  0.00     0.147 C 
BRANCH   8   9
HETATM    9  O5  UNL     1       0.707   2.616   0.360  1.00  0.00    -0.393 OA
ATOM     10  H5  UNL     1       1.448   2.939   0.860  1.00  0.00     0.210 HD
ENDBRANCH   8   9
BRANCH   8  11
HETATM   11  C8  UNL     1       1.799   0.577   0.516  1.00  0.00     0.016 C 
HETATM   12  C9  UNL     1       1.911  -0.851   0.953  1.00  0.00     0.007 C 
HETATM   13  C10 UNL     1       2.578  -1.708  -0.113  1.00  0.00     0.000 C 
HETATM   14  C11 UNL     1       3.971  -1.168  -0.310  1.00  0.00     0.000 C 
HETATM   15  C12 UNL     1       3.915   0.278  -0.712  1.00  0.00     0.000 C 
HETATM   16  C13 UNL     1       2.493   0.784  -0.840  1.00  0.00     0.007 C 
ENDBRANCH   8  11
ENDBRANCH   5   8
BRANCH   4  17
HETATM   17  O4  UNL     1      -1.946   1.904   1.506  1.00  0.00    -0.391 OA
ATOM     18  H4  UNL     1      -1.112   2.228   1.824  1.00  0.00     0.210 HD
ENDBRANCH   4  17
BRANCH   3  19
HETATM   19  O3  UNL     1      -4.130   2.018   0.051  1.00  0.00    -0.393 OA
ATOM     20  H3  UNL     1      -3.981   2.849  -0.384  1.00  0.00     0.210 HD
ENDBRANCH   3  19
BRANCH   1  21
HETATM   21  C1  UNL     1      -2.453  -2.376   0.569  1.00  0.00     0.196 C 
HETATM   22  O1  UNL     1      -1.534  -2.947   1.193  1.00  0.00    -0.646 OA
HETATM   23  O2  UNL     1      -3.700  -2.980   0.541  1.00  0.00    -0.646 OA
ENDBRANCH   1  21
TORSDOF 6
