REMARK  8 active torsions:
REMARK  status: ('A' for Active; 'I' for Inactive)
REMARK    1  A    between atoms: N1_1  and  C1_5 
REMARK    2  A    between atoms: C1_5  and  C2_6 
REMARK    3  A    between atoms: C5_9  and  C6_10 
REMARK    4  A    between atoms: C6_10  and  N2_11 
REMARK    5  A    between atoms: N2_11  and  C7_13 
REMARK    6  A    between atoms: C10_19  and  O1_20 
REMARK    7  A    between atoms: O1_20  and  C11_21 
REMARK    8  A    between atoms: C14_25  and  O2_26 
ROOT
HETATM    1  C7  UNL     1       0.633   0.049  -1.293  1.00  0.00     0.077 A 
HETATM    2  C8  UNL     1       1.018   0.865  -2.385  1.00  0.00     0.077 A 
HETATM    3 CL1  UNL     1      -0.193   1.320  -3.557  1.00  0.00    -0.080 Cl
HETATM    4  C9  UNL     1       2.324   1.251  -2.458  1.00  0.00     0.116 A 
HETATM    5  N3  UNL     1       3.227   0.875  -1.529  1.00  0.00    -0.343 N 
ATOM      6  H3  UNL     1       4.192   1.191  -1.629  1.00  0.00     0.167 HD
HETATM    7  C10 UNL     1       2.910   0.104  -0.481  1.00  0.00     0.172 A 
HETATM    8  C17 UNL     1       1.576  -0.315  -0.367  1.00  0.00     0.113 A 
HETATM    9 CL4  UNL     1       1.130  -1.324   0.995  1.00  0.00    -0.077 Cl
ENDROOT
BRANCH   1  10
HETATM   10  N2  UNL     1      -0.592  -0.263  -1.301  1.00  0.00    -0.387 N 
ATOM     11  H2  UNL     1      -1.130   0.110  -2.083  1.00  0.00     0.159 HD
BRANCH  10  12
HETATM   12  C6  UNL     1      -1.321  -1.046  -0.394  1.00  0.00     0.124 C 
BRANCH  12  13
HETATM   13  C5  UNL     1      -2.792  -1.207  -0.824  1.00  0.00     0.003 C 
HETATM   14  C4  UNL     1      -3.534  -2.058   0.186  1.00  0.00     0.007 C 
HETATM   15  C3  UNL     1      -4.126  -1.115   1.221  1.00  0.00     0.007 C 
HETATM   16  C2  UNL     1      -5.332  -0.440   0.606  1.00  0.00     0.011 C 
HETATM   17  C19 UNL     1      -4.965   0.035  -0.770  1.00  0.00     0.007 C 
HETATM   18  C18 UNL     1      -3.480   0.114  -0.912  1.00  0.00     0.007 C 
BRANCH  16  19
HETATM   19  C1  UNL     1      -5.763   0.766   1.423  1.00  0.00     0.234 C 
BRANCH  19  20
HETATM   20  N1  UNL     1      -6.917   1.360   0.778  1.00  0.00    -0.079 N 
ATOM     21  H13 UNL     1      -6.746   1.589  -0.201  1.00  0.00     0.274 HD
ATOM     22  H12 UNL     1      -7.674   0.692   0.633  1.00  0.00     0.274 HD
ATOM     23  H11 UNL     1      -7.206   2.170   1.327  1.00  0.00     0.274 HD
ENDBRANCH  19  20
ENDBRANCH  16  19
ENDBRANCH  12  13
ENDBRANCH  10  12
ENDBRANCH   1  10
BRANCH   7  24
HETATM   24  O1  UNL     1       3.803  -0.307   0.502  1.00  0.00    -0.290 OA
BRANCH  24  25
HETATM   25  C11 UNL     1       5.137  -0.045   0.541  1.00  0.00     0.101 A 
HETATM   26  C12 UNL     1       5.652   0.741   1.547  1.00  0.00     0.065 A 
HETATM   27  C13 UNL     1       7.009   1.034   1.628  1.00  0.00     0.070 A 
HETATM   28 CL2  UNL     1       7.583   2.047   2.946  1.00  0.00    -0.081 Cl
HETATM   29  C14 UNL     1       7.857   0.521   0.673  1.00  0.00     0.089 A 
HETATM   30  C15 UNL     1       7.380  -0.259  -0.332  1.00  0.00     0.065 A 
HETATM   31  C16 UNL     1       6.003  -0.544  -0.395  1.00  0.00     0.070 A 
HETATM   32 CL3  UNL     1       5.466  -1.586  -1.680  1.00  0.00    -0.081 Cl
BRANCH  29  33
HETATM   33  O2  UNL     1       9.224   0.830   0.774  1.00  0.00    -0.359 OA
ATOM     34  H2  UNL     1       9.809   0.476   0.115  1.00  0.00     0.217 HD
ENDBRANCH  29  33
ENDBRANCH  24  25
ENDBRANCH   7  24
TORSDOF 8
