REMARK  6 active torsions:
REMARK  status: ('A' for Active; 'I' for Inactive)
REMARK    1  A    between atoms: O1_2  and  C2_3 
REMARK    2  A    between atoms: C3_4  and  C4_5 
REMARK    3  A    between atoms: C11_18  and  C12_19 
REMARK    4  A    between atoms: C12_19  and  N3_21 
REMARK    5  A    between atoms: N3_21  and  C14_22 
REMARK    6  A    between atoms: C18_30  and  C19_31 
ROOT
HETATM    1  C2  UNL     1      -2.351  -1.260   0.709  1.00  0.00     0.087 A 
HETATM    2  C3  UNL     1      -2.227  -0.234  -0.158  1.00  0.00     0.011 A 
HETATM    3  C10 UNL     1      -0.962   0.126  -0.597  1.00  0.00     0.031 A 
HETATM    4  C11 UNL     1       0.227  -0.528  -0.179  1.00  0.00     0.023 A 
HETATM    5  C20 UNL     1       0.031  -1.536   0.692  1.00  0.00     0.056 A 
HETATM    6 CL1  UNL     1       1.350  -2.423   1.372  1.00  0.00    -0.083 Cl
HETATM    7  C21 UNL     1      -1.241  -1.924   1.152  1.00  0.00    -0.005 A 
HETATM    8  C22 UNL     1      -1.377  -3.056   2.100  1.00  0.00     0.053 C 
ENDROOT
BRANCH   4   9
HETATM    9  C12 UNL     1       1.476   0.035  -0.647  1.00  0.00     0.095 C 
HETATM   10  C13 UNL     1       1.282   0.385  -2.199  1.00  0.00     0.086 C 
BRANCH   9  11
HETATM   11  N3  UNL     1       2.726  -0.180  -0.418  1.00  0.00    -0.391 NA
BRANCH  11  12
HETATM   12  C14 UNL     1       3.876  -0.467  -0.216  1.00  0.00     0.193 A 
HETATM   13  N4  UNL     1       4.424  -1.718  -0.246  1.00  0.00    -0.327 N 
HETATM   14  C15 UNL     1       5.670  -2.048  -0.016  1.00  0.00     0.183 A 
ATOM     15  H4  UNL     1       3.789  -2.483  -0.474  1.00  0.00     0.169 HD
HETATM   16  N5  UNL     1       6.561  -1.124   0.285  1.00  0.00    -0.355 N 
HETATM   17  C16 UNL     1       6.164   0.155   0.351  1.00  0.00     0.022 A 
ATOM     18  H5  UNL     1       7.533  -1.377   0.464  1.00  0.00     0.166 HD
HETATM   19  C17 UNL     1       7.241   1.136   0.664  1.00  0.00     0.069 C 
HETATM   20  C18 UNL     1       4.866   0.520   0.115  1.00  0.00     0.086 A 
BRANCH  20  21
HETATM   21  C19 UNL     1       4.503   1.924   0.192  1.00  0.00     0.393 C 
HETATM   22  F2  UNL     1       3.541   2.243   1.126  1.00  0.00    -0.209 F 
HETATM   23  F3  UNL     1       4.135   2.378  -1.094  1.00  0.00    -0.209 F 
ENDBRANCH  20  21
ENDBRANCH  11  12
ENDBRANCH   9  11
ENDBRANCH   4   9
BRANCH   2  24
HETATM   24  C4  UNL     1      -3.338   0.645  -0.633  1.00  0.00     0.001 A 
HETATM   25  C5  UNL     1      -3.518   0.765  -2.011  1.00  0.00     0.102 A 
HETATM   26  N1  UNL     1      -4.425   1.681  -2.474  1.00  0.00    -0.349 N 
HETATM   27  C6  UNL     1      -5.123   2.436  -1.624  1.00  0.00     0.138 A 
ATOM     28  H1  UNL     1      -4.568   1.787  -3.478  1.00  0.00     0.167 HD
HETATM   29  N2  UNL     1      -5.979   3.332  -2.069  1.00  0.00    -0.383 N 
HETATM   30  C7  UNL     1      -4.981   2.350  -0.269  1.00  0.00     0.166 A 
ATOM     31  H22 UNL     1      -6.085   3.396  -3.081  1.00  0.00     0.157 HD
ATOM     32  H21 UNL     1      -6.513   3.909  -1.419  1.00  0.00     0.157 HD
HETATM   33  F1  UNL     1      -5.668   3.093   0.619  1.00  0.00    -0.202 F 
HETATM   34  C8  UNL     1      -4.059   1.424   0.232  1.00  0.00    -0.007 A 
HETATM   35  C9  UNL     1      -3.858   1.323   1.695  1.00  0.00     0.052 C 
ENDBRANCH   2  24
BRANCH   1  36
HETATM   36  O1  UNL     1      -3.598  -1.654   1.148  1.00  0.00    -0.354 OA
HETATM   37  C1  UNL     1      -4.372  -2.635   0.475  1.00  0.00     0.210 C 
ENDBRANCH   1  36
TORSDOF 6
