REMARK  9 active torsions:
REMARK  status: ('A' for Active; 'I' for Inactive)
REMARK    1  A    between atoms: C2_2  and  C5_5 
REMARK    2  A    between atoms: C6_7  and  N1_8 
REMARK    3  A    between atoms: N1_8  and  C7_10 
REMARK    4  A    between atoms: C7_10  and  C8_11 
REMARK    5  A    between atoms: C7_10  and  C15_21 
REMARK    6  A    between atoms: C8_11  and  N2_12 
REMARK    7  A    between atoms: N2_12  and  C9_15 
REMARK    8  A    between atoms: C18_24  and  C19_25 
REMARK    9  A    between atoms: C22_34  and  O1_35 
ROOT
HETATM    1  C7  UNL     1       0.601   0.853  -0.563  1.00  0.00     0.145 C 
ENDROOT
BRANCH   1   2
HETATM    2  N1  UNL     1      -0.586   0.545  -1.208  1.00  0.00    -0.360 N 
ATOM      3  H1  UNL     1      -0.609   0.707  -2.215  1.00  0.00     0.162 HD
BRANCH   2   4
HETATM    4  C6  UNL     1      -1.676   0.072  -0.673  1.00  0.00     0.147 A 
HETATM    5  S1  UNL     1      -3.113  -0.295  -1.537  1.00  0.00    -0.054 SA
HETATM    6  C5  UNL     1      -4.072  -0.799  -0.217  1.00  0.00     0.044 A 
HETATM    7  C22 UNL     1      -3.207  -0.655   0.836  1.00  0.00     0.156 A 
HETATM    8  N3  UNL     1      -2.012  -0.217   0.579  1.00  0.00    -0.317 N 
ATOM      9  H3  UNL     1      -1.336  -0.096   1.333  1.00  0.00     0.170 HD
BRANCH   6  10
HETATM   10  C2  UNL     1      -5.520  -1.170  -0.210  1.00  0.00    -0.013 C 
HETATM   11  C1  UNL     1      -5.865  -2.460   0.416  1.00  0.00     0.020 C 
HETATM   12  C3  UNL     1      -5.955  -1.218  -1.698  1.00  0.00     0.020 C 
HETATM   13  C4  UNL     1      -6.314  -0.028   0.424  1.00  0.00     0.020 C 
ENDBRANCH   6  10
BRANCH   7  14
HETATM   14  O1  UNL     1      -3.671  -1.002   2.133  1.00  0.00    -0.345 OA
ATOM     15  H1  UNL     1      -3.071  -0.902   2.863  1.00  0.00     0.219 HD
ENDBRANCH   7  14
ENDBRANCH   2   4
ENDBRANCH   1   2
BRANCH   1  16
HETATM   16  C8  UNL     1       1.852   0.120  -0.935  1.00  0.00     0.262 C 
BRANCH  16  17
HETATM   17  N2  UNL     1       1.760  -1.293  -0.643  1.00  0.00    -0.069 N 
ATOM     18  H22 UNL     1       1.342  -1.497   0.265  1.00  0.00     0.277 HD
ATOM     19  H21 UNL     1       1.067  -1.784  -1.208  1.00  0.00     0.277 HD
BRANCH  17  20
HETATM   20  C9  UNL     1       3.158  -1.830  -0.799  1.00  0.00     0.186 C 
HETATM   21  C10 UNL     1       3.068  -3.276  -0.722  1.00  0.00     0.033 C 
HETATM   22  C11 UNL     1       4.108  -3.979   0.102  1.00  0.00     0.002 C 
HETATM   23  C12 UNL     1       5.304  -3.075   0.416  1.00  0.00     0.000 C 
HETATM   24  C13 UNL     1       4.684  -1.936   1.229  1.00  0.00     0.002 C 
HETATM   25  C14 UNL     1       3.941  -1.096   0.231  1.00  0.00     0.033 C 
ENDBRANCH  17  20
ENDBRANCH  16  17
ENDBRANCH   1  16
BRANCH   1  26
HETATM   26  C15 UNL     1       0.941   2.295  -0.461  1.00  0.00     0.005 A 
HETATM   27  C16 UNL     1       2.204   2.671   0.037  1.00  0.00     0.013 A 
HETATM   28  C17 UNL     1       2.589   3.974   0.234  1.00  0.00     0.017 A 
HETATM   29  C18 UNL     1       1.738   4.989  -0.050  1.00  0.00     0.050 A 
HETATM   30  C20 UNL     1       0.487   4.660  -0.538  1.00  0.00     0.059 A 
HETATM   31  C21 UNL     1       0.105   3.349  -0.734  1.00  0.00     0.125 A 
HETATM   32  F4  UNL     1      -1.139   3.099  -1.215  1.00  0.00    -0.205 F 
BRANCH  29  33
HETATM   33  C19 UNL     1       2.105   6.422   0.084  1.00  0.00     0.417 C 
HETATM   34  F1  UNL     1       1.738   7.021  -1.123  1.00  0.00    -0.166 F 
HETATM   35  F2  UNL     1       3.483   6.566   0.220  1.00  0.00    -0.166 F 
HETATM   36  F3  UNL     1       1.436   7.022   1.112  1.00  0.00    -0.166 F 
ENDBRANCH  29  33
ENDBRANCH   1  26
TORSDOF 9
