REMARK  6 active torsions:
REMARK  status: ('A' for Active; 'I' for Inactive)
REMARK    1  A    between atoms: C2_2  and  N1_3 
REMARK    2  A    between atoms: N1_3  and  C3_5 
REMARK    3  A    between atoms: C3_5  and  C4_9 
REMARK    4  A    between atoms: C4_9  and  C5_10 
REMARK    5  A    between atoms: C24_30  and  C25_31 
REMARK    6  A    between atoms: C27_34  and  O2_35 
ROOT
HETATM    1  C5  UNL     1      -9.250   0.223   1.109  1.00  0.00     0.131 C 
HETATM    2  C6  UNL     1     -10.487   0.599   0.423  1.00  0.00     0.059 C 
HETATM    3  N3  UNL     1     -11.459   0.896  -0.115  1.00  0.00    -0.197 NA
ENDROOT
BRANCH   1   4
HETATM    4  C4  UNL     1      -8.100   0.373   0.126  1.00  0.00     0.089 C 
BRANCH   4   5
HETATM    5  C3  UNL     1      -6.805   0.012   0.740  1.00  0.00     0.073 C 
HETATM    6  N2  UNL     1      -6.792  -0.360   1.965  1.00  0.00    -0.389 N 
ATOM      7  H22 UNL     1      -5.898  -0.609   2.389  1.00  0.00     0.157 HD
ATOM      8  H21 UNL     1      -7.632  -0.420   2.541  1.00  0.00     0.157 HD
BRANCH   5   9
HETATM    9  N1  UNL     1      -5.640   0.095  -0.059  1.00  0.00    -0.354 N 
ATOM     10  H1  UNL     1      -5.715   0.449  -1.013  1.00  0.00     0.163 HD
BRANCH   9  11
HETATM   11  C2  UNL     1      -4.321  -0.317   0.453  1.00  0.00     0.097 C 
HETATM   12  C1  UNL     1      -4.529  -1.801   0.815  1.00  0.00     0.062 C 
HETATM   13  C7  UNL     1      -4.009   0.413   1.692  1.00  0.00     0.054 C 
HETATM   14  C8  UNL     1      -2.655   0.990   1.855  1.00  0.00     0.016 C 
HETATM   15  C9  UNL     1      -1.831   1.120   0.613  1.00  0.00    -0.020 C 
HETATM   16  C10 UNL     1      -2.207   2.432  -0.092  1.00  0.00     0.018 C 
HETATM   17  C11 UNL     1      -0.395   1.263   1.028  1.00  0.00     0.045 C 
HETATM   18  C30 UNL     1      -2.029  -0.026  -0.321  1.00  0.00     0.091 C 
HETATM   19  C12 UNL     1       0.553   0.372   0.326  1.00  0.00    -0.076 C 
HETATM   20  C13 UNL     1       0.245  -0.824  -0.154  1.00  0.00    -0.075 C 
HETATM   21  C19 UNL     1       1.823   1.150   0.326  1.00  0.00     0.039 C 
HETATM   22  C14 UNL     1       0.874  -1.951  -0.874  1.00  0.00     0.038 C 
HETATM   23  C29 UNL     1      -1.197  -1.231   0.064  1.00  0.00     0.060 C 
HETATM   24  C15 UNL     1       1.496  -1.551  -2.175  1.00  0.00     0.039 C 
HETATM   25  C16 UNL     1       2.766  -0.804  -2.022  1.00  0.00    -0.074 C 
HETATM   26  C17 UNL     1       3.360  -0.110  -1.059  1.00  0.00    -0.040 C 
HETATM   27  C22 UNL     1       3.626  -0.815  -3.255  1.00  0.00     0.038 C 
HETATM   28  C18 UNL     1       3.018   0.242   0.330  1.00  0.00     0.042 C 
HETATM   29  C20 UNL     1       4.673   0.411  -1.550  1.00  0.00     0.118 A 
HETATM   30  C21 UNL     1       4.453   0.445  -3.036  1.00  0.00     0.050 C 
HETATM   31  C23 UNL     1       5.817  -0.484  -1.166  1.00  0.00     0.105 A 
HETATM   32  O3  UNL     1       4.997   1.661  -1.008  1.00  0.00    -0.264 OA
HETATM   33  C24 UNL     1       6.619   0.380  -0.264  1.00  0.00     0.047 A 
HETATM   34  N4  UNL     1       6.105   1.563  -0.223  1.00  0.00    -0.269 N 
ATOM     35  H4  UNL     1       6.483   2.332   0.331  1.00  0.00     0.194 HD
HETATM   36  N5  UNL     1      -3.389  -0.300  -0.600  1.00  0.00    -0.392 N 
ATOM     37  H5  UNL     1      -3.691  -0.484  -1.557  1.00  0.00     0.156 HD
BRANCH  33  38
HETATM   38  C25 UNL     1       7.805  -0.076   0.451  1.00  0.00     0.015 A 
HETATM   39  C26 UNL     1       8.381  -1.327   0.432  1.00  0.00     0.158 A 
HETATM   40  O1  UNL     1       9.441  -1.333   1.215  1.00  0.00    -0.299 OA
HETATM   41  C27 UNL     1       9.600  -0.143   1.757  1.00  0.00     0.183 A 
HETATM   42  C28 UNL     1       8.593   0.674   1.303  1.00  0.00     0.079 A 
BRANCH  41  43
HETATM   43  O2  UNL     1      10.588   0.245   2.628  1.00  0.00    -0.341 OA
ATOM     44  H2  UNL     1      10.703   1.103   3.019  1.00  0.00     0.220 HD
ENDBRANCH  41  43
ENDBRANCH  33  38
ENDBRANCH   9  11
ENDBRANCH   5   9
ENDBRANCH   4   5
ENDBRANCH   1   4
TORSDOF 6
