REMARK  9 active torsions:
REMARK  status: ('A' for Active; 'I' for Inactive)
REMARK    1  A    between atoms: C3_3  and  C4_4 
REMARK    2  A    between atoms: C3_3  and  C9_14 
REMARK    3  A    between atoms: C5_5  and  O1_6 
REMARK    4  A    between atoms: C6_9  and  O3_10 
REMARK    5  A    between atoms: C23_28  and  O4_29 
REMARK    6  A    between atoms: O4_29  and  C24_30 
REMARK    7  A    between atoms: C26_33  and  C27_34 
REMARK    8  A    between atoms: C27_34  and  O6_35 
REMARK    9  A    between atoms: C29_38  and  O7_39 
ROOT
HETATM    1  C9  UNL     1      -1.730  -0.504  -0.050  1.00  0.00    -0.037 C 
HETATM    2  C10 UNL     1      -1.120  -1.633   0.694  1.00  0.00     0.038 C 
HETATM    3  C11 UNL     1      -0.839  -2.842  -0.229  1.00  0.00     0.009 C 
HETATM    4  C12 UNL     1       0.048  -3.845   0.482  1.00  0.00    -0.018 C 
HETATM    5  C13 UNL     1      -0.621  -5.224   0.483  1.00  0.00     0.010 C 
HETATM    6  C14 UNL     1       1.387  -4.020  -0.252  1.00  0.00     0.004 C 
HETATM    7  C15 UNL     1       2.457  -3.126   0.265  1.00  0.00     0.001 C 
HETATM    8  C16 UNL     1       3.331  -2.578  -0.864  1.00  0.00     0.004 C 
HETATM    9  C17 UNL     1       3.953  -1.269  -0.419  1.00  0.00     0.033 C 
HETATM   10  C18 UNL     1       4.180  -0.316  -1.519  1.00  0.00    -0.087 C 
HETATM   11  C19 UNL     1       4.694  -0.883  -2.813  1.00  0.00     0.043 C 
HETATM   12  C20 UNL     1       3.979   0.983  -1.493  1.00  0.00    -0.024 C 
HETATM   13  C21 UNL     1       3.473   1.767  -0.332  1.00  0.00     0.030 C 
HETATM   14  C22 UNL     1       2.290   2.621  -0.718  1.00  0.00     0.041 C 
HETATM   15  C23 UNL     1       1.221   2.432   0.331  1.00  0.00     0.163 C 
HETATM   16  C26 UNL     1      -0.145   2.668  -0.238  1.00  0.00    -0.029 C 
HETATM   17  C28 UNL     1      -0.977   1.797  -0.733  1.00  0.00     0.016 C 
HETATM   18  C29 UNL     1      -0.881   0.335  -0.906  1.00  0.00     0.171 C 
ENDROOT
BRANCH   1  19
HETATM   19  C3  UNL     1      -2.846   0.128   0.675  1.00  0.00    -0.019 C 
HETATM   20  C2  UNL     1      -2.690   0.362   2.002  1.00  0.00    -0.018 C 
HETATM   21  C1  UNL     1      -1.421   0.184   2.727  1.00  0.00     0.037 C 
BRANCH  19  22
HETATM   22  C4  UNL     1      -4.198   0.386   0.172  1.00  0.00     0.043 A 
HETATM   23  C5  UNL     1      -5.288   0.716   0.948  1.00  0.00     0.197 A 
HETATM   24  O2  UNL     1      -6.360   0.889   0.167  1.00  0.00    -0.264 OA
HETATM   25  C6  UNL     1      -6.060   0.702  -1.056  1.00  0.00     0.192 A 
HETATM   26  C7  UNL     1      -4.684   0.375  -1.121  1.00  0.00     0.012 A 
HETATM   27  C8  UNL     1      -4.011   0.107  -2.399  1.00  0.00     0.054 C 
BRANCH  23  28
HETATM   28  O1  UNL     1      -5.480   0.892   2.311  1.00  0.00    -0.340 OA
ATOM     29  H1  UNL     1      -6.231   1.119   2.846  1.00  0.00     0.220 HD
ENDBRANCH  23  28
BRANCH  25  30
HETATM   30  O3  UNL     1      -6.919   0.798  -2.116  1.00  0.00    -0.340 OA
ATOM     31  H3  UNL     1      -6.695   0.658  -3.029  1.00  0.00     0.220 HD
ENDBRANCH  25  30
ENDBRANCH  19  22
ENDBRANCH   1  19
BRANCH  18  32
HETATM   32  O7  UNL     1       0.458  -0.114  -0.749  1.00  0.00    -0.387 OA
ATOM     33  H7  UNL     1       1.007   0.429  -1.303  1.00  0.00     0.210 HD
ENDBRANCH  18  32
BRANCH  16  34
HETATM   34  C27 UNL     1      -0.549   4.138  -0.212  1.00  0.00     0.200 C 
BRANCH  34  35
HETATM   35  O6  UNL     1       0.423   4.782  -0.978  1.00  0.00    -0.397 OA
ATOM     36  H6  UNL     1       0.171   5.698  -0.962  1.00  0.00     0.209 HD
ENDBRANCH  34  35
ENDBRANCH  16  34
BRANCH  15  37
HETATM   37  O4  UNL     1       1.482   3.427   1.329  1.00  0.00    -0.312 OA
BRANCH  37  38
HETATM   38  C24 UNL     1       1.801   3.011   2.601  1.00  0.00     0.255 C 
HETATM   39  C25 UNL     1       2.092   4.002   3.702  1.00  0.00     0.126 C 
HETATM   40  O5  UNL     1       1.881   1.810   2.962  1.00  0.00    -0.266 OA
ENDBRANCH  37  38
ENDBRANCH  15  37
TORSDOF 9
