REMARK  10 active torsions:
REMARK  status: ('A' for Active; 'I' for Inactive)
REMARK    1  A    between atoms: C2_2  and  C3_3 
REMARK    2  A    between atoms: C3_3  and  O1_4 
REMARK    3  A    between atoms: O1_4  and  C4_5 
REMARK    4  A    between atoms: C6_7  and  O2_8 
REMARK    5  A    between atoms: C9_14  and  C10_15 
REMARK    6  A    between atoms: C10_15  and  C12_17 
REMARK    7  A    between atoms: C13_18  and  C14_19 
REMARK    8  A    between atoms: C14_19  and  O5_20 
REMARK    9  A    between atoms: C27_34  and  O6_35 
REMARK   10  A    between atoms: C28_37  and  O7_38 
ROOT
HETATM    1  C10 UNL     1       0.840   0.942   0.295  1.00  0.00     0.064 C 
HETATM    2  C11 UNL     1       0.730   1.287   1.813  1.00  0.00     0.021 C 
ENDROOT
BRANCH   1   3
HETATM    3  C9  UNL     1       2.224   0.274   0.257  1.00  0.00     0.098 A 
HETATM    4  O4  UNL     1       2.325  -1.008   0.330  1.00  0.00    -0.276 OA
HETATM    5  C8  UNL     1       3.459  -1.681   0.297  1.00  0.00     0.302 A 
HETATM    6  C7  UNL     1       4.669  -1.038   0.183  1.00  0.00     0.086 A 
HETATM    7  O3  UNL     1       3.426  -2.934   0.370  1.00  0.00    -0.259 OA
HETATM    8  C6  UNL     1       5.867  -1.694   0.220  1.00  0.00     0.085 A 
HETATM    9  C29 UNL     1       4.604   0.365   0.106  1.00  0.00     0.021 A 
HETATM   10  C5  UNL     1       7.032  -0.892   0.187  1.00  0.00     0.074 A 
HETATM   11  C4  UNL     1       6.992   0.468   0.119  1.00  0.00     0.072 A 
HETATM   12  C30 UNL     1       5.752   1.109   0.074  1.00  0.00     0.052 A 
HETATM   13  C28 UNL     1       3.361   1.021   0.139  1.00  0.00     0.107 A 
BRANCH   8  14
HETATM   14  O2  UNL     1       5.976  -3.038   0.283  1.00  0.00    -0.360 OA
ATOM     15  H2  UNL     1       5.194  -3.577   0.305  1.00  0.00     0.217 HD
ENDBRANCH   8  14
BRANCH  11  16
HETATM   16  O1  UNL     1       8.114   1.264   0.106  1.00  0.00    -0.351 OA
BRANCH  16  17
HETATM   17  C3  UNL     1       9.436   0.843   0.132  1.00  0.00     0.175 C 
BRANCH  17  18
HETATM   18  C2  UNL     1       9.892   0.151  -1.103  1.00  0.00     0.022 C 
HETATM   19  C1  UNL     1      11.318  -0.326  -0.886  1.00  0.00     0.007 C 
ENDBRANCH  17  18
ENDBRANCH  16  17
ENDBRANCH  11  16
BRANCH  13  20
HETATM   20  O7  UNL     1       3.300   2.394   0.056  1.00  0.00    -0.357 OA
ATOM     21  H7  UNL     1       4.091   2.914  -0.026  1.00  0.00     0.217 HD
ENDBRANCH  13  20
ENDBRANCH   1   3
BRANCH   1  22
HETATM   22  C12 UNL     1      -0.178  -0.143   0.171  1.00  0.00    -0.017 C 
HETATM   23  C13 UNL     1      -1.382  -0.337  -0.112  1.00  0.00     0.011 C 
BRANCH  23  24
HETATM   24  C14 UNL     1      -2.629   0.281  -0.508  1.00  0.00     0.110 C 
HETATM   25  C15 UNL     1      -2.971   1.660  -0.128  1.00  0.00     0.027 C 
HETATM   26  C16 UNL     1      -3.024   1.982   1.335  1.00  0.00     0.014 C 
HETATM   27  C17 UNL     1      -4.259   2.076  -0.838  1.00  0.00    -0.011 C 
HETATM   28  C18 UNL     1      -4.834   3.358  -0.266  1.00  0.00     0.010 C 
HETATM   29  C19 UNL     1      -5.310   0.988  -0.865  1.00  0.00     0.013 C 
HETATM   30  C20 UNL     1      -5.066  -0.114   0.109  1.00  0.00     0.031 C 
HETATM   31  C21 UNL     1      -6.185  -1.086   0.190  1.00  0.00    -0.041 C 
HETATM   32  C27 UNL     1      -3.739  -0.711  -0.131  1.00  0.00     0.097 C 
HETATM   33  C22 UNL     1      -6.206  -1.689   1.602  1.00  0.00     0.015 C 
HETATM   34  C23 UNL     1      -7.506  -0.375   0.031  1.00  0.00     0.015 C 
HETATM   35  C24 UNL     1      -6.147  -2.192  -0.822  1.00  0.00     0.009 C 
HETATM   36  C25 UNL     1      -4.796  -2.845  -0.918  1.00  0.00     0.004 C 
HETATM   37  C26 UNL     1      -3.758  -1.772  -1.162  1.00  0.00     0.042 C 
BRANCH  24  38
HETATM   38  O5  UNL     1      -2.612   0.297  -1.936  1.00  0.00    -0.382 OA
ATOM     39  H5  UNL     1      -3.431   0.703  -2.196  1.00  0.00     0.211 HD
ENDBRANCH  24  38
BRANCH  32  40
HETATM   40  O6  UNL     1      -3.330  -1.294   1.098  1.00  0.00    -0.386 OA
ATOM     41  H6  UNL     1      -4.017  -1.908   1.331  1.00  0.00     0.210 HD
ENDBRANCH  32  40
ENDBRANCH  23  24
ENDBRANCH   1  22
TORSDOF 10
