REMARK  10 active torsions:
REMARK  status: ('A' for Active; 'I' for Inactive)
REMARK    1  A    between atoms: C6_6  and  C7_7 
REMARK    2  A    between atoms: C7_7  and  C24_35 
REMARK    3  A    between atoms: C8_8  and  C9_9 
REMARK    4  A    between atoms: C9_9  and  O1_10 
REMARK    5  A    between atoms: O1_10  and  C10_11 
REMARK    6  A    between atoms: C11_12  and  C12_13 
REMARK    7  A    between atoms: C18_20  and  O2_21 
REMARK    8  A    between atoms: C20_24  and  O3_25 
REMARK    9  A    between atoms: C21_28  and  O5_29 
REMARK   10  A    between atoms: C23_32  and  O6_33 
ROOT
HETATM    1  C10 UNL     1       1.414  -1.200  -1.473  1.00  0.00     0.116 A 
HETATM    2  C11 UNL     1       2.630  -0.956  -0.893  1.00  0.00     0.040 A 
HETATM    3  C18 UNL     1       3.128  -1.859   0.057  1.00  0.00     0.095 A 
HETATM    4  C19 UNL     1       2.431  -2.998   0.436  1.00  0.00     0.074 A 
HETATM    5  C20 UNL     1       2.648  -4.034   1.311  1.00  0.00     0.200 A 
HETATM    6  O4  UNL     1       1.626  -4.832   1.244  1.00  0.00    -0.263 OA
HETATM    7  C21 UNL     1       0.741  -4.405   0.387  1.00  0.00     0.200 A 
HETATM    8  C22 UNL     1       1.198  -3.223  -0.172  1.00  0.00     0.076 A 
HETATM    9  C23 UNL     1       0.702  -2.344  -1.106  1.00  0.00     0.116 A 
ENDROOT
BRANCH   1  10
HETATM   10  O1  UNL     1       0.830  -0.374  -2.407  1.00  0.00    -0.344 OA
BRANCH  10  11
HETATM   11  C9  UNL     1       0.015   0.763  -2.064  1.00  0.00     0.203 C 
BRANCH  11  12
HETATM   12  C8  UNL     1      -1.174   0.492  -1.289  1.00  0.00     0.003 C 
HETATM   13  C7  UNL     1      -1.671   0.794  -0.152  1.00  0.00    -0.073 C 
BRANCH  13  14
HETATM   14  C6  UNL     1      -3.054   0.231   0.258  1.00  0.00     0.015 C 
HETATM   15  C5  UNL     1      -4.014   1.400   0.409  1.00  0.00     0.013 C 
HETATM   16  C4  UNL     1      -4.767   1.226   1.692  1.00  0.00     0.028 C 
HETATM   17  C3  UNL     1      -5.782   0.160   1.490  1.00  0.00    -0.024 C 
HETATM   18  C2  UNL     1      -5.718  -0.935   0.769  1.00  0.00    -0.087 C 
HETATM   19  C1  UNL     1      -7.011  -1.719   0.874  1.00  0.00     0.043 C 
HETATM   20  C30 UNL     1      -4.736  -1.553  -0.064  1.00  0.00     0.034 C 
HETATM   21  C29 UNL     1      -3.663  -0.692  -0.704  1.00  0.00     0.013 C 
ENDBRANCH  13  14
BRANCH  13  22
HETATM   22  C24 UNL     1      -1.128   1.630   0.947  1.00  0.00     0.014 C 
HETATM   23  C25 UNL     1      -0.928   0.683   2.173  1.00  0.00     0.009 C 
HETATM   24  C26 UNL     1       0.098   1.392   2.998  1.00  0.00     0.001 C 
HETATM   25  C27 UNL     1       1.086   1.805   1.890  1.00  0.00     0.001 C 
HETATM   26  C28 UNL     1       0.113   2.356   0.833  1.00  0.00     0.009 C 
ENDBRANCH  13  22
ENDBRANCH  11  12
ENDBRANCH  10  11
ENDBRANCH   1  10
BRANCH   2  27
HETATM   27  C12 UNL     1       3.536   0.137  -1.299  1.00  0.00    -0.043 C 
HETATM   28  C13 UNL     1       3.503   0.698  -2.483  1.00  0.00     0.011 C 
HETATM   29  C14 UNL     1       4.495   1.801  -2.746  1.00  0.00     0.300 C 
HETATM   30  N1  UNL     1       4.340   2.758  -1.694  1.00  0.00     0.087 N 
HETATM   31  C15 UNL     1       5.202   3.926  -1.931  1.00  0.00     0.310 C 
HETATM   32  C16 UNL     1       4.681   2.195  -0.404  1.00  0.00     0.277 C 
HETATM   33  C17 UNL     1       4.487   0.703  -0.304  1.00  0.00     0.069 C 
ENDBRANCH   2  27
BRANCH   9  34
HETATM   34  O6  UNL     1      -0.511  -2.628  -1.670  1.00  0.00    -0.357 OA
ATOM     35  H6  UNL     1      -0.995  -3.406  -1.420  1.00  0.00     0.217 HD
ENDBRANCH   9  34
BRANCH   3  36
HETATM   36  O2  UNL     1       4.344  -1.668   0.667  1.00  0.00    -0.359 OA
ATOM     37  H2  UNL     1       4.681  -2.280   1.311  1.00  0.00     0.217 HD
ENDBRANCH   3  36
BRANCH   7  38
HETATM   38  O5  UNL     1      -0.437  -5.084   0.138  1.00  0.00    -0.340 OA
ATOM     39  H5  UNL     1      -1.082  -4.773  -0.486  1.00  0.00     0.220 HD
ENDBRANCH   7  38
BRANCH   5  40
HETATM   40  O3  UNL     1       3.733  -4.232   2.131  1.00  0.00    -0.340 OA
ATOM     41  H3  UNL     1       3.883  -4.949   2.736  1.00  0.00     0.220 HD
ENDBRANCH   5  40
TORSDOF 10
