REMARK  8 active torsions:
REMARK  status: ('A' for Active; 'I' for Inactive)
REMARK    1  A    between atoms: C3_7  and  N3_8 
REMARK    2  A    between atoms: N3_8  and  N4_10 
REMARK    3  A    between atoms: C4_13  and  N5_14 
REMARK    4  A    between atoms: N5_14  and  N6_16 
REMARK    5  A    between atoms: N6_16  and  S1_18 
REMARK    6  A    between atoms: S1_18  and  N7_19 
REMARK    7  A    between atoms: S1_18  and  O3_23 
REMARK    8  A    between atoms: O3_23  and  N8_24 
ROOT
HETATM    1  C1  UNL     1       4.360   1.722  -0.213  1.00  0.00     0.164 C 
HETATM    2  N1  UNL     1       3.130   0.973  -0.358  1.00  0.00    -0.269 N 
HETATM    3  C2  UNL     1       3.235  -0.363  -0.415  1.00  0.00     0.330 C 
HETATM    4  O1  UNL     1       4.408  -0.784  -0.584  1.00  0.00    -0.246 OA
HETATM    5  N2  UNL     1       2.297  -1.306  -0.320  1.00  0.00    -0.291 N 
ATOM      6  H2  UNL     1       2.622  -2.271  -0.383  1.00  0.00     0.172 HD
HETATM    7  C3  UNL     1       0.962  -1.134  -0.149  1.00  0.00     0.153 C 
HETATM    8  C4  UNL     1       0.183   0.017  -0.293  1.00  0.00     0.120 C 
HETATM    9  C5  UNL     1       0.703   1.282  -0.214  1.00  0.00     0.144 C 
HETATM   10  C6  UNL     1      -0.231   2.304   0.137  1.00  0.00     0.107 C 
HETATM   11  N9  UNL     1      -0.969   3.153   0.429  1.00  0.00    -0.191 NA
HETATM   12  C7  UNL     1       2.033   1.707  -0.419  1.00  0.00     0.274 C 
HETATM   13  O4  UNL     1       2.174   2.915  -0.687  1.00  0.00    -0.266 OA
ENDROOT
BRANCH   8  14
HETATM   14  N5  UNL     1      -1.176  -0.095  -0.539  1.00  0.00    -0.286 N 
ATOM     15  H5  UNL     1      -1.398  -0.658  -1.360  1.00  0.00     0.188 HD
BRANCH  14  16
HETATM   16  N6  UNL     1      -2.274   0.397   0.097  1.00  0.00    -0.220 N 
ATOM     17  H6  UNL     1      -2.370   1.405   0.223  1.00  0.00     0.200 HD
BRANCH  16  18
HETATM   18  S1  UNL     1      -3.380  -0.543   0.633  1.00  0.00     0.268 S 
HETATM   19  O2  UNL     1      -2.710  -1.410   1.649  1.00  0.00    -0.195 OA
BRANCH  18  20
HETATM   20  N7  UNL     1      -4.080  -1.556  -0.561  1.00  0.00    -0.321 N 
ATOM     21  H72 UNL     1      -3.782  -1.529  -1.536  1.00  0.00     0.169 HD
ATOM     22  H71 UNL     1      -4.809  -2.176  -0.208  1.00  0.00     0.169 HD
ENDBRANCH  18  20
BRANCH  18  23
HETATM   23  O3  UNL     1      -4.550   0.448   1.358  1.00  0.00    -0.157 OA
BRANCH  23  24
HETATM   24  N8  UNL     1      -4.695   1.519   0.544  1.00  0.00    -0.294 N 
ATOM     25  H82 UNL     1      -4.193   1.683  -0.329  1.00  0.00     0.185 HD
ATOM     26  H81 UNL     1      -5.399   2.115   0.980  1.00  0.00     0.185 HD
ENDBRANCH  23  24
ENDBRANCH  18  23
ENDBRANCH  16  18
ENDBRANCH  14  16
ENDBRANCH   8  14
BRANCH   7  27
HETATM   27  N3  UNL     1       0.332  -2.172   0.193  1.00  0.00    -0.290 N 
ATOM     28  H3  UNL     1      -0.675  -2.095   0.335  1.00  0.00     0.188 HD
BRANCH  27  29
HETATM   29  N4  UNL     1       0.924  -3.414   0.389  1.00  0.00    -0.344 N 
ATOM     30  H42 UNL     1       1.932  -3.473   0.243  1.00  0.00     0.176 HD
ATOM     31  H41 UNL     1       0.415  -4.253   0.666  1.00  0.00     0.176 HD
ENDBRANCH  27  29
ENDBRANCH   7  27
TORSDOF 8
