REMARK  8 active torsions:
REMARK  status: ('A' for Active; 'I' for Inactive)
REMARK    1  A    between atoms: N1_2  and  C2_4 
REMARK    2  A    between atoms: C3_12  and  N6_13 
REMARK    3  A    between atoms: N6_13  and  C4_15 
REMARK    4  A    between atoms: N10_22  and  C5_23 
REMARK    5  A    between atoms: C5_23  and  C6_24 
REMARK    6  A    between atoms: C6_24  and  O1_25 
REMARK    7  A    between atoms: C6_24  and  C7_27 
REMARK    8  A    between atoms: C7_27  and  O2_28 
ROOT
HETATM    1  C2  UNL     1       3.430  -0.601   0.257  1.00  0.00     0.142 A 
HETATM    2  N2  UNL     1       2.908  -1.590   0.994  1.00  0.00    -0.260 N 
ATOM      3  H2  UNL     1       3.443  -2.251   1.557  1.00  0.00     0.191 HD
HETATM    4  N3  UNL     1       1.576  -1.575   0.877  1.00  0.00    -0.161 N 
HETATM    5  N4  UNL     1       0.667  -2.383   1.413  1.00  0.00    -0.205 N 
ATOM      6  H4  UNL     1       0.974  -3.136   2.029  1.00  0.00     0.211 HD
HETATM    7  N5  UNL     1      -0.603  -2.240   1.174  1.00  0.00    -0.115 N 
ATOM      8  H5  UNL     1      -1.287  -2.870   1.594  1.00  0.00     0.207 HD
HETATM    9  C3  UNL     1      -0.998  -1.236   0.355  1.00  0.00     0.716 A 
HETATM   10  N10 UNL     1      -0.142  -0.374  -0.223  1.00  0.00    -0.159 N 
HETATM   11  C8  UNL     1       1.178  -0.577   0.063  1.00  0.00     0.189 A 
HETATM   12  C9  UNL     1       2.339   0.043  -0.335  1.00  0.00     0.137 A 
HETATM   13  C10 UNL     1       2.478   1.155  -1.246  1.00  0.00     0.107 C 
HETATM   14  N11 UNL     1       2.615   2.057  -1.997  1.00  0.00    -0.191 NA
ENDROOT
BRANCH   1  15
HETATM   15  N1  UNL     1       4.656  -0.332   0.143  1.00  0.00    -0.378 N 
HETATM   16  C1  UNL     1       5.337   0.659  -0.582  1.00  0.00     0.147 C 
ATOM     17  H1  UNL     1       5.268  -0.949   0.677  1.00  0.00     0.160 HD
ENDBRANCH   1  15
BRANCH  10  18
HETATM   18  C5  UNL     1      -0.536   0.735  -1.061  1.00  0.00     0.183 C 
BRANCH  18  19
HETATM   19  C6  UNL     1      -0.742   2.046  -0.430  1.00  0.00     0.160 C 
BRANCH  19  20
HETATM   20  O1  UNL     1      -1.054   2.979  -1.475  1.00  0.00    -0.392 OA
ATOM     21  H1  UNL     1      -1.187   3.827  -1.067  1.00  0.00     0.210 HD
ENDBRANCH  19  20
BRANCH  19  22
HETATM   22  C7  UNL     1      -1.871   2.197   0.565  1.00  0.00     0.197 C 
BRANCH  22  23
HETATM   23  O2  UNL     1      -3.123   2.051   0.018  1.00  0.00    -0.398 OA
ATOM     24  H2  UNL     1      -3.832   2.146   0.643  1.00  0.00     0.209 HD
ENDBRANCH  22  23
ENDBRANCH  19  22
ENDBRANCH  18  19
ENDBRANCH  10  18
BRANCH   9  25
HETATM   25  N6  UNL     1      -2.269  -1.127   0.067  1.00  0.00    -0.018 N 
ATOM     26  H6  UNL     1      -2.587  -0.377  -0.547  1.00  0.00     0.203 HD
BRANCH  25  27
HETATM   27  C4  UNL     1      -3.199  -2.035   0.598  1.00  0.00     0.728 A 
HETATM   28  N7  UNL     1      -3.199  -2.907   1.639  1.00  0.00    -0.115 N 
HETATM   29  N8  UNL     1      -4.428  -3.240   1.305  1.00  0.00    -0.214 N 
ATOM     30  H7  UNL     1      -2.536  -3.183   2.363  1.00  0.00     0.207 HD
HETATM   31  N9  UNL     1      -4.450  -2.398   0.286  1.00  0.00    -0.115 N 
ATOM     32  H8  UNL     1      -5.107  -3.898   1.688  1.00  0.00     0.209 HD
ATOM     33  H9  UNL     1      -5.128  -2.137  -0.430  1.00  0.00     0.207 HD
ENDBRANCH  25  27
ENDBRANCH   9  25
TORSDOF 8
