REMARK  6 active torsions:
REMARK  status: ('A' for Active; 'I' for Inactive)
REMARK    1  A    between atoms: N1_1  and  C1_4 
REMARK    2  A    between atoms: N5_11  and  C2_12 
REMARK    3  A    between atoms: C2_12  and  C3_13 
REMARK       I    between atoms: C3_13  and  N6_15 
REMARK    4  A    between atoms: N6_15  and  N7_17 
REMARK       I    between atoms: N7_17  and  C4_19 
REMARK    5  A    between atoms: C4_19  and  C5_21 
REMARK    6  A    between atoms: N10_27  and  C7_29 
ROOT
HETATM    1  N7  UNL     1      -0.913  -0.980  -0.512  1.00  0.00    -0.260 N 
ATOM      2  H7  UNL     1      -0.872  -1.808  -1.106  1.00  0.00     0.190 HD
HETATM    3  C4  UNL     1       0.317  -0.341  -0.115  1.00  0.00     0.312 C 
HETATM    4  O2  UNL     1       0.314   0.673   0.610  1.00  0.00    -0.262 OA
ENDROOT
BRANCH   3   5
HETATM    5  C5  UNL     1       1.569  -0.914  -0.585  1.00  0.00     0.236 A 
HETATM    6  N8  UNL     1       1.760  -2.013  -1.330  1.00  0.00    -0.272 N 
HETATM    7  N9  UNL     1       3.056  -2.171  -1.528  1.00  0.00    -0.262 N 
ATOM      8  H8  UNL     1       1.026  -2.625  -1.685  1.00  0.00     0.189 HD
HETATM    9  C6  UNL     1       3.687  -1.155  -0.896  1.00  0.00     0.260 A 
ATOM     10  H9  UNL     1       3.499  -2.920  -2.059  1.00  0.00     0.190 HD
HETATM   11  N10 UNL     1       4.942  -0.916  -0.825  1.00  0.00    -0.152 N 
HETATM   12  O3  UNL     1       2.748  -0.434  -0.349  1.00  0.00    -0.254 OA
ATOM     13  H10 UNL     1       5.579  -1.558  -1.297  1.00  0.00     0.188 HD
BRANCH  11  14
HETATM   14  C7  UNL     1       5.499   0.183  -0.133  1.00  0.00     0.701 A 
HETATM   15  N11 UNL     1       4.960   1.375   0.137  1.00  0.00    -0.185 N 
HETATM   16  C8  UNL     1       5.867   2.133   0.829  1.00  0.00     0.215 A 
ATOM     17  H11 UNL     1       4.022   1.673  -0.130  1.00  0.00     0.185 HD
HETATM   18  N12 UNL     1       6.961   1.370   0.969  1.00  0.00    -0.281 N 
HETATM   19  N13 UNL     1       6.740   0.193   0.388  1.00  0.00    -0.131 N 
ATOM     20  H12 UNL     1       7.821   1.646   1.443  1.00  0.00     0.188 HD
ATOM     21  H13 UNL     1       7.405  -0.579   0.345  1.00  0.00     0.205 HD
ENDBRANCH  11  14
ENDBRANCH   3   5
BRANCH   1  22
HETATM   22  N6  UNL     1      -2.156  -0.497  -0.107  1.00  0.00    -0.266 N 
HETATM   23  C3  UNL     1      -3.024  -1.384   0.583  1.00  0.00     0.256 C 
HETATM   24  O1  UNL     1      -2.718  -2.559   0.837  1.00  0.00    -0.270 OA
ATOM     25  H6  UNL     1      -2.434   0.465  -0.301  1.00  0.00     0.190 HD
BRANCH  23  26
HETATM   26  C2  UNL     1      -4.348  -0.862   1.011  1.00  0.00     0.274 C 
BRANCH  26  27
HETATM   27  N5  UNL     1      -4.503   0.517   0.600  1.00  0.00    -0.098 N 
HETATM   28  C1  UNL     1      -5.029   0.919  -0.592  1.00  0.00     0.710 A 
HETATM   29  N2  UNL     1      -5.030   2.257  -0.668  1.00  0.00    -0.115 N 
HETATM   30  N3  UNL     1      -4.506   2.671   0.470  1.00  0.00    -0.213 N 
ATOM     31  H2  UNL     1      -5.365   2.833  -1.441  1.00  0.00     0.207 HD
HETATM   32  N4  UNL     1      -4.193   1.633   1.223  1.00  0.00    -0.211 N 
ATOM     33  H3  UNL     1      -4.364   3.647   0.729  1.00  0.00     0.210 HD
ATOM     34  H4  UNL     1      -3.773   1.688   2.151  1.00  0.00     0.210 HD
BRANCH  28  35
HETATM   35  N1  UNL     1      -5.469   0.144  -1.518  1.00  0.00    -0.232 N 
ATOM     36  H12 UNL     1      -5.862   0.445  -2.410  1.00  0.00     0.174 HD
ATOM     37  H11 UNL     1      -5.468  -0.874  -1.460  1.00  0.00     0.174 HD
ENDBRANCH  28  35
ENDBRANCH  26  27
ENDBRANCH  23  26
ENDBRANCH   1  22
TORSDOF 6
