REMARK  9 active torsions:
REMARK  status: ('A' for Active; 'I' for Inactive)
REMARK    1  A    between atoms: C5_11  and  C6_12 
REMARK       I    between atoms: C6_12  and  N5_14 
REMARK    2  A    between atoms: N5_14  and  C7_16 
REMARK    3  A    between atoms: C7_16  and  C8_17 
REMARK    4  A    between atoms: C7_16  and  C9_20 
REMARK    5  A    between atoms: C8_17  and  O2_18 
REMARK    6  A    between atoms: C9_20  and  O3_21 
REMARK    7  A    between atoms: C9_20  and  O4_23 
REMARK    8  A    between atoms: C11_28  and  N7_29 
REMARK    9  A    between atoms: N7_29  and  N8_31 
ROOT
HETATM    1  C1  UNL     1       5.149  -0.068   1.339  1.00  0.00     0.158 C 
HETATM    2  N1  UNL     1       4.154   0.422   0.388  1.00  0.00    -0.331 N 
HETATM    3  C2  UNL     1       4.621   1.182  -0.649  1.00  0.00     0.185 A 
HETATM    4  N2  UNL     1       3.810   1.686  -1.582  1.00  0.00    -0.336 N 
ATOM      5  H2  UNL     1       4.196   2.248  -2.340  1.00  0.00     0.168 HD
HETATM    6  C3  UNL     1       2.489   1.457  -1.527  1.00  0.00     0.138 A 
HETATM    7  N3  UNL     1       1.650   1.968  -2.477  1.00  0.00    -0.327 N 
ATOM      8  H3  UNL     1       2.010   2.533  -3.246  1.00  0.00     0.168 HD
HETATM    9  C4  UNL     1       0.330   1.703  -2.369  1.00  0.00     0.150 A 
HETATM   10  N4  UNL     1      -0.617   2.192  -3.308  1.00  0.00    -0.080 NA
HETATM   11  C5  UNL     1      -0.156   0.939  -1.329  1.00  0.00     0.143 A 
HETATM   12  N6  UNL     1       0.697   0.444  -0.400  1.00  0.00    -0.343 N 
ATOM     13  H6  UNL     1       0.341  -0.121   0.371  1.00  0.00     0.166 HD
HETATM   14  C10 UNL     1       2.017   0.700  -0.496  1.00  0.00     0.123 A 
HETATM   15  C11 UNL     1       2.853   0.155   0.505  1.00  0.00     0.153 A 
ENDROOT
BRANCH  11  16
HETATM   16  C6  UNL     1      -1.587   0.671  -1.240  1.00  0.00     0.272 C 
HETATM   17  O1  UNL     1      -2.370   1.139  -2.112  1.00  0.00    -0.266 OA
HETATM   18  N5  UNL     1      -2.117  -0.110  -0.184  1.00  0.00    -0.344 N 
ATOM     19  H5  UNL     1      -1.475  -0.483   0.515  1.00  0.00     0.163 HD
BRANCH  18  20
HETATM   20  C7  UNL     1      -3.510  -0.400  -0.053  1.00  0.00     0.163 C 
BRANCH  20  21
HETATM   21  C8  UNL     1      -4.083   0.158   1.256  1.00  0.00     0.194 C 
BRANCH  21  22
HETATM   22  O2  UNL     1      -3.455  -0.370   2.362  1.00  0.00    -0.399 OA
ATOM     23  H2  UNL     1      -3.810  -0.024   3.173  1.00  0.00     0.209 HD
ENDBRANCH  21  22
ENDBRANCH  20  21
BRANCH  20  24
HETATM   24  C9  UNL     1      -3.804  -1.896  -0.061  1.00  0.00     0.278 C 
BRANCH  24  25
HETATM   25  O3  UNL     1      -3.379  -2.471  -1.242  1.00  0.00    -0.369 OA
ATOM     26  H3  UNL     1      -3.562  -3.403  -1.247  1.00  0.00     0.212 HD
ENDBRANCH  24  25
BRANCH  24  27
HETATM   27  O4  UNL     1      -3.291  -2.532   1.050  1.00  0.00    -0.369 OA
ATOM     28  H4  UNL     1      -3.474  -3.464   1.045  1.00  0.00     0.212 HD
ENDBRANCH  24  27
ENDBRANCH  20  24
ENDBRANCH  18  20
ENDBRANCH  11  16
BRANCH  15  29
HETATM   29  N7  UNL     1       2.312  -0.534   1.420  1.00  0.00    -0.290 N 
ATOM     30  H7  UNL     1       1.300  -0.642   1.359  1.00  0.00     0.188 HD
BRANCH  29  31
HETATM   31  N8  UNL     1       2.910  -1.142   2.464  1.00  0.00    -0.344 N 
ATOM     32  H82 UNL     1       3.922  -1.023   2.507  1.00  0.00     0.176 HD
ATOM     33  H81 UNL     1       2.474  -1.697   3.201  1.00  0.00     0.176 HD
ENDBRANCH  29  31
ENDBRANCH  15  29
TORSDOF 9
