REMARK  10 active torsions:
REMARK  status: ('A' for Active; 'I' for Inactive)
REMARK    1  A    between atoms: C2_2  and  C4_4 
REMARK    2  A    between atoms: C4_4  and  N1_5 
REMARK    3  A    between atoms: N1_5  and  C5_7 
REMARK    4  A    between atoms: C6_10  and  N3_11 
REMARK    5  A    between atoms: C7_17  and  C8_18 
REMARK    6  A    between atoms: C8_18  and  O1_19 
REMARK    7  A    between atoms: C8_18  and  O2_21 
REMARK    8  A    between atoms: C9_25  and  N7_26 
REMARK    9  A    between atoms: N7_26  and  O3_28 
REMARK   10  A    between atoms: O3_28  and  C10_29 
ROOT
HETATM    1  C5  UNL     1      -0.542   0.875   0.802  1.00  0.00     0.731 A 
HETATM    2  N2  UNL     1      -0.603   2.092   1.364  1.00  0.00    -0.017 N 
ATOM      3  H2  UNL     1      -1.405   2.463   1.873  1.00  0.00     0.203 HD
HETATM    4  C6  UNL     1       0.552   2.749   1.155  1.00  0.00     0.728 A 
HETATM    5  N4  UNL     1       1.335   1.912   0.449  1.00  0.00     0.018 N 
HETATM    6  N5  UNL     1       2.579   2.078  -0.013  1.00  0.00    -0.246 N 
ATOM      7  H5  UNL     1       3.067   2.956   0.164  1.00  0.00     0.191 HD
HETATM    8  C7  UNL     1       3.198   1.107  -0.707  1.00  0.00     0.169 A 
HETATM    9  N6  UNL     1       2.525  -0.029  -0.917  1.00  0.00    -0.170 N 
ATOM     10  H6  UNL     1       2.972  -0.781  -1.441  1.00  0.00     0.186 HD
HETATM   11  C9  UNL     1       1.270  -0.207  -0.454  1.00  0.00     0.742 A 
HETATM   12  N9  UNL     1       0.677   0.783   0.237  1.00  0.00     0.129 N 
ENDROOT
BRANCH   1  13
HETATM   13  N1  UNL     1      -1.421  -0.041   0.778  1.00  0.00    -0.223 N 
ATOM     14  H1  UNL     1      -1.226  -0.924   0.306  1.00  0.00     0.177 HD
BRANCH  13  15
HETATM   15  C4  UNL     1      -2.696   0.169   1.419  1.00  0.00     0.142 C 
BRANCH  15  16
HETATM   16  C2  UNL     1      -3.730  -0.596   0.612  1.00  0.00    -0.004 C 
HETATM   17  C1  UNL     1      -3.697  -0.019  -0.789  1.00  0.00     0.011 C 
HETATM   18  C3  UNL     1      -5.073  -0.494   1.257  1.00  0.00     0.011 C 
ENDBRANCH  15  16
ENDBRANCH  13  15
ENDBRANCH   1  13
BRANCH   4  19
HETATM   19  N3  UNL     1       0.905   3.928   1.522  1.00  0.00    -0.231 N 
ATOM     20  H32 UNL     1       0.312   4.562   2.057  1.00  0.00     0.174 HD
ATOM     21  H31 UNL     1       1.781   4.426   1.364  1.00  0.00     0.174 HD
ENDBRANCH   4  19
BRANCH  11  22
HETATM   22  N7  UNL     1       0.615  -1.307  -0.656  1.00  0.00    -0.084 N 
ATOM     23  H7  UNL     1      -0.332  -1.403  -0.291  1.00  0.00     0.214 HD
BRANCH  22  24
HETATM   24  O3  UNL     1       1.181  -2.345  -1.356  1.00  0.00    -0.168 OA
BRANCH  24  25
HETATM   25  C10 UNL     1       1.359  -3.572  -0.733  1.00  0.00     0.395 C 
HETATM   26  N8  UNL     1       1.936  -4.699  -1.380  1.00  0.00    -0.031 NA
HETATM   27  O4  UNL     1       0.985  -3.675   0.466  1.00  0.00    -0.240 OA
ENDBRANCH  24  25
ENDBRANCH  22  24
ENDBRANCH  11  22
BRANCH   8  28
HETATM   28  C8  UNL     1       4.587   1.273  -1.232  1.00  0.00     0.325 C 
BRANCH  28  29
HETATM   29  O1  UNL     1       4.651   0.826  -2.528  1.00  0.00    -0.365 OA
ATOM     30  H1  UNL     1       5.534   0.932  -2.862  1.00  0.00     0.213 HD
ENDBRANCH  28  29
BRANCH  28  31
HETATM   31  O2  UNL     1       5.441   0.598  -0.372  1.00  0.00    -0.365 OA
ATOM     32  H2  UNL     1       6.324   0.704  -0.706  1.00  0.00     0.213 HD
ENDBRANCH  28  31
ENDBRANCH   8  28
TORSDOF 10
