REMARK  8 active torsions:
REMARK  status: ('A' for Active; 'I' for Inactive)
REMARK    1  A    between atoms: C2_2  and  C5_5 
REMARK       I    between atoms: C5_5  and  N1_7 
REMARK       I    between atoms: N1_7  and  C6_9 
REMARK       I    between atoms: C6_9  and  N2_11 
REMARK    2  A    between atoms: N2_11  and  N3_13 
REMARK    3  A    between atoms: N3_13  and  C7_14 
REMARK    4  A    between atoms: C7_14  and  C8_15 
REMARK    5  A    between atoms: C7_14  and  C15_22 
REMARK    6  A    between atoms: C8_15  and  C9_16 
REMARK       I    between atoms: C15_22  and  N4_24 
REMARK    7  A    between atoms: N4_24  and  C16_26 
REMARK    8  A    between atoms: C16_26  and  C17_27 
ROOT
HETATM    1  C7  UNL     1      -1.874  -0.237   0.305  1.00  0.00     0.195 C 
ENDROOT
BRANCH   1   2
HETATM    2  N3  UNL     1      -0.916  -0.361  -0.743  1.00  0.00    -0.122 NA
BRANCH   2   3
HETATM    3  N2  UNL     1       0.395  -0.185  -0.334  1.00  0.00    -0.255 N 
HETATM    4  C6  UNL     1       1.407  -0.084  -1.275  1.00  0.00     0.338 C 
HETATM    5  N1  UNL     1       2.752   0.081  -0.953  1.00  0.00    -0.278 N 
HETATM    6  O2  UNL     1       1.090  -0.145  -2.513  1.00  0.00    -0.245 OA
HETATM    7  C5  UNL     1       3.365   0.167   0.303  1.00  0.00     0.233 C 
ATOM      8  H1  UNL     1       3.384   0.149  -1.750  1.00  0.00     0.173 HD
HETATM    9  O1  UNL     1       2.753   0.119   1.394  1.00  0.00    -0.272 OA
ATOM     10  H2  UNL     1       0.616  -0.130   0.660  1.00  0.00     0.187 HD
BRANCH   7  11
HETATM   11  C2  UNL     1       4.863   0.329   0.384  1.00  0.00     0.030 C 
HETATM   12  C1  UNL     1       5.268   0.440   1.829  1.00  0.00     0.025 C 
HETATM   13  C3  UNL     1       5.482  -0.841  -0.307  1.00  0.00     0.025 C 
HETATM   14  C4  UNL     1       5.243   1.636  -0.298  1.00  0.00     0.025 C 
ENDBRANCH   7  11
ENDBRANCH   2   3
ENDBRANCH   1   2
BRANCH   1  15
HETATM   15  C8  UNL     1      -3.284  -0.537  -0.164  1.00  0.00     0.071 C 
BRANCH  15  16
HETATM   16  C9  UNL     1      -3.398  -1.918  -0.699  1.00  0.00    -0.056 A 
HETATM   17  C10 UNL     1      -3.718  -3.005   0.087  1.00  0.00     0.007 A 
HETATM   18  C11 UNL     1      -3.804  -4.276  -0.459  1.00  0.00     0.001 A 
HETATM   19  C12 UNL     1      -3.570  -4.471  -1.797  1.00  0.00     0.000 A 
HETATM   20  C13 UNL     1      -3.248  -3.399  -2.607  1.00  0.00     0.001 A 
HETATM   21  C14 UNL     1      -3.170  -2.146  -2.037  1.00  0.00     0.007 A 
ENDBRANCH  15  16
ENDBRANCH   1  15
BRANCH   1  22
HETATM   22  C15 UNL     1      -1.900   1.191   0.727  1.00  0.00     0.239 C 
HETATM   23  O3  UNL     1      -1.131   1.976   0.118  1.00  0.00    -0.272 OA
HETATM   24  N4  UNL     1      -2.724   1.680   1.747  1.00  0.00    -0.350 N 
ATOM     25  H4  UNL     1      -3.343   1.041   2.247  1.00  0.00     0.163 HD
BRANCH  24  26
HETATM   26  C16 UNL     1      -2.707   3.073   2.097  1.00  0.00     0.235 C 
BRANCH  26  27
HETATM   27  C17 UNL     1      -3.143   3.901   0.957  1.00  0.00     0.191 C 
HETATM   28  O4  UNL     1      -3.523   3.422  -0.147  1.00  0.00    -0.647 OA
HETATM   29  O5  UNL     1      -3.165   5.292   1.024  1.00  0.00    -0.647 OA
ENDBRANCH  26  27
ENDBRANCH  24  26
ENDBRANCH   1  22
TORSDOF 8
