REMARK  1 active torsions:
REMARK  status: ('A' for Active; 'I' for Inactive)
REMARK    1  A    between atoms: C2_2  and  C3_3 
ROOT
HETATM    1  C3  UNL     1       0.165   0.619   0.614  1.00  0.00     0.200 C 
HETATM    2  N1  UNL     1      -0.092  -0.550   1.358  1.00  0.00    -0.070 N 
ATOM      3  H11 UNL     1       0.298  -0.538   2.301  1.00  0.00     0.277 HD
ATOM      4  H12 UNL     1       0.420  -1.370   1.034  1.00  0.00     0.277 HD
HETATM    5  C4  UNL     1      -1.533  -0.698   1.316  1.00  0.00     0.234 C 
HETATM    6  C5  UNL     1      -2.034   0.078   0.137  1.00  0.00     0.045 C 
HETATM    7  C6  UNL     1      -0.740   0.509  -0.571  1.00  0.00     0.090 C 
HETATM    8  S1  UNL     1      -0.315  -0.792  -1.714  1.00  0.00    -0.090 SA
ENDROOT
BRANCH   1   9
HETATM    9  C2  UNL     1       1.580   0.933   0.310  1.00  0.00     0.030 C 
HETATM   10  C1  UNL     1       2.333  -0.066  -0.471  1.00  0.00     0.007 C 
ENDBRANCH   1   9
TORSDOF 1
