REMARK  2 active torsions:
REMARK  status: ('A' for Active; 'I' for Inactive)
REMARK    1  A    between atoms: C6_6  and  C7_7 
REMARK    2  A    between atoms: C7_7  and  N1_9 
ROOT
HETATM    1  C1  UNL     1      -2.685   0.991  -1.188  1.00  0.00     0.040 C 
HETATM    2  C2  UNL     1      -1.718   0.628  -0.080  1.00  0.00     0.182 C 
HETATM    3  C3  UNL     1      -2.105  -0.602   0.666  1.00  0.00     0.032 C 
HETATM    4  C4  UNL     1      -0.970  -1.457   1.104  1.00  0.00     0.004 C 
HETATM    5  C5  UNL     1       0.322  -0.728   1.304  1.00  0.00     0.035 C 
HETATM    6  C6  UNL     1       0.632   0.290   0.272  1.00  0.00     0.216 C 
HETATM    7  N2  UNL     1      -0.423   0.451  -0.708  1.00  0.00    -0.065 N 
ATOM      8  H21 UNL     1      -0.216   1.212  -1.355  1.00  0.00     0.278 HD
ATOM      9  H22 UNL     1      -0.435  -0.323  -1.372  1.00  0.00     0.278 HD
ENDROOT
BRANCH   6  10
HETATM   10  C7  UNL     1       1.904   0.017  -0.502  1.00  0.00     0.209 C 
HETATM   11  C8  UNL     1       3.114  -0.034   0.397  1.00  0.00     0.042 C 
BRANCH  10  12
HETATM   12  N1  UNL     1       2.106   1.082  -1.456  1.00  0.00    -0.073 N 
ATOM     13  H13 UNL     1       1.300   1.217  -2.066  1.00  0.00     0.274 HD
ATOM     14  H12 UNL     1       2.107   2.003  -1.017  1.00  0.00     0.274 HD
ATOM     15  H11 UNL     1       2.963   0.898  -1.978  1.00  0.00     0.274 HD
ENDBRANCH  10  12
ENDBRANCH   6  10
TORSDOF 2
