REMARK  2 active torsions:
REMARK  status: ('A' for Active; 'I' for Inactive)
REMARK    1  A    between atoms: C2_2  and  C3_3 
REMARK    2  A    between atoms: C7_7  and  N1_8 
ROOT
HETATM    1  C3  UNL     1       0.695   0.024   0.538  1.00  0.00     0.188 C 
HETATM    2  C4  UNL     1       0.227  -1.209  -0.115  1.00  0.00     0.033 C 
HETATM    3  C5  UNL     1      -1.207  -1.535  -0.046  1.00  0.00     0.006 C 
HETATM    4  C6  UNL     1      -2.033  -0.461   0.676  1.00  0.00     0.062 C 
HETATM    5  C7  UNL     1      -1.477   0.835   0.093  1.00  0.00     0.380 C 
HETATM    6  N2  UNL     1      -0.246   1.055   0.772  1.00  0.00    -0.042 N 
ATOM      7  H21 UNL     1       0.144   1.968   0.538  1.00  0.00     0.280 HD
ATOM      8  H22 UNL     1      -0.398   1.193   1.771  1.00  0.00     0.280 HD
ENDROOT
BRANCH   5   9
HETATM    9  N1  UNL     1      -2.413   1.908   0.177  1.00  0.00    -0.050 N 
ATOM     10  H13 UNL     1      -3.301   1.658  -0.259  1.00  0.00     0.276 HD
ATOM     11  H12 UNL     1      -2.735   2.043   1.135  1.00  0.00     0.276 HD
ATOM     12  H11 UNL     1      -2.041   2.774  -0.213  1.00  0.00     0.276 HD
ENDBRANCH   5   9
BRANCH   1  13
HETATM   13  C2  UNL     1       1.841   0.631  -0.288  1.00  0.00     0.028 C 
HETATM   14  C1  UNL     1       2.999  -0.311  -0.406  1.00  0.00     0.007 C 
ENDBRANCH   1  13
TORSDOF 2
