REMARK  2 active torsions:
REMARK  status: ('A' for Active; 'I' for Inactive)
REMARK    1  A    between atoms: C2_2  and  N1_3 
REMARK    2  A    between atoms: C4_8  and  C5_9 
ROOT
HETATM    1  C1  UNL     1       2.682   1.347  -0.564  1.00  0.00     0.078 C 
HETATM    2  C2  UNL     1       1.809   0.134  -0.300  1.00  0.00     0.283 C 
HETATM    3  C3  UNL     1       0.964   0.246   0.956  1.00  0.00     0.102 C 
HETATM    4  C4  UNL     1      -0.158   0.600   0.078  1.00  0.00     0.200 C 
HETATM    5  N2  UNL     1       0.619   0.200  -1.093  1.00  0.00    -0.036 N 
ATOM      6  H21 UNL     1       0.329  -0.611  -1.639  1.00  0.00     0.280 HD
ATOM      7  H22 UNL     1       0.602   0.778  -1.933  1.00  0.00     0.280 HD
ENDROOT
BRANCH   2   8
HETATM    8  N1  UNL     1       2.545  -1.089  -0.331  1.00  0.00    -0.045 N 
ATOM      9  H13 UNL     1       3.054  -1.188  -1.209  1.00  0.00     0.277 HD
ATOM     10  H12 UNL     1       3.334  -1.058   0.314  1.00  0.00     0.277 HD
ATOM     11  H11 UNL     1       1.958  -1.904  -0.154  1.00  0.00     0.277 HD
ENDBRANCH   2   8
BRANCH   4  12
HETATM   12  C5  UNL     1      -1.431  -0.170   0.163  1.00  0.00    -0.023 C 
HETATM   13  C6  UNL     1      -2.103  -0.134   1.497  1.00  0.00     0.016 C 
HETATM   14  C7  UNL     1      -2.410   0.344  -0.873  1.00  0.00     0.016 C 
HETATM   15  C8  UNL     1      -1.174  -1.633  -0.188  1.00  0.00     0.016 C 
ENDBRANCH   4  12
TORSDOF 2
