REMARK  1 active torsions:
REMARK  status: ('A' for Active; 'I' for Inactive)
REMARK    1  A    between atoms: C2_2  and  C3_4 
ROOT
HETATM    1  C3  UNL     1      -0.090  -0.113   0.154  1.00  0.00     0.200 C 
HETATM    2  C4  UNL     1       0.775  -0.727  -0.926  1.00  0.00     0.036 C 
HETATM    3  C5  UNL     1       2.171  -0.334  -0.418  1.00  0.00     0.029 C 
HETATM    4  C6  UNL     1       1.935   0.621   0.724  1.00  0.00     0.233 C 
HETATM    5  N1  UNL     1       0.603   1.145   0.382  1.00  0.00    -0.070 N 
ATOM      6  H11 UNL     1       0.179   1.775   1.063  1.00  0.00     0.277 HD
ATOM      7  H12 UNL     1       0.568   1.822  -0.380  1.00  0.00     0.277 HD
ENDROOT
BRANCH   1   8
HETATM    8  C2  UNL     1      -1.486   0.086  -0.363  1.00  0.00     0.085 C 
HETATM    9  C1  UNL     1      -2.404   0.691   0.648  1.00  0.00     0.024 C 
HETATM   10  S1  UNL     1      -2.138  -1.579  -0.767  1.00  0.00    -0.091 SA
ENDBRANCH   1   8
TORSDOF 1
