REMARK  14 active torsions:
REMARK  status: ('A' for Active; 'I' for Inactive)
REMARK    1  A    between atoms: C2_2  and  O1_3 
REMARK    2  A    between atoms: O1_3  and  C3_4 
REMARK    3  A    between atoms: C3_4  and  C4_5 
REMARK    4  A    between atoms: C4_5  and  C5_6 
REMARK    5  A    between atoms: C5_6  and  N1_7 
REMARK    6  A    between atoms: C15_17  and  N2_18 
REMARK    7  A    between atoms: N2_18  and  C16_19 
REMARK    8  A    between atoms: C16_19  and  C17_20 
REMARK    9  A    between atoms: C18_25  and  N4_26 
REMARK   10  A    between atoms: N4_26  and  C19_28 
REMARK   11  A    between atoms: N5_31  and  C22_32 
REMARK   12  A    between atoms: C22_32  and  C23_33 
REMARK   13  A    between atoms: C23_33  and  O5_35 
REMARK   14  A    between atoms: O5_35  and  C24_36 
ROOT
HETATM    1  N1  UNL     1      -2.986   0.362  -0.714  1.00  0.00    -0.331 N 
HETATM    2  C6  UNL     1      -3.792  -0.671  -0.455  1.00  0.00     0.048 A 
HETATM    3  C7  UNL     1      -5.138  -0.776  -0.132  1.00  0.00     0.038 A 
HETATM    4  C8  UNL     1      -5.773  -1.972   0.100  1.00  0.00    -0.054 A 
HETATM    5  C9  UNL     1      -7.224  -2.019   0.441  1.00  0.00     0.049 C 
HETATM    6  C10 UNL     1      -5.021  -3.116   0.003  1.00  0.00    -0.055 A 
HETATM    7  C11 UNL     1      -5.627  -4.438   0.243  1.00  0.00     0.049 C 
HETATM    8  C12 UNL     1      -3.672  -3.056  -0.317  1.00  0.00     0.022 A 
HETATM    9  C13 UNL     1      -3.057  -1.848  -0.546  1.00  0.00     0.010 A 
HETATM   10  C14 UNL     1      -1.768  -1.469  -0.873  1.00  0.00     0.080 A 
HETATM   11  C15 UNL     1      -0.595  -2.204  -1.087  1.00  0.00     0.208 A 
HETATM   12  N3  UNL     1       0.551  -1.500  -1.402  1.00  0.00    -0.163 N 
ATOM     13  H3  UNL     1       1.418  -2.013  -1.564  1.00  0.00     0.187 HD
HETATM   14  C18 UNL     1       0.558  -0.186  -1.499  1.00  0.00     0.682 A 
HETATM   15  N6  UNL     1      -0.609   0.518  -1.279  1.00  0.00    -0.175 N 
ATOM     16  H6  UNL     1      -0.591   1.535  -1.354  1.00  0.00     0.186 HD
HETATM   17  C28 UNL     1      -1.751  -0.080  -0.974  1.00  0.00     0.140 A 
ENDROOT
BRANCH  14  18
HETATM   18  N4  UNL     1       1.560   0.495  -1.831  1.00  0.00    -0.221 N 
ATOM     19  H4  UNL     1       1.306   1.483  -1.827  1.00  0.00     0.178 HD
BRANCH  18  20
HETATM   20  C19 UNL     1       2.875   0.374  -2.197  1.00  0.00     0.102 C 
HETATM   21  C20 UNL     1       3.789  -0.566  -1.498  1.00  0.00     0.056 C 
HETATM   22  C21 UNL     1       3.944  -0.311  -0.014  1.00  0.00     0.275 C 
HETATM   23  N5  UNL     1       4.364   1.049   0.244  1.00  0.00     0.098 N 
HETATM   24  C26 UNL     1       3.542   1.996  -0.496  1.00  0.00     0.275 C 
HETATM   25  C27 UNL     1       3.538   1.768  -1.969  1.00  0.00     0.056 C 
BRANCH  23  26
HETATM   26  C22 UNL     1       5.753   1.280  -0.036  1.00  0.00     0.382 C 
BRANCH  26  27
HETATM   27  C23 UNL     1       6.708   0.614   0.835  1.00  0.00     0.287 C 
HETATM   28  O4  UNL     1       6.314  -0.029   1.835  1.00  0.00    -0.263 OA
BRANCH  27  29
HETATM   29  O5  UNL     1       8.074   0.662   0.598  1.00  0.00    -0.321 OA
BRANCH  29  30
HETATM   30  C24 UNL     1       9.037   0.025   1.418  1.00  0.00     0.174 C 
HETATM   31  C25 UNL     1      10.390   0.342   0.761  1.00  0.00     0.034 C 
ENDBRANCH  29  30
ENDBRANCH  27  29
ENDBRANCH  26  27
ENDBRANCH  23  26
ENDBRANCH  18  20
ENDBRANCH  14  18
BRANCH  11  32
HETATM   32  N2  UNL     1      -0.522  -3.398  -0.999  1.00  0.00    -0.392 NA
BRANCH  32  33
HETATM   33  C16 UNL     1      -0.459  -4.708  -0.899  1.00  0.00     0.269 C 
BRANCH  33  34
HETATM   34  C17 UNL     1      -0.383  -5.209   0.514  1.00  0.00     0.228 C 
HETATM   35  O2  UNL     1      -0.362  -6.454   0.673  1.00  0.00    -0.643 OA
HETATM   36  O3  UNL     1      -0.333  -4.398   1.614  1.00  0.00    -0.643 OA
ENDBRANCH  33  34
ENDBRANCH  32  33
ENDBRANCH  11  32
BRANCH   1  37
HETATM   37  C5  UNL     1      -3.394   1.760  -0.682  1.00  0.00     0.133 C 
BRANCH  37  38
HETATM   38  C4  UNL     1      -3.194   2.304   0.733  1.00  0.00     0.046 C 
BRANCH  38  39
HETATM   39  C3  UNL     1      -3.613   3.731   0.818  1.00  0.00     0.169 C 
BRANCH  39  40
HETATM   40  O1  UNL     1      -3.414   4.190   2.141  1.00  0.00    -0.391 OA
BRANCH  40  41
HETATM   41  C2  UNL     1      -3.814   5.534   2.247  1.00  0.00     0.163 C 
HETATM   42  C1  UNL     1      -5.296   5.677   1.893  1.00  0.00     0.033 C 
ENDBRANCH  40  41
ENDBRANCH  39  40
ENDBRANCH  38  39
ENDBRANCH  37  38
ENDBRANCH   1  37
TORSDOF 14
