REMARK  16 active torsions:
REMARK  status: ('A' for Active; 'I' for Inactive)
REMARK    1  A    between atoms: C2_2  and  C3_3 
REMARK    2  A    between atoms: C3_3  and  C4_4 
REMARK    3  A    between atoms: N1_6  and  C6_7 
REMARK    4  A    between atoms: C8_9  and  C9_10 
REMARK       I    between atoms: C9_10  and  N2_12 
REMARK    5  A    between atoms: N2_12  and  C10_14 
REMARK    6  A    between atoms: C10_14  and  C11_15 
REMARK    7  A    between atoms: C10_14  and  C17_23 
REMARK    8  A    between atoms: C11_15  and  C12_16 
REMARK    9  A    between atoms: C12_16  and  O3_18 
REMARK   10  A    between atoms: O3_18  and  C13_19 
REMARK   11  A    between atoms: C17_23  and  O5_25 
REMARK   12  A    between atoms: O5_25  and  C18_26 
REMARK   13  A    between atoms: C18_26  and  C19_27 
REMARK   14  A    between atoms: C19_27  and  C20_28 
REMARK   15  A    between atoms: C24_35  and  C25_36 
REMARK       I    between atoms: C25_36  and  N4_38 
REMARK   16  A    between atoms: N4_38  and  C26_40 
ROOT
HETATM    1  C9  UNL     1       0.465  -0.063   0.485  1.00  0.00     0.269 C 
HETATM    2  O1  UNL     1       0.555   1.212   0.506  1.00  0.00    -0.269 OA
HETATM    3  N2  UNL     1      -0.835  -0.605   0.510  1.00  0.00    -0.344 N 
ATOM      4  H2  UNL     1      -0.961  -1.617   0.489  1.00  0.00     0.163 HD
ENDROOT
BRANCH   1   5
HETATM    5  C8  UNL     1       1.727  -0.845   0.433  1.00  0.00     0.379 C 
HETATM    6  N1  UNL     1       2.336  -0.974   1.701  1.00  0.00    -0.359 N 
HETATM    7  C5  UNL     1       2.991   0.206   2.211  1.00  0.00     0.131 C 
HETATM    8  C4  UNL     1       4.244   0.427   1.378  1.00  0.00     0.044 C 
HETATM    9  C24 UNL     1       4.019  -0.175   0.040  1.00  0.00     0.285 C 
HETATM   10  N3  UNL     1       2.642   0.014  -0.367  1.00  0.00    -0.032 N 
ATOM     11  H32 UNL     1       2.521  -0.138  -1.368  1.00  0.00     0.281 HD
ATOM     12  H31 UNL     1       2.369   0.996  -0.325  1.00  0.00     0.281 HD
BRANCH   6  13
HETATM   13  C6  UNL     1       1.744  -1.757   2.701  1.00  0.00     0.056 C 
HETATM   14  C7  UNL     1       1.087  -3.026   2.307  1.00  0.00     0.054 C 
ENDBRANCH   6  13
BRANCH   8  15
HETATM   15  C3  UNL     1       4.640   1.878   1.350  1.00  0.00     0.008 C 
BRANCH  15  16
HETATM   16  C2  UNL     1       4.927   2.392   2.767  1.00  0.00    -0.004 C 
HETATM   17  C1  UNL     1       6.074   1.578   3.370  1.00  0.00     0.005 C 
ENDBRANCH  15  16
ENDBRANCH   8  15
BRANCH   9  18
HETATM   18  C25 UNL     1       4.890   0.316  -1.041  1.00  0.00     0.249 C 
HETATM   19  O6  UNL     1       4.345   0.799  -2.079  1.00  0.00    -0.271 OA
HETATM   20  N4  UNL     1       6.310   0.247  -0.919  1.00  0.00    -0.351 N 
ATOM     21  H4  UNL     1       6.708  -0.147  -0.066  1.00  0.00     0.163 HD
BRANCH  20  22
HETATM   22  C26 UNL     1       7.205   0.709  -1.946  1.00  0.00     0.022 C 
HETATM   23  C27 UNL     1       8.628   0.496  -1.478  1.00  0.00     0.037 C 
HETATM   24  C28 UNL     1       7.053  -0.162  -3.199  1.00  0.00     0.037 C 
HETATM   25  C29 UNL     1       6.982   2.122  -2.365  1.00  0.00     0.037 C 
ENDBRANCH  20  22
ENDBRANCH   9  18
ENDBRANCH   1   5
BRANCH   3  26
HETATM   26  C10 UNL     1      -1.981   0.253   0.564  1.00  0.00     0.193 C 
BRANCH  26  27
HETATM   27  C11 UNL     1      -2.976  -0.041   1.624  1.00  0.00     0.146 C 
BRANCH  27  28
HETATM   28  C12 UNL     1      -3.598  -1.364   1.567  1.00  0.00     0.262 C 
HETATM   29  O2  UNL     1      -3.308  -2.148   0.623  1.00  0.00    -0.265 OA
BRANCH  28  30
HETATM   30  O3  UNL     1      -4.503  -1.844   2.488  1.00  0.00    -0.311 OA
BRANCH  30  31
HETATM   31  C13 UNL     1      -5.102  -3.101   2.452  1.00  0.00     0.060 C 
HETATM   32  C14 UNL     1      -4.131  -4.252   2.507  1.00  0.00     0.045 C 
HETATM   33  C15 UNL     1      -6.017  -3.316   1.274  1.00  0.00     0.045 C 
HETATM   34  C16 UNL     1      -5.978  -3.219   3.708  1.00  0.00     0.045 C 
ENDBRANCH  30  31
ENDBRANCH  28  30
ENDBRANCH  27  28
ENDBRANCH  26  27
BRANCH  26  35
HETATM   35  C17 UNL     1      -2.669   0.318  -0.780  1.00  0.00     0.282 C 
HETATM   36  O4  UNL     1      -2.159  -0.363  -1.694  1.00  0.00    -0.263 OA
BRANCH  35  37
HETATM   37  O5  UNL     1      -3.782   1.066  -1.019  1.00  0.00    -0.320 OA
BRANCH  37  38
HETATM   38  C18 UNL     1      -4.436   1.141  -2.281  1.00  0.00     0.179 C 
BRANCH  38  39
HETATM   39  C19 UNL     1      -5.612   2.072  -2.093  1.00  0.00     0.035 C 
BRANCH  39  40
HETATM   40  C20 UNL     1      -6.389   2.246  -3.385  1.00  0.00    -0.050 C 
HETATM   41  C21 UNL     1      -6.908   0.915  -3.854  1.00  0.00     0.014 C 
HETATM   42  C22 UNL     1      -7.522   3.214  -3.135  1.00  0.00     0.014 C 
HETATM   43  C23 UNL     1      -5.506   2.827  -4.458  1.00  0.00     0.014 C 
ENDBRANCH  39  40
ENDBRANCH  38  39
ENDBRANCH  37  38
ENDBRANCH  35  37
ENDBRANCH  26  35
ENDBRANCH   3  26
TORSDOF 16
