REMARK  12 active torsions:
REMARK  status: ('A' for Active; 'I' for Inactive)
REMARK    1  A    between atoms: O1_2  and  C2_3 
REMARK    2  A    between atoms: C4_5  and  C5_6 
REMARK    3  A    between atoms: C5_6  and  N2_12 
REMARK       I    between atoms: N1_7  and  C6_9 
REMARK    4  A    between atoms: N2_12  and  N3_14 
REMARK       I    between atoms: N3_14  and  C8_16 
REMARK    5  A    between atoms: C8_16  and  C9_18 
REMARK    6  A    between atoms: C9_18  and  N4_19 
REMARK    7  A    between atoms: C9_18  and  C20_35 
REMARK       I    between atoms: N4_19  and  C10_21 
REMARK    8  A    between atoms: C10_21  and  C11_23 
REMARK    9  A    between atoms: C13_25  and  O5_26 
REMARK   10  A    between atoms: C15_28  and  O6_29 
REMARK   11  A    between atoms: C17_31  and  O7_32 
REMARK   12  A    between atoms: C26_41  and  O8_42 
ROOT
HETATM    1  N3  UNL     1      -1.554   2.235   0.417  1.00  0.00    -0.267 N 
ATOM      2  H3  UNL     1      -1.792   2.677  -0.471  1.00  0.00     0.190 HD
HETATM    3  C8  UNL     1      -0.336   1.518   0.514  1.00  0.00     0.259 C 
HETATM    4  O3  UNL     1       0.021   0.956   1.565  1.00  0.00    -0.269 OA
ENDROOT
BRANCH   3   5
HETATM    5  C9  UNL     1       0.545   1.431  -0.673  1.00  0.00     0.182 C 
BRANCH   5   6
HETATM    6  N4  UNL     1       1.742   0.685  -0.400  1.00  0.00    -0.343 N 
HETATM    7  C10 UNL     1       3.012   1.237  -0.688  1.00  0.00     0.252 C 
HETATM    8  O4  UNL     1       3.071   2.385  -1.192  1.00  0.00    -0.268 OA
ATOM      9  H4  UNL     1       1.676  -0.249   0.004  1.00  0.00     0.163 HD
BRANCH   7  10
HETATM   10  C11 UNL     1       4.269   0.541  -0.431  1.00  0.00     0.037 A 
HETATM   11  C12 UNL     1       5.159   0.244  -1.451  1.00  0.00     0.057 A 
HETATM   12  C13 UNL     1       6.356  -0.405  -1.235  1.00  0.00     0.105 A 
HETATM   13  C15 UNL     1       6.670  -0.768   0.058  1.00  0.00     0.135 A 
HETATM   14  C17 UNL     1       5.804  -0.485   1.088  1.00  0.00     0.105 A 
HETATM   15  C19 UNL     1       4.604   0.167   0.860  1.00  0.00     0.057 A 
BRANCH  12  16
HETATM   16  O5  UNL     1       7.236  -0.697  -2.266  1.00  0.00    -0.353 OA
HETATM   17  C14 UNL     1       7.009  -0.373  -3.604  1.00  0.00     0.210 C 
ENDBRANCH  12  16
BRANCH  13  18
HETATM   18  O6  UNL     1       7.876  -1.434   0.350  1.00  0.00    -0.351 OA
HETATM   19  C16 UNL     1       7.894  -2.862   0.321  1.00  0.00     0.210 C 
ENDBRANCH  13  18
BRANCH  14  20
HETATM   20  O7  UNL     1       6.159  -0.866   2.371  1.00  0.00    -0.353 OA
HETATM   21  C18 UNL     1       5.366  -0.630   3.515  1.00  0.00     0.210 C 
ENDBRANCH  14  20
ENDBRANCH   7  10
ENDBRANCH   5   6
BRANCH   5  22
HETATM   22  C20 UNL     1      -0.240   0.813  -1.818  1.00  0.00     0.009 C 
HETATM   23  C21 UNL     1       0.596   0.694  -3.067  1.00  0.00     0.012 C 
HETATM   24  C22 UNL     1      -0.832  -0.523  -1.427  1.00  0.00     0.012 C 
ENDBRANCH   5  22
ENDBRANCH   3   5
BRANCH   1  25
HETATM   25  N2  UNL     1      -2.443   2.361   1.487  1.00  0.00    -0.282 N 
ATOM     26  H2  UNL     1      -2.473   3.259   1.971  1.00  0.00     0.188 HD
BRANCH  25  27
HETATM   27  C5  UNL     1      -3.303   1.342   1.951  1.00  0.00     0.133 C 
HETATM   28  N1  UNL     1      -3.415   1.150   3.231  1.00  0.00    -0.312 N 
HETATM   29  C6  UNL     1      -2.698   1.920   4.146  1.00  0.00     0.219 C 
ATOM     30  H1  UNL     1      -4.040   0.421   3.574  1.00  0.00     0.170 HD
HETATM   31  C7  UNL     1      -1.609   1.277   4.958  1.00  0.00     0.117 C 
HETATM   32  O2  UNL     1      -2.896   3.157   4.357  1.00  0.00    -0.274 OA
BRANCH  27  33
HETATM   33  C4  UNL     1      -4.092   0.488   1.059  1.00  0.00     0.013 A 
HETATM   34  C3  UNL     1      -4.393   0.800  -0.248  1.00  0.00     0.055 A 
HETATM   35  C2  UNL     1      -5.152  -0.035  -1.046  1.00  0.00     0.102 A 
HETATM   36  C26 UNL     1      -5.645  -1.230  -0.553  1.00  0.00     0.107 A 
HETATM   37  C24 UNL     1      -5.346  -1.548   0.755  1.00  0.00    -0.025 A 
HETATM   38  C23 UNL     1      -4.587  -0.710   1.544  1.00  0.00     0.025 A 
HETATM   39  C25 UNL     1      -5.874  -2.828   1.294  1.00  0.00     0.051 C 
BRANCH  35  40
HETATM   40  O1  UNL     1      -5.417   0.328  -2.335  1.00  0.00    -0.353 OA
HETATM   41  C1  UNL     1      -4.970   1.511  -2.945  1.00  0.00     0.210 C 
ENDBRANCH  35  40
BRANCH  36  42
HETATM   42  O8  UNL     1      -6.415  -2.086  -1.345  1.00  0.00    -0.353 OA
HETATM   43  C27 UNL     1      -7.833  -1.933  -1.373  1.00  0.00     0.210 C 
ENDBRANCH  36  42
ENDBRANCH  27  33
ENDBRANCH  25  27
ENDBRANCH   1  25
TORSDOF 12
