REMARK  13 active torsions:
REMARK  status: ('A' for Active; 'I' for Inactive)
REMARK    1  A    between atoms: C2_2  and  O1_3 
REMARK    2  A    between atoms: O1_3  and  C3_4 
REMARK    3  A    between atoms: C3_4  and  C4_5 
REMARK    4  A    between atoms: C4_5  and  N1_6 
REMARK    5  A    between atoms: C8_11  and  C9_12 
REMARK       I    between atoms: C9_12  and  N3_14 
REMARK    6  A    between atoms: N3_14  and  C10_16 
REMARK    7  A    between atoms: C13_19  and  C14_20 
REMARK    8  A    between atoms: C14_20  and  C15_21 
REMARK    9  A    between atoms: C15_21  and  C16_22 
REMARK   10  A    between atoms: C16_22  and  C17_23 
REMARK   11  A    between atoms: C17_23  and  C18_24 
REMARK       I    between atoms: N6_30  and  C20_32 
REMARK   12  A    between atoms: C20_32  and  C21_34 
REMARK   13  A    between atoms: C21_34  and  C22_35 
ROOT
HETATM    1  C10 UNL     1      -2.428   1.327   0.280  1.00  0.00     0.122 A 
HETATM    2  C11 UNL     1      -1.729   0.305   0.927  1.00  0.00     0.052 A 
HETATM    3  C12 UNL     1      -0.537  -0.091   0.376  1.00  0.00     0.030 A 
HETATM    4  C13 UNL     1      -0.084   0.523  -0.772  1.00  0.00     0.026 A 
HETATM    5  N7  UNL     1      -0.775   1.503  -1.375  1.00  0.00    -0.303 N 
ATOM      6  H7  UNL     1      -0.426   1.947  -2.224  1.00  0.00     0.186 HD
HETATM    7  N8  UNL     1      -1.920   1.874  -0.835  1.00  0.00    -0.285 N 
ATOM      8  H8  UNL     1      -2.449   2.618  -1.290  1.00  0.00     0.188 HD
ENDROOT
BRANCH   4   9
HETATM    9  C14 UNL     1       1.228   0.022  -1.307  1.00  0.00     0.058 C 
BRANCH   9  10
HETATM   10  C15 UNL     1       2.400   0.768  -0.716  1.00  0.00     0.006 C 
BRANCH  10  11
HETATM   11  C16 UNL     1       2.322   2.227  -1.023  1.00  0.00     0.007 C 
BRANCH  11  12
HETATM   12  C17 UNL     1       3.474   3.009  -0.440  1.00  0.00     0.066 C 
BRANCH  12  13
HETATM   13  C18 UNL     1       4.738   2.455  -1.037  1.00  0.00     0.069 A 
HETATM   14  N4  UNL     1       5.367   2.825  -2.142  1.00  0.00    -0.296 N 
HETATM   15  N5  UNL     1       6.428   2.263  -2.512  1.00  0.00    -0.279 N 
ATOM     16  H4  UNL     1       4.982   3.583  -2.705  1.00  0.00     0.187 HD
HETATM   17  C19 UNL     1       6.928   1.252  -1.748  1.00  0.00     0.167 A 
ATOM     18  H5  UNL     1       6.904   2.557  -3.365  1.00  0.00     0.189 HD
HETATM   19  N6  UNL     1       7.999   0.597  -2.009  1.00  0.00    -0.306 N 
HETATM   20  S1  UNL     1       5.761   1.200  -0.499  1.00  0.00    -0.038 SA
HETATM   21  C20 UNL     1       8.498  -0.430  -1.225  1.00  0.00     0.227 C 
ATOM     22  H6  UNL     1       8.518   0.849  -2.850  1.00  0.00     0.171 HD
HETATM   23  O3  UNL     1       9.147  -1.393  -1.787  1.00  0.00    -0.273 OA
BRANCH  21  24
HETATM   24  C21 UNL     1       8.337  -0.497   0.236  1.00  0.00     0.143 C 
BRANCH  24  25
HETATM   25  C22 UNL     1       9.084  -1.701   0.729  1.00  0.00    -0.024 A 
HETATM   26  C23 UNL     1      10.295  -1.573   1.369  1.00  0.00     0.033 A 
HETATM   27  C24 UNL     1      10.979  -2.701   1.823  1.00  0.00     0.036 A 
HETATM   28 CL1  UNL     1      12.515  -2.517   2.633  1.00  0.00    -0.084 Cl
HETATM   29  C25 UNL     1      10.467  -3.963   1.645  1.00  0.00     0.049 A 
HETATM   30  C26 UNL     1       9.254  -4.093   1.004  1.00  0.00     0.058 A 
HETATM   31 CL2  UNL     1       8.590  -5.708   0.772  1.00  0.00    -0.082 Cl
HETATM   32  C27 UNL     1       8.570  -2.960   0.550  1.00  0.00     0.062 A 
HETATM   33 CL3  UNL     1       7.042  -3.179  -0.254  1.00  0.00    -0.082 Cl
ENDBRANCH  24  25
ENDBRANCH  21  24
ENDBRANCH  12  13
ENDBRANCH  11  12
ENDBRANCH  10  11
ENDBRANCH   9  10
ENDBRANCH   4   9
BRANCH   1  34
HETATM   34  N3  UNL     1      -3.530   1.674   0.815  1.00  0.00    -0.306 N 
HETATM   35  C9  UNL     1      -4.433   2.653   0.397  1.00  0.00     0.282 C 
HETATM   36  O2  UNL     1      -4.062   3.810   0.079  1.00  0.00    -0.265 OA
ATOM     37  H3  UNL     1      -3.788   1.169   1.663  1.00  0.00     0.170 HD
BRANCH  35  38
HETATM   38  C8  UNL     1      -5.868   2.375   0.309  1.00  0.00     0.163 A 
HETATM   39  C7  UNL     1      -6.884   3.196  -0.076  1.00  0.00     0.143 A 
HETATM   40  N2  UNL     1      -8.030   2.489   0.008  1.00  0.00    -0.294 N 
HETATM   41  C6  UNL     1      -9.345   2.520  -0.162  1.00  0.00     0.117 A 
HETATM   42  C28 UNL     1      -7.690   1.257   0.442  1.00  0.00     0.237 A 
HETATM   43  C5  UNL     1      -9.827   1.280   0.175  1.00  0.00     0.112 A 
HETATM   44  N1  UNL     1      -8.778   0.482   0.557  1.00  0.00    -0.319 N 
HETATM   45  O4  UNL     1      -6.408   1.227   0.609  1.00  0.00    -0.272 OA
BRANCH  44  46
HETATM   46  C4  UNL     1      -8.933  -0.893   0.971  1.00  0.00     0.158 C 
BRANCH  46  47
HETATM   47  C3  UNL     1      -8.881  -1.852  -0.187  1.00  0.00     0.187 C 
BRANCH  47  48
HETATM   48  O1  UNL     1      -7.709  -1.870  -0.887  1.00  0.00    -0.390 OA
BRANCH  48  49
HETATM   49  C2  UNL     1      -6.606  -2.275  -0.140  1.00  0.00     0.163 C 
HETATM   50  C1  UNL     1      -6.842  -3.699   0.379  1.00  0.00     0.033 C 
ENDBRANCH  48  49
ENDBRANCH  47  48
ENDBRANCH  46  47
ENDBRANCH  44  46
ENDBRANCH  35  38
ENDBRANCH   1  34
TORSDOF 13
