REMARK  13 active torsions:
REMARK  status: ('A' for Active; 'I' for Inactive)
REMARK    1  A    between atoms: O1_2  and  C2_3 
REMARK    2  A    between atoms: C3_4  and  N1_5 
REMARK    3  A    between atoms: N1_5  and  C4_7 
REMARK    4  A    between atoms: C8_15  and  O2_16 
REMARK    5  A    between atoms: O2_16  and  C9_17 
REMARK    6  A    between atoms: C9_17  and  C10_18 
REMARK    7  A    between atoms: C10_18  and  N4_19 
REMARK    8  A    between atoms: C15_24  and  O3_25 
REMARK    9  A    between atoms: O3_25  and  C16_26 
REMARK   10  A    between atoms: C16_26  and  C17_27 
REMARK   11  A    between atoms: C17_27  and  N5_28 
REMARK   12  A    between atoms: C24_36  and  N6_37 
REMARK       I    between atoms: N6_37  and  C25_39 
REMARK   13  A    between atoms: C25_39  and  C26_41 
ROOT
HETATM    1  C4  UNL     1       1.736  -0.577  -0.358  1.00  0.00     0.119 A 
HETATM    2  N2  UNL     1       2.363  -1.732  -0.650  1.00  0.00    -0.338 N 
ATOM      3  H2  UNL     1       3.379  -1.782  -0.727  1.00  0.00     0.168 HD
HETATM    4  C5  UNL     1       1.583  -2.826  -0.837  1.00  0.00     0.182 A 
HETATM    5  N3  UNL     1       0.246  -2.762  -0.735  1.00  0.00    -0.351 N 
ATOM      6  H3  UNL     1      -0.308  -3.606  -0.883  1.00  0.00     0.166 HD
HETATM    7  C6  UNL     1      -0.378  -1.607  -0.442  1.00  0.00     0.050 A 
HETATM    8  C7  UNL     1      -1.764  -1.546  -0.331  1.00  0.00     0.070 A 
HETATM    9  C8  UNL     1      -2.453  -0.409  -0.032  1.00  0.00     0.104 A 
HETATM   10  C15 UNL     1      -1.693   0.742   0.170  1.00  0.00     0.103 A 
HETATM   11  C20 UNL     1      -0.300   0.704   0.064  1.00  0.00     0.057 A 
HETATM   12  C21 UNL     1       0.367  -0.468  -0.243  1.00  0.00     0.038 A 
ENDROOT
BRANCH   1  13
HETATM   13  N1  UNL     1       2.435   0.498  -0.174  1.00  0.00    -0.339 N 
ATOM     14  H1  UNL     1       1.959   1.372   0.047  1.00  0.00     0.167 HD
BRANCH  13  15
HETATM   15  C3  UNL     1       3.861   0.483  -0.274  1.00  0.00     0.072 A 
HETATM   16  C2  UNL     1       4.571   0.509   0.907  1.00  0.00     0.136 A 
HETATM   17  C27 UNL     1       5.942   0.479   0.835  1.00  0.00     0.179 A 
HETATM   18  C24 UNL     1       6.647   0.423  -0.370  1.00  0.00     0.094 A 
HETATM   19  F1  UNL     1       6.685   0.502   1.984  1.00  0.00    -0.201 F 
HETATM   20  C23 UNL     1       5.924   0.398  -1.549  1.00  0.00     0.043 A 
HETATM   21  C22 UNL     1       4.536   0.430  -1.474  1.00  0.00     0.054 A 
HETATM   22 BR1  UNL     1       6.837   0.321  -3.231  1.00  0.00    -0.049 Br
BRANCH  16  23
HETATM   23  O1  UNL     1       3.932   0.566   2.148  1.00  0.00    -0.351 OA
HETATM   24  C1  UNL     1       3.576  -0.617   2.823  1.00  0.00     0.210 C 
ENDBRANCH  16  23
BRANCH  18  25
HETATM   25  N6  UNL     1       8.059   0.375  -0.403  1.00  0.00    -0.323 N 
HETATM   26  C25 UNL     1       8.788  -0.838  -0.369  1.00  0.00     0.232 C 
HETATM   27  O4  UNL     1       8.167  -1.927  -0.308  1.00  0.00    -0.272 OA
ATOM     28  H6  UNL     1       8.576   1.253  -0.454  1.00  0.00     0.169 HD
BRANCH  26  29
HETATM   29  C26 UNL     1      10.261  -0.858  -0.402  1.00  0.00     0.188 C 
HETATM   30 BR2  UNL     1      11.034   0.893  -0.510  1.00  0.00    -0.087 Br
ENDBRANCH  26  29
ENDBRANCH  18  25
ENDBRANCH  13  15
ENDBRANCH   1  13
BRANCH  10  31
HETATM   31  O3  UNL     1      -2.364   1.900   0.475  1.00  0.00    -0.347 OA
BRANCH  31  32
HETATM   32  C16 UNL     1      -1.754   3.142   0.705  1.00  0.00     0.206 C 
BRANCH  32  33
HETATM   33  C17 UNL     1      -2.779   4.200   1.019  1.00  0.00     0.297 C 
BRANCH  33  34
HETATM   34  N5  UNL     1      -2.223   5.486   1.261  1.00  0.00     0.082 N 
HETATM   35  C18 UNL     1      -1.452   5.590   2.459  1.00  0.00     0.309 C 
HETATM   36  C19 UNL     1      -1.576   6.108   0.155  1.00  0.00     0.309 C 
ENDBRANCH  33  34
ENDBRANCH  32  33
ENDBRANCH  31  32
ENDBRANCH  10  31
BRANCH   9  37
HETATM   37  O2  UNL     1      -3.818  -0.353   0.072  1.00  0.00    -0.346 OA
BRANCH  37  38
HETATM   38  C9  UNL     1      -4.741  -1.361  -0.145  1.00  0.00     0.206 C 
BRANCH  38  39
HETATM   39  C10 UNL     1      -4.802  -1.838  -1.562  1.00  0.00     0.299 C 
BRANCH  39  40
HETATM   40  N4  UNL     1      -5.727  -2.911  -1.770  1.00  0.00     0.090 N 
HETATM   41  C11 UNL     1      -7.105  -2.597  -1.611  1.00  0.00     0.272 C 
HETATM   42  C12 UNL     1      -7.583  -3.459  -0.435  1.00  0.00     0.032 C 
HETATM   43  C13 UNL     1      -6.647  -4.621  -0.421  1.00  0.00     0.032 C 
HETATM   44  C14 UNL     1      -5.415  -4.138  -1.126  1.00  0.00     0.272 C 
ENDBRANCH  39  40
ENDBRANCH  38  39
ENDBRANCH  37  38
ENDBRANCH   9  37
TORSDOF 13
