REMARK  12 active torsions:
REMARK  status: ('A' for Active; 'I' for Inactive)
REMARK    1  A    between atoms: N2_5  and  C3_6 
REMARK    2  A    between atoms: C3_6  and  C4_7 
REMARK    3  A    between atoms: C4_7  and  N3_8 
REMARK    4  A    between atoms: C7_11  and  C8_12 
REMARK    5  A    between atoms: C11_15  and  C12_16 
REMARK       I    between atoms: C12_16  and  N4_18 
REMARK    6  A    between atoms: N4_18  and  C13_20 
REMARK    7  A    between atoms: C24_31  and  O2_32 
REMARK    8  A    between atoms: O2_32  and  C25_33 
REMARK    9  A    between atoms: C25_33  and  C26_34 
REMARK   10  A    between atoms: N5_37  and  C29_38 
REMARK   11  A    between atoms: C29_38  and  C30_39 
REMARK   12  A    between atoms: C35_49  and  C36_50 
ROOT
HETATM    1  C8  UNL     1       0.957  -0.413   1.454  1.00  0.00    -0.017 A 
HETATM    2  C9  UNL     1       1.129  -1.612   0.844  1.00  0.00     0.011 A 
HETATM    3  C10 UNL     1       0.076  -2.178   0.149  1.00  0.00     0.018 A 
HETATM    4  C11 UNL     1      -1.163  -1.596   0.028  1.00  0.00     0.034 A 
HETATM    5  C23 UNL     1      -1.317  -0.359   0.668  1.00  0.00     0.054 A 
HETATM    6  C24 UNL     1      -0.291   0.219   1.362  1.00  0.00     0.076 A 
ENDROOT
BRANCH   1   7
HETATM    7  C7  UNL     1       2.016   0.353   2.176  1.00  0.00     0.062 C 
HETATM    8  C6  UNL     1       3.172  -0.444   2.640  1.00  0.00     0.057 C 
HETATM    9  C5  UNL     1       4.495  -0.101   1.965  1.00  0.00     0.064 C 
HETATM   10  N3  UNL     1       4.287  -0.072   0.582  1.00  0.00    -0.369 N 
HETATM   11  C34 UNL     1       3.415   0.972   0.185  1.00  0.00     0.165 C 
HETATM   12  C33 UNL     1       2.436   1.459   1.208  1.00  0.00     0.197 C 
HETATM   13  F3  UNL     1       2.964   2.544   1.868  1.00  0.00    -0.247 F 
BRANCH  10  14
HETATM   14  C4  UNL     1       5.065  -0.709  -0.357  1.00  0.00     0.086 C 
BRANCH  14  15
HETATM   15  C3  UNL     1       5.093  -2.173  -0.528  1.00  0.00     0.214 C 
BRANCH  15  16
HETATM   16  N2  UNL     1       5.552  -2.962   0.564  1.00  0.00    -0.229 N 
HETATM   17  N1  UNL     1       6.835  -3.289   0.810  1.00  0.00    -0.286 N 
HETATM   18  C2  UNL     1       6.894  -4.070   1.873  1.00  0.00     0.057 A 
ATOM     19  H1  UNL     1       7.637  -2.981   0.260  1.00  0.00     0.188 HD
HETATM   20  C1  UNL     1       8.134  -4.661   2.474  1.00  0.00     0.072 C 
HETATM   21  C35 UNL     1       5.614  -4.270   2.354  1.00  0.00     0.138 A 
HETATM   22  N6  UNL     1       4.827  -3.563   1.506  1.00  0.00    -0.277 N 
ATOM     23  H6  UNL     1       3.812  -3.500   1.580  1.00  0.00     0.189 HD
BRANCH  21  24
HETATM   24  C36 UNL     1       5.201  -5.050   3.508  1.00  0.00     0.284 C 
HETATM   25  N7  UNL     1       6.165  -5.704   4.299  1.00  0.00    -0.056 NA
HETATM   26  O3  UNL     1       3.969  -5.131   3.789  1.00  0.00    -0.269 OA
ENDBRANCH  21  24
ENDBRANCH  15  16
ENDBRANCH  14  15
ENDBRANCH  10  14
ENDBRANCH   1   7
BRANCH   6  27
HETATM   27  O2  UNL     1      -0.462   1.439   1.995  1.00  0.00    -0.350 OA
BRANCH  27  28
HETATM   28  C25 UNL     1      -1.659   2.163   1.993  1.00  0.00     0.180 C 
BRANCH  28  29
HETATM   29  C26 UNL     1      -1.436   3.429   2.814  1.00  0.00     0.013 C 
HETATM   30  C27 UNL     1      -0.357   4.244   2.168  1.00  0.00     0.037 C 
HETATM   31  C28 UNL     1      -0.691   5.726   2.223  1.00  0.00     0.273 C 
HETATM   32  N5  UNL     1      -1.958   6.052   1.652  1.00  0.00     0.093 N 
HETATM   33  C31 UNL     1      -2.893   4.966   1.615  1.00  0.00     0.273 C 
HETATM   34  C32 UNL     1      -2.751   4.164   2.890  1.00  0.00     0.037 C 
BRANCH  32  35
HETATM   35  C29 UNL     1      -1.897   6.774   0.411  1.00  0.00     0.343 C 
BRANCH  35  36
HETATM   36  C30 UNL     1      -1.350   8.159   0.662  1.00  0.00     0.381 C 
HETATM   37  F1  UNL     1      -1.313   8.803  -0.562  1.00  0.00    -0.213 F 
HETATM   38  F2  UNL     1      -2.269   8.823   1.449  1.00  0.00    -0.213 F 
ENDBRANCH  35  36
ENDBRANCH  32  35
ENDBRANCH  28  29
ENDBRANCH  27  28
ENDBRANCH   6  27
BRANCH   4  39
HETATM   39  C12 UNL     1      -2.244  -2.215  -0.715  1.00  0.00     0.252 C 
HETATM   40  O1  UNL     1      -2.762  -3.288  -0.339  1.00  0.00    -0.268 OA
HETATM   41  N4  UNL     1      -2.775  -1.637  -1.911  1.00  0.00    -0.352 N 
ATOM     42  H4  UNL     1      -2.379  -0.760  -2.250  1.00  0.00     0.163 HD
BRANCH  41  43
HETATM   43  C13 UNL     1      -3.836  -2.240  -2.647  1.00  0.00     0.093 C 
HETATM   44  C14 UNL     1      -3.380  -2.643  -4.031  1.00  0.00     0.009 C 
HETATM   45  C15 UNL     1      -3.159  -1.426  -4.883  1.00  0.00     0.011 C 
HETATM   46  C19 UNL     1      -4.451  -3.541  -4.629  1.00  0.00     0.011 C 
HETATM   47  C16 UNL     1      -4.451  -0.673  -5.054  1.00  0.00    -0.013 C 
HETATM   48  C17 UNL     1      -5.538  -1.559  -5.611  1.00  0.00     0.009 C 
HETATM   49  C22 UNL     1      -4.860  -0.202  -3.667  1.00  0.00     0.011 C 
HETATM   50  C18 UNL     1      -5.729  -2.751  -4.692  1.00  0.00    -0.013 C 
HETATM   51  C20 UNL     1      -6.162  -2.261  -3.338  1.00  0.00     0.011 C 
HETATM   52  C21 UNL     1      -5.061  -1.397  -2.759  1.00  0.00     0.009 C 
ENDBRANCH  41  43
ENDBRANCH   4  39
TORSDOF 12
