REMARK  16 active torsions:
REMARK  status: ('A' for Active; 'I' for Inactive)
REMARK    1  A    between atoms: C2_2  and  O1_3 
REMARK    2  A    between atoms: C2_2  and  N1_5 
REMARK    3  A    between atoms: C6_9  and  C7_10 
REMARK       I    between atoms: C7_10  and  N2_12 
REMARK    4  A    between atoms: N2_12  and  C8_14 
REMARK    5  A    between atoms: C10_16  and  O3_17 
REMARK    6  A    between atoms: O3_17  and  C11_18 
REMARK    7  A    between atoms: C11_18  and  C12_19 
REMARK    8  A    between atoms: C12_19  and  O4_20 
REMARK    9  A    between atoms: O4_20  and  C13_21 
REMARK   10  A    between atoms: C13_21  and  C14_22 
REMARK   11  A    between atoms: C14_22  and  O5_23 
REMARK   12  A    between atoms: O5_23  and  C15_24 
REMARK   13  A    between atoms: C15_24  and  C16_25 
REMARK   14  A    between atoms: C16_25  and  N3_26 
REMARK   15  A    between atoms: C23_34  and  N4_35 
REMARK   16  A    between atoms: N4_35  and  C24_37 
ROOT
HETATM    1  C8  UNL     1      -1.608   0.890   0.739  1.00  0.00     0.132 C 
HETATM    2  C9  UNL     1      -0.696  -0.072  -0.024  1.00  0.00     0.063 C 
HETATM    3  C10 UNL     1       0.725  -0.081   0.300  1.00  0.00     0.124 C 
HETATM    4  C21 UNL     1       1.109   1.012   1.244  1.00  0.00     0.037 C 
HETATM    5  C22 UNL     1       0.470   2.274   0.631  1.00  0.00     0.057 C 
HETATM    6  C23 UNL     1      -1.026   2.181   1.023  1.00  0.00     0.006 C 
ENDROOT
BRANCH   1   7
HETATM    7  N2  UNL     1      -2.862   0.877  -0.066  1.00  0.00    -0.351 N 
HETATM    8  C7  UNL     1      -3.883  -0.087   0.300  1.00  0.00     0.228 C 
HETATM    9  O2  UNL     1      -3.604  -0.827   1.277  1.00  0.00    -0.273 OA
ATOM     10  H2  UNL     1      -2.998   1.521  -0.845  1.00  0.00     0.163 HD
BRANCH   8  11
HETATM   11  C6  UNL     1      -5.118  -0.159  -0.417  1.00  0.00     0.129 C 
HETATM   12  C5  UNL     1      -5.019   0.233  -1.873  1.00  0.00     0.022 C 
HETATM   13  C4  UNL     1      -6.383   0.827  -2.303  1.00  0.00     0.021 C 
HETATM   14  C3  UNL     1      -7.480   0.338  -1.361  1.00  0.00     0.131 C 
HETATM   15  N1  UNL     1      -7.233  -1.106  -1.080  1.00  0.00    -0.334 N 
HETATM   16  C28 UNL     1      -6.009  -1.342  -0.348  1.00  0.00     0.040 C 
HETATM   17  C29 UNL     1      -5.835  -2.445   0.522  1.00  0.00     0.032 A 
HETATM   18  C30 UNL     1      -4.698  -3.292   0.496  1.00  0.00     0.059 A 
HETATM   19  C34 UNL     1      -6.833  -2.915   1.345  1.00  0.00     0.167 A 
HETATM   20  C31 UNL     1      -4.651  -4.455   1.237  1.00  0.00     0.120 A 
HETATM   21  F1  UNL     1      -3.529  -5.256   1.193  1.00  0.00    -0.206 F 
HETATM   22  C32 UNL     1      -5.674  -4.859   2.027  1.00  0.00     0.087 A 
HETATM   23  C33 UNL     1      -6.795  -4.059   2.076  1.00  0.00     0.158 A 
HETATM   24  F2  UNL     1      -7.858  -4.433   2.855  1.00  0.00    -0.203 F 
HETATM   25  F3  UNL     1      -7.936  -2.127   1.525  1.00  0.00    -0.202 F 
BRANCH  15  26
HETATM   26  C2  UNL     1      -8.157  -1.980  -1.586  1.00  0.00     0.113 C 
HETATM   27  C1  UNL     1      -8.226  -3.411  -1.616  1.00  0.00     0.097 C 
BRANCH  26  28
HETATM   28  O1  UNL     1      -9.196  -1.402  -2.175  1.00  0.00    -0.349 OA
ATOM     29  H1  UNL     1      -9.150  -0.453  -2.155  1.00  0.00     0.219 HD
ENDBRANCH  26  28
ENDBRANCH  15  26
ENDBRANCH   8  11
ENDBRANCH   1   7
BRANCH   6  30
HETATM   30  N4  UNL     1      -1.634   3.388   0.792  1.00  0.00    -0.387 N 
ATOM     31  H4  UNL     1      -1.294   3.886  -0.031  1.00  0.00     0.160 HD
BRANCH  30  32
HETATM   32  C24 UNL     1      -2.620   4.034   1.482  1.00  0.00     0.019 C 
HETATM   33  C25 UNL     1      -3.948   3.389   1.632  1.00  0.00     0.037 C 
HETATM   34  C26 UNL     1      -2.897   5.386   0.725  1.00  0.00     0.037 C 
HETATM   35  C27 UNL     1      -2.214   4.536   2.872  1.00  0.00     0.037 C 
ENDBRANCH  30  32
ENDBRANCH   6  30
BRANCH   3  36
HETATM   36  O3  UNL     1       1.196  -1.348   0.673  1.00  0.00    -0.384 OA
BRANCH  36  37
HETATM   37  C11 UNL     1       2.059  -1.872  -0.237  1.00  0.00     0.194 C 
BRANCH  37  38
HETATM   38  C12 UNL     1       3.371  -1.139  -0.417  1.00  0.00     0.193 C 
BRANCH  38  39
HETATM   39  O4  UNL     1       4.067  -1.821  -1.388  1.00  0.00    -0.387 OA
BRANCH  39  40
HETATM   40  C13 UNL     1       5.342  -1.362  -1.671  1.00  0.00     0.193 C 
BRANCH  40  41
HETATM   41  C14 UNL     1       5.441   0.060  -2.086  1.00  0.00     0.193 C 
BRANCH  41  42
HETATM   42  O5  UNL     1       6.602   0.565  -2.412  1.00  0.00    -0.387 OA
BRANCH  42  43
HETATM   43  C15 UNL     1       7.714   0.677  -1.746  1.00  0.00     0.198 C 
BRANCH  43  44
HETATM   44  C16 UNL     1       8.505  -0.550  -1.341  1.00  0.00     0.298 C 
BRANCH  44  45
HETATM   45  N3  UNL     1       9.751  -0.120  -0.654  1.00  0.00     0.094 N 
HETATM   46  C17 UNL     1       9.460   0.471   0.619  1.00  0.00     0.298 C 
HETATM   47  C18 UNL     1      10.195  -0.326   1.686  1.00  0.00     0.198 C 
HETATM   48  O6  UNL     1      11.539  -0.305   1.379  1.00  0.00    -0.388 OA
HETATM   49  C19 UNL     1      11.847  -1.009   0.238  1.00  0.00     0.198 C 
HETATM   50  C20 UNL     1      10.629  -1.251  -0.623  1.00  0.00     0.298 C 
ENDBRANCH  44  45
ENDBRANCH  43  44
ENDBRANCH  42  43
ENDBRANCH  41  42
ENDBRANCH  40  41
ENDBRANCH  39  40
ENDBRANCH  38  39
ENDBRANCH  37  38
ENDBRANCH  36  37
ENDBRANCH   3  36
TORSDOF 16
