REMARK  13 active torsions:
REMARK  status: ('A' for Active; 'I' for Inactive)
REMARK    1  A    between atoms: C2_2  and  C3_3 
REMARK    2  A    between atoms: C3_3  and  C4_4 
REMARK    3  A    between atoms: C3_3  and  N6_27 
REMARK    4  A    between atoms: N1_7  and  C7_8 
REMARK    5  A    between atoms: C8_11  and  N3_12 
REMARK    6  A    between atoms: N3_12  and  C9_14 
REMARK    7  A    between atoms: C9_14  and  C10_15 
REMARK    8  A    between atoms: C10_15  and  N4_16 
REMARK    9  A    between atoms: C19_30  and  O2_31 
REMARK   10  A    between atoms: O2_31  and  C20_32 
REMARK   11  A    between atoms: C20_32  and  C21_33 
REMARK   12  A    between atoms: C23_36  and  C24_37 
REMARK   13  A    between atoms: C24_37  and  C25_38 
ROOT
HETATM    1  C3  UNL     1      -0.226  -1.562   0.524  1.00  0.00    -0.008 C 
ENDROOT
BRANCH   1   2
HETATM    2  C2  UNL     1       0.011  -1.712   1.977  1.00  0.00     0.048 C 
HETATM    3  C1  UNL     1       0.812  -2.882   2.437  1.00  0.00     0.011 C 
ENDBRANCH   1   2
BRANCH   1   4
HETATM    4  C4  UNL     1       0.885  -1.368  -0.418  1.00  0.00     0.034 C 
HETATM    5  C5  UNL     1       1.872  -2.494  -0.565  1.00  0.00     0.030 C 
HETATM    6  C6  UNL     1       3.306  -2.136  -0.370  1.00  0.00     0.125 C 
HETATM    7  N1  UNL     1       3.650  -0.990  -1.169  1.00  0.00    -0.365 N 
HETATM    8  C15 UNL     1       2.666   0.072  -1.259  1.00  0.00     0.125 C 
HETATM    9  C16 UNL     1       1.730  -0.125  -0.076  1.00  0.00     0.030 C 
BRANCH   7  10
HETATM   10  C7  UNL     1       4.900  -0.919  -1.821  1.00  0.00     0.146 A 
HETATM   11  N2  UNL     1       5.992  -0.436  -1.155  1.00  0.00    -0.175 N 
HETATM   12  C8  UNL     1       7.185  -0.346  -1.753  1.00  0.00     0.682 A 
ATOM     13  H2  UNL     1       5.895  -0.139  -0.184  1.00  0.00     0.186 HD
HETATM   14  N5  UNL     1       7.358  -0.733  -3.051  1.00  0.00    -0.155 N 
HETATM   15  C13 UNL     1       6.324  -1.212  -3.744  1.00  0.00     0.285 A 
ATOM     16  H5  UNL     1       8.276  -0.656  -3.490  1.00  0.00     0.187 HD
HETATM   17  O1  UNL     1       6.436  -1.582  -4.944  1.00  0.00    -0.266 OA
HETATM   18  C14 UNL     1       5.075  -1.305  -3.116  1.00  0.00     0.146 A 
HETATM   19 CL1  UNL     1       3.706  -1.926  -4.009  1.00  0.00    -0.074 Cl
BRANCH  12  20
HETATM   20  N3  UNL     1       8.214   0.112  -1.139  1.00  0.00    -0.224 N 
ATOM     21  H3  UNL     1       9.093   0.153  -1.655  1.00  0.00     0.177 HD
BRANCH  20  22
HETATM   22  C9  UNL     1       8.219   0.565   0.204  1.00  0.00     0.168 C 
BRANCH  22  23
HETATM   23  C10 UNL     1       9.306   1.629   0.339  1.00  0.00     0.291 C 
BRANCH  23  24
HETATM   24  N4  UNL     1       9.370   2.144   1.715  1.00  0.00     0.081 N 
HETATM   25  C11 UNL     1       8.167   2.902   2.019  1.00  0.00     0.309 C 
HETATM   26  C12 UNL     1      10.551   2.989   1.813  1.00  0.00     0.309 C 
ENDBRANCH  23  24
ENDBRANCH  22  23
ENDBRANCH  20  22
ENDBRANCH  12  20
ENDBRANCH   7  10
ENDBRANCH   1   4
BRANCH   1  27
HETATM   27  N6  UNL     1      -1.494  -0.933   0.178  1.00  0.00    -0.367 N 
HETATM   28  C17 UNL     1      -2.542  -1.754   0.652  1.00  0.00     0.130 C 
HETATM   29  C18 UNL     1      -3.625  -0.979   1.336  1.00  0.00     0.052 C 
HETATM   30  C19 UNL     1      -4.080   0.036   0.263  1.00  0.00     0.127 C 
HETATM   31  C31 UNL     1      -2.944   1.017   0.175  1.00  0.00     0.076 C 
HETATM   32  C32 UNL     1      -1.573   0.453   0.239  1.00  0.00     0.066 C 
BRANCH  30  33
HETATM   33  O2  UNL     1      -4.207  -0.706  -0.892  1.00  0.00    -0.383 OA
BRANCH  33  34
HETATM   34  C20 UNL     1      -5.426  -0.719  -1.504  1.00  0.00     0.200 C 
BRANCH  34  35
HETATM   35  C21 UNL     1      -6.572  -1.258  -0.756  1.00  0.00     0.151 C 
HETATM   36  O3  UNL     1      -6.992  -0.706   0.435  1.00  0.00    -0.383 OA
HETATM   37  C22 UNL     1      -8.261  -1.284   0.173  1.00  0.00     0.175 C 
HETATM   38  C23 UNL     1      -7.928  -0.977  -1.305  1.00  0.00     0.045 C 
BRANCH  38  39
HETATM   39  C24 UNL     1      -8.335   0.371  -1.730  1.00  0.00     0.048 C 
BRANCH  39  40
HETATM   40  C25 UNL     1      -8.369   1.457  -0.743  1.00  0.00    -0.056 A 
HETATM   41  C26 UNL     1      -9.541   1.708  -0.002  1.00  0.00     0.009 A 
HETATM   42  C27 UNL     1      -9.634   2.727   0.915  1.00  0.00     0.026 A 
HETATM   43  C28 UNL     1      -8.567   3.557   1.149  1.00  0.00     0.055 A 
HETATM   44 CL2  UNL     1      -8.644   4.873   2.314  1.00  0.00    -0.083 Cl
HETATM   45  C29 UNL     1      -7.416   3.352   0.457  1.00  0.00     0.056 A 
HETATM   46 CL3  UNL     1      -6.012   4.360   0.690  1.00  0.00    -0.083 Cl
HETATM   47  C30 UNL     1      -7.340   2.320  -0.463  1.00  0.00     0.032 A 
ENDBRANCH  39  40
ENDBRANCH  38  39
ENDBRANCH  34  35
ENDBRANCH  33  34
ENDBRANCH  30  33
ENDBRANCH   1  27
TORSDOF 13
