REMARK  15 active torsions:
REMARK  status: ('A' for Active; 'I' for Inactive)
REMARK    1  A    between atoms: C7_9  and  C8_10 
REMARK    2  A    between atoms: C8_10  and  C9_11 
REMARK    3  A    between atoms: C9_11  and  C10_12 
REMARK    4  A    between atoms: C10_12  and  N2_13 
REMARK    5  A    between atoms: C10_12  and  C11_17 
REMARK    6  A    between atoms: C10_12  and  C17_27 
REMARK    7  A    between atoms: C11_17  and  C12_18 
REMARK    8  A    between atoms: C17_27  and  O1_28 
REMARK    9  A    between atoms: C17_27  and  N4_30 
REMARK   10  A    between atoms: N5_33  and  C20_34 
REMARK   11  A    between atoms: C20_34  and  C21_35 
REMARK   12  A    between atoms: C21_35  and  C22_36 
REMARK   13  A    between atoms: N6_41  and  C25_42 
REMARK   14  A    between atoms: C25_42  and  C26_43 
REMARK   15  A    between atoms: C26_43  and  O4_44 
ROOT
HETATM    1  C1  UNL     1      -8.595   0.681   0.304  1.00  0.00     0.229 C 
HETATM    2  N1  UNL     1      -7.709   1.421   0.163  1.00  0.00    -0.429 NA
HETATM    3  C2  UNL     1      -6.651   2.287   0.014  1.00  0.00     0.113 A 
HETATM    4  C3  UNL     1      -6.941   3.582  -0.433  1.00  0.00     0.069 A 
HETATM    5  C4  UNL     1      -5.942   4.509  -0.607  1.00  0.00     0.037 A 
HETATM    6 CL1  UNL     1      -6.257   6.137  -1.164  1.00  0.00    -0.084 Cl
HETATM    7  C5  UNL     1      -4.649   4.155  -0.338  1.00  0.00     0.024 A 
HETATM    8  C6  UNL     1      -4.369   2.854   0.110  1.00  0.00     0.012 A 
HETATM    9  C7  UNL     1      -5.348   1.929   0.285  1.00  0.00    -0.017 A 
ENDROOT
BRANCH   9  10
HETATM   10  C8  UNL     1      -5.089   0.559   0.753  1.00  0.00     0.045 C 
BRANCH  10  11
HETATM   11  C9  UNL     1      -3.635   0.363   0.983  1.00  0.00     0.056 C 
BRANCH  11  12
HETATM   12  C10 UNL     1      -3.210  -0.999   1.470  1.00  0.00     0.206 C 
BRANCH  12  13
HETATM   13  N2  UNL     1      -4.028  -1.196   2.704  1.00  0.00    -0.059 N 
ATOM     14  H23 UNL     1      -3.937  -0.452   3.396  1.00  0.00     0.276 HD
ATOM     15  H22 UNL     1      -5.033  -1.090   2.567  1.00  0.00     0.276 HD
ATOM     16  H21 UNL     1      -3.740  -2.117   3.033  1.00  0.00     0.276 HD
ENDBRANCH  12  13
BRANCH  12  17
HETATM   17  C11 UNL     1      -3.191  -2.128   0.552  1.00  0.00     0.035 C 
BRANCH  17  18
HETATM   18  C12 UNL     1      -4.343  -2.625  -0.177  1.00  0.00     0.009 A 
HETATM   19  C13 UNL     1      -5.328  -3.387   0.395  1.00  0.00     0.061 A 
HETATM   20 CL2  UNL     1      -5.321  -3.895   2.074  1.00  0.00    -0.082 Cl
HETATM   21  C14 UNL     1      -6.396  -3.856  -0.379  1.00  0.00     0.112 A 
HETATM   22  N3  UNL     1      -6.449  -3.556  -1.684  1.00  0.00    -0.372 N 
HETATM   23  C15 UNL     1      -5.490  -2.811  -2.262  1.00  0.00     0.112 A 
ATOM     24  H3  UNL     1      -7.228  -3.898  -2.247  1.00  0.00     0.164 HD
HETATM   25  C16 UNL     1      -4.426  -2.326  -1.555  1.00  0.00     0.061 A 
HETATM   26 CL3  UNL     1      -3.174  -1.358  -2.343  1.00  0.00    -0.082 Cl
ENDBRANCH  17  18
ENDBRANCH  12  17
BRANCH  12  27
HETATM   27  C17 UNL     1      -1.847  -0.735   2.080  1.00  0.00     0.154 C 
BRANCH  27  28
HETATM   28  O1  UNL     1      -1.835  -0.705   3.391  1.00  0.00    -0.347 OA
ATOM     29  H1  UNL     1      -0.981  -0.540   3.773  1.00  0.00     0.219 HD
ENDBRANCH  27  28
BRANCH  27  30
HETATM   30  N4  UNL     1      -0.608  -0.518   1.533  1.00  0.00    -0.360 N 
HETATM   31  C18 UNL     1       0.521  -0.284   2.452  1.00  0.00     0.144 C 
HETATM   32  C19 UNL     1       1.797  -0.846   1.931  1.00  0.00     0.137 C 
HETATM   33  N5  UNL     1       2.028  -0.497   0.579  1.00  0.00    -0.400 N 
HETATM   34  C30 UNL     1       1.027   0.307   0.013  1.00  0.00     0.137 C 
HETATM   35  C31 UNL     1      -0.295  -0.500   0.135  1.00  0.00     0.144 C 
BRANCH  33  36
HETATM   36  C20 UNL     1       3.367  -0.374   0.160  1.00  0.00     0.040 C 
HETATM   37  C23 UNL     1       4.191   0.615   0.949  1.00  0.00     0.061 C 
HETATM   38  C24 UNL     1       4.622   1.819   0.160  1.00  0.00     0.275 C 
HETATM   39  N6  UNL     1       5.496   1.426  -0.925  1.00  0.00     0.090 N 
HETATM   40  C28 UNL     1       4.930   0.311  -1.656  1.00  0.00     0.275 C 
HETATM   41  C29 UNL     1       3.449   0.081  -1.272  1.00  0.00     0.061 C 
BRANCH  36  42
HETATM   42  C21 UNL     1       4.006  -1.740   0.349  1.00  0.00     0.144 C 
BRANCH  42  43
HETATM   43  C22 UNL     1       3.393  -2.829  -0.387  1.00  0.00     0.174 C 
HETATM   44  O2  UNL     1       2.383  -2.694  -1.097  1.00  0.00    -0.648 OA
HETATM   45  O3  UNL     1       3.940  -4.109  -0.317  1.00  0.00    -0.648 OA
ENDBRANCH  42  43
ENDBRANCH  36  42
BRANCH  39  46
HETATM   46  C25 UNL     1       6.776   1.023  -0.414  1.00  0.00     0.298 C 
BRANCH  46  47
HETATM   47  C26 UNL     1       7.810   0.771  -1.468  1.00  0.00     0.197 C 
BRANCH  47  48
HETATM   48  O4  UNL     1       8.225   1.782  -2.243  1.00  0.00    -0.394 OA
HETATM   49  C27 UNL     1       7.324   2.412  -3.021  1.00  0.00     0.201 C 
ENDBRANCH  47  48
ENDBRANCH  46  47
ENDBRANCH  39  46
ENDBRANCH  33  36
ENDBRANCH  27  30
ENDBRANCH  12  27
ENDBRANCH  11  12
ENDBRANCH  10  11
ENDBRANCH   9  10
TORSDOF 15
