REMARK  3 active torsions:
REMARK  status: ('A' for Active; 'I' for Inactive)
REMARK    1  A    between atoms: C2_2  and  N1_4 
REMARK       I    between atoms: N1_4  and  C4_6 
REMARK    2  A    between atoms: C4_6  and  C5_8 
REMARK       I    between atoms: C5_8  and  N2_10 
REMARK    3  A    between atoms: N2_10  and  C6_12 
ROOT
HETATM    1  C5  UNL     1       1.402  -0.048  -0.408  1.00  0.00     0.309 C 
HETATM    2  O2  UNL     1       1.493   0.324  -1.611  1.00  0.00    -0.262 OA
HETATM    3  N2  UNL     1       0.132  -0.303   0.168  1.00  0.00    -0.348 N 
ATOM      4  H2  UNL     1       0.069  -0.602   1.141  1.00  0.00     0.163 HD
ENDROOT
BRANCH   3   5
HETATM    5  C6  UNL     1      -1.063  -0.144  -0.604  1.00  0.00     0.089 C 
HETATM    6  C7  UNL     1      -1.866  -1.395  -0.676  1.00  0.00     0.030 C 
HETATM    7  C8  UNL     1      -3.280  -1.262  -1.021  1.00  0.00    -0.008 C 
HETATM    8  C9  UNL     1      -4.196  -1.540   0.182  1.00  0.00     0.010 C 
HETATM    9  C15 UNL     1      -3.874   0.081  -1.081  1.00  0.00    -0.005 C 
HETATM   10  C10 UNL     1      -4.144  -0.025   0.426  1.00  0.00    -0.006 C 
HETATM   11  C11 UNL     1      -2.864   0.409   1.060  1.00  0.00    -0.008 C 
HETATM   12  C12 UNL     1      -3.059   1.505   2.088  1.00  0.00     0.011 C 
HETATM   13  C13 UNL     1      -1.968   0.948  -0.030  1.00  0.00     0.013 C 
HETATM   14  C14 UNL     1      -2.952   1.231  -1.173  1.00  0.00     0.012 C 
ENDBRANCH   3   5
BRANCH   1  15
HETATM   15  C4  UNL     1       2.619  -0.207   0.370  1.00  0.00     0.309 C 
HETATM   16  N1  UNL     1       3.900   0.043  -0.188  1.00  0.00    -0.349 N 
ATOM     17  H1  UNL     1       3.983   0.343  -1.159  1.00  0.00     0.163 HD
HETATM   18  O1  UNL     1       2.487  -0.584   1.581  1.00  0.00    -0.262 OA
BRANCH  16  19
HETATM   19  C2  UNL     1       5.083  -0.127   0.617  1.00  0.00     0.076 C 
HETATM   20  C1  UNL     1       6.056  -1.108  -0.009  1.00  0.00     0.032 C 
HETATM   21  C3  UNL     1       5.815   1.216   0.710  1.00  0.00     0.032 C 
ENDBRANCH  16  19
ENDBRANCH   1  15
TORSDOF 3
