REMARK  3 active torsions:
REMARK  status: ('A' for Active; 'I' for Inactive)
REMARK       I    between atoms: C2_4  and  N2_5 
REMARK       I    between atoms: C2_4  and  N3_11 
REMARK    1  A    between atoms: N2_5  and  C3_7 
REMARK    2  A    between atoms: C11_16  and  C12_17 
REMARK    3  A    between atoms: C13_18  and  C14_19 
ROOT
HETATM    1  C1  UNL     1      -1.319  -2.920   0.880  1.00  0.00     0.165 C 
HETATM    2  N1  UNL     1      -1.609  -1.531   1.036  1.00  0.00    -0.231 N 
ATOM      3  H1  UNL     1      -2.451  -1.280   1.555  1.00  0.00     0.177 HD
HETATM    4  C2  UNL     1      -0.886  -0.570   0.570  1.00  0.00     0.672 C 
HETATM    5  N2  UNL     1      -1.326   0.758   0.819  1.00  0.00    -0.218 N 
ATOM      6  H2  UNL     1      -0.828   1.323   1.507  1.00  0.00     0.178 HD
HETATM    7  N3  UNL     1       0.290  -0.902  -0.153  1.00  0.00    -0.210 N 
HETATM    8  C7  UNL     1       0.316  -1.277  -1.570  1.00  0.00     0.146 C 
HETATM    9  C8  UNL     1       1.625  -2.038  -1.710  1.00  0.00     0.002 C 
HETATM   10  C9  UNL     1       2.139  -1.979  -3.139  1.00  0.00     0.011 C 
HETATM   11  C10 UNL     1       2.520  -1.270  -0.781  1.00  0.00     0.036 C 
HETATM   12  C11 UNL     1       1.639  -0.926   0.375  1.00  0.00     0.125 C 
ENDROOT
BRANCH  12  13
HETATM   13  C12 UNL     1       2.057   0.390   0.903  1.00  0.00     0.004 C 
HETATM   14  C13 UNL     1       2.212   0.620   2.190  1.00  0.00     0.069 C 
BRANCH  14  15
HETATM   15  C14 UNL     1       2.622   1.909   2.712  1.00  0.00     0.254 C 
HETATM   16  N4  UNL     1       2.889   3.028   1.873  1.00  0.00    -0.058 NA
HETATM   17  O1  UNL     1       2.758   2.087   3.946  1.00  0.00    -0.272 OA
ENDBRANCH  14  15
ENDBRANCH  12  13
BRANCH   5  18
HETATM   18  C3  UNL     1      -2.468   1.338   0.122  1.00  0.00     0.036 C 
HETATM   19  C4  UNL     1      -3.729   0.538   0.385  1.00  0.00     0.038 C 
HETATM   20  C5  UNL     1      -2.148   1.407  -1.344  1.00  0.00     0.038 C 
HETATM   21  C6  UNL     1      -2.706   2.725   0.680  1.00  0.00     0.038 C 
ENDBRANCH   5  18
TORSDOF 3
