REMARK  3 active torsions:
REMARK  status: ('A' for Active; 'I' for Inactive)
REMARK    1  A    between atoms: C11_11  and  N1_12 
REMARK    2  A    between atoms: N1_12  and  S1_14 
REMARK    3  A    between atoms: S1_14  and  N2_15 
ROOT
HETATM    1  C1  UNL     1      -3.126   0.624  -0.967  1.00  0.00     0.015 C 
HETATM    2  C2  UNL     1      -2.029   0.149  -0.067  1.00  0.00    -0.040 C 
HETATM    3  C3  UNL     1      -2.666  -0.281   1.211  1.00  0.00     0.015 C 
HETATM    4  C4  UNL     1      -0.936   1.184   0.126  1.00  0.00    -0.005 C 
HETATM    5  C5  UNL     1       0.110   0.639   1.036  1.00  0.00     0.012 C 
HETATM    6  C6  UNL     1       0.682  -0.682   0.625  1.00  0.00     0.010 C 
HETATM    7  C7  UNL     1      -0.440  -1.698   0.358  1.00  0.00     0.012 C 
HETATM    8  C8  UNL     1      -1.202  -0.967  -0.708  1.00  0.00     0.000 C 
HETATM    9  C9  UNL     1      -0.094  -0.248  -1.500  1.00  0.00     0.014 C 
HETATM   10  C10 UNL     1      -0.363   1.222  -1.278  1.00  0.00     0.012 C 
HETATM   11  C11 UNL     1       1.181  -0.614  -0.828  1.00  0.00     0.100 C 
ENDROOT
BRANCH  11  12
HETATM   12  N1  UNL     1       2.310   0.191  -1.028  1.00  0.00    -0.322 N 
ATOM     13  H1  UNL     1       2.328   1.020  -1.622  1.00  0.00     0.171 HD
BRANCH  12  14
HETATM   14  S1  UNL     1       3.690  -0.412  -0.125  1.00  0.00     0.169 S 
HETATM   15  O1  UNL     1       3.579  -1.884   0.081  1.00  0.00    -0.216 OA
HETATM   16  S2  UNL     1       5.102  -0.119  -1.054  1.00  0.00     0.051 SA
BRANCH  14  17
HETATM   17  N2  UNL     1       3.855   0.451   1.363  1.00  0.00    -0.336 N 
ATOM     18  H22 UNL     1       3.231   1.201   1.660  1.00  0.00     0.168 HD
ATOM     19  H21 UNL     1       4.657   0.101   1.888  1.00  0.00     0.168 HD
ENDBRANCH  14  17
ENDBRANCH  12  14
ENDBRANCH  11  12
TORSDOF 3
