REMARK  5 active torsions:
REMARK  status: ('A' for Active; 'I' for Inactive)
REMARK    1  A    between atoms: C3_3  and  C4_4 
REMARK    2  A    between atoms: C10_13  and  N3_14 
REMARK    3  A    between atoms: C11_19  and  N5_20 
REMARK    4  A    between atoms: N5_20  and  C12_22 
REMARK    5  A    between atoms: C12_22  and  C13_23 
ROOT
HETATM    1  C1  UNL     1       0.291   1.631   0.807  1.00  0.00     0.054 C 
HETATM    2  C2  UNL     1       0.536   0.429  -0.018  1.00  0.00     0.006 A 
HETATM    3  C3  UNL     1      -0.499  -0.456  -0.355  1.00  0.00     0.040 A 
HETATM    4  N2  UNL     1      -0.237  -1.547  -1.103  1.00  0.00    -0.195 N 
ATOM      5  H2  UNL     1      -0.976  -2.202  -1.358  1.00  0.00     0.184 HD
HETATM    6  C10 UNL     1       1.033  -1.740  -1.500  1.00  0.00     0.677 A 
HETATM    7  N4  UNL     1       2.046  -0.893  -1.185  1.00  0.00    -0.177 N 
ATOM      8  H4  UNL     1       2.989  -1.093  -1.518  1.00  0.00     0.186 HD
HETATM    9  C11 UNL     1       1.827   0.205  -0.441  1.00  0.00     0.124 A 
ENDROOT
BRANCH   3  10
HETATM   10  C4  UNL     1      -1.842  -0.158   0.123  1.00  0.00     0.040 C 
HETATM   11  C5  UNL     1      -2.781  -1.318  -0.289  1.00  0.00     0.041 C 
HETATM   12  C6  UNL     1      -4.201  -0.965   0.108  1.00  0.00     0.272 C 
HETATM   13  N1  UNL     1      -4.284   0.238   0.877  1.00  0.00     0.084 N 
HETATM   14  C7  UNL     1      -5.719   0.521   1.054  1.00  0.00     0.309 C 
HETATM   15  C8  UNL     1      -3.701   1.404   0.322  1.00  0.00     0.272 C 
HETATM   16  C9  UNL     1      -2.511   1.033  -0.531  1.00  0.00     0.041 C 
ENDBRANCH   3  10
BRANCH   9  17
HETATM   17  N5  UNL     1       2.748   1.020  -0.126  1.00  0.00    -0.375 N 
ATOM     18  H5  UNL     1       2.453   1.815   0.441  1.00  0.00     0.161 HD
BRANCH  17  19
HETATM   19  C12 UNL     1       4.129   0.984  -0.449  1.00  0.00     0.126 C 
BRANCH  19  20
HETATM   20  C13 UNL     1       4.993   0.368   0.616  1.00  0.00     0.003 A 
HETATM   21  C14 UNL     1       6.467   0.338   0.252  1.00  0.00     0.007 A 
HETATM   22  C15 UNL     1       5.679  -0.913   0.462  1.00  0.00     0.007 A 
ENDBRANCH  19  20
ENDBRANCH  17  19
ENDBRANCH   9  17
BRANCH   6  23
HETATM   23  N3  UNL     1       1.344  -2.758  -2.213  1.00  0.00    -0.234 N 
ATOM     24  H32 UNL     1       0.583  -3.394  -2.450  1.00  0.00     0.174 HD
ATOM     25  H31 UNL     1       2.307  -2.904  -2.514  1.00  0.00     0.174 HD
ENDBRANCH   6  23
TORSDOF 5
