REMARK  5 active torsions:
REMARK  status: ('A' for Active; 'I' for Inactive)
REMARK    1  A    between atoms: C3_5  and  N2_6 
REMARK    2  A    between atoms: N2_6  and  C4_8 
REMARK    3  A    between atoms: C10_18  and  N5_19 
REMARK    4  A    between atoms: N5_19  and  C11_21 
REMARK    5  A    between atoms: C11_21  and  C12_22 
ROOT
HETATM    1  C1  UNL     1       0.987  -2.265   2.130  1.00  0.00     0.182 A 
HETATM    2  N1  UNL     1      -0.213  -1.878   1.663  1.00  0.00    -0.347 N 
ATOM      3  H1  UNL     1      -1.064  -2.267   2.070  1.00  0.00     0.167 HD
HETATM    4  C2  UNL     1      -0.301  -0.978   0.660  1.00  0.00     0.111 A 
HETATM    5  C3  UNL     1      -1.366  -0.398  -0.017  1.00  0.00     0.146 A 
HETATM    6  N3  UNL     1      -0.797   0.426  -0.916  1.00  0.00    -0.283 N 
ATOM      7  H3  UNL     1      -1.310   1.007  -1.579  1.00  0.00     0.188 HD
HETATM    8  N4  UNL     1       0.528   0.376  -0.819  1.00  0.00    -0.293 N 
ATOM      9  H4  UNL     1       1.179   0.911  -1.394  1.00  0.00     0.187 HD
HETATM   10  C9  UNL     1       0.881  -0.485   0.150  1.00  0.00     0.122 A 
HETATM   11  C10 UNL     1       2.125  -0.874   0.620  1.00  0.00     0.133 A 
HETATM   12  N6  UNL     1       2.133  -1.771   1.618  1.00  0.00    -0.337 N 
ATOM     13  H6  UNL     1       3.026  -2.086   1.998  1.00  0.00     0.168 HD
ENDROOT
BRANCH   5  14
HETATM   14  N2  UNL     1      -2.579  -0.662   0.238  1.00  0.00    -0.369 N 
ATOM     15  H2  UNL     1      -2.748  -1.338   0.983  1.00  0.00     0.161 HD
BRANCH  14  16
HETATM   16  C4  UNL     1      -3.730  -0.122  -0.398  1.00  0.00     0.083 C 
HETATM   17  C5  UNL     1      -4.937  -0.459   0.488  1.00  0.00     0.025 C 
HETATM   18  C6  UNL     1      -5.962   0.512  -0.059  1.00  0.00     0.002 C 
HETATM   19  C7  UNL     1      -5.177   1.800  -0.089  1.00  0.00     0.002 C 
HETATM   20  C8  UNL     1      -3.776   1.366  -0.475  1.00  0.00     0.025 C 
ENDBRANCH  14  16
ENDBRANCH   5  14
BRANCH  11  21
HETATM   21  N5  UNL     1       3.221  -0.405   0.134  1.00  0.00    -0.374 N 
ATOM     22  H5  UNL     1       3.206   0.277  -0.624  1.00  0.00     0.161 HD
BRANCH  21  23
HETATM   23  C11 UNL     1       4.468  -0.865   0.685  1.00  0.00     0.126 C 
BRANCH  23  24
HETATM   24  C12 UNL     1       5.663  -0.214   0.057  1.00  0.00     0.003 A 
HETATM   25  C13 UNL     1       5.836   1.272   0.126  1.00  0.00     0.007 A 
HETATM   26  C14 UNL     1       5.401   0.672  -1.165  1.00  0.00     0.007 A 
ENDBRANCH  23  24
ENDBRANCH  21  23
ENDBRANCH  11  21
TORSDOF 5
