REMARK  3 active torsions:
REMARK  status: ('A' for Active; 'I' for Inactive)
REMARK    1  A    between atoms: C3_3  and  N1_4 
REMARK       I    between atoms: N1_4  and  C4_6 
REMARK    2  A    between atoms: C4_6  and  C5_8 
REMARK    3  A    between atoms: C6_9  and  C7_10 
ROOT
HETATM    1  C1  UNL     1       5.133  -0.073  -1.291  1.00  0.00     0.098 C 
HETATM    2  C2  UNL     1       4.243  -0.485  -0.558  1.00  0.00    -0.168 C 
HETATM    3  C3  UNL     1       3.194  -0.972   0.336  1.00  0.00     0.202 C 
ENDROOT
BRANCH   3   4
HETATM    4  N1  UNL     1       1.935  -0.344   0.046  1.00  0.00    -0.348 N 
HETATM    5  C4  UNL     1       0.735  -0.612   0.743  1.00  0.00     0.241 C 
HETATM    6  O1  UNL     1       0.747  -1.444   1.673  1.00  0.00    -0.269 OA
ATOM      7  H1  UNL     1       1.905   0.339  -0.711  1.00  0.00     0.163 HD
BRANCH   5   8
HETATM    8  C5  UNL     1      -0.493   0.057   0.398  1.00  0.00     0.070 C 
HETATM    9  C6  UNL     1      -1.641  -0.155   1.014  1.00  0.00    -0.017 C 
BRANCH   9  10
HETATM   10  C7  UNL     1      -2.872   0.539   0.642  1.00  0.00     0.008 A 
HETATM   11  C8  UNL     1      -3.483   0.106  -0.682  1.00  0.00     0.009 A 
HETATM   12  C9  UNL     1      -2.946   1.527  -0.443  1.00  0.00     0.009 A 
ENDBRANCH   9  10
ENDBRANCH   5   8
ENDBRANCH   3   4
TORSDOF 3
