REMARK  3 active torsions:
REMARK  status: ('A' for Active; 'I' for Inactive)
REMARK       I    between atoms: C1_2  and  N1_3 
REMARK    1  A    between atoms: C1_2  and  C5_8 
REMARK    2  A    between atoms: N1_3  and  C2_5 
REMARK    3  A    between atoms: C5_8  and  C6_10 
ROOT
HETATM    1  C5  UNL     1      -0.129   0.384  -0.757  1.00  0.00     0.221 C 
HETATM    2  O2  UNL     1       0.080   1.506  -1.281  1.00  0.00    -0.287 OA
ENDROOT
BRANCH   1   3
HETATM    3  C1  UNL     1       1.014  -0.284  -0.157  1.00  0.00     0.288 C 
HETATM    4  O1  UNL     1       0.836  -1.406   0.373  1.00  0.00    -0.264 OA
HETATM    5  N1  UNL     1       2.315   0.262  -0.140  1.00  0.00    -0.350 N 
ATOM      6  H1  UNL     1       2.479   1.173  -0.567  1.00  0.00     0.163 HD
BRANCH   5   7
HETATM    7  C2  UNL     1       3.415  -0.439   0.467  1.00  0.00     0.085 A 
HETATM    8  C3  UNL     1       4.610   0.345   0.921  1.00  0.00     0.027 A 
HETATM    9  C4  UNL     1       4.701  -0.402  -0.360  1.00  0.00     0.027 A 
ENDBRANCH   5   7
ENDBRANCH   1   3
BRANCH   1  10
HETATM   10  C6  UNL     1      -1.482  -0.183  -0.776  1.00  0.00     0.074 C 
HETATM   11  C7  UNL     1      -2.083  -0.458   0.602  1.00  0.00    -0.002 C 
HETATM   12  C8  UNL     1      -3.423  -1.011   0.249  1.00  0.00     0.006 C 
HETATM   13  C11 UNL     1      -2.366   1.047   0.633  1.00  0.00     0.011 C 
HETATM   14  C9  UNL     1      -3.823  -0.018  -0.864  1.00  0.00     0.006 C 
HETATM   15  C10 UNL     1      -2.591   0.835  -0.872  1.00  0.00    -0.002 C 
ENDBRANCH   1  10
TORSDOF 3
