REMARK  3 active torsions:
REMARK  status: ('A' for Active; 'I' for Inactive)
REMARK       I    between atoms: C1_2  and  N1_3 
REMARK    1  A    between atoms: C1_2  and  C6_9 
REMARK    2  A    between atoms: N1_3  and  C2_5 
REMARK    3  A    between atoms: C2_5  and  C3_6 
ROOT
HETATM    1  O1  UNL     1      -0.863  -1.621  -0.957  1.00  0.00    -0.273 OA
HETATM    2  C1  UNL     1      -0.374  -0.732  -0.214  1.00  0.00     0.227 C 
HETATM    3  N1  UNL     1      -1.140  -0.174   0.790  1.00  0.00    -0.340 N 
ATOM      4  H1  UNL     1      -0.635   0.528   1.330  1.00  0.00     0.167 HD
ENDROOT
BRANCH   2   5
HETATM    5  C6  UNL     1       1.030  -0.377  -0.522  1.00  0.00     0.112 C 
HETATM    6  C7  UNL     1       1.227   1.115  -0.672  1.00  0.00     0.286 C 
HETATM    7  N2  UNL     1       2.452   1.405   0.103  1.00  0.00     0.089 N 
HETATM    8  C8  UNL     1       3.530   0.755  -0.614  1.00  0.00     0.273 C 
HETATM    9  C11 UNL     1       2.345   0.483   1.247  1.00  0.00     0.278 C 
HETATM   10  C9  UNL     1       3.394  -0.741  -0.365  1.00  0.00     0.037 C 
HETATM   11  C10 UNL     1       2.064  -0.764   0.446  1.00  0.00     0.030 C 
ENDBRANCH   2   5
BRANCH   3  12
HETATM   12  C2  UNL     1      -2.455  -0.358   1.231  1.00  0.00     0.068 C 
BRANCH  12  13
HETATM   13  C3  UNL     1      -3.630  -0.040   0.416  1.00  0.00     0.024 A 
HETATM   14  C4  UNL     1      -4.007  -0.684  -0.903  1.00  0.00     0.010 A 
HETATM   15  C5  UNL     1      -3.484   0.693  -0.876  1.00  0.00     0.010 A 
ENDBRANCH  12  13
ENDBRANCH   3  12
TORSDOF 3
