REMARK  8 active torsions:
REMARK  status: ('A' for Active; 'I' for Inactive)
REMARK    1  A    between atoms: C2_2  and  O2_4 
REMARK    2  A    between atoms: O2_4  and  C3_5 
REMARK    3  A    between atoms: C16_19  and  O3_20 
REMARK    4  A    between atoms: O3_20  and  C17_21 
REMARK    5  A    between atoms: C17_21  and  C18_23 
REMARK    6  A    between atoms: C18_23  and  N1_25 
REMARK       I    between atoms: N1_25  and  C20_27 
REMARK    7  A    between atoms: C20_27  and  C21_29 
REMARK    8  A    between atoms: C27_35  and  C28_36 
ROOT
HETATM    1  C3  UNL     1      -3.581   1.322   1.332  1.00  0.00     0.084 C 
HETATM    2  C4  UNL     1      -5.013   1.540   1.608  1.00  0.00     0.044 C 
HETATM    3  C5  UNL     1      -5.822   0.620   2.417  1.00  0.00    -0.063 C 
HETATM    4  C6  UNL     1      -5.213   0.248   3.768  1.00  0.00     0.048 C 
HETATM    5  C7  UNL     1      -6.541  -0.471   1.737  1.00  0.00    -0.017 C 
HETATM    6  C8  UNL     1      -6.122  -1.044   0.464  1.00  0.00     0.065 C 
HETATM    7  C9  UNL     1      -4.781  -1.716   0.292  1.00  0.00     0.062 C 
HETATM    8  C10 UNL     1      -4.658  -2.687   1.485  1.00  0.00     0.046 C 
HETATM    9  C11 UNL     1      -5.039  -2.701  -0.870  1.00  0.00     0.038 C 
HETATM   10  C12 UNL     1      -3.914  -3.558  -1.218  1.00  0.00     0.006 C 
HETATM   11  C13 UNL     1      -2.550  -3.249  -0.758  1.00  0.00     0.046 C 
HETATM   12  C14 UNL     1      -1.776  -2.162  -1.383  1.00  0.00     0.129 C 
HETATM   13  C15 UNL     1      -1.653  -2.285  -2.879  1.00  0.00     0.054 C 
HETATM   14  F1  UNL     1      -0.436  -2.513  -0.992  1.00  0.00    -0.240 F 
HETATM   15  C16 UNL     1      -1.856  -0.766  -0.835  1.00  0.00     0.210 C 
HETATM   16  C32 UNL     1      -3.195  -0.156  -0.737  1.00  0.00     0.114 C 
HETATM   17  C33 UNL     1      -3.792   0.053  -2.150  1.00  0.00     0.054 C 
HETATM   18  O6  UNL     1      -3.919  -0.819   0.130  1.00  0.00    -0.362 OA
HETATM   19  C34 UNL     1      -3.280   1.251  -0.178  1.00  0.00    -0.013 C 
HETATM   20  C35 UNL     1      -2.344   2.276  -0.625  1.00  0.00     0.050 C 
ENDROOT
BRANCH  15  21
HETATM   21  O3  UNL     1      -0.868  -0.074  -1.615  1.00  0.00    -0.308 OA
BRANCH  21  22
HETATM   22  C17 UNL     1       0.377   0.281  -1.143  1.00  0.00     0.282 C 
HETATM   23  O4  UNL     1       0.640  -0.010   0.045  1.00  0.00    -0.263 OA
BRANCH  22  24
HETATM   24  C18 UNL     1       1.374   0.959  -1.955  1.00  0.00     0.180 C 
HETATM   25  C19 UNL     1       0.906   2.292  -2.558  1.00  0.00     0.043 C 
BRANCH  24  26
HETATM   26  N1  UNL     1       2.632   1.208  -1.279  1.00  0.00    -0.344 N 
HETATM   27  C20 UNL     1       3.882   1.022  -1.881  1.00  0.00     0.244 C 
HETATM   28  O5  UNL     1       3.909   0.624  -3.060  1.00  0.00    -0.268 OA
ATOM     29  H1  UNL     1       2.605   1.536  -0.314  1.00  0.00     0.163 HD
BRANCH  27  30
HETATM   30  C21 UNL     1       5.128   1.280  -1.162  1.00  0.00    -0.007 C 
HETATM   31  C22 UNL     1       5.155   2.506  -0.302  1.00  0.00     0.044 C 
HETATM   32  C23 UNL     1       6.598   2.932  -0.169  1.00  0.00    -0.014 C 
HETATM   33  C24 UNL     1       6.994   3.861  -1.320  1.00  0.00     0.010 C 
HETATM   34  C25 UNL     1       7.569   1.842   0.069  1.00  0.00     0.005 C 
HETATM   35  C26 UNL     1       7.358   0.579  -0.665  1.00  0.00     0.010 C 
HETATM   36  C27 UNL     1       5.910   0.110  -0.721  1.00  0.00     0.027 C 
BRANCH  36  37
HETATM   37  C28 UNL     1       5.511  -0.741   0.390  1.00  0.00    -0.044 C 
HETATM   38  C29 UNL     1       4.174  -1.413   0.284  1.00  0.00     0.015 C 
HETATM   39  C30 UNL     1       6.498  -1.956   0.378  1.00  0.00     0.015 C 
HETATM   40  C31 UNL     1       5.670  -0.231   1.794  1.00  0.00     0.015 C 
ENDBRANCH  36  37
ENDBRANCH  27  30
ENDBRANCH  24  26
ENDBRANCH  22  24
ENDBRANCH  21  22
ENDBRANCH  15  21
BRANCH   1  41
HETATM   41  O2  UNL     1      -2.896   0.391   2.083  1.00  0.00    -0.279 OA
BRANCH  41  42
HETATM   42  C2  UNL     1      -1.821   0.610   2.936  1.00  0.00     0.260 C 
HETATM   43  C1  UNL     1      -1.225  -0.528   3.656  1.00  0.00     0.126 C 
HETATM   44  O1  UNL     1      -1.426   1.800   3.034  1.00  0.00    -0.265 OA
ENDBRANCH  41  42
ENDBRANCH   1  41
TORSDOF 8
