REMARK  9 active torsions:
REMARK  status: ('A' for Active; 'I' for Inactive)
REMARK    1  A    between atoms: O1_2  and  C2_3 
REMARK    2  A    between atoms: C8_9  and  O2_10 
REMARK    3  A    between atoms: O2_10  and  C9_11 
REMARK    4  A    between atoms: C19_22  and  C20_23 
REMARK    5  A    between atoms: C20_23  and  O3_25 
REMARK    6  A    between atoms: C20_23  and  C22_27 
REMARK    7  A    between atoms: C29_35  and  O5_36 
REMARK    8  A    between atoms: O5_36  and  C30_37 
REMARK    9  A    between atoms: C32_40  and  O7_41 
ROOT
HETATM    1  C2  UNL     1      -4.539   1.762   0.730  1.00  0.00     0.129 C 
HETATM    2  C3  UNL     1      -3.473   2.560   0.009  1.00  0.00     0.033 C 
HETATM    3  C4  UNL     1      -3.053   1.732  -1.138  1.00  0.00     0.015 C 
HETATM    4  C5  UNL     1      -2.433   0.396  -0.834  1.00  0.00    -0.003 C 
HETATM    5  C6  UNL     1      -2.574  -0.348  -2.177  1.00  0.00     0.019 C 
HETATM    6  C7  UNL     1      -3.235  -0.351   0.183  1.00  0.00     0.036 C 
HETATM    7  C8  UNL     1      -2.487  -1.467   0.861  1.00  0.00     0.134 C 
HETATM    8  C12 UNL     1      -1.096  -1.064   1.288  1.00  0.00     0.041 C 
HETATM    9  C13 UNL     1      -0.328  -0.727   0.014  1.00  0.00     0.031 C 
HETATM   10  C14 UNL     1       1.073  -0.327   0.458  1.00  0.00     0.001 C 
HETATM   11  C15 UNL     1       1.696  -1.274   1.431  1.00  0.00     0.007 C 
HETATM   12  C16 UNL     1       3.006  -0.690   1.915  1.00  0.00     0.010 C 
HETATM   13  C17 UNL     1       3.964  -0.443   0.784  1.00  0.00    -0.033 C 
HETATM   14  C18 UNL     1       4.388  -1.762   0.255  1.00  0.00     0.016 C 
HETATM   15  C19 UNL     1       5.095   0.451   1.107  1.00  0.00     0.035 C 
HETATM   16  C23 UNL     1       5.566   0.881  -0.295  1.00  0.00     0.009 C 
HETATM   17  C24 UNL     1       4.341   0.697  -1.204  1.00  0.00     0.007 C 
HETATM   18  C25 UNL     1       3.271   0.467  -0.193  1.00  0.00     0.003 C 
HETATM   19  C26 UNL     1       1.941   0.100  -0.681  1.00  0.00    -0.033 C 
HETATM   20  C27 UNL     1       1.974  -0.797  -1.862  1.00  0.00     0.016 C 
HETATM   21  C28 UNL     1       1.283   1.409  -1.151  1.00  0.00     0.045 C 
HETATM   22  C29 UNL     1      -0.164   1.189  -1.602  1.00  0.00     0.168 C 
HETATM   23  C32 UNL     1      -0.963   0.522  -0.560  1.00  0.00     0.096 C 
HETATM   24  C33 UNL     1      -4.064   0.416   1.164  1.00  0.00    -0.015 C 
HETATM   25  C34 UNL     1      -3.487   0.604   2.544  1.00  0.00     0.018 C 
HETATM   26  C35 UNL     1      -5.356  -0.358   1.435  1.00  0.00     0.018 C 
ENDROOT
BRANCH  15  27
HETATM   27  C20 UNL     1       6.268  -0.040   1.826  1.00  0.00     0.111 C 
HETATM   28  C21 UNL     1       7.217   1.170   1.980  1.00  0.00     0.054 C 
BRANCH  27  29
HETATM   29  O3  UNL     1       7.049  -0.955   1.089  1.00  0.00    -0.383 OA
ATOM     30  H3  UNL     1       7.812  -1.274   1.557  1.00  0.00     0.211 HD
ENDBRANCH  27  29
BRANCH  27  31
HETATM   31  C22 UNL     1       6.033  -0.531   3.192  1.00  0.00     0.269 C 
HETATM   32  O4  UNL     1       6.475  -1.580   3.568  1.00  0.00    -0.304 OA
ENDBRANCH  27  31
ENDBRANCH  15  27
BRANCH  22  33
HETATM   33  O5  UNL     1      -0.080   0.685  -2.875  1.00  0.00    -0.313 OA
BRANCH  33  34
HETATM   34  C30 UNL     1      -0.277   1.486  -3.992  1.00  0.00     0.255 C 
HETATM   35  C31 UNL     1      -0.172   0.866  -5.353  1.00  0.00     0.126 C 
HETATM   36  O6  UNL     1      -0.540   2.713  -3.931  1.00  0.00    -0.266 OA
ENDBRANCH  33  34
ENDBRANCH  22  33
BRANCH  23  37
HETATM   37  O7  UNL     1      -0.860   1.402   0.561  1.00  0.00    -0.386 OA
ATOM     38  H7  UNL     1       0.071   1.482   0.734  1.00  0.00     0.210 HD
ENDBRANCH  23  37
BRANCH   7  39
HETATM   39  O2  UNL     1      -2.339  -2.618   0.114  1.00  0.00    -0.349 OA
BRANCH  39  40
HETATM   40  C9  UNL     1      -3.167  -3.525  -0.423  1.00  0.00     0.054 C 
HETATM   41  C10 UNL     1      -4.448  -3.888   0.215  1.00  0.00     0.077 C 
HETATM   42  C11 UNL     1      -2.838  -4.128  -1.565  1.00  0.00     0.116 C 
HETATM   43 CL1  UNL     1      -3.922  -5.300  -2.246  1.00  0.00    -0.094 Cl
ENDBRANCH  39  40
ENDBRANCH   7  39
BRANCH   1  44
HETATM   44  O1  UNL     1      -4.927   2.545   1.810  1.00  0.00    -0.390 OA
HETATM   45  C1  UNL     1      -6.185   3.076   1.724  1.00  0.00     0.202 C 
ENDBRANCH   1  44
TORSDOF 9
