REMARK  3 active torsions:
REMARK  status: ('A' for Active; 'I' for Inactive)
REMARK    1  A    between atoms: C4_4  and  N1_5 
REMARK    2  A    between atoms: N2_9  and  C8_10 
REMARK    3  A    between atoms: C8_10  and  C9_11 
ROOT
HETATM    1  N1  UNL     1      -0.880   0.441  -0.323  1.00  0.00     0.121 N 
HETATM    2  C5  UNL     1      -0.394   1.375   0.633  1.00  0.00     0.280 C 
HETATM    3  C6  UNL     1       1.098   1.255   0.873  1.00  0.00     0.075 C 
HETATM    4  C7  UNL     1       1.873   1.255  -0.421  1.00  0.00     0.065 C 
HETATM    5  N2  UNL     1       2.133   0.011  -1.000  1.00  0.00    -0.372 N 
HETATM    6  C12 UNL     1       0.912  -0.517  -1.570  1.00  0.00     0.157 C 
HETATM    7  C13 UNL     1      -0.092  -0.752  -0.465  1.00  0.00     0.295 C 
ENDROOT
BRANCH   1   8
HETATM    8  C4  UNL     1      -2.264   0.117  -0.240  1.00  0.00     0.419 C 
HETATM    9  C3  UNL     1      -2.644  -0.551   1.070  1.00  0.00     0.065 C 
HETATM   10  C2  UNL     1      -3.957  -1.254   0.812  1.00  0.00     0.005 C 
HETATM   11  C1  UNL     1      -4.790  -0.573  -0.235  1.00  0.00     0.028 C 
HETATM   12  C14 UNL     1      -4.511   0.875  -0.404  1.00  0.00     0.235 C 
HETATM   13  N3  UNL     1      -3.138   1.248  -0.397  1.00  0.00    -0.043 N 
ATOM     14  H32 UNL     1      -2.953   1.957   0.313  1.00  0.00     0.279 HD
ATOM     15  H31 UNL     1      -2.899   1.785  -1.230  1.00  0.00     0.279 HD
ENDBRANCH   1   8
BRANCH   5  16
HETATM   16  C8  UNL     1       2.962  -0.939  -0.397  1.00  0.00     0.067 C 
BRANCH  16  17
HETATM   17  C9  UNL     1       4.433  -0.640  -0.313  1.00  0.00     0.024 A 
HETATM   18  C10 UNL     1       5.010   0.490   0.410  1.00  0.00     0.010 A 
HETATM   19  C11 UNL     1       5.192  -0.908   0.988  1.00  0.00     0.010 A 
ENDBRANCH  16  17
ENDBRANCH   5  16
TORSDOF 3
