REMARK  10 active torsions:
REMARK  status: ('A' for Active; 'I' for Inactive)
REMARK    1  A    between atoms: N1_2  and  C3_4 
REMARK    2  A    between atoms: C3_4  and  C4_5 
REMARK    3  A    between atoms: C4_5  and  C5_6 
REMARK    4  A    between atoms: C5_6  and  N2_7 
REMARK    5  A    between atoms: C5_6  and  N3_10 
REMARK    6  A    between atoms: N3_10  and  C6_12 
REMARK    7  A    between atoms: C6_12  and  C7_13 
REMARK    8  A    between atoms: C6_12  and  C8_16 
REMARK    9  A    between atoms: C9_17  and  C10_18 
REMARK   10  A    between atoms: C12_20  and  N4_21 
ROOT
HETATM    1  C8  UNL     1      -1.767  -0.929   0.347  1.00  0.00     0.053 A 
HETATM    2  C9  UNL     1      -2.585   0.191   0.412  1.00  0.00     0.090 A 
HETATM    3  N7  UNL     1      -3.785  -0.252   0.810  1.00  0.00    -0.285 N 
ATOM      4  H7  UNL     1      -4.594   0.352   0.954  1.00  0.00     0.188 HD
HETATM    5  N8  UNL     1      -3.800  -1.519   0.989  1.00  0.00    -0.232 N 
HETATM    6  C14 UNL     1      -2.595  -2.026   0.723  1.00  0.00     0.057 A 
HETATM    7  C15 UNL     1      -2.485  -3.469   0.878  1.00  0.00     0.073 C 
HETATM    8  C16 UNL     1      -3.570  -4.020   1.779  1.00  0.00     0.105 C 
HETATM    9  S1  UNL     1      -4.887  -2.820   1.452  1.00  0.00    -0.030 SA
ENDROOT
BRANCH   1  10
HETATM   10  C6  UNL     1      -0.367  -0.905   0.065  1.00  0.00     0.126 C 
BRANCH  10  11
HETATM   11  N3  UNL     1       0.164  -0.503  -1.191  1.00  0.00    -0.337 N 
ATOM     12  H3  UNL     1      -0.470  -0.192  -1.927  1.00  0.00     0.168 HD
BRANCH  11  13
HETATM   13  C5  UNL     1       1.544  -0.527  -1.436  1.00  0.00     0.100 C 
BRANCH  13  14
HETATM   14  C4  UNL     1       2.690  -0.053  -0.791  1.00  0.00     0.065 C 
BRANCH  14  15
HETATM   15  C3  UNL     1       3.094   0.714   0.184  1.00  0.00     0.088 C 
BRANCH  15  16
HETATM   16  N1  UNL     1       4.546   0.816   0.350  1.00  0.00    -0.398 N 
HETATM   17  C1  UNL     1       5.231   1.031  -0.929  1.00  0.00     0.148 C 
HETATM   18  C2  UNL     1       5.288   0.705   1.529  1.00  0.00     0.148 C 
ENDBRANCH  15  16
ENDBRANCH  14  15
ENDBRANCH  13  14
BRANCH  13  19
HETATM   19  N2  UNL     1       1.852  -1.268  -2.546  1.00  0.00    -0.385 N 
ATOM     20  H22 UNL     1       2.856  -1.285  -2.724  1.00  0.00     0.157 HD
ATOM     21  H21 UNL     1       1.016  -1.614  -3.017  1.00  0.00     0.157 HD
ENDBRANCH  13  19
ENDBRANCH  11  13
ENDBRANCH  10  11
BRANCH  10  22
HETATM   22  C7  UNL     1       0.506  -1.988   0.548  1.00  0.00     0.227 C 
HETATM   23  O1  UNL     1       1.373  -1.927   1.434  1.00  0.00    -0.643 OA
HETATM   24  O2  UNL     1       0.394  -3.282  -0.050  1.00  0.00    -0.643 OA
ENDBRANCH  10  22
ENDBRANCH   1  10
BRANCH   2  25
HETATM   25  C10 UNL     1      -2.369   1.584   0.035  1.00  0.00     0.066 A 
HETATM   26  C11 UNL     1      -3.460   2.426  -0.043  1.00  0.00     0.080 A 
HETATM   27  C12 UNL     1      -3.388   3.726  -0.522  1.00  0.00     0.101 A 
HETATM   28  N5  UNL     1      -2.187   4.177  -0.924  1.00  0.00    -0.339 N 
HETATM   29  C13 UNL     1      -1.127   3.338  -0.831  1.00  0.00     0.182 A 
ATOM     30  H5  UNL     1      -2.077   5.123  -1.288  1.00  0.00     0.168 HD
HETATM   31  N6  UNL     1      -1.207   2.083  -0.370  1.00  0.00    -0.350 N 
ATOM     32  H6  UNL     1      -0.367   1.505  -0.330  1.00  0.00     0.166 HD
BRANCH  27  33
HETATM   33  N4  UNL     1      -4.425   4.453  -0.558  1.00  0.00    -0.385 N 
ATOM     34  H42 UNL     1      -5.336   4.111  -0.253  1.00  0.00     0.157 HD
ATOM     35  H41 UNL     1      -4.372   5.409  -0.910  1.00  0.00     0.157 HD
ENDBRANCH  27  33
ENDBRANCH   2  25
TORSDOF 10
