REMARK  10 active torsions:
REMARK  status: ('A' for Active; 'I' for Inactive)
REMARK    1  A    between atoms: O1_2  and  C2_3 
REMARK    2  A    between atoms: C2_3  and  C3_4 
REMARK    3  A    between atoms: C3_4  and  O2_5 
REMARK    4  A    between atoms: C3_4  and  S1_7 
REMARK    5  A    between atoms: S1_7  and  C4_8 
REMARK    6  A    between atoms: C4_8  and  C5_9 
REMARK    7  A    between atoms: C7_13  and  N2_14 
REMARK    8  A    between atoms: C8_19  and  N4_20 
REMARK    9  A    between atoms: N6_26  and  C10_27 
REMARK   10  A    between atoms: C10_27  and  C11_28 
ROOT
HETATM    1  C5  UNL     1       0.853  -0.275  -0.794  1.00  0.00     0.088 A 
HETATM    2  N1  UNL     1       1.002  -1.558  -0.574  1.00  0.00    -0.348 N 
ATOM      3  H1  UNL     1       1.806  -2.072  -0.934  1.00  0.00     0.166 HD
HETATM    4  C6  UNL     1       0.027  -2.175   0.163  1.00  0.00     0.123 A 
HETATM    5  C7  UNL     1       0.156  -3.504   0.450  1.00  0.00     0.145 A 
HETATM    6  N3  UNL     1      -0.786  -4.111   1.213  1.00  0.00    -0.175 N 
ATOM      7  H3  UNL     1      -0.696  -5.103   1.435  1.00  0.00     0.186 HD
HETATM    8  C8  UNL     1      -1.841  -3.413   1.681  1.00  0.00     0.679 A 
HETATM    9  N5  UNL     1      -1.984  -2.130   1.413  1.00  0.00    -0.174 N 
ATOM     10  H5  UNL     1      -2.793  -1.629   1.781  1.00  0.00     0.186 HD
HETATM   11  C9  UNL     1      -1.076  -1.463   0.657  1.00  0.00     0.160 A 
HETATM   12  N6  UNL     1      -1.200  -0.172   0.426  1.00  0.00    -0.274 N 
HETATM   13  C16 UNL     1      -0.181   0.404  -0.336  1.00  0.00     0.276 A 
HETATM   14  O3  UNL     1      -0.291   1.626  -0.578  1.00  0.00    -0.265 OA
ENDROOT
BRANCH   1  15
HETATM   15  C4  UNL     1       1.950   0.490  -1.594  1.00  0.00     0.139 C 
BRANCH  15  16
HETATM   16  S1  UNL     1       3.317   0.271  -0.479  1.00  0.00    -0.129 SA
BRANCH  16  17
HETATM   17  C3  UNL     1       4.791   1.132  -0.575  1.00  0.00     0.203 C 
BRANCH  17  18
HETATM   18  C2  UNL     1       5.831   0.637  -1.523  1.00  0.00     0.209 C 
BRANCH  18  19
HETATM   19  O1  UNL     1       7.129   1.030  -1.108  1.00  0.00    -0.393 OA
HETATM   20  C1  UNL     1       7.407   0.538   0.173  1.00  0.00     0.201 C 
ENDBRANCH  18  19
ENDBRANCH  17  18
BRANCH  17  21
HETATM   21  O2  UNL     1       4.703   2.555  -0.712  1.00  0.00    -0.383 OA
ATOM     22  H2  UNL     1       4.041   2.870  -0.108  1.00  0.00     0.211 HD
ENDBRANCH  17  21
ENDBRANCH  16  17
ENDBRANCH  15  16
ENDBRANCH   1  15
BRANCH  12  23
HETATM   23  C10 UNL     1      -2.141   0.764   0.898  1.00  0.00     0.079 C 
BRANCH  23  24
HETATM   24  C11 UNL     1      -3.187   1.239  -0.028  1.00  0.00     0.025 C 
HETATM   25  C12 UNL     1      -3.977   2.410   0.611  1.00  0.00     0.010 C 
HETATM   26  C13 UNL     1      -5.020   2.619  -0.500  1.00  0.00     0.001 C 
HETATM   27  C14 UNL     1      -5.507   1.199  -0.735  1.00  0.00     0.001 C 
HETATM   28  C15 UNL     1      -4.395   0.287  -0.182  1.00  0.00     0.010 C 
ENDBRANCH  23  24
ENDBRANCH  12  23
BRANCH   5  29
HETATM   29  N2  UNL     1       1.145  -4.228   0.021  1.00  0.00    -0.383 N 
ATOM     30  H22 UNL     1       1.854  -3.771  -0.553  1.00  0.00     0.157 HD
ATOM     31  H21 UNL     1       1.241  -5.221   0.235  1.00  0.00     0.157 HD
ENDBRANCH   5  29
BRANCH   8  32
HETATM   32  N4  UNL     1      -2.684  -4.030   2.442  1.00  0.00    -0.234 N 
ATOM     33  H42 UNL     1      -2.573  -5.023   2.649  1.00  0.00     0.174 HD
ATOM     34  H41 UNL     1      -3.482  -3.502   2.796  1.00  0.00     0.174 HD
ENDBRANCH   8  32
TORSDOF 10
