REMARK  8 active torsions:
REMARK  status: ('A' for Active; 'I' for Inactive)
REMARK    1  A    between atoms: C2_2  and  N1_4 
REMARK    2  A    between atoms: C4_11  and  N5_12 
REMARK       I    between atoms: N5_12  and  C5_13 
REMARK       I    between atoms: C5_13  and  N8_18 
REMARK    3  A    between atoms: N8_18  and  C7_20 
REMARK    4  A    between atoms: C7_20  and  C8_21 
REMARK    5  A    between atoms: C8_21  and  S1_22 
REMARK    6  A    between atoms: S1_22  and  C9_23 
REMARK    7  A    between atoms: C9_23  and  C10_24 
REMARK    8  A    between atoms: C12_27  and  N9_28 
ROOT
HETATM    1  N5  UNL     1      -2.084  -0.272  -0.822  1.00  0.00    -0.332 NA
HETATM    2  C5  UNL     1      -1.420  -1.248  -0.252  1.00  0.00     0.267 C 
HETATM    3  N6  UNL     1      -1.918  -2.239   0.440  1.00  0.00    -0.253 N 
ATOM      4  H6  UNL     1      -2.926  -2.308   0.580  1.00  0.00     0.182 HD
HETATM    5  C6  UNL     1      -1.076  -3.196   0.984  1.00  0.00     0.185 C 
HETATM    6  N7  UNL     1      -0.391  -4.010   1.444  1.00  0.00    -0.172 NA
HETATM    7  N8  UNL     1       0.041  -1.245  -0.389  1.00  0.00    -0.349 N 
ATOM      8  H8  UNL     1       0.501  -1.843  -1.075  1.00  0.00     0.163 HD
ENDROOT
BRANCH   1   9
HETATM    9  C4  UNL     1      -2.791   0.605  -1.213  1.00  0.00     0.297 A 
HETATM   10  N1  UNL     1      -3.929   1.135  -0.672  1.00  0.00    -0.229 N 
HETATM   11  N2  UNL     1      -4.367   2.115  -1.421  1.00  0.00    -0.222 N 
HETATM   12  N3  UNL     1      -3.541   2.226  -2.430  1.00  0.00    -0.224 N 
ATOM     13  H2  UNL     1      -5.196   2.685  -1.250  1.00  0.00     0.210 HD
HETATM   14  N4  UNL     1      -2.586   1.369  -2.378  1.00  0.00    -0.242 N 
ATOM     15  H3  UNL     1      -3.644   2.916  -3.174  1.00  0.00     0.210 HD
ATOM     16  H4  UNL     1      -1.826   1.262  -3.050  1.00  0.00     0.192 HD
BRANCH  10  17
HETATM   17  C2  UNL     1      -4.576   0.674   0.549  1.00  0.00     0.106 C 
HETATM   18  C1  UNL     1      -4.114   1.456   1.739  1.00  0.00     0.034 C 
HETATM   19  C3  UNL     1      -6.087   0.712   0.390  1.00  0.00     0.034 C 
ENDBRANCH  10  17
ENDBRANCH   1   9
BRANCH   7  20
HETATM   20  C7  UNL     1       0.812  -0.380   0.466  1.00  0.00     0.134 C 
BRANCH  20  21
HETATM   21  C8  UNL     1       2.226  -0.350  -0.035  1.00  0.00     0.094 C 
BRANCH  21  22
HETATM   22  S1  UNL     1       2.967  -1.977   0.034  1.00  0.00    -0.161 SA
BRANCH  22  23
HETATM   23  C9  UNL     1       4.588  -1.909  -0.832  1.00  0.00     0.131 C 
BRANCH  23  24
HETATM   24  C10 UNL     1       5.413  -0.914  -0.032  1.00  0.00     0.027 A 
HETATM   25  C11 UNL     1       6.230  -1.314   0.982  1.00  0.00     0.079 A 
HETATM   26  S2  UNL     1       6.882   0.171   1.519  1.00  0.00    -0.064 SA
HETATM   27  C12 UNL     1       6.084   1.205   0.431  1.00  0.00     0.142 A 
HETATM   28  N10 UNL     1       5.349   0.375  -0.300  1.00  0.00    -0.339 N 
ATOM     29  H10 UNL     1       4.751   0.725  -1.048  1.00  0.00     0.168 HD
BRANCH  27  30
HETATM   30  N9  UNL     1       6.207   2.507   0.373  1.00  0.00    -0.380 N 
ATOM     31  H92 UNL     1       6.772   3.145   0.934  1.00  0.00     0.158 HD
ATOM     32  H91 UNL     1       5.728   3.127  -0.280  1.00  0.00     0.158 HD
ENDBRANCH  27  30
ENDBRANCH  23  24
ENDBRANCH  22  23
ENDBRANCH  21  22
ENDBRANCH  20  21
ENDBRANCH   7  20
TORSDOF 8
