REMARK  6 active torsions:
REMARK  status: ('A' for Active; 'I' for Inactive)
REMARK    1  A    between atoms: N1_1  and  C1_5 
REMARK    2  A    between atoms: C1_5  and  C2_6 
REMARK    3  A    between atoms: C2_6  and  N2_7 
REMARK    4  A    between atoms: N2_7  and  C3_9 
REMARK    5  A    between atoms: C6_15  and  N4_16 
REMARK    6  A    between atoms: N4_16  and  C7_18 
ROOT
HETATM    1  C3  UNL     1       1.954   0.051  -0.870  1.00  0.00     0.122 A 
HETATM    2  C4  UNL     1       1.436  -0.276  -2.129  1.00  0.00     0.123 A 
HETATM    3  C5  UNL     1       0.082  -0.448  -2.317  1.00  0.00     0.263 A 
HETATM    4  O1  UNL     1      -0.316  -0.740  -3.472  1.00  0.00    -0.268 OA
HETATM    5  N3  UNL     1      -0.717  -0.292  -1.257  1.00  0.00    -0.156 N 
ATOM      6  H3  UNL     1      -1.721  -0.418  -1.388  1.00  0.00     0.187 HD
HETATM    7  C6  UNL     1      -0.274   0.021  -0.031  1.00  0.00     0.688 A 
HETATM    8  N7  UNL     1       1.073   0.184   0.121  1.00  0.00    -0.176 N 
ATOM      9  H7  UNL     1       1.426   0.422   1.048  1.00  0.00     0.186 HD
ENDROOT
BRANCH   7  10
HETATM   10  N4  UNL     1      -1.067   0.165   0.973  1.00  0.00    -0.176 N 
ATOM     11  H4  UNL     1      -0.724   0.403   1.904  1.00  0.00     0.186 HD
BRANCH  10  12
HETATM   12  C7  UNL     1      -2.475  -0.031   0.700  1.00  0.00     0.120 A 
HETATM   13  C8  UNL     1      -3.048  -1.268   0.896  1.00  0.00     0.051 A 
HETATM   14  C9  UNL     1      -4.384  -1.444   0.634  1.00  0.00     0.032 A 
HETATM   15  C10 UNL     1      -5.171  -0.408   0.176  1.00  0.00     0.061 A 
HETATM   16  N5  UNL     1      -6.554  -0.601  -0.092  1.00  0.00    -0.101 NA
HETATM   17  C11 UNL     1      -4.532   0.798   0.004  1.00  0.00     0.116 A 
HETATM   18  N6  UNL     1      -3.231   0.981   0.256  1.00  0.00    -0.350 N 
ATOM     19  H6  UNL     1      -2.811   1.899   0.109  1.00  0.00     0.166 HD
ENDBRANCH  10  12
ENDBRANCH   7  10
BRANCH   1  20
HETATM   20  N2  UNL     1       3.354   0.222  -0.706  1.00  0.00    -0.374 N 
ATOM     21  H2  UNL     1       3.996   0.111  -1.491  1.00  0.00     0.161 HD
BRANCH  20  22
HETATM   22  C2  UNL     1       3.837   0.560   0.616  1.00  0.00     0.148 C 
BRANCH  22  23
HETATM   23  C1  UNL     1       5.344   0.709   0.635  1.00  0.00     0.249 C 
BRANCH  23  24
HETATM   24  N1  UNL     1       5.828   1.047   1.956  1.00  0.00    -0.078 N 
ATOM     25  H13 UNL     1       5.366   1.880   2.320  1.00  0.00     0.274 HD
ATOM     26  H12 UNL     1       5.511   0.373   2.653  1.00  0.00     0.274 HD
ATOM     27  H11 UNL     1       6.843   1.147   1.969  1.00  0.00     0.274 HD
ENDBRANCH  23  24
ENDBRANCH  22  23
ENDBRANCH  20  22
ENDBRANCH   1  20
TORSDOF 6
