REMARK  10 active torsions:
REMARK  status: ('A' for Active; 'I' for Inactive)
REMARK    1  A    between atoms: C2_2  and  N1_3 
REMARK    2  A    between atoms: C4_8  and  C5_9 
REMARK    3  A    between atoms: C4_8  and  C6_14 
REMARK    4  A    between atoms: C5_9  and  N2_10 
REMARK    5  A    between atoms: C6_14  and  N3_15 
REMARK    6  A    between atoms: C6_14  and  C7_19 
REMARK    7  A    between atoms: C11_23  and  C12_24 
REMARK    8  A    between atoms: C12_24  and  C13_25 
REMARK    9  A    between atoms: C13_25  and  N4_26 
REMARK   10  A    between atoms: C13_25  and  N5_30 
ROOT
HETATM    1  C6  UNL     1      -1.322  -1.024  -0.311  1.00  0.00     0.245 C 
ENDROOT
BRANCH   1   2
HETATM    2  C4  UNL     1      -2.310   0.104  -0.143  1.00  0.00     0.052 A 
HETATM    3  C2  UNL     1      -3.714  -0.155   0.224  1.00  0.00     0.132 A 
HETATM    4  C1  UNL     1      -4.213  -1.544   0.505  1.00  0.00     0.047 C 
HETATM    5  C3  UNL     1      -3.413   0.132  -1.217  1.00  0.00     0.055 A 
BRANCH   3   6
HETATM    6  N1  UNL     1      -4.416   0.922   0.901  1.00  0.00    -0.070 N 
ATOM      7  H13 UNL     1      -5.414   0.865   0.700  1.00  0.00     0.275 HD
ATOM      8  H12 UNL     1      -4.422   0.753   1.907  1.00  0.00     0.275 HD
ATOM      9  H11 UNL     1      -4.077   1.865   0.710  1.00  0.00     0.275 HD
ENDBRANCH   3   6
BRANCH   2  10
HETATM   10  C5  UNL     1      -1.695   1.421   0.261  1.00  0.00     0.244 C 
BRANCH  10  11
HETATM   11  N2  UNL     1      -1.697   1.616   1.693  1.00  0.00    -0.078 N 
ATOM     12  H23 UNL     1      -2.637   1.517   2.076  1.00  0.00     0.274 HD
ATOM     13  H22 UNL     1      -1.243   0.837   2.170  1.00  0.00     0.274 HD
ATOM     14  H21 UNL     1      -1.281   2.506   1.966  1.00  0.00     0.274 HD
ENDBRANCH  10  11
ENDBRANCH   2  10
ENDBRANCH   1   2
BRANCH   1  15
HETATM   15  N3  UNL     1      -1.722  -1.952  -1.345  1.00  0.00    -0.069 N 
ATOM     16  H33 UNL     1      -2.663  -2.308  -1.177  1.00  0.00     0.275 HD
ATOM     17  H32 UNL     1      -1.886  -1.471  -2.229  1.00  0.00     0.275 HD
ATOM     18  H31 UNL     1      -1.054  -2.715  -1.459  1.00  0.00     0.275 HD
ENDBRANCH   1  15
BRANCH   1  19
HETATM   19  C7  UNL     1       0.024  -0.497  -0.698  1.00  0.00     0.041 A 
HETATM   20  C8  UNL     1       0.223  -0.104  -2.010  1.00  0.00     0.027 A 
HETATM   21  C9  UNL     1       1.467   0.374  -2.340  1.00  0.00     0.004 A 
HETATM   22  C10 UNL     1       2.515   0.474  -1.418  1.00  0.00     0.025 A 
HETATM   23  C11 UNL     1       2.261   0.069  -0.128  1.00  0.00     0.013 A 
HETATM   24  N6  UNL     1       1.028  -0.403   0.190  1.00  0.00    -0.361 N 
ATOM     25  H6  UNL     1       0.856  -0.701   1.150  1.00  0.00     0.165 HD
BRANCH  23  26
HETATM   26  C12 UNL     1       3.308   0.131   0.905  1.00  0.00     0.119 C 
BRANCH  26  27
HETATM   27  C13 UNL     1       4.640   0.596   0.429  1.00  0.00     0.383 C 
BRANCH  27  28
HETATM   28  N4  UNL     1       5.576   0.622   1.568  1.00  0.00    -0.050 N 
ATOM     29  H43 UNL     1       5.225   1.181   2.346  1.00  0.00     0.276 HD
ATOM     30  H42 UNL     1       5.627  -0.276   2.049  1.00  0.00     0.276 HD
ATOM     31  H41 UNL     1       6.488   0.941   1.242  1.00  0.00     0.276 HD
ENDBRANCH  27  28
BRANCH  27  32
HETATM   32  N5  UNL     1       5.197  -0.459  -0.440  1.00  0.00    -0.050 N 
ATOM     33  H53 UNL     1       5.235  -1.370   0.016  1.00  0.00     0.276 HD
ATOM     34  H52 UNL     1       4.571  -0.717  -1.203  1.00  0.00     0.276 HD
ATOM     35  H51 UNL     1       6.109  -0.140  -0.766  1.00  0.00     0.276 HD
ENDBRANCH  27  32
ENDBRANCH  26  27
ENDBRANCH  23  26
ENDBRANCH   1  19
TORSDOF 10
