REMARK  7 active torsions:
REMARK  status: ('A' for Active; 'I' for Inactive)
REMARK    1  A    between atoms: N1_1  and  C1_5 
REMARK    2  A    between atoms: C1_5  and  C2_6 
REMARK    3  A    between atoms: C1_5  and  C3_9 
REMARK    4  A    between atoms: C2_6  and  O1_7 
REMARK    5  A    between atoms: C3_9  and  O2_10 
REMARK    6  A    between atoms: O2_10  and  C4_11 
REMARK    7  A    between atoms: N3_15  and  C6_17 
ROOT
HETATM    1  C4  UNL     1       1.002  -1.809   0.173  1.00  0.00     0.251 C 
HETATM    2  N2  UNL     1       0.397  -0.985  -0.615  1.00  0.00    -0.153 N 
ATOM      3  H2  UNL     1       0.832  -0.653  -1.476  1.00  0.00     0.188 HD
HETATM    4  C5  UNL     1      -0.925  -0.555  -0.222  1.00  0.00     0.699 C 
HETATM    5  N3  UNL     1      -1.574   0.256  -0.964  1.00  0.00    -0.191 N 
ATOM      6  H3  UNL     1      -1.133   0.578  -1.826  1.00  0.00     0.184 HD
HETATM    7  N4  UNL     1      -1.455  -1.070   0.990  1.00  0.00    -0.116 N 
ATOM      8  H4  UNL     1      -2.466  -1.119   1.119  1.00  0.00     0.203 HD
HETATM    9  N5  UNL     1      -0.593  -1.517   2.023  1.00  0.00    -0.005 NA
HETATM   10  N6  UNL     1       0.415  -2.283   1.383  1.00  0.00    -0.248 N 
ATOM     11  H6  UNL     1       0.719  -3.169   1.787  1.00  0.00     0.188 HD
ENDROOT
BRANCH   1  12
HETATM   12  O2  UNL     1       2.285  -2.272  -0.145  1.00  0.00    -0.319 OA
BRANCH  12  13
HETATM   13  C3  UNL     1       3.261  -1.387  -0.634  1.00  0.00     0.213 C 
BRANCH  13  14
HETATM   14  C1  UNL     1       3.657  -0.291   0.307  1.00  0.00     0.231 C 
BRANCH  14  15
HETATM   15  N1  UNL     1       2.626   0.593   0.716  1.00  0.00    -0.071 N 
ATOM     16  H13 UNL     1       2.980   1.332   1.324  1.00  0.00     0.274 HD
ATOM     17  H12 UNL     1       2.298   1.174  -0.055  1.00  0.00     0.274 HD
ATOM     18  H11 UNL     1       1.862   0.077   1.153  1.00  0.00     0.274 HD
ENDBRANCH  14  15
BRANCH  14  19
HETATM   19  C2  UNL     1       4.801   0.482  -0.347  1.00  0.00     0.199 C 
BRANCH  19  20
HETATM   20  O1  UNL     1       4.257   1.138  -1.452  1.00  0.00    -0.399 OA
ATOM     21  H1  UNL     1       4.968   1.619  -1.859  1.00  0.00     0.209 HD
ENDBRANCH  19  20
ENDBRANCH  14  19
ENDBRANCH  13  14
ENDBRANCH  12  13
ENDBRANCH   1  12
BRANCH   5  22
HETATM   22  C6  UNL     1      -2.863   0.731  -0.661  1.00  0.00     0.049 A 
HETATM   23  C7  UNL     1      -3.243   1.283   0.547  1.00  0.00     0.030 A 
HETATM   24  C8  UNL     1      -4.514   1.741   0.818  1.00  0.00     0.002 A 
HETATM   25  C9  UNL     1      -5.500   1.664  -0.142  1.00  0.00     0.000 A 
HETATM   26  C10 UNL     1      -5.153   1.118  -1.358  1.00  0.00     0.002 A 
HETATM   27  C11 UNL     1      -3.882   0.663  -1.624  1.00  0.00     0.030 A 
ENDBRANCH   5  22
TORSDOF 7
