REMARK  19 active torsions:
REMARK  status: ('A' for Active; 'I' for Inactive)
REMARK    1  A    between atoms: C2_2  and  C3_3 
REMARK    2  A    between atoms: C3_3  and  N1_4 
REMARK    3  A    between atoms: N1_4  and  C4_6 
REMARK    4  A    between atoms: C4_6  and  C5_7 
REMARK    5  A    between atoms: C5_7  and  O1_8 
REMARK    6  A    between atoms: C5_7  and  C13_16 
REMARK    7  A    between atoms: O1_8  and  C6_9 
REMARK    8  A    between atoms: C6_9  and  C7_10 
REMARK    9  A    between atoms: C13_16  and  C14_17 
REMARK   10  A    between atoms: C13_16  and  N2_27 
REMARK   11  A    between atoms: C14_17  and  C15_18 
REMARK   12  A    between atoms: C15_18  and  C16_19 
REMARK   13  A    between atoms: N2_27  and  C22_29 
REMARK   14  A    between atoms: C22_29  and  C23_30 
REMARK   15  A    between atoms: C22_29  and  C27_37 
REMARK   16  A    between atoms: C23_30  and  C24_31 
REMARK   17  A    between atoms: C24_31  and  C25_32 
REMARK   18  A    between atoms: C25_32  and  N3_33 
REMARK       I    between atoms: N3_33  and  C26_34 
REMARK   19  A    between atoms: C27_37  and  N6_38 
ROOT
HETATM    1  C13 UNL     1      -0.701   0.176   0.953  1.00  0.00     0.140 C 
ENDROOT
BRANCH   1   2
HETATM    2  C5  UNL     1      -1.853  -0.692   0.730  1.00  0.00     0.084 C 
BRANCH   2   3
HETATM    3  C4  UNL     1      -2.840  -0.667   1.856  1.00  0.00     0.117 C 
BRANCH   3   4
HETATM    4  N1  UNL     1      -3.908   0.243   1.749  1.00  0.00    -0.393 N 
ATOM      5  H1  UNL     1      -4.077   0.828   0.931  1.00  0.00     0.159 HD
BRANCH   4   6
HETATM    6  C3  UNL     1      -4.739   0.253   2.933  1.00  0.00     0.145 C 
BRANCH   6   7
HETATM    7  C2  UNL     1      -4.022   0.849   4.094  1.00  0.00    -0.018 C 
HETATM    8  C1  UNL     1      -3.774   0.210   5.226  1.00  0.00     0.008 C 
ENDBRANCH   6   7
ENDBRANCH   4   6
ENDBRANCH   3   4
ENDBRANCH   2   3
BRANCH   2   9
HETATM    9  O1  UNL     1      -2.364  -0.924  -0.503  1.00  0.00    -0.347 OA
BRANCH   9  10
HETATM   10  C6  UNL     1      -2.256  -2.193  -1.006  1.00  0.00     0.214 C 
BRANCH  10  11
HETATM   11  C7  UNL     1      -2.879  -2.375  -2.329  1.00  0.00    -0.034 A 
HETATM   12  C8  UNL     1      -3.228  -1.272  -3.065  1.00  0.00     0.009 A 
HETATM   13  C9  UNL     1      -3.823  -1.428  -4.311  1.00  0.00     0.001 A 
HETATM   14  C10 UNL     1      -4.070  -2.684  -4.823  1.00  0.00     0.000 A 
HETATM   15  C11 UNL     1      -3.722  -3.787  -4.089  1.00  0.00     0.001 A 
HETATM   16  C12 UNL     1      -3.133  -3.644  -2.857  1.00  0.00     0.009 A 
ENDBRANCH  10  11
ENDBRANCH   9  10
ENDBRANCH   2   9
ENDBRANCH   1   2
BRANCH   1  17
HETATM   17  C14 UNL     1      -0.820   1.494   0.176  1.00  0.00     0.036 C 
BRANCH  17  18
HETATM   18  C15 UNL     1      -1.959   2.373   0.407  1.00  0.00     0.041 C 
BRANCH  18  19
HETATM   19  C16 UNL     1      -1.713   3.637  -0.412  1.00  0.00    -0.052 A 
HETATM   20  C17 UNL     1      -1.046   4.708   0.129  1.00  0.00     0.049 A 
HETATM   21  C18 UNL     1      -0.804   5.865  -0.597  1.00  0.00     0.119 A 
HETATM   22  F1  UNL     1      -0.144   6.926  -0.066  1.00  0.00    -0.206 F 
HETATM   23  C19 UNL     1      -1.261   5.919  -1.908  1.00  0.00     0.084 A 
HETATM   24  C20 UNL     1      -1.930   4.861  -2.468  1.00  0.00     0.119 A 
HETATM   25  F2  UNL     1      -2.372   4.911  -3.735  1.00  0.00    -0.206 F 
HETATM   26  C21 UNL     1      -2.149   3.726  -1.709  1.00  0.00     0.049 A 
ENDBRANCH  18  19
ENDBRANCH  17  18
ENDBRANCH   1  17
BRANCH   1  27
HETATM   27  N2  UNL     1       0.589  -0.288   0.459  1.00  0.00    -0.381 N 
ATOM     28  H2  UNL     1       1.068   0.260  -0.256  1.00  0.00     0.160 HD
BRANCH  27  29
HETATM   29  C22 UNL     1       1.186  -1.441   0.924  1.00  0.00     0.022 C 
BRANCH  29  30
HETATM   30  C23 UNL     1       2.043  -1.972  -0.252  1.00  0.00     0.064 C 
BRANCH  30  31
HETATM   31  C24 UNL     1       3.044  -1.004  -0.757  1.00  0.00     0.065 C 
BRANCH  31  32
HETATM   32  C25 UNL     1       3.817  -1.739  -1.893  1.00  0.00     0.158 C 
BRANCH  32  33
HETATM   33  N3  UNL     1       4.788  -1.036  -2.461  1.00  0.00    -0.393 NA
HETATM   34  C26 UNL     1       5.639  -0.547  -3.109  1.00  0.00     0.274 C 
HETATM   35  N4  UNL     1       6.298   0.671  -2.617  1.00  0.00    -0.052 NA
HETATM   36  N5  UNL     1       6.140  -1.022  -4.392  1.00  0.00    -0.052 NA
ENDBRANCH  32  33
ENDBRANCH  31  32
ENDBRANCH  30  31
ENDBRANCH  29  30
BRANCH  29  37
HETATM   37  C27 UNL     1       1.768  -1.615   2.249  1.00  0.00     0.131 C 
BRANCH  37  38
HETATM   38  N6  UNL     1       2.853  -0.915   2.776  1.00  0.00    -0.224 N 
HETATM   39  C28 UNL     1       4.112  -1.444   2.692  1.00  0.00     0.338 A 
HETATM   40  O2  UNL     1       4.368  -2.547   2.152  1.00  0.00    -0.246 OA
HETATM   41  N7  UNL     1       5.166  -0.784   3.203  1.00  0.00    -0.260 N 
HETATM   42  C29 UNL     1       5.051   0.400   3.811  1.00  0.00     0.332 A 
ATOM     43  H7  UNL     1       6.092  -1.205   3.123  1.00  0.00     0.175 HD
HETATM   44  O3  UNL     1       6.054   1.022   4.296  1.00  0.00    -0.246 OA
HETATM   45  N8  UNL     1       3.842   0.932   3.906  1.00  0.00    -0.260 N 
HETATM   46  C30 UNL     1       2.764   0.263   3.386  1.00  0.00     0.338 A 
ATOM     47  H8  UNL     1       3.713   1.835   4.364  1.00  0.00     0.175 HD
HETATM   48  O4  UNL     1       1.684   0.891   3.554  1.00  0.00    -0.246 OA
ENDBRANCH  37  38
ENDBRANCH  29  37
ENDBRANCH  27  29
ENDBRANCH   1  27
TORSDOF 19
