REMARK  24 active torsions:
REMARK  status: ('A' for Active; 'I' for Inactive)
REMARK    1  A    between atoms: N1_1  and  C1_5 
REMARK    2  A    between atoms: C1_5  and  C2_6 
REMARK    3  A    between atoms: C2_6  and  O1_7 
REMARK    4  A    between atoms: O1_7  and  C3_8 
REMARK    5  A    between atoms: C3_8  and  C4_9 
REMARK    6  A    between atoms: C4_9  and  O2_10 
REMARK    7  A    between atoms: O2_10  and  C5_11 
REMARK    8  A    between atoms: C5_11  and  C6_12 
REMARK    9  A    between atoms: C6_12  and  O3_13 
REMARK   10  A    between atoms: O3_13  and  C7_14 
REMARK   11  A    between atoms: C7_14  and  C8_15 
REMARK   12  A    between atoms: C8_15  and  N2_16 
REMARK   13  A    between atoms: N2_16  and  C9_18 
REMARK   14  A    between atoms: C9_18  and  O4_19 
REMARK   15  A    between atoms: C9_18  and  N3_21 
REMARK   16  A    between atoms: N3_21  and  C10_22 
REMARK   17  A    between atoms: C13_28  and  N5_29 
REMARK   18  A    between atoms: N5_29  and  C14_31 
REMARK   19  A    between atoms: C14_31  and  C15_32 
REMARK   20  A    between atoms: C15_32  and  N6_33 
REMARK   21  A    between atoms: N6_33  and  S1_35 
REMARK   22  A    between atoms: S1_35  and  C16_37 
REMARK   23  A    between atoms: S1_35  and  C17_40 
REMARK   24  A    between atoms: C16_37  and  O6_38 
ROOT
HETATM    1  C10 UNL     1      -0.675  -0.899   1.440  1.00  0.00     0.265 A 
HETATM    2  N4  UNL     1      -0.929  -1.811   2.438  1.00  0.00    -0.310 N 
ATOM      3  H4  UNL     1      -0.139  -2.300   2.860  1.00  0.00     0.170 HD
HETATM    4  C11 UNL     1      -2.150  -2.087   2.879  1.00  0.00     0.086 A 
HETATM    5 BR1  UNL     1      -2.381  -3.371   4.280  1.00  0.00    -0.031 Br
HETATM    6  C12 UNL     1      -3.243  -1.463   2.354  1.00  0.00     0.086 A 
HETATM    7  C13 UNL     1      -3.022  -0.517   1.328  1.00  0.00     0.110 A 
HETATM    8  N7  UNL     1      -1.797  -0.301   0.948  1.00  0.00    -0.302 N 
ATOM      9  H7  UNL     1      -1.662   0.386   0.206  1.00  0.00     0.171 HD
ENDROOT
BRANCH   1  10
HETATM   10  N3  UNL     1       0.415  -0.682   1.044  1.00  0.00    -0.329 NA
BRANCH  10  11
HETATM   11  C9  UNL     1       1.577  -0.393   0.561  1.00  0.00     0.297 C 
BRANCH  11  12
HETATM   12  N2  UNL     1       1.841  -0.213  -0.833  1.00  0.00    -0.343 N 
ATOM     13  H2  UNL     1       1.081  -0.311  -1.506  1.00  0.00     0.164 HD
BRANCH  12  14
HETATM   14  C8  UNL     1       3.156   0.103  -1.297  1.00  0.00     0.150 C 
BRANCH  14  15
HETATM   15  C7  UNL     1       3.710   1.386  -0.770  1.00  0.00     0.187 C 
BRANCH  15  16
HETATM   16  O3  UNL     1       5.004   1.639  -1.273  1.00  0.00    -0.387 OA
BRANCH  16  17
HETATM   17  C6  UNL     1       5.489   2.758  -0.535  1.00  0.00     0.193 C 
BRANCH  17  18
HETATM   18  C5  UNL     1       6.707   2.135   0.210  1.00  0.00     0.193 C 
BRANCH  18  19
HETATM   19  O2  UNL     1       7.542   1.715  -0.782  1.00  0.00    -0.387 OA
BRANCH  19  20
HETATM   20  C4  UNL     1       8.661   1.016  -0.442  1.00  0.00     0.193 C 
BRANCH  20  21
HETATM   21  C3  UNL     1       8.260  -0.316   0.120  1.00  0.00     0.193 C 
BRANCH  21  22
HETATM   22  O1  UNL     1       9.273  -1.155   0.496  1.00  0.00    -0.387 OA
BRANCH  22  23
HETATM   23  C2  UNL     1      10.128  -1.456  -0.574  1.00  0.00     0.195 C 
BRANCH  23  24
HETATM   24  C1  UNL     1      11.144  -2.472  -0.051  1.00  0.00     0.255 C 
BRANCH  24  25
HETATM   25  N1  UNL     1      11.846  -1.849   1.053  1.00  0.00    -0.077 N 
ATOM     26  H13 UNL     1      12.268  -0.955   0.804  1.00  0.00     0.274 HD
ATOM     27  H12 UNL     1      11.220  -1.501   1.779  1.00  0.00     0.274 HD
ATOM     28  H11 UNL     1      12.524  -2.527   1.402  1.00  0.00     0.274 HD
ENDBRANCH  24  25
ENDBRANCH  23  24
ENDBRANCH  22  23
ENDBRANCH  21  22
ENDBRANCH  20  21
ENDBRANCH  19  20
ENDBRANCH  18  19
ENDBRANCH  17  18
ENDBRANCH  16  17
ENDBRANCH  15  16
ENDBRANCH  14  15
ENDBRANCH  12  14
ENDBRANCH  11  12
BRANCH  11  29
HETATM   29  O4  UNL     1       2.605  -0.249   1.372  1.00  0.00    -0.321 OA
ATOM     30  H4  UNL     1       2.430  -0.369   2.298  1.00  0.00     0.222 HD
ENDBRANCH  11  29
ENDBRANCH  10  11
ENDBRANCH   1  10
BRANCH   7  31
HETATM   31  N5  UNL     1      -4.026   0.078   0.829  1.00  0.00    -0.354 N 
ATOM     32  H5  UNL     1      -4.930  -0.187   1.221  1.00  0.00     0.166 HD
BRANCH  31  33
HETATM   33  C14 UNL     1      -4.071   1.042  -0.178  1.00  0.00     0.082 C 
BRANCH  33  34
HETATM   34  C15 UNL     1      -4.809   0.623  -1.457  1.00  0.00     0.173 C 
BRANCH  34  35
HETATM   35  N6  UNL     1      -6.135   0.166  -1.081  1.00  0.00    -0.341 N 
ATOM     36  H6  UNL     1      -6.209  -0.688  -0.528  1.00  0.00     0.169 HD
BRANCH  35  37
HETATM   37  S1  UNL     1      -7.629   1.000  -1.524  1.00  0.00     0.077 S 
HETATM   38  O5  UNL     1      -8.550   0.426  -3.216  1.00  0.00    -0.243 OA
BRANCH  37  39
HETATM   39  C16 UNL     1      -8.321   2.491  -0.667  1.00  0.00     0.286 C 
BRANCH  39  40
HETATM   40  O6  UNL     1      -8.362   2.281   0.740  1.00  0.00    -0.387 OA
ATOM     41  H6  UNL     1      -8.717   3.045   1.179  1.00  0.00     0.210 HD
ENDBRANCH  39  40
ENDBRANCH  37  39
BRANCH  37  42
HETATM   42  C17 UNL     1      -8.882  -0.218  -0.662  1.00  0.00     0.079 A 
HETATM   43  C18 UNL     1      -8.459  -1.241   0.145  1.00  0.00     0.025 A 
HETATM   44  C19 UNL     1      -9.296  -2.100   0.808  1.00  0.00     0.002 A 
HETATM   45  C20 UNL     1     -10.636  -1.949   0.673  1.00  0.00     0.003 A 
HETATM   46  C21 UNL     1     -11.155  -0.965  -0.106  1.00  0.00     0.044 A 
HETATM   47  C22 UNL     1     -10.261  -0.135  -0.746  1.00  0.00     0.136 A 
HETATM   48  F1  UNL     1     -10.756   0.859  -1.568  1.00  0.00    -0.205 F 
ENDBRANCH  37  42
ENDBRANCH  35  37
ENDBRANCH  34  35
ENDBRANCH  33  34
ENDBRANCH  31  33
ENDBRANCH   7  31
TORSDOF 24
