REMARK  13 active torsions:
REMARK  status: ('A' for Active; 'I' for Inactive)
REMARK    1  A    between atoms: C2_2  and  C3_3 
REMARK    2  A    between atoms: C5_7  and  C6_8 
REMARK    3  A    between atoms: C6_8  and  C7_9 
REMARK    4  A    between atoms: C7_9  and  C8_10 
REMARK    5  A    between atoms: C8_10  and  C9_11 
REMARK    6  A    between atoms: C9_11  and  C10_12 
REMARK    7  A    between atoms: C12_18  and  C13_19 
REMARK    8  A    between atoms: C13_19  and  C14_20 
REMARK    9  A    between atoms: C17_27  and  O2_28 
REMARK   10  A    between atoms: C18_32  and  C19_33 
REMARK   11  A    between atoms: C19_33  and  C20_34 
REMARK   12  A    between atoms: C20_34  and  C21_35 
REMARK   13  A    between atoms: C21_35  and  N6_36 
ROOT
HETATM    1  C3  UNL     1      -0.086  -1.432  -1.641  1.00  0.00     0.053 C 
HETATM    2  N1  UNL     1       1.137  -1.498  -1.326  1.00  0.00    -0.389 N 
ATOM      3  H1  UNL     1       1.757  -1.620  -2.127  1.00  0.00     0.159 HD
HETATM    4  C4  UNL     1       1.819  -1.437  -0.090  1.00  0.00     0.133 C 
HETATM    5  C5  UNL     1       2.424  -0.038   0.090  1.00  0.00     0.095 C 
HETATM    6  C11 UNL     1       2.334   0.701  -1.198  1.00  0.00     0.224 C 
HETATM    7  O1  UNL     1       3.344   0.541  -1.939  1.00  0.00    -0.273 OA
HETATM    8  N2  UNL     1       1.294   1.505  -1.636  1.00  0.00    -0.348 N 
ATOM      9  H2  UNL     1       1.021   1.318  -2.601  1.00  0.00     0.163 HD
HETATM   10  C12 UNL     1       0.526   2.535  -1.027  1.00  0.00     0.164 C 
HETATM   11  C17 UNL     1      -0.671   2.213  -0.296  1.00  0.00     0.135 C 
HETATM   12  N5  UNL     1      -1.516   1.125  -0.213  1.00  0.00    -0.361 N 
ATOM     13  H5  UNL     1      -2.444   1.312  -0.593  1.00  0.00     0.162 HD
HETATM   14  C18 UNL     1      -1.375  -0.223   0.294  1.00  0.00     0.159 C 
HETATM   15  C23 UNL     1      -1.227  -1.270  -0.735  1.00  0.00     0.193 C 
HETATM   16  O3  UNL     1      -2.126  -2.174  -0.935  1.00  0.00    -0.289 OA
ENDROOT
BRANCH  10  17
HETATM   17  C13 UNL     1       0.239   3.569  -2.095  1.00  0.00     0.092 C 
BRANCH  17  18
HETATM   18  C14 UNL     1      -0.552   4.726  -1.682  1.00  0.00     0.028 A 
HETATM   19  C15 UNL     1      -0.086   5.895  -1.131  1.00  0.00     0.114 A 
HETATM   20  N3  UNL     1      -1.129   6.748  -0.926  1.00  0.00    -0.360 N 
HETATM   21  C16 UNL     1      -2.212   6.085  -1.355  1.00  0.00     0.180 A 
ATOM     22  H3  UNL     1      -1.093   7.688  -0.531  1.00  0.00     0.166 HD
HETATM   23  N4  UNL     1      -1.879   4.861  -1.815  1.00  0.00    -0.354 N 
ATOM     24  H4  UNL     1      -2.520   4.165  -2.195  1.00  0.00     0.166 HD
ENDBRANCH  17  18
ENDBRANCH  10  17
BRANCH  11  25
HETATM   25  O2  UNL     1      -1.008   3.224   0.463  1.00  0.00    -0.348 OA
ATOM     26  H2  UNL     1      -1.798   3.011   0.946  1.00  0.00     0.219 HD
ENDBRANCH  11  25
BRANCH   5  27
HETATM   27  C6  UNL     1       3.906  -0.267   0.493  1.00  0.00     0.015 C 
BRANCH  27  28
HETATM   28  C7  UNL     1       4.001  -1.034   1.742  1.00  0.00     0.001 C 
BRANCH  28  29
HETATM   29  C8  UNL     1       5.371  -1.297   2.217  1.00  0.00     0.001 C 
BRANCH  29  30
HETATM   30  C9  UNL     1       6.314  -2.160   1.507  1.00  0.00     0.011 C 
BRANCH  30  31
HETATM   31  C10 UNL     1       6.724  -1.867   0.105  1.00  0.00     0.086 C 
HETATM   32  S1  UNL     1       8.025  -3.110  -0.385  1.00  0.00    -0.098 SA
ENDBRANCH  30  31
ENDBRANCH  29  30
ENDBRANCH  28  29
ENDBRANCH  27  28
ENDBRANCH   5  27
BRANCH  14  33
HETATM   33  C19 UNL     1      -2.540  -0.586   1.198  1.00  0.00     0.035 C 
BRANCH  33  34
HETATM   34  C20 UNL     1      -3.887  -0.499   0.595  1.00  0.00     0.022 C 
BRANCH  34  35
HETATM   35  C21 UNL     1      -4.941  -0.900   1.650  1.00  0.00     0.122 C 
BRANCH  35  36
HETATM   36  N6  UNL     1      -6.247  -0.820   1.079  1.00  0.00    -0.367 N 
HETATM   37  C22 UNL     1      -6.966  -1.850   0.781  1.00  0.00     0.196 C 
HETATM   38  N7  UNL     1      -8.258  -1.700   0.216  1.00  0.00    -0.067 NA
HETATM   39  N8  UNL     1      -6.500  -3.187   1.005  1.00  0.00    -0.067 NA
ATOM     40  H6  UNL     1      -6.635   0.105   0.896  1.00  0.00     0.161 HD
ENDBRANCH  35  36
ENDBRANCH  34  35
ENDBRANCH  33  34
ENDBRANCH  14  33
BRANCH   1  41
HETATM   41  C2  UNL     1      -0.372  -1.548  -3.126  1.00  0.00     0.056 C 
HETATM   42  C1  UNL     1      -1.269  -2.709  -3.416  1.00  0.00     0.011 C 
ENDBRANCH   1  41
TORSDOF 13
