REMARK  12 active torsions:
REMARK  status: ('A' for Active; 'I' for Inactive)
REMARK    1  A    between atoms: N1_1  and  C1_5 
REMARK    2  A    between atoms: C1_5  and  C2_6 
REMARK    3  A    between atoms: C2_6  and  C3_7 
REMARK    4  A    between atoms: C3_7  and  C4_8 
REMARK    5  A    between atoms: C4_8  and  C5_9 
REMARK    6  A    between atoms: C15_19  and  C16_20 
REMARK    7  A    between atoms: C18_26  and  C19_27 
REMARK    8  A    between atoms: C19_27  and  C20_28 
REMARK    9  A    between atoms: C20_28  and  C21_29 
REMARK   10  A    between atoms: C23_36  and  N5_37 
REMARK       I    between atoms: N5_37  and  C24_39 
REMARK   11  A    between atoms: C24_39  and  C25_41 
REMARK   12  A    between atoms: C25_41  and  N6_42 
ROOT
HETATM    1  C5  UNL     1       2.146   0.148   0.411  1.00  0.00     0.018 C 
HETATM    2  C6  UNL     1       2.279  -1.039  -0.409  1.00  0.00     0.007 C 
HETATM    3  C7  UNL     1       1.284  -1.297  -1.507  1.00  0.00     0.000 C 
HETATM    4  C8  UNL     1       0.067  -2.081  -1.031  1.00  0.00     0.000 C 
HETATM    5  C9  UNL     1      -0.206  -3.208  -1.959  1.00  0.00     0.000 C 
HETATM    6  C10 UNL     1      -0.896  -4.396  -1.445  1.00  0.00     0.000 C 
HETATM    7  C11 UNL     1      -1.541  -4.321  -0.113  1.00  0.00     0.000 C 
HETATM    8  C12 UNL     1      -2.468  -3.136  -0.024  1.00  0.00     0.000 C 
HETATM    9  C13 UNL     1      -3.804  -3.440   0.593  1.00  0.00     0.002 C 
HETATM   10  C14 UNL     1      -4.745  -2.340   0.256  1.00  0.00     0.032 C 
HETATM   11  C15 UNL     1      -4.140  -0.958   0.159  1.00  0.00     0.146 C 
HETATM   12  N2  UNL     1      -3.938  -0.340   1.431  1.00  0.00    -0.349 N 
ATOM     13  H2  UNL     1      -4.732  -0.384   2.070  1.00  0.00     0.163 HD
HETATM   14  C17 UNL     1      -2.811   0.315   1.924  1.00  0.00     0.241 C 
HETATM   15  O2  UNL     1      -2.368  -0.012   3.079  1.00  0.00    -0.271 OA
HETATM   16  C18 UNL     1      -2.044   1.402   1.205  1.00  0.00     0.177 C 
HETATM   17  N4  UNL     1      -0.703   1.483   1.772  1.00  0.00    -0.346 N 
ATOM     18  H4  UNL     1      -0.637   1.245   2.762  1.00  0.00     0.163 HD
HETATM   19  C22 UNL     1       0.490   1.832   1.174  1.00  0.00     0.241 C 
HETATM   20  O4  UNL     1       1.148   2.811   1.681  1.00  0.00    -0.271 OA
HETATM   21  C23 UNL     1       1.139   1.192  -0.031  1.00  0.00     0.180 C 
ENDROOT
BRANCH  21  22
HETATM   22  N5  UNL     1       1.795   2.193  -0.798  1.00  0.00    -0.346 N 
HETATM   23  C24 UNL     1       1.314   2.690  -2.045  1.00  0.00     0.243 C 
HETATM   24  O5  UNL     1       0.254   2.275  -2.563  1.00  0.00    -0.272 OA
ATOM     25  H5  UNL     1       2.665   2.580  -0.433  1.00  0.00     0.163 HD
BRANCH  23  26
HETATM   26  C25 UNL     1       2.053   3.736  -2.801  1.00  0.00     0.332 C 
BRANCH  26  27
HETATM   27  N6  UNL     1       1.390   4.088  -4.026  1.00  0.00    -0.071 N 
ATOM     28  H63 UNL     1       1.220   3.265  -4.604  1.00  0.00     0.274 HD
ATOM     29  H62 UNL     1       0.424   4.368  -3.856  1.00  0.00     0.274 HD
ATOM     30  H61 UNL     1       1.897   4.805  -4.545  1.00  0.00     0.274 HD
ENDBRANCH  26  27
ENDBRANCH  23  26
ENDBRANCH  21  22
BRANCH   1  31
HETATM   31  C4  UNL     1       3.436   0.794   0.750  1.00  0.00     0.007 C 
BRANCH  31  32
HETATM   32  C3  UNL     1       4.471   0.114   1.543  1.00  0.00     0.002 C 
BRANCH  32  33
HETATM   33  C2  UNL     1       5.052  -1.114   0.981  1.00  0.00     0.027 C 
BRANCH  33  34
HETATM   34  C1  UNL     1       6.180  -1.656   1.893  1.00  0.00     0.229 C 
BRANCH  34  35
HETATM   35  N1  UNL     1       5.639  -1.949   3.197  1.00  0.00    -0.079 N 
ATOM     36  H13 UNL     1       5.163  -1.146   3.607  1.00  0.00     0.274 HD
ATOM     37  H12 UNL     1       4.841  -2.583   3.151  1.00  0.00     0.274 HD
ATOM     38  H11 UNL     1       6.382  -2.306   3.798  1.00  0.00     0.274 HD
ENDBRANCH  34  35
ENDBRANCH  33  34
ENDBRANCH  32  33
ENDBRANCH  31  32
ENDBRANCH   1  31
BRANCH  16  39
HETATM   39  C19 UNL     1      -2.803   2.668   1.548  1.00  0.00     0.043 C 
BRANCH  39  40
HETATM   40  C20 UNL     1      -2.275   3.919   0.964  1.00  0.00     0.102 C 
BRANCH  40  41
HETATM   41  C21 UNL     1      -2.242   3.977  -0.505  1.00  0.00     0.231 C 
HETATM   42  N3  UNL     1      -1.637   5.113  -1.139  1.00  0.00    -0.062 NA
HETATM   43  O3  UNL     1      -2.738   3.043  -1.176  1.00  0.00    -0.277 OA
ENDBRANCH  40  41
ENDBRANCH  39  40
ENDBRANCH  16  39
BRANCH  11  44
HETATM   44  C16 UNL     1      -5.144  -0.170  -0.602  1.00  0.00     0.256 C 
HETATM   45  O1  UNL     1      -5.628   0.811  -0.079  1.00  0.00    -0.305 OA
ENDBRANCH  11  44
TORSDOF 12
