REMARK  13 active torsions:
REMARK  status: ('A' for Active; 'I' for Inactive)
REMARK    1  A    between atoms: C2_2  and  N1_3 
REMARK    2  A    between atoms: C2_2  and  C3_7 
REMARK    3  A    between atoms: C3_7  and  N2_8 
REMARK    4  A    between atoms: N2_8  and  C4_10 
REMARK    5  A    between atoms: C4_10  and  C5_11 
REMARK    6  A    between atoms: C5_11  and  C6_12 
REMARK    7  A    between atoms: C5_11  and  N4_17 
REMARK    8  A    between atoms: C6_12  and  N3_13 
REMARK       I    between atoms: N4_17  and  C7_19 
REMARK       I    between atoms: C7_19  and  N5_21 
REMARK       I    between atoms: N6_24  and  C10_25 
REMARK    9  A    between atoms: C10_25  and  C11_27 
REMARK   10  A    between atoms: C11_27  and  C12_28 
REMARK   11  A    between atoms: C11_27  and  N7_35 
REMARK   12  A    between atoms: C12_28  and  C13_29 
REMARK       I    between atoms: N7_35  and  C19_37 
REMARK   13  A    between atoms: C19_37  and  C20_39 
ROOT
HETATM    1  N4  UNL     1       3.963   0.235  -0.599  1.00  0.00    -0.335 N 
ATOM      2  H4  UNL     1       3.708   1.135  -0.193  1.00  0.00     0.164 HD
HETATM    3  C7  UNL     1       3.010  -0.453  -1.383  1.00  0.00     0.318 C 
HETATM    4  O1  UNL     1       3.365  -1.539  -1.894  1.00  0.00    -0.247 OA
HETATM    5  N5  UNL     1       1.719   0.085  -1.567  1.00  0.00    -0.331 N 
HETATM    6  C8  UNL     1       0.734  -0.523  -2.483  1.00  0.00     0.147 C 
HETATM    7  C9  UNL     1      -0.594   0.217  -2.250  1.00  0.00     0.145 C 
HETATM    8  N6  UNL     1      -0.931   0.176  -0.857  1.00  0.00    -0.347 N 
HETATM    9  C10 UNL     1      -2.177  -0.191  -0.304  1.00  0.00     0.242 C 
HETATM   10  O2  UNL     1      -2.199  -0.337   0.945  1.00  0.00    -0.271 OA
HETATM   11  C24 UNL     1       0.125   0.610   0.078  1.00  0.00     0.145 C 
HETATM   12  C25 UNL     1       1.231   1.218  -0.812  1.00  0.00     0.147 C 
ENDROOT
BRANCH   9  13
HETATM   13  C11 UNL     1      -3.366  -0.392  -1.122  1.00  0.00     0.177 C 
BRANCH  13  14
HETATM   14  C12 UNL     1      -3.825   0.823  -1.822  1.00  0.00     0.039 C 
BRANCH  14  15
HETATM   15  C13 UNL     1      -4.253   2.025  -1.094  1.00  0.00    -0.012 C 
HETATM   16  C14 UNL     1      -4.690   3.027  -2.221  1.00  0.00     0.005 C 
HETATM   17  C15 UNL     1      -5.595   4.047  -1.563  1.00  0.00     0.000 C 
HETATM   18  C16 UNL     1      -5.071   4.432  -0.194  1.00  0.00     0.000 C 
HETATM   19  C17 UNL     1      -3.574   4.219  -0.106  1.00  0.00     0.000 C 
HETATM   20  C18 UNL     1      -3.170   2.776  -0.376  1.00  0.00     0.005 C 
ENDBRANCH  14  15
ENDBRANCH  13  14
BRANCH  13  21
HETATM   21  N7  UNL     1      -4.453  -1.122  -0.508  1.00  0.00    -0.346 N 
HETATM   22  C19 UNL     1      -5.024  -0.866   0.735  1.00  0.00     0.249 C 
HETATM   23  O3  UNL     1      -4.668   0.063   1.498  1.00  0.00    -0.271 OA
ATOM     24  H7  UNL     1      -4.840  -1.902  -1.039  1.00  0.00     0.163 HD
BRANCH  22  25
HETATM   25  C20 UNL     1      -6.132  -1.778   1.160  1.00  0.00     0.277 C 
HETATM   26  C21 UNL     1      -5.728  -3.217   1.255  1.00  0.00     0.044 C 
HETATM   27  C22 UNL     1      -7.033  -3.800   1.835  1.00  0.00     0.030 C 
HETATM   28  C23 UNL     1      -7.651  -2.599   2.560  1.00  0.00     0.233 C 
HETATM   29  N8  UNL     1      -6.635  -1.529   2.483  1.00  0.00    -0.062 N 
ATOM     30  H82 UNL     1      -5.942  -1.514   3.231  1.00  0.00     0.278 HD
ATOM     31  H81 UNL     1      -6.966  -0.582   2.666  1.00  0.00     0.278 HD
ENDBRANCH  22  25
ENDBRANCH  13  21
ENDBRANCH   9  13
BRANCH   1  32
HETATM   32  C5  UNL     1       5.297  -0.296  -0.350  1.00  0.00     0.128 C 
BRANCH  32  33
HETATM   33  C4  UNL     1       5.881   0.350   0.862  1.00  0.00     0.140 C 
BRANCH  33  34
HETATM   34  N2  UNL     1       7.111  -0.250   1.237  1.00  0.00    -0.417 N 
ATOM     35  H2  UNL     1       8.012   0.202   1.082  1.00  0.00     0.153 HD
BRANCH  34  36
HETATM   36  C3  UNL     1       6.990  -1.530   1.845  1.00  0.00     0.146 C 
BRANCH  36  37
HETATM   37  C2  UNL     1       8.246  -2.195   2.276  1.00  0.00     0.196 C 
HETATM   38  C1  UNL     1       8.987  -1.307   3.277  1.00  0.00     0.041 C 
BRANCH  37  39
HETATM   39  N1  UNL     1       9.075  -2.745   1.270  1.00  0.00    -0.074 N 
ATOM     40  H13 UNL     1       9.586  -2.008   0.785  1.00  0.00     0.274 HD
ATOM     41  H12 UNL     1       9.856  -3.251   1.687  1.00  0.00     0.274 HD
ATOM     42  H11 UNL     1       8.581  -3.337   0.602  1.00  0.00     0.274 HD
ENDBRANCH  37  39
ENDBRANCH  36  37
ENDBRANCH  34  36
ENDBRANCH  33  34
ENDBRANCH  32  33
BRANCH  32  43
HETATM   43  C6  UNL     1       6.215  -0.127  -1.560  1.00  0.00     0.256 C 
BRANCH  43  44
HETATM   44  N3  UNL     1       7.492  -0.706  -1.332  1.00  0.00    -0.077 N 
ATOM     45  H33 UNL     1       7.922  -0.338  -0.484  1.00  0.00     0.274 HD
ATOM     46  H32 UNL     1       7.414  -1.685  -1.058  1.00  0.00     0.274 HD
ATOM     47  H31 UNL     1       8.105  -0.593  -2.140  1.00  0.00     0.274 HD
ENDBRANCH  43  44
ENDBRANCH  32  43
ENDBRANCH   1  32
TORSDOF 13
