REMARK  14 active torsions:
REMARK  status: ('A' for Active; 'I' for Inactive)
REMARK    1  A    between atoms: C9_9  and  N1_10 
REMARK       I    between atoms: N1_10  and  C10_12 
REMARK    2  A    between atoms: C10_12  and  C11_14 
REMARK    3  A    between atoms: C11_14  and  C12_15 
REMARK    4  A    between atoms: C11_14  and  N3_23 
REMARK    5  A    between atoms: C12_15  and  C13_16 
REMARK    6  A    between atoms: C13_16  and  C14_17 
REMARK    7  A    between atoms: C14_17  and  C15_18 
REMARK    8  A    between atoms: C15_18  and  N2_19 
REMARK    9  A    between atoms: N3_23  and  S1_25 
REMARK   10  A    between atoms: S1_25  and  N4_28 
REMARK   11  A    between atoms: N4_28  and  C16_30 
REMARK   12  A    between atoms: C16_30  and  C17_31 
REMARK   13  A    between atoms: C16_30  and  C18_38 
REMARK       I    between atoms: C17_31  and  N5_33 
REMARK   14  A    between atoms: N5_33  and  N6_35 
ROOT
HETATM    1  C11 UNL     1       0.220   0.386   0.059  1.00  0.00     0.186 C 
ENDROOT
BRANCH   1   2
HETATM    2  C10 UNL     1      -1.110  -0.311   0.245  1.00  0.00     0.241 C 
HETATM    3  N1  UNL     1      -2.270   0.417  -0.135  1.00  0.00    -0.350 N 
ATOM      4  H1  UNL     1      -2.158   1.359  -0.510  1.00  0.00     0.163 HD
HETATM    5  O1  UNL     1      -1.168  -1.462   0.709  1.00  0.00    -0.271 OA
BRANCH   3   6
HETATM    6  C9  UNL     1      -3.606  -0.129  -0.010  1.00  0.00     0.034 C 
HETATM    7  C8  UNL     1      -4.598   0.907  -0.516  1.00  0.00     0.036 C 
HETATM    8  C7  UNL     1      -6.020   0.464  -0.373  1.00  0.00    -0.008 C 
HETATM    9  C2  UNL     1      -6.184  -0.814  -1.163  1.00  0.00    -0.010 C 
HETATM   10  C6  UNL     1      -6.309   0.208   1.072  1.00  0.00     0.010 C 
HETATM   11  C1  UNL     1      -7.596  -1.318  -1.200  1.00  0.00     0.011 C 
HETATM   12  C3  UNL     1      -5.242  -1.837  -0.601  1.00  0.00    -0.008 C 
HETATM   13  C4  UNL     1      -5.477  -2.107   0.850  1.00  0.00     0.010 C 
HETATM   14  C23 UNL     1      -3.813  -1.381  -0.798  1.00  0.00     0.036 C 
HETATM   15  C5  UNL     1      -5.339  -0.802   1.616  1.00  0.00    -0.012 C 
HETATM   16  C22 UNL     1      -3.899  -0.346   1.454  1.00  0.00     0.035 C 
ENDBRANCH   3   6
ENDBRANCH   1   2
BRANCH   1  17
HETATM   17  C12 UNL     1       0.321   0.628  -1.425  1.00  0.00     0.035 C 
BRANCH  17  18
HETATM   18  C13 UNL     1       1.580   1.327  -1.802  1.00  0.00     0.004 C 
BRANCH  18  19
HETATM   19  C14 UNL     1       1.619   1.542  -3.300  1.00  0.00     0.027 C 
BRANCH  19  20
HETATM   20  C15 UNL     1       0.442   2.390  -3.769  1.00  0.00     0.229 C 
BRANCH  20  21
HETATM   21  N2  UNL     1       0.471   3.683  -3.126  1.00  0.00    -0.079 N 
ATOM     22  H23 UNL     1       0.502   3.602  -2.110  1.00  0.00     0.274 HD
ATOM     23  H22 UNL     1       1.363   4.158  -3.266  1.00  0.00     0.274 HD
ATOM     24  H21 UNL     1      -0.316   4.250  -3.440  1.00  0.00     0.274 HD
ENDBRANCH  20  21
ENDBRANCH  19  20
ENDBRANCH  18  19
ENDBRANCH  17  18
ENDBRANCH   1  17
BRANCH   1  25
HETATM   25  N3  UNL     1       1.221  -0.536   0.510  1.00  0.00    -0.289 N 
ATOM     26  H3  UNL     1       1.383  -1.447   0.082  1.00  0.00     0.174 HD
BRANCH  25  27
HETATM   27  S1  UNL     1       2.121   0.059   1.852  1.00  0.00     0.316 S 
HETATM   28  O2  UNL     1       2.231  -1.060   2.885  1.00  0.00    -0.183 OA
HETATM   29  O3  UNL     1       1.269   1.106   2.512  1.00  0.00    -0.183 OA
BRANCH  27  30
HETATM   30  N4  UNL     1       3.627   0.600   1.358  1.00  0.00    -0.288 N 
ATOM     31  H4  UNL     1       3.730   1.424   0.765  1.00  0.00     0.174 HD
BRANCH  30  32
HETATM   32  C16 UNL     1       4.783  -0.159   1.813  1.00  0.00     0.195 C 
BRANCH  32  33
HETATM   33  C17 UNL     1       5.653   0.684   2.663  1.00  0.00     0.259 C 
HETATM   34  O4  UNL     1       5.380   1.901   2.783  1.00  0.00    -0.269 OA
HETATM   35  N5  UNL     1       6.763   0.169   3.338  1.00  0.00    -0.275 N 
ATOM     36  H5  UNL     1       7.017  -0.817   3.274  1.00  0.00     0.189 HD
BRANCH  35  37
HETATM   37  N6  UNL     1       7.527   1.092   4.125  1.00  0.00    -0.343 N 
ATOM     38  H62 UNL     1       7.260   2.075   4.179  1.00  0.00     0.176 HD
ATOM     39  H61 UNL     1       8.337   0.716   4.618  1.00  0.00     0.176 HD
ENDBRANCH  35  37
ENDBRANCH  32  33
BRANCH  32  40
HETATM   40  C18 UNL     1       5.462  -0.726   0.597  1.00  0.00    -0.021 C 
HETATM   41  C19 UNL     1       4.447  -1.634  -0.101  1.00  0.00     0.017 C 
HETATM   42  C20 UNL     1       5.821   0.346  -0.407  1.00  0.00     0.017 C 
HETATM   43  C21 UNL     1       6.633  -1.621   0.906  1.00  0.00     0.017 C 
ENDBRANCH  32  40
ENDBRANCH  30  32
ENDBRANCH  27  30
ENDBRANCH  25  27
ENDBRANCH   1  25
TORSDOF 14
