REMARK  12 active torsions:
REMARK  status: ('A' for Active; 'I' for Inactive)
REMARK    1  A    between atoms: C5_5  and  C6_6 
REMARK    2  A    between atoms: C6_6  and  N1_7 
REMARK       I    between atoms: N1_7  and  C7_9 
REMARK       I    between atoms: N4_16  and  C10_17 
REMARK    3  A    between atoms: C10_17  and  C11_19 
REMARK    4  A    between atoms: C11_19  and  N5_20 
REMARK       I    between atoms: N5_20  and  C12_21 
REMARK    5  A    between atoms: C12_21  and  C13_23 
REMARK    6  A    between atoms: C13_23  and  C14_24 
REMARK    7  A    between atoms: C14_24  and  C15_25 
REMARK    8  A    between atoms: C15_25  and  C16_26 
REMARK    9  A    between atoms: C16_26  and  C17_27 
REMARK   10  A    between atoms: C17_27  and  C18_28 
REMARK   11  A    between atoms: C18_28  and  C19_29 
REMARK   12  A    between atoms: C19_29  and  C20_30 
REMARK       I    between atoms: N8_36  and  C22_38 
ROOT
HETATM    1  C1  UNL     1      -4.701  -0.918  -2.785  1.00  0.00     0.014 C 
HETATM    2  C2  UNL     1      -4.764  -0.118  -1.880  1.00  0.00    -0.092 C 
HETATM    3  C3  UNL     1      -4.822   0.868  -0.799  1.00  0.00     0.166 C 
HETATM    4  C4  UNL     1      -6.278   1.227  -0.575  1.00  0.00     0.044 C 
HETATM    5  C5  UNL     1      -6.410   2.205   0.562  1.00  0.00     0.008 C 
HETATM    6  C8  UNL     1      -5.872   1.650   1.841  1.00  0.00     0.026 C 
HETATM    7  C9  UNL     1      -5.140   0.338   1.608  1.00  0.00     0.128 C 
HETATM    8  N4  UNL     1      -4.309   0.314   0.448  1.00  0.00    -0.331 N 
HETATM    9  C10 UNL     1      -3.010  -0.224   0.397  1.00  0.00     0.273 C 
HETATM   10  O1  UNL     1      -2.352  -0.215  -0.693  1.00  0.00    -0.266 OA
ENDROOT
BRANCH   5  11
HETATM   11  C6  UNL     1      -7.813   2.683   0.688  1.00  0.00     0.127 C 
BRANCH  11  12
HETATM   12  N1  UNL     1      -8.832   1.736   0.944  1.00  0.00    -0.364 N 
HETATM   13  C7  UNL     1      -9.333   0.732   0.088  1.00  0.00     0.181 C 
HETATM   14  N2  UNL     1      -9.614   1.042  -1.151  1.00  0.00    -0.374 N 
HETATM   15  N3  UNL     1      -9.552  -0.605   0.518  1.00  0.00    -0.064 NA
ATOM     16  H22 UNL     1      -9.457   2.001  -1.460  1.00  0.00     0.158 HD
ATOM     17  H21 UNL     1      -9.976   0.316  -1.770  1.00  0.00     0.158 HD
ATOM     18  H1  UNL     1      -9.261   1.785   1.868  1.00  0.00     0.162 HD
ENDBRANCH  11  12
ENDBRANCH   5  11
BRANCH   9  19
HETATM   19  C11 UNL     1      -2.276  -0.830   1.523  1.00  0.00     0.260 C 
BRANCH  19  20
HETATM   20  N5  UNL     1      -1.166  -1.300   1.492  1.00  0.00    -0.378 NA
HETATM   21  C12 UNL     1       0.032  -1.739   1.197  1.00  0.00     0.291 C 
HETATM   22  O2  UNL     1       0.732  -2.380   2.060  1.00  0.00    -0.257 OA
BRANCH  21  23
HETATM   23  C13 UNL     1       0.670  -1.538  -0.141  1.00  0.00     0.119 C 
BRANCH  23  24
HETATM   24  C14 UNL     1       2.025  -2.132  -0.289  1.00  0.00     0.010 C 
BRANCH  24  25
HETATM   25  C15 UNL     1       3.112  -1.608   0.571  1.00  0.00     0.001 C 
BRANCH  25  26
HETATM   26  C16 UNL     1       4.425  -2.337   0.314  1.00  0.00     0.000 C 
BRANCH  26  27
HETATM   27  C17 UNL     1       4.916  -2.210  -1.091  1.00  0.00     0.000 C 
BRANCH  27  28
HETATM   28  C18 UNL     1       6.175  -2.969  -1.313  1.00  0.00     0.006 C 
BRANCH  28  29
HETATM   29  C19 UNL     1       7.360  -2.597  -0.512  1.00  0.00     0.066 C 
BRANCH  29  30
HETATM   30  C20 UNL     1       7.868  -1.220  -0.702  1.00  0.00     0.069 A 
HETATM   31  N6  UNL     1       7.571  -0.117  -0.051  1.00  0.00    -0.296 N 
HETATM   32  N7  UNL     1       8.112   0.992  -0.349  1.00  0.00    -0.279 N 
ATOM     33  H6  UNL     1       6.892  -0.153   0.709  1.00  0.00     0.187 HD
HETATM   34  C21 UNL     1       9.005   1.020  -1.353  1.00  0.00     0.167 A 
ATOM     35  H7  UNL     1       7.874   1.842   0.162  1.00  0.00     0.189 HD
HETATM   36  N8  UNL     1       9.673   2.051  -1.802  1.00  0.00    -0.310 N 
HETATM   37  S1  UNL     1       9.024  -0.617  -1.844  1.00  0.00    -0.038 SA
HETATM   38  C22 UNL     1       9.533   3.349  -1.254  1.00  0.00     0.187 C 
ATOM     39  H8  UNL     1      10.321   1.914  -2.578  1.00  0.00     0.170 HD
HETATM   40  N9  UNL     1       8.771   4.246  -1.742  1.00  0.00    -0.373 N 
HETATM   41  N10 UNL     1      10.275   3.727  -0.080  1.00  0.00    -0.064 NA
ATOM     42  H92 UNL     1       8.245   3.978  -2.574  1.00  0.00     0.158 HD
ATOM     43  H91 UNL     1       8.670   5.181  -1.347  1.00  0.00     0.158 HD
ENDBRANCH  29  30
ENDBRANCH  28  29
ENDBRANCH  27  28
ENDBRANCH  26  27
ENDBRANCH  25  26
ENDBRANCH  24  25
ENDBRANCH  23  24
ENDBRANCH  21  23
ENDBRANCH  19  20
ENDBRANCH   9  19
TORSDOF 12
