REMARK  8 active torsions:
REMARK  status: ('A' for Active; 'I' for Inactive)
REMARK    1  A    between atoms: C3_3  and  C4_4 
REMARK    2  A    between atoms: C7_7  and  C8_8 
REMARK    3  A    between atoms: C11_11  and  S1_12 
REMARK    4  A    between atoms: S1_12  and  N1_15 
REMARK    5  A    between atoms: C16_20  and  C17_21 
REMARK       I    between atoms: C17_21  and  N2_23 
REMARK    6  A    between atoms: N2_23  and  C18_25 
REMARK    7  A    between atoms: C18_25  and  C19_26 
REMARK    8  A    between atoms: N4_36  and  O4_37 
ROOT
HETATM    1  C4  UNL     1       0.178   5.021  -0.982  1.00  0.00    -0.035 A 
HETATM    2  C5  UNL     1       1.523   5.006  -0.773  1.00  0.00     0.012 A 
HETATM    3  C6  UNL     1       2.142   3.815  -0.486  1.00  0.00     0.014 A 
HETATM    4  C7  UNL     1       1.449   2.588  -0.394  1.00  0.00    -0.010 A 
HETATM    5  C16 UNL     1       0.124   2.635  -0.601  1.00  0.00     0.044 A 
HETATM    6  C27 UNL     1      -0.525   3.862  -0.900  1.00  0.00     0.029 A 
ENDROOT
BRANCH   5   7
HETATM    7  C17 UNL     1      -0.766   1.504  -0.426  1.00  0.00     0.256 C 
HETATM    8  O3  UNL     1      -1.694   1.424  -1.279  1.00  0.00    -0.267 OA
HETATM    9  N2  UNL     1      -0.664   0.568   0.589  1.00  0.00    -0.332 N 
ATOM     10  H2  UNL     1       0.119   0.718   1.226  1.00  0.00     0.168 HD
BRANCH   9  11
HETATM   11  C18 UNL     1      -1.466  -0.569   0.896  1.00  0.00     0.119 C 
BRANCH  11  12
HETATM   12  C19 UNL     1      -1.562  -1.759   0.073  1.00  0.00     0.156 C 
HETATM   13  C20 UNL     1      -0.162  -2.431  -0.053  1.00  0.00     0.071 C 
HETATM   14  N3  UNL     1      -2.313  -2.772   0.845  1.00  0.00    -0.383 N 
HETATM   15  C21 UNL     1      -3.709  -2.573   0.896  1.00  0.00     0.026 C 
ATOM     16  H3  UNL     1      -1.855  -3.558   1.307  1.00  0.00     0.157 HD
HETATM   17  C22 UNL     1      -4.346  -3.978   0.800  1.00  0.00     0.038 C 
HETATM   18  C23 UNL     1      -4.139  -1.948   2.237  1.00  0.00     0.038 C 
HETATM   19  C24 UNL     1      -4.296  -1.771  -0.224  1.00  0.00     0.084 C 
HETATM   20  C25 UNL     1      -3.399  -1.671  -1.362  1.00  0.00     0.014 C 
HETATM   21  C26 UNL     1      -3.941  -1.573  -2.747  1.00  0.00     0.066 C 
HETATM   22  N4  UNL     1      -2.123  -1.665  -1.219  1.00  0.00    -0.235 N 
BRANCH  22  23
HETATM   23  O4  UNL     1      -1.309  -1.612  -2.355  1.00  0.00    -0.285 OA
ATOM     24  H4  UNL     1      -1.687  -1.549  -3.224  1.00  0.00     0.245 HD
ENDBRANCH  22  23
ENDBRANCH  11  12
ENDBRANCH   9  11
ENDBRANCH   5   7
BRANCH   4  25
HETATM   25  C8  UNL     1       2.260   1.395  -0.193  1.00  0.00    -0.025 A 
HETATM   26  C9  UNL     1       3.144   1.240   0.867  1.00  0.00     0.014 A 
HETATM   27  C10 UNL     1       3.973   0.146   0.989  1.00  0.00     0.026 A 
HETATM   28  C11 UNL     1       3.964  -0.863   0.049  1.00  0.00     0.079 A 
HETATM   29  C14 UNL     1       3.094  -0.734  -1.014  1.00  0.00     0.026 A 
HETATM   30  C15 UNL     1       2.261   0.379  -1.122  1.00  0.00     0.014 A 
BRANCH  28  31
HETATM   31  S1  UNL     1       5.023  -2.272   0.177  1.00  0.00     0.260 S 
HETATM   32  O1  UNL     1       5.372  -2.708  -1.213  1.00  0.00    -0.200 OA
HETATM   33  O2  UNL     1       6.308  -1.901   0.864  1.00  0.00    -0.200 OA
BRANCH  31  34
HETATM   34  N1  UNL     1       4.309  -3.547   1.003  1.00  0.00    -0.315 N 
HETATM   35  C12 UNL     1       3.927  -3.372   2.342  1.00  0.00     0.162 C 
HETATM   36  C13 UNL     1       4.349  -4.834   0.442  1.00  0.00     0.162 C 
ENDBRANCH  31  34
ENDBRANCH  28  31
ENDBRANCH   4  25
BRANCH   1  37
HETATM   37  C3  UNL     1      -0.551   6.259  -1.292  1.00  0.00     0.007 C 
HETATM   38  C2  UNL     1       0.071   7.403  -1.379  1.00  0.00    -0.030 C 
HETATM   39  C1  UNL     1      -0.747   8.632  -1.701  1.00  0.00     0.036 C 
ENDBRANCH   1  37
TORSDOF 8
