REMARK  11 active torsions:
REMARK  status: ('A' for Active; 'I' for Inactive)
REMARK    1  A    between atoms: C2_2  and  N1_3 
REMARK    2  A    between atoms: N1_3  and  C3_4 
REMARK    3  A    between atoms: N1_3  and  C12_19 
REMARK    4  A    between atoms: C3_4  and  C4_5 
REMARK    5  A    between atoms: C6_7  and  S1_8 
REMARK    6  A    between atoms: S1_8  and  N2_9 
REMARK    7  A    between atoms: C12_19  and  O3_20 
REMARK    8  A    between atoms: C12_19  and  C13_22 
REMARK    9  A    between atoms: C13_22  and  N3_23 
REMARK   10  A    between atoms: C13_22  and  C24_36 
REMARK       I    between atoms: N3_23  and  C14_25 
REMARK   11  A    between atoms: C14_25  and  C15_27 
ROOT
HETATM    1  C12 UNL     1      -0.262  -1.121   0.232  1.00  0.00     0.141 C 
ENDROOT
BRANCH   1   2
HETATM    2  N1  UNL     1       0.583  -1.036   1.338  1.00  0.00    -0.339 N 
BRANCH   2   3
HETATM    3  C2  UNL     1       0.486  -2.121   2.329  1.00  0.00     0.126 C 
HETATM    4  C1  UNL     1       1.332  -3.311   2.042  1.00  0.00     0.027 C 
ENDBRANCH   2   3
BRANCH   2   5
HETATM    5  C3  UNL     1       1.458   0.021   1.622  1.00  0.00     0.104 C 
BRANCH   5   6
HETATM    6  C4  UNL     1       2.846   0.073   1.262  1.00  0.00    -0.013 A 
HETATM    7  C5  UNL     1       3.618  -0.865   0.658  1.00  0.00     0.039 A 
HETATM    8  C6  UNL     1       4.979  -0.709   0.387  1.00  0.00     0.086 A 
HETATM    9  C7  UNL     1       5.610   0.443   0.734  1.00  0.00    -0.038 A 
HETATM   10  C8  UNL     1       7.061   0.631   0.440  1.00  0.00     0.050 C 
HETATM   11  C9  UNL     1       4.853   1.444   1.363  1.00  0.00     0.015 A 
HETATM   12  C10 UNL     1       3.517   1.269   1.621  1.00  0.00    -0.050 A 
HETATM   13  C11 UNL     1       2.788   2.343   2.284  1.00  0.00     0.049 C 
BRANCH   8  14
HETATM   14  S1  UNL     1       5.869  -1.986  -0.416  1.00  0.00     0.257 S 
HETATM   15  O1  UNL     1       7.076  -2.419   0.326  1.00  0.00    -0.201 OA
HETATM   16  O2  UNL     1       6.276  -1.498  -1.783  1.00  0.00    -0.201 OA
BRANCH  14  17
HETATM   17  N2  UNL     1       4.850  -3.375  -0.662  1.00  0.00    -0.324 N 
ATOM     18  H22 UNL     1       3.873  -3.423  -0.373  1.00  0.00     0.169 HD
ATOM     19  H21 UNL     1       5.368  -4.119  -1.130  1.00  0.00     0.169 HD
ENDBRANCH  14  17
ENDBRANCH   8  14
ENDBRANCH   5   6
ENDBRANCH   2   5
ENDBRANCH   1   2
BRANCH   1  20
HETATM   20  O3  UNL     1      -0.989  -2.206   0.195  1.00  0.00    -0.348 OA
ATOM     21  H3  UNL     1      -1.565  -2.264  -0.558  1.00  0.00     0.219 HD
ENDBRANCH   1  20
BRANCH   1  22
HETATM   22  C13 UNL     1      -0.470  -0.146  -0.890  1.00  0.00     0.167 C 
BRANCH  22  23
HETATM   23  N3  UNL     1      -1.950   0.063  -0.980  1.00  0.00    -0.344 N 
HETATM   24  C14 UNL     1      -2.582   0.982  -0.123  1.00  0.00     0.253 C 
HETATM   25  O4  UNL     1      -1.874   1.646   0.740  1.00  0.00    -0.268 OA
ATOM     26  H3  UNL     1      -2.499  -0.460  -1.662  1.00  0.00     0.163 HD
BRANCH  24  27
HETATM   27  C15 UNL     1      -3.985   1.290  -0.070  1.00  0.00     0.043 A 
HETATM   28  C16 UNL     1      -4.704   1.530  -1.206  1.00  0.00    -0.045 A 
HETATM   29  C17 UNL     1      -4.108   1.662  -2.576  1.00  0.00     0.049 C 
HETATM   30  C18 UNL     1      -6.083   1.746  -1.178  1.00  0.00     0.014 A 
HETATM   31  C19 UNL     1      -6.766   1.723   0.010  1.00  0.00    -0.061 A 
HETATM   32  C20 UNL     1      -8.244   1.965   0.065  1.00  0.00     0.048 C 
HETATM   33  C21 UNL     1      -6.030   1.480   1.162  1.00  0.00     0.014 A 
HETATM   34  C22 UNL     1      -4.676   1.266   1.146  1.00  0.00    -0.045 A 
HETATM   35  C23 UNL     1      -4.007   0.994   2.447  1.00  0.00     0.049 C 
ENDBRANCH  24  27
ENDBRANCH  22  23
BRANCH  22  36
HETATM   36  C24 UNL     1       0.056  -0.523  -2.203  1.00  0.00    -0.023 C 
HETATM   37  C25 UNL     1      -0.497  -1.827  -2.745  1.00  0.00     0.017 C 
HETATM   38  C26 UNL     1       1.534  -0.594  -2.317  1.00  0.00     0.017 C 
HETATM   39  C27 UNL     1      -0.383   0.565  -3.203  1.00  0.00     0.017 C 
ENDBRANCH  22  36
ENDBRANCH   1  22
TORSDOF 11
