REMARK  9 active torsions:
REMARK  status: ('A' for Active; 'I' for Inactive)
REMARK    1  A    between atoms: C5_5  and  N1_6 
REMARK       I    between atoms: N1_6  and  C6_7 
REMARK       I    between atoms: N1_6  and  C13_21 
REMARK    2  A    between atoms: C6_7  and  C7_9 
REMARK    3  A    between atoms: C7_9  and  C8_10 
REMARK    4  A    between atoms: C8_10  and  C9_11 
REMARK       I    between atoms: C9_11  and  N2_13 
REMARK    5  A    between atoms: N2_13  and  C10_15 
REMARK    6  A    between atoms: C13_21  and  C14_23 
REMARK       I    between atoms: C14_23  and  N4_25 
REMARK    7  A    between atoms: N4_25  and  C15_27 
REMARK    8  A    between atoms: C15_27  and  C16_28 
REMARK    9  A    between atoms: C19_31  and  C20_32 
ROOT
HETATM    1  N1  UNL     1       1.726  -0.757   0.609  1.00  0.00    -0.244 N 
HETATM    2  C6  UNL     1       2.782  -0.007   1.284  1.00  0.00     0.232 C 
HETATM    3  O1  UNL     1       2.460   0.611   2.312  1.00  0.00    -0.273 OA
HETATM    4  C13 UNL     1       0.469  -0.781   1.194  1.00  0.00     0.323 C 
HETATM    5  O3  UNL     1       0.268  -0.171   2.273  1.00  0.00    -0.261 OA
ENDROOT
BRANCH   1   6
HETATM    6  C5  UNL     1       2.080  -1.445  -0.597  1.00  0.00     0.045 A 
HETATM    7  C4  UNL     1       2.163  -0.874  -1.830  1.00  0.00     0.031 A 
HETATM    8  C3  UNL     1       2.542  -1.584  -2.957  1.00  0.00     0.009 A 
HETATM    9  C2  UNL     1       2.857  -2.919  -2.888  1.00  0.00    -0.062 A 
HETATM   10  C1  UNL     1       3.236  -3.690  -4.115  1.00  0.00     0.048 C 
HETATM   11  C27 UNL     1       2.777  -3.505  -1.642  1.00  0.00     0.009 A 
HETATM   12  C26 UNL     1       2.397  -2.791  -0.513  1.00  0.00     0.031 A 
ENDBRANCH   1   6
BRANCH   2  13
HETATM   13  C7  UNL     1       4.163   0.036   0.805  1.00  0.00     0.113 C 
BRANCH  13  14
HETATM   14  C8  UNL     1       4.898   1.274   1.214  1.00  0.00     0.112 C 
BRANCH  14  15
HETATM   15  C9  UNL     1       6.332   1.197   0.751  1.00  0.00     0.224 C 
HETATM   16  O2  UNL     1       6.577   0.285  -0.077  1.00  0.00    -0.273 OA
HETATM   17  N2  UNL     1       7.230   2.127   1.283  1.00  0.00    -0.307 N 
ATOM     18  H2  UNL     1       7.162   2.433   2.254  1.00  0.00     0.171 HD
BRANCH  17  19
HETATM   19  C10 UNL     1       8.179   2.599   0.473  1.00  0.00     0.150 A 
HETATM   20  N3  UNL     1       8.458   2.375  -0.773  1.00  0.00    -0.346 N 
HETATM   21  C11 UNL     1       9.526   2.931  -1.318  1.00  0.00     0.097 A 
ATOM     22  H3  UNL     1       7.855   1.771  -1.331  1.00  0.00     0.167 HD
HETATM   23  C12 UNL     1      10.289   3.730  -0.522  1.00  0.00     0.070 A 
HETATM   24  S1  UNL     1       9.468   3.663   0.969  1.00  0.00    -0.064 SA
ENDBRANCH  17  19
ENDBRANCH  14  15
ENDBRANCH  13  14
ENDBRANCH   2  13
BRANCH   4  25
HETATM   25  C14 UNL     1      -0.691  -1.488   0.651  1.00  0.00     0.310 C 
HETATM   26  O4  UNL     1      -0.749  -1.977  -0.499  1.00  0.00    -0.262 OA
HETATM   27  N4  UNL     1      -1.858  -1.654   1.470  1.00  0.00    -0.349 N 
ATOM     28  H4  UNL     1      -1.821  -1.282   2.419  1.00  0.00     0.163 HD
BRANCH  27  29
HETATM   29  C15 UNL     1      -3.057  -2.292   1.069  1.00  0.00     0.161 C 
BRANCH  29  30
HETATM   30  C16 UNL     1      -4.132  -1.300   0.841  1.00  0.00    -0.041 A 
HETATM   31  C17 UNL     1      -5.026  -1.392  -0.176  1.00  0.00     0.009 A 
HETATM   32  C18 UNL     1      -6.098  -0.475  -0.276  1.00  0.00     0.008 A 
HETATM   33  C19 UNL     1      -6.273   0.533   0.644  1.00  0.00    -0.051 A 
HETATM   34  C24 UNL     1      -5.360   0.611   1.656  1.00  0.00     0.008 A 
HETATM   35  C25 UNL     1      -4.306  -0.262   1.785  1.00  0.00     0.009 A 
BRANCH  33  36
HETATM   36  C20 UNL     1      -7.386   1.511   0.651  1.00  0.00    -0.024 C 
HETATM   37  C21 UNL     1      -8.311   1.402  -0.528  1.00  0.00     0.019 C 
HETATM   38  C22 UNL     1      -6.816   2.878   0.751  1.00  0.00     0.019 C 
HETATM   39  C23 UNL     1      -8.201   1.283   1.938  1.00  0.00     0.019 C 
ENDBRANCH  33  36
ENDBRANCH  29  30
ENDBRANCH  27  29
ENDBRANCH   4  25
TORSDOF 9
