REMARK  8 active torsions:
REMARK  status: ('A' for Active; 'I' for Inactive)
REMARK    1  A    between atoms: C3_3  and  C4_4 
REMARK    2  A    between atoms: C4_4  and  C5_5 
REMARK    3  A    between atoms: C5_5  and  C6_6 
REMARK    4  A    between atoms: C6_6  and  N1_7 
REMARK    5  A    between atoms: C6_6  and  C20_25 
REMARK       I    between atoms: N1_7  and  C7_9 
REMARK       I    between atoms: C7_9  and  N2_11 
REMARK    6  A    between atoms: C15_19  and  C16_20 
REMARK       I    between atoms: C20_25  and  N3_27 
REMARK    7  A    between atoms: N3_27  and  C21_29 
REMARK    8  A    between atoms: N4_34  and  O4_35 
ROOT
HETATM    1  C1  UNL     1      -3.589   3.615   4.553  1.00  0.00     0.012 C 
HETATM    2  C2  UNL     1      -2.522   3.394   4.026  1.00  0.00    -0.117 C 
HETATM    3  C3  UNL     1      -1.245   3.136   3.392  1.00  0.00     0.093 C 
ENDROOT
BRANCH   3   4
HETATM    4  C4  UNL     1      -1.451   1.953   2.428  1.00  0.00     0.014 C 
BRANCH   4   5
HETATM    5  C5  UNL     1      -0.134   1.709   1.791  1.00  0.00     0.036 C 
BRANCH   5   6
HETATM    6  C6  UNL     1      -0.038   0.569   0.829  1.00  0.00     0.178 C 
BRANCH   6   7
HETATM    7  N1  UNL     1       1.369   0.596   0.363  1.00  0.00    -0.329 N 
HETATM    8  C7  UNL     1       2.262  -0.466   0.632  1.00  0.00     0.323 C 
HETATM    9  O1  UNL     1       1.863  -1.459   1.276  1.00  0.00    -0.247 OA
HETATM   10  N2  UNL     1       3.601  -0.407   0.174  1.00  0.00    -0.298 N 
HETATM   11  C8  UNL     1       4.226   0.688  -0.588  1.00  0.00     0.147 C 
HETATM   12  C19 UNL     1       4.587  -1.417   0.381  1.00  0.00     0.046 A 
HETATM   13  C9  UNL     1       5.620   0.661   0.034  1.00  0.00    -0.002 C 
HETATM   14  C10 UNL     1       5.570   1.438   1.311  1.00  0.00     0.021 C 
HETATM   15  C11 UNL     1       6.657   1.169  -0.934  1.00  0.00     0.021 C 
HETATM   16  C12 UNL     1       5.816  -0.794   0.306  1.00  0.00    -0.021 A 
HETATM   17  C13 UNL     1       6.944  -1.573   0.479  1.00  0.00     0.011 A 
HETATM   18  C14 UNL     1       6.849  -2.926   0.718  1.00  0.00     0.016 A 
HETATM   19  C15 UNL     1       5.616  -3.577   0.798  1.00  0.00     0.011 A 
HETATM   20  C18 UNL     1       4.497  -2.791   0.624  1.00  0.00     0.045 A 
ATOM     21  H1  UNL     1       1.701   1.402  -0.166  1.00  0.00     0.165 HD
BRANCH  19  22
HETATM   22  C16 UNL     1       5.527  -5.000   1.048  1.00  0.00     0.155 C 
HETATM   23  C17 UNL     1       6.755  -5.793   1.224  1.00  0.00     0.096 C 
HETATM   24  O2  UNL     1       4.413  -5.549   1.113  1.00  0.00    -0.293 OA
ENDBRANCH  19  22
ENDBRANCH   6   7
BRANCH   6  25
HETATM   25  C20 UNL     1      -0.940   0.616  -0.320  1.00  0.00     0.240 C 
HETATM   26  O3  UNL     1      -0.465   0.817  -1.467  1.00  0.00    -0.271 OA
HETATM   27  N3  UNL     1      -2.334   0.439  -0.192  1.00  0.00    -0.355 N 
ATOM     28  H3  UNL     1      -2.737   0.269   0.729  1.00  0.00     0.162 HD
BRANCH  27  29
HETATM   29  C21 UNL     1      -3.214   0.497  -1.371  1.00  0.00     0.089 C 
HETATM   30  C22 UNL     1      -3.893  -0.852  -1.456  1.00  0.00     0.057 C 
HETATM   31  C23 UNL     1      -5.068  -0.899  -2.370  1.00  0.00     0.049 C 
HETATM   32  C24 UNL     1      -6.112  -1.921  -1.898  1.00  0.00     0.040 C 
HETATM   33  C25 UNL     1      -4.569  -1.458  -3.713  1.00  0.00     0.040 C 
HETATM   34  N4  UNL     1      -5.678   0.351  -2.648  1.00  0.00    -0.278 N 
HETATM   35  C26 UNL     1      -5.538   1.372  -1.683  1.00  0.00     0.049 C 
HETATM   36  C27 UNL     1      -6.091   2.666  -2.297  1.00  0.00     0.040 C 
HETATM   37  C28 UNL     1      -6.398   1.128  -0.435  1.00  0.00     0.040 C 
HETATM   38  C29 UNL     1      -4.153   1.643  -1.205  1.00  0.00     0.057 C 
BRANCH  34  39
HETATM   39  O4  UNL     1      -5.636   0.741  -3.935  1.00  0.00    -0.291 OA
ATOM     40  H4  UNL     1      -6.045   1.578  -4.121  1.00  0.00     0.244 HD
ENDBRANCH  34  39
ENDBRANCH  27  29
ENDBRANCH   6  25
ENDBRANCH   5   6
ENDBRANCH   4   5
ENDBRANCH   3   4
TORSDOF 8
