REMARK  4 active torsions:
REMARK  status: ('A' for Active; 'I' for Inactive)
REMARK    1  A    between atoms: C5_6  and  C6_7 
REMARK    2  A    between atoms: C8_9  and  C9_10 
REMARK    3  A    between atoms: C9_10  and  O1_11 
REMARK    4  A    between atoms: C9_10  and  O2_13 
ROOT
HETATM    1  N1  UNL     1       6.411   0.630   0.269  1.00  0.00    -0.191 NA
HETATM    2  C1  UNL     1       5.282   0.426   0.143  1.00  0.00     0.099 C 
HETATM    3  C2  UNL     1       3.877   0.180   0.009  1.00  0.00     0.044 A 
HETATM    4  C3  UNL     1       3.425  -0.919  -0.731  1.00  0.00     0.023 A 
HETATM    5  C4  UNL     1       2.080  -1.151  -0.857  1.00  0.00     0.014 A 
HETATM    6  C5  UNL     1       1.153  -0.329  -0.273  1.00  0.00    -0.019 A 
HETATM    7  C11 UNL     1       1.557   0.762   0.462  1.00  0.00     0.014 A 
HETATM    8  C12 UNL     1       2.927   0.997   0.590  1.00  0.00     0.023 A 
ENDROOT
BRANCH   6   9
HETATM    9  C6  UNL     1      -0.294  -0.612  -0.431  1.00  0.00     0.015 A 
HETATM   10  C7  UNL     1      -1.346   0.099   0.080  1.00  0.00     0.032 A 
HETATM   11  C8  UNL     1      -2.581  -0.343  -0.192  1.00  0.00     0.004 A 
HETATM   12  C10 UNL     1      -2.688  -1.472  -0.960  1.00  0.00     0.062 A 
HETATM   13  S1  UNL     1      -1.066  -1.876  -1.275  1.00  0.00    -0.101 SA
BRANCH  11  14
HETATM   14  C9  UNL     1      -3.832   0.359   0.319  1.00  0.00     0.289 C 
BRANCH  14  15
HETATM   15  O1  UNL     1      -3.638   0.694   1.677  1.00  0.00    -0.367 OA
ATOM     16  H1  UNL     1      -4.418   1.132   1.996  1.00  0.00     0.213 HD
ENDBRANCH  14  15
BRANCH  14  17
HETATM   17  O2  UNL     1      -4.094   1.499  -0.415  1.00  0.00    -0.367 OA
ATOM     18  H2  UNL     1      -4.874   1.937  -0.096  1.00  0.00     0.213 HD
ENDBRANCH  14  17
ENDBRANCH  11  14
ENDBRANCH   6   9
TORSDOF 4
