REMARK  3 active torsions:
REMARK  status: ('A' for Active; 'I' for Inactive)
REMARK    1  A    between atoms: O1_2  and  C2_3 
REMARK    2  A    between atoms: C7_8  and  N1_9 
REMARK    3  A    between atoms: C8_10  and  N2_11 
ROOT
HETATM    1  N1  UNL     1       1.308  -0.149  -0.140  1.00  0.00    -0.117 N 
HETATM    2  C8  UNL     1       1.979  -0.730   0.865  1.00  0.00     0.700 A 
HETATM    3  N3  UNL     1       3.031  -1.365   0.327  1.00  0.00    -0.130 N 
ATOM      4  H3  UNL     1       3.722  -1.898   0.855  1.00  0.00     0.205 HD
HETATM    5  N4  UNL     1       3.044  -1.202  -0.984  1.00  0.00    -0.261 N 
ATOM      6  H4  UNL     1       3.727  -1.573  -1.644  1.00  0.00     0.190 HD
HETATM    7  C9  UNL     1       1.969  -0.445  -1.267  1.00  0.00     0.213 A 
HETATM    8  S1  UNL     1       1.590   0.010  -2.809  1.00  0.00    -0.038 SA
ENDROOT
BRANCH   1   9
HETATM    9  C7  UNL     1       0.130   0.628  -0.054  1.00  0.00     0.093 A 
HETATM   10  C2  UNL     1      -1.137   0.082  -0.066  1.00  0.00     0.096 A 
HETATM   11  C3  UNL     1      -2.261   0.911   0.024  1.00  0.00     0.039 A 
HETATM   12  C4  UNL     1      -2.099   2.284   0.124  1.00  0.00     0.003 A 
HETATM   13  C5  UNL     1      -0.836   2.838   0.137  1.00  0.00     0.002 A 
HETATM   14  C6  UNL     1       0.276   2.008   0.048  1.00  0.00     0.034 A 
BRANCH  10  15
HETATM   15  O1  UNL     1      -1.300  -1.278  -0.165  1.00  0.00    -0.354 OA
HETATM   16  C1  UNL     1      -2.592  -1.853  -0.179  1.00  0.00     0.210 C 
ENDBRANCH  10  15
ENDBRANCH   1   9
BRANCH   2  17
HETATM   17  N2  UNL     1       1.688  -0.702   2.143  1.00  0.00    -0.233 N 
ATOM     18  H22 UNL     1       0.888  -0.219   2.552  1.00  0.00     0.174 HD
ATOM     19  H21 UNL     1       2.198  -1.144   2.908  1.00  0.00     0.174 HD
ENDBRANCH   2  17
TORSDOF 3
