REMARK  2 active torsions:
REMARK  status: ('A' for Active; 'I' for Inactive)
REMARK    1  A    between atoms: N1_2  and  C2_4 
REMARK    2  A    between atoms: C7_9  and  C8_10 
ROOT
HETATM    1  C8  UNL     1      -3.827   0.023  -0.764  1.00  0.00     0.156 C 
HETATM    2  C9  UNL     1      -4.327   0.896   0.289  1.00  0.00     0.061 C 
HETATM    3  N2  UNL     1      -4.705   1.594   1.109  1.00  0.00    -0.197 NA
ENDROOT
BRANCH   1   4
HETATM    4  C7  UNL     1      -2.385  -0.244  -0.681  1.00  0.00     0.199 C 
HETATM    5  C6  UNL     1      -1.951  -0.919   0.629  1.00  0.00     0.040 C 
HETATM    6  C5  UNL     1      -0.460  -0.924   0.245  1.00  0.00     0.018 C 
HETATM    7  C4  UNL     1       0.468  -1.329   1.303  1.00  0.00     0.009 C 
HETATM    8  C10 UNL     1      -0.342   0.581  -0.046  1.00  0.00     0.192 C 
HETATM    9  C3  UNL     1       1.794  -0.594   1.047  1.00  0.00     0.025 C 
HETATM   10  C2  UNL     1       1.897  -0.238  -0.435  1.00  0.00     0.078 C 
HETATM   11  C11 UNL     1       0.935   0.895  -0.746  1.00  0.00     0.058 C 
HETATM   12  N3  UNL     1      -1.535   0.925  -0.748  1.00  0.00    -0.065 N 
ATOM     13  H32 UNL     1      -1.368   1.254  -1.699  1.00  0.00     0.278 HD
ATOM     14  H31 UNL     1      -1.981   1.774  -0.401  1.00  0.00     0.278 HD
BRANCH  10  15
HETATM   15  N1  UNL     1       3.225   0.002  -0.881  1.00  0.00    -0.421 N 
HETATM   16  C1  UNL     1       3.893   1.107  -0.274  1.00  0.00     0.140 C 
ATOM     17  H1  UNL     1       3.672  -0.579  -1.590  1.00  0.00     0.153 HD
ENDBRANCH  10  15
ENDBRANCH   1   4
TORSDOF 2
