REMARK  4 active torsions:
REMARK  status: ('A' for Active; 'I' for Inactive)
REMARK    1  A    between atoms: C6_8  and  S1_9 
REMARK    2  A    between atoms: S1_9  and  C7_10 
REMARK    3  A    between atoms: C7_10  and  C8_11 
REMARK    4  A    between atoms: C8_11  and  N2_12 
ROOT
HETATM    1  C1  UNL     1      -2.894   1.016   0.624  1.00  0.00     0.038 C 
HETATM    2  C2  UNL     1      -2.126  -0.291   0.374  1.00  0.00     0.026 C 
HETATM    3  C3  UNL     1      -3.000  -1.447   0.889  1.00  0.00     0.038 C 
HETATM    4  C4  UNL     1      -1.984  -0.443  -1.103  1.00  0.00     0.050 C 
HETATM    5  C5  UNL     1      -0.601  -0.666  -1.611  1.00  0.00     0.124 C 
HETATM    6  N1  UNL     1       0.413  -0.069  -0.771  1.00  0.00    -0.371 N 
ATOM      7  H1  UNL     1       1.286   0.221  -1.212  1.00  0.00     0.161 HD
HETATM    8  C6  UNL     1       0.289   0.121   0.493  1.00  0.00     0.136 C 
HETATM    9  N3  UNL     1      -0.914  -0.273   1.127  1.00  0.00    -0.362 N 
ATOM     10  H3  UNL     1      -0.914  -0.541   2.111  1.00  0.00     0.162 HD
ENDROOT
BRANCH   8  11
HETATM   11  S1  UNL     1       1.627   0.873   1.417  1.00  0.00    -0.093 SA
BRANCH  11  12
HETATM   12  C7  UNL     1       3.034   1.218   0.316  1.00  0.00     0.109 C 
BRANCH  12  13
HETATM   13  C8  UNL     1       3.664  -0.053  -0.194  1.00  0.00     0.240 C 
BRANCH  13  14
HETATM   14  N2  UNL     1       4.767   0.323  -1.058  1.00  0.00    -0.079 N 
ATOM     15  H23 UNL     1       4.487   0.957  -1.807  1.00  0.00     0.274 HD
ATOM     16  H22 UNL     1       5.436   0.943  -0.602  1.00  0.00     0.274 HD
ATOM     17  H21 UNL     1       5.193  -0.537  -1.403  1.00  0.00     0.274 HD
ENDBRANCH  13  14
ENDBRANCH  12  13
ENDBRANCH  11  12
ENDBRANCH   8  11
TORSDOF 4
