REMARK  4 active torsions:
REMARK  status: ('A' for Active; 'I' for Inactive)
REMARK    1  A    between atoms: C8_8  and  C9_9 
REMARK    2  A    between atoms: C8_8  and  C10_12 
REMARK    3  A    between atoms: C9_9  and  O1_10 
REMARK    4  A    between atoms: C10_12  and  O2_13 
ROOT
HETATM    1  C1  UNL     1      -1.402   1.441  -0.919  1.00  0.00     0.045 C 
HETATM    2  C2  UNL     1      -1.293   0.554   0.274  1.00  0.00     0.055 C 
HETATM    3  C3  UNL     1      -2.228   1.224   1.314  1.00  0.00     0.045 C 
HETATM    4  C4  UNL     1      -2.012  -0.750  -0.031  1.00  0.00     0.037 C 
HETATM    5  C5  UNL     1      -1.332  -1.554  -1.090  1.00  0.00     0.003 C 
HETATM    6  C6  UNL     1       0.000  -2.015  -0.532  1.00  0.00     0.003 C 
HETATM    7  C7  UNL     1       0.989  -0.923  -0.774  1.00  0.00     0.042 C 
HETATM    8  C8  UNL     1       1.012   0.083   0.317  1.00  0.00     0.104 C 
HETATM    9  O3  UNL     1      -0.126   0.452   0.889  1.00  0.00    -0.366 OA
ENDROOT
BRANCH   8  10
HETATM   10  C9  UNL     1       1.850  -0.558   1.446  1.00  0.00     0.204 C 
BRANCH  10  11
HETATM   11  O1  UNL     1       3.075  -0.988   0.969  1.00  0.00    -0.398 OA
ATOM     12  H1  UNL     1       3.590  -1.382   1.663  1.00  0.00     0.209 HD
ENDBRANCH  10  11
ENDBRANCH   8  10
BRANCH   8  13
HETATM   13  C10 UNL     1       1.808   1.316  -0.094  1.00  0.00     0.204 C 
BRANCH  13  14
HETATM   14  O2  UNL     1       3.016   0.939  -0.700  1.00  0.00    -0.398 OA
ATOM     15  H2  UNL     1       3.512   1.708  -0.956  1.00  0.00     0.209 HD
ENDBRANCH  13  14
ENDBRANCH   8  13
TORSDOF 4
