REMARK  5 active torsions:
REMARK  status: ('A' for Active; 'I' for Inactive)
REMARK    1  A    between atoms: C3_8  and  N3_9 
REMARK    2  A    between atoms: N3_9  and  C4_11 
REMARK    3  A    between atoms: C4_11  and  N4_13 
REMARK    4  A    between atoms: N4_13  and  C5_15 
REMARK    5  A    between atoms: C5_15  and  C6_16 
ROOT
HETATM    1  N3  UNL     1       1.717   0.161  -0.182  1.00  0.00    -0.316 N 
ATOM      2  H3  UNL     1       1.833   1.170  -0.273  1.00  0.00     0.170 HD
ENDROOT
BRANCH   1   3
HETATM    3  C3  UNL     1       2.780  -0.558  -0.160  1.00  0.00     0.154 A 
HETATM    4  C2  UNL     1       4.074  -0.038  -0.253  1.00  0.00     0.076 A 
HETATM    5  C1  UNL     1       4.370   1.420  -0.386  1.00  0.00     0.074 C 
HETATM    6  N1  UNL     1       4.931  -1.070  -0.197  1.00  0.00    -0.242 N 
HETATM    7  O1  UNL     1       4.239  -2.170  -0.076  1.00  0.00    -0.155 OA
ATOM      8  H1  UNL     1       5.948  -1.005  -0.241  1.00  0.00     0.196 HD
HETATM    9  N2  UNL     1       2.964  -1.883  -0.053  1.00  0.00    -0.224 N 
ATOM     10  H2  UNL     1       2.215  -2.569   0.034  1.00  0.00     0.198 HD
ENDBRANCH   1   3
BRANCH   1  11
HETATM   11  C4  UNL     1       0.391  -0.341  -0.089  1.00  0.00     0.173 C 
HETATM   12  S1  UNL     1       0.021  -1.555  -1.131  1.00  0.00    -0.041 SA
BRANCH  11  13
HETATM   13  N4  UNL     1      -0.543   0.176   0.848  1.00  0.00    -0.367 N 
ATOM     14  H4  UNL     1      -0.245   0.927   1.471  1.00  0.00     0.161 HD
BRANCH  13  15
HETATM   15  C5  UNL     1      -1.883  -0.311   0.956  1.00  0.00     0.126 C 
BRANCH  15  16
HETATM   16  C6  UNL     1      -2.772   0.000  -0.208  1.00  0.00    -0.005 C 
HETATM   17  C7  UNL     1      -4.139  -0.595   0.097  1.00  0.00     0.011 C 
HETATM   18  C8  UNL     1      -2.856   1.501  -0.420  1.00  0.00     0.011 C 
ENDBRANCH  15  16
ENDBRANCH  13  15
ENDBRANCH  11  13
ENDBRANCH   1  11
TORSDOF 5
