REMARK  5 active torsions:
REMARK  status: ('A' for Active; 'I' for Inactive)
REMARK    1  A    between atoms: C2_2  and  C3_3 
REMARK    2  A    between atoms: C3_3  and  N1_4 
REMARK    3  A    between atoms: N2_9  and  C8_10 
REMARK    4  A    between atoms: C9_11  and  C10_12 
REMARK    5  A    between atoms: C10_12  and  O1_14 
ROOT
HETATM    1  N1  UNL     1      -1.659   0.269  -0.289  1.00  0.00    -0.215 N 
HETATM    2  C4  UNL     1      -1.384  -0.993   0.362  1.00  0.00     0.173 C 
HETATM    3  C5  UNL     1       0.016  -1.266  -0.242  1.00  0.00     0.072 C 
HETATM    4  C6  UNL     1       0.702  -2.403   0.445  1.00  0.00     0.041 C 
HETATM    5  C7  UNL     1      -0.201  -1.493  -1.710  1.00  0.00     0.041 C 
HETATM    6  N2  UNL     1       0.641   0.028   0.022  1.00  0.00    -0.130 N 
HETATM    7  C12 UNL     1      -0.394   0.979  -0.169  1.00  0.00     0.684 C 
HETATM    8  N3  UNL     1      -0.285   2.261  -0.230  1.00  0.00    -0.234 N 
ATOM      9  H31 UNL     1       0.601   2.759  -0.146  1.00  0.00     0.174 HD
ATOM     10  H32 UNL     1      -1.029   2.945  -0.367  1.00  0.00     0.174 HD
ENDROOT
BRANCH   6  11
HETATM   11  C8  UNL     1       1.963   0.306   0.392  1.00  0.00     0.032 C 
HETATM   12  C9  UNL     1       3.101   0.526   0.726  1.00  0.00    -0.051 C 
BRANCH  12  13
HETATM   13  C10 UNL     1       4.495   0.778   1.148  1.00  0.00     0.194 C 
HETATM   14  C11 UNL     1       5.246   1.405  -0.001  1.00  0.00     0.053 C 
BRANCH  13  15
HETATM   15  O1  UNL     1       5.097  -0.425   1.541  1.00  0.00    -0.384 OA
ATOM     16  H1  UNL     1       5.993  -0.263   1.812  1.00  0.00     0.211 HD
ENDBRANCH  13  15
ENDBRANCH  12  13
ENDBRANCH   6  11
BRANCH   1  17
HETATM   17  C3  UNL     1      -2.807   0.821  -0.909  1.00  0.00     0.141 C 
BRANCH  17  18
HETATM   18  C2  UNL     1      -3.944   1.235  -0.055  1.00  0.00     0.016 C 
HETATM   19  C1  UNL     1      -4.601   0.157   0.746  1.00  0.00     0.006 C 
ENDBRANCH  17  18
ENDBRANCH   1  17
TORSDOF 5
