REMARK  4 active torsions:
REMARK  status: ('A' for Active; 'I' for Inactive)
REMARK    1  A    between atoms: S1_2  and  C2_3 
REMARK    2  A    between atoms: S1_2  and  C7_15 
REMARK    3  A    between atoms: C2_3  and  C3_4 
REMARK    4  A    between atoms: C5_6  and  N1_7 
ROOT
HETATM    1  C3  UNL     1       1.758   0.147   0.257  1.00  0.00     0.022 A 
HETATM    2  C4  UNL     1       2.699   0.333  -0.765  1.00  0.00     0.073 A 
HETATM    3  C5  UNL     1       3.621  -0.643  -1.071  1.00  0.00     0.101 A 
HETATM    4  N2  UNL     1       3.659  -1.809  -0.406  1.00  0.00    -0.339 N 
ATOM      5  H2  UNL     1       4.343  -2.531  -0.632  1.00  0.00     0.168 HD
HETATM    6  C6  UNL     1       2.743  -1.980   0.583  1.00  0.00     0.182 A 
HETATM    7  N3  UNL     1       1.836  -1.035   0.893  1.00  0.00    -0.355 N 
ATOM      8  H3  UNL     1       1.176  -1.225   1.647  1.00  0.00     0.166 HD
ENDROOT
BRANCH   1   9
HETATM    9  C2  UNL     1       0.791   1.206   0.595  1.00  0.00     0.120 C 
BRANCH   9  10
HETATM   10  S1  UNL     1      -0.680   1.242  -0.348  1.00  0.00    -0.210 SA
HETATM   11  C1  UNL     1      -1.627   2.641   0.318  1.00  0.00     0.079 C 
BRANCH  10  12
HETATM   12  C7  UNL     1      -1.701  -0.199  -0.155  1.00  0.00    -0.012 C 
HETATM   13  C8  UNL     1      -3.017   0.002  -0.913  1.00  0.00     0.025 C 
HETATM   14  C9  UNL     1      -1.043  -1.399  -0.805  1.00  0.00     0.025 C 
HETATM   15  C10 UNL     1      -1.981  -0.542   1.282  1.00  0.00     0.025 C 
ENDBRANCH  10  12
ENDBRANCH   9  10
ENDBRANCH   1   9
BRANCH   3  16
HETATM   16  N1  UNL     1       4.480  -0.458  -2.013  1.00  0.00    -0.385 N 
ATOM     17  H12 UNL     1       4.451   0.428  -2.518  1.00  0.00     0.157 HD
ATOM     18  H11 UNL     1       5.163  -1.181  -2.240  1.00  0.00     0.157 HD
ENDBRANCH   3  16
TORSDOF 4
