REMARK  9 active torsions:
REMARK  status: ('A' for Active; 'I' for Inactive)
REMARK    1  A    between atoms: C2_2  and  C3_3 
REMARK       I    between atoms: N1_6  and  C6_7 
REMARK    2  A    between atoms: C8_10  and  N2_11 
REMARK    3  A    between atoms: C8_10  and  C26_37 
REMARK       I    between atoms: N2_11  and  C9_13 
REMARK    4  A    between atoms: C9_13  and  C10_15 
REMARK       I    between atoms: N3_19  and  C14_20 
REMARK    5  A    between atoms: C14_20  and  C15_22 
REMARK    6  A    between atoms: C15_22  and  O4_23 
REMARK    7  A    between atoms: C15_22  and  C16_25 
REMARK    8  A    between atoms: C16_25  and  C18_27 
REMARK    9  A    between atoms: C23_32  and  O5_34 
ROOT
HETATM    1  C10 UNL     1      -0.878  -2.589   0.283  1.00  0.00     0.179 C 
HETATM    2  C11 UNL     1      -0.936  -3.785  -0.605  1.00  0.00     0.037 C 
HETATM    3  C12 UNL     1      -0.988  -3.196  -1.970  1.00  0.00     0.022 C 
HETATM    4  C13 UNL     1      -0.559  -1.727  -1.833  1.00  0.00     0.127 C 
HETATM    5  N3  UNL     1      -0.111  -1.617  -0.458  1.00  0.00    -0.337 N 
HETATM    6  C14 UNL     1       0.929  -0.758   0.091  1.00  0.00     0.249 C 
HETATM    7  O3  UNL     1       1.141  -0.971   1.313  1.00  0.00    -0.270 OA
ENDROOT
BRANCH   1   8
HETATM    8  C9  UNL     1      -2.216  -2.138   0.737  1.00  0.00     0.243 C 
HETATM    9  N2  UNL     1      -2.782  -0.879   0.546  1.00  0.00    -0.323 N 
ATOM     10  H2  UNL     1      -2.194  -0.209   0.050  1.00  0.00     0.165 HD
HETATM   11  O2  UNL     1      -2.863  -3.062   1.366  1.00  0.00    -0.271 OA
BRANCH   9  12
HETATM   12  C8  UNL     1      -4.073  -0.383   0.944  1.00  0.00     0.208 C 
HETATM   13  C3  UNL     1      -4.121   1.151   0.668  1.00  0.00     0.069 C 
HETATM   14  C4  UNL     1      -5.580   1.454   0.778  1.00  0.00     0.033 C 
HETATM   15  C5  UNL     1      -6.267   0.225   0.327  1.00  0.00     0.130 C 
HETATM   16  N1  UNL     1      -5.162  -0.763   0.080  1.00  0.00    -0.316 N 
HETATM   17  C6  UNL     1      -5.395  -1.755  -0.884  1.00  0.00     0.218 C 
HETATM   18  C7  UNL     1      -6.719  -1.869  -1.613  1.00  0.00     0.117 C 
HETATM   19  O1  UNL     1      -4.562  -2.600  -1.214  1.00  0.00    -0.274 OA
BRANCH  13  20
HETATM   20  C2  UNL     1      -3.406   1.877   1.725  1.00  0.00    -0.027 C 
HETATM   21  C1  UNL     1      -2.376   2.637   1.418  1.00  0.00     0.007 C 
ENDBRANCH  13  20
BRANCH  12  22
HETATM   22  C26 UNL     1      -4.377  -0.628   2.349  1.00  0.00     0.225 C 
HETATM   23  O6  UNL     1      -3.543  -1.147   3.181  1.00  0.00    -0.645 OA
HETATM   24  O7  UNL     1      -5.594  -0.327   2.937  1.00  0.00    -0.645 OA
ENDBRANCH  12  22
ENDBRANCH   9  12
ENDBRANCH   1   8
BRANCH   6  25
HETATM   25  C15 UNL     1       1.570   0.190  -0.784  1.00  0.00     0.214 C 
BRANCH  25  26
HETATM   26  O4  UNL     1       0.685   0.513  -1.839  1.00  0.00    -0.386 OA
ATOM     27  H4  UNL     1       1.108   1.138  -2.416  1.00  0.00     0.210 HD
ENDBRANCH  25  26
BRANCH  25  28
HETATM   28  C16 UNL     1       2.229   1.393  -0.295  1.00  0.00     0.028 C 
HETATM   29  C17 UNL     1       1.379   2.342   0.515  1.00  0.00     0.014 C 
BRANCH  28  30
HETATM   30  C18 UNL     1       3.656   1.347   0.158  1.00  0.00    -0.035 C 
HETATM   31  C19 UNL     1       3.983   2.790   0.609  1.00  0.00     0.016 C 
HETATM   32  C20 UNL     1       3.990   0.372   1.225  1.00  0.00     0.010 C 
HETATM   33  C21 UNL     1       5.415   0.628   1.689  1.00  0.00     0.004 C 
HETATM   34  C22 UNL     1       6.403   0.567   0.582  1.00  0.00     0.037 C 
HETATM   35  C23 UNL     1       5.779   0.316  -0.768  1.00  0.00     0.055 C 
HETATM   36  C24 UNL     1       6.835   0.716  -1.808  1.00  0.00     0.045 C 
HETATM   37  C25 UNL     1       4.558   1.116  -1.031  1.00  0.00     0.046 C 
BRANCH  35  38
HETATM   38  O5  UNL     1       5.588  -1.055  -0.929  1.00  0.00    -0.390 OA
ATOM     39  H5  UNL     1       5.195  -1.213  -1.779  1.00  0.00     0.210 HD
ENDBRANCH  35  38
ENDBRANCH  28  30
ENDBRANCH  25  28
ENDBRANCH   6  25
TORSDOF 9
