REMARK  8 active torsions:
REMARK  status: ('A' for Active; 'I' for Inactive)
REMARK    1  A    between atoms: C2_2  and  C3_3 
REMARK    2  A    between atoms: C2_2  and  N2_6 
REMARK    3  A    between atoms: N2_6  and  C4_7 
REMARK       I    between atoms: N2_6  and  C21_29 
REMARK    4  A    between atoms: C4_7  and  C5_8 
REMARK    5  A    between atoms: C8_11  and  O2_12 
REMARK    6  A    between atoms: C11_16  and  C12_17 
REMARK       I    between atoms: C12_17  and  N3_19 
REMARK    7  A    between atoms: N3_19  and  C13_21 
REMARK       I    between atoms: C21_29  and  N4_31 
REMARK    8  A    between atoms: N4_31  and  C22_33 
ROOT
HETATM    1  C5  UNL     1      -0.195  -1.401   0.776  1.00  0.00     0.026 C 
HETATM    2  C6  UNL     1      -0.637  -2.675   0.087  1.00  0.00     0.018 C 
HETATM    3  C7  UNL     1      -1.724  -2.163  -0.853  1.00  0.00     0.033 C 
HETATM    4  C8  UNL     1      -1.888  -2.982  -2.083  1.00  0.00     0.123 C 
HETATM    5  C9  UNL     1      -1.470  -2.137  -3.264  1.00  0.00     0.033 C 
HETATM    6  C10 UNL     1      -0.731  -0.950  -2.680  1.00  0.00     0.022 C 
HETATM    7  C11 UNL     1      -1.282  -0.809  -1.260  1.00  0.00     0.048 C 
HETATM    8  C20 UNL     1      -0.148  -0.444  -0.354  1.00  0.00     0.029 C 
ENDROOT
BRANCH   1   9
HETATM    9  C4  UNL     1       0.948  -1.497   1.681  1.00  0.00     0.074 C 
BRANCH   9  10
HETATM   10  N2  UNL     1       2.240  -1.886   1.231  1.00  0.00    -0.300 N 
HETATM   11  C21 UNL     1       3.177  -0.895   0.868  1.00  0.00     0.323 C 
HETATM   12  O4  UNL     1       4.330  -1.267   0.478  1.00  0.00    -0.247 OA
HETATM   13  N4  UNL     1       2.974   0.508   0.894  1.00  0.00    -0.338 N 
ATOM     14  H4  UNL     1       2.070   0.864   1.204  1.00  0.00     0.164 HD
BRANCH  10  15
HETATM   15  C2  UNL     1       2.617  -3.263   1.162  1.00  0.00     0.178 C 
HETATM   16  C1  UNL     1       3.683  -3.615   2.193  1.00  0.00     0.042 C 
BRANCH  15  17
HETATM   17  C3  UNL     1       3.095  -3.775  -0.119  1.00  0.00     0.254 C 
HETATM   18  N1  UNL     1       2.985  -3.042  -1.308  1.00  0.00    -0.060 NA
HETATM   19  O1  UNL     1       3.620  -4.913  -0.161  1.00  0.00    -0.275 OA
ENDBRANCH  15  17
ENDBRANCH  10  15
BRANCH  13  20
HETATM   20  C22 UNL     1       3.990   1.456   0.501  1.00  0.00     0.086 C 
HETATM   21  C23 UNL     1       3.547   2.185  -0.776  1.00  0.00     0.025 C 
HETATM   22  C24 UNL     1       4.795   2.842  -1.325  1.00  0.00     0.002 C 
HETATM   23  C25 UNL     1       5.283   3.853  -0.346  1.00  0.00     0.000 C 
HETATM   24  C26 UNL     1       5.382   3.384   1.063  1.00  0.00     0.002 C 
HETATM   25  C27 UNL     1       4.268   2.506   1.522  1.00  0.00     0.025 C 
ENDBRANCH  13  20
ENDBRANCH   9  10
ENDBRANCH   1   9
BRANCH   7  26
HETATM   26  C12 UNL     1      -2.391   0.186  -1.241  1.00  0.00     0.227 C 
HETATM   27  O3  UNL     1      -2.620   0.800  -2.326  1.00  0.00    -0.273 OA
HETATM   28  N3  UNL     1      -3.191   0.496  -0.138  1.00  0.00    -0.355 N 
ATOM     29  H3  UNL     1      -3.027   0.014   0.746  1.00  0.00     0.162 HD
BRANCH  28  30
HETATM   30  C13 UNL     1      -4.248   1.484  -0.218  1.00  0.00     0.088 C 
HETATM   31  C14 UNL     1      -4.040   2.617   0.768  1.00  0.00     0.030 C 
HETATM   32  C15 UNL     1      -5.396   2.702   1.424  1.00  0.00    -0.012 C 
HETATM   33  C16 UNL     1      -6.450   3.037   0.392  1.00  0.00     0.005 C 
HETATM   34  C19 UNL     1      -5.679   1.200   1.606  1.00  0.00     0.011 C 
HETATM   35  C17 UNL     1      -6.658   1.765  -0.429  1.00  0.00     0.007 C 
HETATM   36  C18 UNL     1      -5.590   0.867   0.105  1.00  0.00     0.009 C 
ENDBRANCH  28  30
ENDBRANCH   7  26
BRANCH   4  37
HETATM   37  O2  UNL     1      -1.161  -4.176  -2.037  1.00  0.00    -0.395 OA
ATOM     38  H2  UNL     1      -1.266  -4.699  -2.823  1.00  0.00     0.210 HD
ENDBRANCH   4  37
TORSDOF 8
