REMARK  8 active torsions:
REMARK  status: ('A' for Active; 'I' for Inactive)
REMARK    1  A    between atoms: N1_1  and  C1_5 
REMARK       I    between atoms: N2_8  and  C4_9 
REMARK    2  A    between atoms: C4_9  and  C5_11 
REMARK    3  A    between atoms: C5_11  and  N3_12 
REMARK       I    between atoms: N3_12  and  C6_14 
REMARK    4  A    between atoms: C6_14  and  C7_16 
REMARK    5  A    between atoms: C13_22  and  C14_23 
REMARK       I    between atoms: C14_23  and  N4_25 
REMARK    6  A    between atoms: N4_25  and  C15_27 
REMARK    7  A    between atoms: C15_27  and  C16_28 
REMARK    8  A    between atoms: C16_28  and  C17_29 
ROOT
HETATM    1  C7  UNL     1       1.283   2.743   0.124  1.00  0.00     0.176 C 
HETATM    2  C8  UNL     1       2.016   4.020  -0.024  1.00  0.00     0.035 C 
HETATM    3  C9  UNL     1       1.785   4.877  -1.181  1.00  0.00     0.007 C 
HETATM    4  C10 UNL     1       0.710   4.618  -2.143  1.00  0.00    -0.010 C 
HETATM    5  C11 UNL     1      -0.662   5.068  -1.824  1.00  0.00     0.007 C 
HETATM    6  C12 UNL     1      -1.231   4.813  -0.502  1.00  0.00     0.035 C 
HETATM    7  C13 UNL     1      -0.907   3.522   0.170  1.00  0.00     0.176 C 
HETATM    8  N5  UNL     1       0.007   2.676  -0.480  1.00  0.00    -0.367 N 
HETATM    9  C24 UNL     1      -0.158   2.360  -1.816  1.00  0.00     0.060 C 
HETATM   10  C25 UNL     1       0.726   3.189  -2.706  1.00  0.00     0.049 C 
ENDROOT
BRANCH   1  11
HETATM   11  C6  UNL     1       2.175   1.592  -0.133  1.00  0.00     0.240 C 
HETATM   12  N3  UNL     1       3.398   1.523   0.572  1.00  0.00    -0.351 N 
ATOM     13  H3  UNL     1       3.611   2.276   1.226  1.00  0.00     0.163 HD
HETATM   14  O2  UNL     1       1.930   0.661  -0.936  1.00  0.00    -0.271 OA
BRANCH  12  15
HETATM   15  C5  UNL     1       4.368   0.460   0.431  1.00  0.00     0.225 C 
BRANCH  15  16
HETATM   16  C4  UNL     1       3.847  -0.848   0.824  1.00  0.00     0.237 C 
HETATM   17  N2  UNL     1       4.649  -2.006   0.736  1.00  0.00    -0.351 N 
HETATM   18  C3  UNL     1       6.004  -1.891   0.249  1.00  0.00     0.128 C 
HETATM   19  C26 UNL     1       4.142  -3.286   1.120  1.00  0.00     0.128 C 
HETATM   20  C2  UNL     1       6.829  -2.857   1.095  1.00  0.00     0.052 C 
HETATM   21  C1  UNL     1       6.427  -4.255   0.700  1.00  0.00     0.186 C 
HETATM   22  C27 UNL     1       4.954  -4.420   0.530  1.00  0.00     0.052 C 
HETATM   23  O1  UNL     1       2.671  -0.949   1.247  1.00  0.00    -0.272 OA
BRANCH  21  24
HETATM   24  N1  UNL     1       7.082  -4.638  -0.534  1.00  0.00    -0.075 N 
ATOM     25  H13 UNL     1       6.907  -3.967  -1.282  1.00  0.00     0.274 HD
ATOM     26  H12 UNL     1       8.095  -4.536  -0.474  1.00  0.00     0.274 HD
ATOM     27  H11 UNL     1       6.810  -5.584  -0.801  1.00  0.00     0.274 HD
ENDBRANCH  21  24
ENDBRANCH  15  16
ENDBRANCH  12  15
ENDBRANCH   1  11
BRANCH   7  28
HETATM   28  C14 UNL     1      -2.119   2.755   0.562  1.00  0.00     0.240 C 
HETATM   29  O3  UNL     1      -3.083   3.365   1.122  1.00  0.00    -0.271 OA
HETATM   30  N4  UNL     1      -2.233   1.359   0.328  1.00  0.00    -0.359 N 
ATOM     31  H4  UNL     1      -1.470   0.851  -0.120  1.00  0.00     0.162 HD
BRANCH  30  32
HETATM   32  C15 UNL     1      -3.450   0.651   0.733  1.00  0.00     0.123 C 
BRANCH  32  33
HETATM   33  C16 UNL     1      -3.300  -0.799   0.368  1.00  0.00     0.024 C 
BRANCH  33  34
HETATM   34  C17 UNL     1      -4.464  -1.651   0.723  1.00  0.00    -0.013 C 
HETATM   35  C18 UNL     1      -5.707  -1.197   0.036  1.00  0.00     0.005 C 
HETATM   36  C19 UNL     1      -6.889  -1.281   0.984  1.00  0.00     0.000 C 
HETATM   37  C20 UNL     1      -7.411  -2.714   0.897  1.00  0.00     0.000 C 
HETATM   38  C21 UNL     1      -6.344  -3.668   1.432  1.00  0.00     0.000 C 
HETATM   39  C22 UNL     1      -5.387  -3.953   0.321  1.00  0.00     0.000 C 
HETATM   40  C23 UNL     1      -4.175  -3.075   0.307  1.00  0.00     0.005 C 
ENDBRANCH  33  34
ENDBRANCH  32  33
ENDBRANCH  30  32
ENDBRANCH   7  28
TORSDOF 8
