REMARK  12 active torsions:
REMARK  status: ('A' for Active; 'I' for Inactive)
REMARK    1  A    between atoms: C2_2  and  C3_3 
REMARK    2  A    between atoms: C3_3  and  O1_4 
REMARK    3  A    between atoms: C4_6  and  O2_7 
REMARK    4  A    between atoms: O2_7  and  C5_8 
REMARK    5  A    between atoms: C5_8  and  C6_10 
REMARK    6  A    between atoms: C9_13  and  C10_14 
REMARK    7  A    between atoms: C10_14  and  C11_15 
REMARK    8  A    between atoms: C11_15  and  O5_17 
REMARK    9  A    between atoms: O5_17  and  C12_18 
REMARK   10  A    between atoms: C17_24  and  O7_25 
REMARK   11  A    between atoms: C20_29  and  C21_30 
REMARK   12  A    between atoms: C22_31  and  C23_32 
ROOT
HETATM    1  C3  UNL     1      -0.145  -0.918  -0.683  1.00  0.00     0.111 C 
HETATM    2  C4  UNL     1      -1.646  -1.050  -0.585  1.00  0.00     0.200 C 
HETATM    3  C9  UNL     1      -2.319   0.211  -0.078  1.00  0.00     0.164 C 
HETATM    4  O6  UNL     1      -1.758   1.254  -0.817  1.00  0.00    -0.377 OA
HETATM    5  C15 UNL     1      -0.569   1.528  -0.135  1.00  0.00     0.132 C 
HETATM    6  C16 UNL     1       0.002   2.776  -0.710  1.00  0.00     0.064 C 
HETATM    7  C17 UNL     1       1.360   3.161  -0.137  1.00  0.00     0.125 C 
HETATM    8  C18 UNL     1       1.882   1.988   0.550  1.00  0.00     0.024 C 
HETATM    9  C19 UNL     1       3.295   1.619   0.692  1.00  0.00     0.017 C 
HETATM   10  C20 UNL     1       2.857   0.191   0.511  1.00  0.00     0.017 C 
HETATM   11  C28 UNL     1       1.719   0.800  -0.383  1.00  0.00    -0.022 C 
HETATM   12  C29 UNL     1       2.242   0.923  -1.736  1.00  0.00     0.017 C 
HETATM   13  C30 UNL     1       0.346   0.329  -0.090  1.00  0.00     0.065 C 
ENDROOT
BRANCH   3  14
HETATM   14  C10 UNL     1      -3.805   0.103  -0.333  1.00  0.00     0.145 C 
BRANCH  14  15
HETATM   15  C11 UNL     1      -4.457   1.342   0.165  1.00  0.00     0.261 C 
HETATM   16  O4  UNL     1      -3.799   2.263   0.702  1.00  0.00    -0.265 OA
BRANCH  15  17
HETATM   17  O5  UNL     1      -5.835   1.523   0.050  1.00  0.00    -0.317 OA
BRANCH  17  18
HETATM   18  C12 UNL     1      -6.413   2.712   0.535  1.00  0.00     0.123 C 
HETATM   19  C13 UNL     1      -7.412   2.370   1.595  1.00  0.00     0.040 C 
HETATM   20  C14 UNL     1      -7.042   3.497  -0.603  1.00  0.00     0.040 C 
ENDBRANCH  17  18
ENDBRANCH  15  17
ENDBRANCH  14  15
ENDBRANCH   3  14
BRANCH   2  21
HETATM   21  O2  UNL     1      -2.057  -2.185   0.159  1.00  0.00    -0.310 OA
BRANCH  21  22
HETATM   22  C5  UNL     1      -2.859  -3.183  -0.373  1.00  0.00     0.262 C 
HETATM   23  O3  UNL     1      -3.208  -3.022  -1.576  1.00  0.00    -0.265 OA
BRANCH  22  24
HETATM   24  C6  UNL     1      -3.303  -4.368   0.362  1.00  0.00     0.077 C 
HETATM   25  C7  UNL     1      -4.155  -5.222  -0.550  1.00  0.00     0.020 C 
HETATM   26  C8  UNL     1      -4.163  -4.024   1.570  1.00  0.00     0.020 C 
ENDBRANCH  22  24
ENDBRANCH  21  22
ENDBRANCH   2  21
BRANCH   1  27
HETATM   27  C2  UNL     1       0.232  -1.228  -2.079  1.00  0.00     0.004 C 
HETATM   28  C1  UNL     1      -0.412  -0.857  -3.168  1.00  0.00     0.010 C 
ENDBRANCH   1  27
BRANCH   1  29
HETATM   29  O1  UNL     1       0.344  -1.979   0.154  1.00  0.00    -0.383 OA
ATOM     30  H1  UNL     1       0.102  -1.780   1.051  1.00  0.00     0.211 HD
ENDBRANCH   1  29
BRANCH   7  31
HETATM   31  O7  UNL     1       2.182   3.735  -1.107  1.00  0.00    -0.395 OA
ATOM     32  H7  UNL     1       3.029   3.975  -0.750  1.00  0.00     0.210 HD
ENDBRANCH   7  31
BRANCH  10  33
HETATM   33  C21 UNL     1       3.663  -0.747  -0.230  1.00  0.00    -0.025 C 
HETATM   34  C22 UNL     1       4.916  -0.773  -0.462  1.00  0.00    -0.025 C 
BRANCH  34  35
HETATM   35  C23 UNL     1       6.026   0.125  -0.067  1.00  0.00     0.016 A 
HETATM   36  C24 UNL     1       6.170   0.260   1.455  1.00  0.00     0.018 A 
HETATM   37  C25 UNL     1       7.179  -0.485   0.658  1.00  0.00    -0.040 A 
HETATM   38  C26 UNL     1       8.529   0.214   0.527  1.00  0.00     0.015 C 
HETATM   39  C27 UNL     1       7.299  -1.989   0.763  1.00  0.00     0.015 C 
ENDBRANCH  34  35
ENDBRANCH  10  33
TORSDOF 12
