REMARK  9 active torsions:
REMARK  status: ('A' for Active; 'I' for Inactive)
REMARK    1  A    between atoms: C2_2  and  C3_3 
REMARK    2  A    between atoms: C14_16  and  O3_17 
REMARK    3  A    between atoms: C17_22  and  O5_23 
REMARK    4  A    between atoms: C20_27  and  C21_28 
REMARK    5  A    between atoms: C22_29  and  C23_30 
REMARK    6  A    between atoms: C23_30  and  C24_31 
REMARK    7  A    between atoms: C24_31  and  C25_32 
REMARK    8  A    between atoms: C25_32  and  O6_33 
REMARK    9  A    between atoms: O6_33  and  C26_34 
ROOT
HETATM    1  C3  UNL     1      -1.549  -2.844   0.138  1.00  0.00     0.001 C 
HETATM    2  C4  UNL     1      -1.044  -3.176   1.521  1.00  0.00     0.022 C 
HETATM    3  C5  UNL     1      -3.065  -2.775   0.263  1.00  0.00     0.184 C 
HETATM    4  O1  UNL     1      -3.624  -1.677  -0.330  1.00  0.00    -0.360 OA
HETATM    5  C6  UNL     1      -4.045  -0.812   0.652  1.00  0.00     0.267 A 
HETATM    6  O2  UNL     1      -2.920  -0.263   1.235  1.00  0.00    -0.346 OA
HETATM    7  C7  UNL     1      -3.125   0.994   0.912  1.00  0.00     0.103 A 
HETATM    8  C8  UNL     1      -3.714   1.611   2.229  1.00  0.00     0.050 C 
HETATM    9  C9  UNL     1      -4.346   0.573   0.128  1.00  0.00     0.078 A 
HETATM   10  C10 UNL     1      -4.280   0.612  -1.343  1.00  0.00     0.013 C 
HETATM   11  C11 UNL     1      -3.549   1.782  -1.905  1.00  0.00     0.008 C 
HETATM   12  C12 UNL     1      -3.190   2.633  -0.743  1.00  0.00     0.022 C 
HETATM   13  C13 UNL     1      -2.935   4.025  -1.083  1.00  0.00     0.013 C 
HETATM   14  C14 UNL     1      -2.216   1.898   0.218  1.00  0.00     0.127 C 
HETATM   15  C15 UNL     1      -0.972   1.669  -0.391  1.00  0.00     0.142 A 
HETATM   16  O4  UNL     1      -0.712   2.511  -1.588  1.00  0.00    -0.361 OA
HETATM   17  C16 UNL     1      -0.101   2.959  -0.509  1.00  0.00     0.191 A 
HETATM   18  C17 UNL     1       1.212   2.664   0.071  1.00  0.00     0.155 C 
HETATM   19  C18 UNL     1       0.863   1.387   0.858  1.00  0.00     0.036 C 
HETATM   20  C19 UNL     1       1.938   1.001   1.666  1.00  0.00     0.014 C 
HETATM   21  C20 UNL     1       0.112   0.664  -0.212  1.00  0.00     0.081 C 
HETATM   22  C29 UNL     1      -0.159  -0.722   0.113  1.00  0.00     0.144 C 
HETATM   23  O7  UNL     1       0.349  -1.118   1.183  1.00  0.00    -0.297 OA
HETATM   24  C30 UNL     1      -0.923  -1.739  -0.592  1.00  0.00     0.095 C 
ENDROOT
BRANCH  21  25
HETATM   25  C21 UNL     1       0.792   0.584  -1.555  1.00  0.00    -0.006 C 
HETATM   26  C22 UNL     1       1.860  -0.238  -1.976  1.00  0.00    -0.003 C 
BRANCH  26  27
HETATM   27  C23 UNL     1       3.211  -0.239  -1.358  1.00  0.00     0.002 C 
BRANCH  27  28
HETATM   28  C24 UNL     1       4.299   0.096  -1.994  1.00  0.00     0.024 C 
BRANCH  28  29
HETATM   29  C25 UNL     1       5.647   0.122  -1.472  1.00  0.00     0.135 C 
BRANCH  29  30
HETATM   30  O6  UNL     1       5.953  -0.218  -0.211  1.00  0.00    -0.359 OA
BRANCH  30  31
HETATM   31  C26 UNL     1       5.741  -1.468   0.262  1.00  0.00     0.119 C 
HETATM   32  C27 UNL     1       7.141  -2.166   0.357  1.00  0.00     0.039 C 
HETATM   33  C28 UNL     1       5.216  -1.512   1.661  1.00  0.00     0.039 C 
ENDBRANCH  30  31
ENDBRANCH  29  30
ENDBRANCH  28  29
ENDBRANCH  27  28
ENDBRANCH  26  27
ENDBRANCH  21  25
BRANCH  14  34
HETATM   34  O3  UNL     1      -2.010   2.966   1.172  1.00  0.00    -0.383 OA
ATOM     35  H3  UNL     1      -1.418   3.555   0.720  1.00  0.00     0.210 HD
ENDBRANCH  14  34
BRANCH  18  36
HETATM   36  O5  UNL     1       1.595   3.570   1.093  1.00  0.00    -0.392 OA
ATOM     37  H5  UNL     1       2.446   3.379   1.469  1.00  0.00     0.210 HD
ENDBRANCH  18  36
BRANCH   1  38
HETATM   38  C2  UNL     1      -1.307  -4.153  -0.609  1.00  0.00    -0.025 C 
HETATM   39  C1  UNL     1      -1.918  -5.271  -0.298  1.00  0.00     0.008 C 
ENDBRANCH   1  38
TORSDOF 9
