REMARK  10 active torsions:
REMARK  status: ('A' for Active; 'I' for Inactive)
REMARK    1  A    between atoms: C2_2  and  O2_4 
REMARK    2  A    between atoms: O2_4  and  C3_5 
REMARK    3  A    between atoms: C14_17  and  O4_18 
REMARK    4  A    between atoms: C21_26  and  C22_27 
REMARK    5  A    between atoms: C21_26  and  C23_29 
REMARK    6  A    between atoms: C23_29  and  O6_30 
REMARK    7  A    between atoms: C23_29  and  C24_32 
REMARK    8  A    between atoms: C24_32  and  C25_33 
REMARK    9  A    between atoms: C25_33  and  C26_34 
REMARK   10  A    between atoms: C26_34  and  C29_37 
ROOT
HETATM    1  C3  UNL     1      -2.640   1.823   0.675  1.00  0.00     0.165 C 
HETATM    2  C4  UNL     1      -2.169   1.302  -0.686  1.00  0.00     0.038 C 
HETATM    3  C5  UNL     1      -2.415  -0.197  -0.551  1.00  0.00     0.041 C 
HETATM    4  C6  UNL     1      -1.363  -0.833   0.406  1.00  0.00     0.071 C 
HETATM    5  O3  UNL     1      -1.008   0.132   1.312  1.00  0.00    -0.366 OA
HETATM    6  C7  UNL     1      -1.723   1.160   1.674  1.00  0.00     0.081 C 
HETATM    7  C8  UNL     1      -2.570   1.018   2.949  1.00  0.00     0.048 C 
HETATM    8  C9  UNL     1      -0.726   2.284   2.049  1.00  0.00     0.048 C 
HETATM    9  C10 UNL     1      -2.163  -1.843   1.113  1.00  0.00     0.017 C 
HETATM   10  C11 UNL     1      -1.689  -2.533   2.320  1.00  0.00     0.013 C 
HETATM   11  C12 UNL     1      -2.921  -2.816   0.236  1.00  0.00     0.010 C 
HETATM   12  C13 UNL     1      -1.924  -3.796  -0.310  1.00  0.00     0.033 C 
HETATM   13  C14 UNL     1      -1.304  -3.218  -1.505  1.00  0.00     0.127 C 
HETATM   14  C15 UNL     1      -0.228  -2.225  -1.437  1.00  0.00    -0.002 C 
HETATM   15  C16 UNL     1       0.067  -1.801  -2.869  1.00  0.00     0.013 C 
HETATM   16  C17 UNL     1       1.066  -2.561  -3.611  1.00  0.00     0.001 C 
HETATM   17  C18 UNL     1       2.270  -3.045  -2.867  1.00  0.00     0.000 C 
HETATM   18  C19 UNL     1       2.025  -3.398  -1.428  1.00  0.00     0.007 C 
HETATM   19  C20 UNL     1       0.980  -2.735  -0.697  1.00  0.00     0.015 C 
HETATM   20  C21 UNL     1       1.169  -1.425   0.042  1.00  0.00     0.050 C 
HETATM   21  C30 UNL     1      -0.226  -1.119  -0.453  1.00  0.00     0.050 C 
ENDROOT
BRANCH  20  22
HETATM   22  C22 UNL     1       1.407  -1.635   1.466  1.00  0.00     0.244 C 
HETATM   23  O5  UNL     1       1.496  -0.850   2.376  1.00  0.00    -0.306 OA
ENDBRANCH  20  22
BRANCH  20  24
HETATM   24  C23 UNL     1       2.277  -0.536  -0.447  1.00  0.00     0.134 C 
BRANCH  24  25
HETATM   25  O6  UNL     1       3.532  -1.046  -0.399  1.00  0.00    -0.394 OA
ATOM     26  H6  UNL     1       4.233  -0.484  -0.708  1.00  0.00     0.210 HD
ENDBRANCH  24  25
BRANCH  24  27
HETATM   27  C24 UNL     1       2.346   0.845   0.133  1.00  0.00     0.034 C 
BRANCH  27  28
HETATM   28  C25 UNL     1       3.561   1.507  -0.560  1.00  0.00     0.018 C 
BRANCH  28  29
HETATM   29  C26 UNL     1       3.738   2.919  -0.054  1.00  0.00     0.006 C 
HETATM   30  C27 UNL     1       2.535   3.777  -0.322  1.00  0.00     0.022 C 
HETATM   31  C28 UNL     1       4.033   2.946   1.436  1.00  0.00     0.022 C 
BRANCH  29  32
HETATM   32  C29 UNL     1       4.914   3.513  -0.737  1.00  0.00     0.239 C 
HETATM   33  O7  UNL     1       5.597   4.349  -0.212  1.00  0.00    -0.306 OA
ENDBRANCH  29  32
ENDBRANCH  28  29
ENDBRANCH  27  28
ENDBRANCH  24  27
ENDBRANCH  20  24
BRANCH  13  34
HETATM   34  O4  UNL     1      -0.766  -4.350  -2.184  1.00  0.00    -0.395 OA
ATOM     35  H4  UNL     1      -0.364  -3.975  -2.959  1.00  0.00     0.210 HD
ENDBRANCH  13  34
BRANCH   1  36
HETATM   36  O2  UNL     1      -2.652   3.209   0.747  1.00  0.00    -0.313 OA
BRANCH  36  37
HETATM   37  C2  UNL     1      -3.856   3.889   0.976  1.00  0.00     0.255 C 
HETATM   38  C1  UNL     1      -3.940   5.362   1.063  1.00  0.00     0.126 C 
HETATM   39  O1  UNL     1      -4.889   3.191   1.108  1.00  0.00    -0.266 OA
ENDBRANCH  36  37
ENDBRANCH   1  36
TORSDOF 10
