REMARK  6 active torsions:
REMARK  status: ('A' for Active; 'I' for Inactive)
REMARK    1  A    between atoms: C3_3  and  C4_4 
REMARK    2  A    between atoms: C4_4  and  N1_5 
REMARK       I    between atoms: N1_5  and  C5_7 
REMARK       I    between atoms: C5_7  and  N3_11 
REMARK    3  A    between atoms: N3_11  and  C6_13 
REMARK    4  A    between atoms: C6_13  and  C7_14 
REMARK    5  A    between atoms: C10_17  and  C11_18 
REMARK    6  A    between atoms: C11_18  and  O1_19 
ROOT
HETATM    1  C1  UNL     1       6.972   1.504   1.887  1.00  0.00     0.012 C 
HETATM    2  C2  UNL     1       6.321   1.692   0.885  1.00  0.00    -0.116 C 
HETATM    3  C3  UNL     1       5.554   1.934  -0.336  1.00  0.00     0.113 C 
ENDROOT
BRANCH   3   4
HETATM    4  C4  UNL     1       4.627   0.777  -0.598  1.00  0.00     0.150 C 
BRANCH   4   5
HETATM    5  N1  UNL     1       3.685   0.584   0.494  1.00  0.00    -0.226 N 
HETATM    6  C5  UNL     1       2.750  -0.488   0.345  1.00  0.00     0.667 C 
HETATM    7  N2  UNL     1       2.758  -1.443   1.203  1.00  0.00    -0.235 N 
HETATM    8  N3  UNL     1       1.822  -0.517  -0.728  1.00  0.00    -0.226 N 
ATOM      9  H22 UNL     1       3.425  -1.422   1.974  1.00  0.00     0.174 HD
ATOM     10  H21 UNL     1       2.091  -2.208   1.097  1.00  0.00     0.174 HD
ATOM     11  H3  UNL     1       2.034  -1.110  -1.530  1.00  0.00     0.177 HD
ATOM     12  H1  UNL     1       3.691   1.181   1.321  1.00  0.00     0.177 HD
BRANCH   8  13
HETATM   13  C6  UNL     1       0.592   0.247  -0.750  1.00  0.00     0.155 C 
BRANCH  13  14
HETATM   14  C7  UNL     1      -0.333  -0.296   0.247  1.00  0.00     0.086 C 
HETATM   15  C8  UNL     1      -1.616   0.323   0.406  1.00  0.00    -0.097 C 
HETATM   16  C9  UNL     1      -2.643   0.566   0.473  1.00  0.00    -0.062 C 
HETATM   17  C10 UNL     1      -4.066   0.575   0.495  1.00  0.00     0.241 A 
HETATM   18  N4  UNL     1      -4.659  -0.427   1.328  1.00  0.00    -0.040 N 
HETATM   19  C12 UNL     1      -4.475  -0.771  -0.022  1.00  0.00     0.261 A 
ATOM     20  H42 UNL     1      -4.367  -0.865   2.202  1.00  0.00     0.280 HD
ATOM     21  H41 UNL     1      -5.476  -0.427   1.939  1.00  0.00     0.280 HD
HETATM   22  C13 UNL     1      -3.293  -1.508  -0.616  1.00  0.00     0.005 C 
HETATM   23  C14 UNL     1      -2.209  -2.038   0.174  1.00  0.00    -0.027 C 
HETATM   24  C15 UNL     1      -0.762  -1.777  -0.123  1.00  0.00     0.045 C 
BRANCH  17  25
HETATM   25  C11 UNL     1      -4.787   1.757  -0.022  1.00  0.00     0.219 C 
BRANCH  25  26
HETATM   26  O1  UNL     1      -5.869   1.313  -0.804  1.00  0.00    -0.397 OA
ATOM     27  H1  UNL     1      -6.332   2.073  -1.136  1.00  0.00     0.209 HD
ENDBRANCH  25  26
ENDBRANCH  17  25
ENDBRANCH  13  14
ENDBRANCH   8  13
ENDBRANCH   4   5
ENDBRANCH   3   4
TORSDOF 6
