REMARK  12 active torsions:
REMARK  status: ('A' for Active; 'I' for Inactive)
REMARK    1  A    between atoms: N1_2  and  C2_3 
REMARK    2  A    between atoms: N1_2  and  C5_8 
REMARK    3  A    between atoms: N1_2  and  C11_19 
REMARK    4  A    between atoms: C2_3  and  C3_4 
REMARK    5  A    between atoms: C4_5  and  O1_6 
REMARK    6  A    between atoms: C5_8  and  C6_9 
REMARK    7  A    between atoms: C6_9  and  C7_10 
REMARK    8  A    between atoms: C7_10  and  N2_11 
REMARK    9  A    between atoms: C10_14  and  O2_15 
REMARK   10  A    between atoms: C10_14  and  O3_17 
REMARK   11  A    between atoms: C11_19  and  C12_20 
REMARK   12  A    between atoms: C12_20  and  N3_21 
ROOT
HETATM    1  C1  UNL     1       0.578  -1.121  -1.408  1.00  0.00     0.272 C 
HETATM    2  N1  UNL     1       0.364  -1.194   0.021  1.00  0.00    -0.066 N 
ENDROOT
BRANCH   2   3
HETATM    3  C2  UNL     1       0.616  -2.576   0.391  1.00  0.00     0.266 C 
BRANCH   3   4
HETATM    4  C3  UNL     1      -0.078  -2.955   1.646  1.00  0.00     0.025 C 
HETATM    5  C4  UNL     1      -0.949  -3.929   1.619  1.00  0.00     0.129 C 
BRANCH   5   6
HETATM    6  O1  UNL     1      -1.228  -4.602   0.450  1.00  0.00    -0.373 OA
ATOM      7  H1  UNL     1      -1.861  -5.310   0.430  1.00  0.00     0.216 HD
ENDBRANCH   5   6
ENDBRANCH   3   4
ENDBRANCH   2   3
BRANCH   2   8
HETATM    8  C5  UNL     1       1.310  -0.378   0.719  1.00  0.00     0.239 C 
BRANCH   8   9
HETATM    9  C6  UNL     1       2.583  -0.132  -0.052  1.00  0.00     0.056 C 
BRANCH   9  10
HETATM   10  C7  UNL     1       3.464   0.748   0.839  1.00  0.00     0.245 C 
BRANCH  10  11
HETATM   11  N2  UNL     1       4.719   1.061   0.221  1.00  0.00    -0.005 N 
HETATM   12  C8  UNL     1       5.790   0.101   0.424  1.00  0.00     0.280 C 
HETATM   13  C9  UNL     1       4.653   1.725  -1.050  1.00  0.00     0.344 A 
HETATM   14  C10 UNL     1       5.058   2.475   0.164  1.00  0.00     0.362 A 
BRANCH  14  15
HETATM   15  O2  UNL     1       6.378   2.867   0.273  1.00  0.00    -0.342 OA
ATOM     16  H2  UNL     1       6.599   3.790   0.236  1.00  0.00     0.215 HD
ENDBRANCH  14  15
BRANCH  14  17
HETATM   17  O3  UNL     1       4.154   3.393   0.727  1.00  0.00    -0.342 OA
ATOM     18  H3  UNL     1       4.375   4.316   0.690  1.00  0.00     0.215 HD
ENDBRANCH  14  17
ENDBRANCH  10  11
ENDBRANCH   9  10
ENDBRANCH   8   9
ENDBRANCH   2   8
BRANCH   2  19
HETATM   19  C11 UNL     1      -0.996  -0.838   0.387  1.00  0.00     0.265 C 
BRANCH  19  20
HETATM   20  C12 UNL     1      -1.532   0.278  -0.474  1.00  0.00     0.264 C 
BRANCH  20  21
HETATM   21  N3  UNL     1      -2.852   0.678  -0.176  1.00  0.00    -0.069 N 
HETATM   22  C13 UNL     1      -2.903   2.147  -0.094  1.00  0.00     0.272 C 
HETATM   23  C14 UNL     1      -3.700   0.345  -1.332  1.00  0.00     0.237 C 
HETATM   24  C15 UNL     1      -4.978   1.137  -1.286  1.00  0.00     0.028 C 
HETATM   25  C16 UNL     1      -5.700   0.756  -0.011  1.00  0.00     0.003 C 
HETATM   26  C17 UNL     1      -4.929  -0.253   0.760  1.00  0.00     0.028 C 
HETATM   27  C18 UNL     1      -3.474   0.131   0.975  1.00  0.00     0.237 C 
ENDBRANCH  20  21
ENDBRANCH  19  20
ENDBRANCH   2  19
TORSDOF 12
