REMARK  1 active torsions:
REMARK  status: ('A' for Active; 'I' for Inactive)
REMARK    1  A    between atoms: C1_4  and  N2_5 
ROOT
HETATM    1  N2  UNL     1       0.895   0.047  -0.003  1.00  0.00    -0.296 N 
HETATM    2  C2  UNL     1       0.146  -0.956   0.728  1.00  0.00     0.136 C 
HETATM    3  C3  UNL     1      -1.250  -1.136   0.238  1.00  0.00     0.040 C 
HETATM    4  C4  UNL     1      -1.848   0.057  -0.420  1.00  0.00     0.126 C 
HETATM    5  N3  UNL     1      -1.184   1.299  -0.117  1.00  0.00    -0.343 N 
ATOM      6  H3  UNL     1      -1.708   2.134   0.143  1.00  0.00     0.164 HD
HETATM    7  C5  UNL     1       0.242   1.307  -0.198  1.00  0.00     0.323 C 
HETATM    8  O1  UNL     1       0.892   2.350  -0.425  1.00  0.00    -0.247 OA
ENDROOT
BRANCH   1   9
HETATM    9  C1  UNL     1       2.196  -0.156  -0.514  1.00  0.00     0.180 C 
HETATM   10  N1  UNL     1       3.199   0.557  -0.161  1.00  0.00    -0.395 N 
ATOM     11  H12 UNL     1       3.034   1.299   0.519  1.00  0.00     0.156 HD
ATOM     12  H11 UNL     1       4.139   0.410  -0.530  1.00  0.00     0.156 HD
ENDBRANCH   1   9
TORSDOF 1
