REMARK  1 active torsions:
REMARK  status: ('A' for Active; 'I' for Inactive)
REMARK    1  A    between atoms: C2_2  and  N1_3 
ROOT
HETATM    1  N1  UNL     1       0.437  -0.022   0.190  1.00  0.00     0.057 N 
HETATM    2  C3  UNL     1      -0.185   1.150   0.774  1.00  0.00     0.272 C 
HETATM    3  C4  UNL     1      -1.536   1.271   0.059  1.00  0.00     0.082 C 
HETATM    4  C5  UNL     1      -1.461   0.055  -0.845  1.00  0.00     0.309 C 
HETATM    5  N2  UNL     1      -1.576  -1.108  -0.022  1.00  0.00    -0.029 N 
ATOM      6  H21 UNL     1      -1.906  -1.939  -0.512  1.00  0.00     0.281 HD
ATOM      7  H22 UNL     1      -2.338  -1.071   0.655  1.00  0.00     0.281 HD
HETATM    8  C6  UNL     1      -0.237  -1.247   0.577  1.00  0.00     0.498 C 
HETATM    9  N3  UNL     1      -0.020   0.081  -1.154  1.00  0.00    -0.007 NA
ENDROOT
BRANCH   1  10
HETATM   10  C2  UNL     1       1.819  -0.061   0.294  1.00  0.00     0.217 C 
HETATM   11  C1  UNL     1       2.605  -0.461  -0.670  1.00  0.00     0.039 C 
ENDBRANCH   1  10
TORSDOF 1
