REMARK  4 active torsions:
REMARK  status: ('A' for Active; 'I' for Inactive)
REMARK    1  A    between atoms: N1_2  and  O1_3 
REMARK    2  A    between atoms: N1_2  and  C2_5 
REMARK    3  A    between atoms: C2_5  and  C3_6 
REMARK    4  A    between atoms: C4_7  and  C5_8 
ROOT
HETATM    1  C2  UNL     1      -1.503   0.879   0.591  1.00  0.00     0.213 C 
ENDROOT
BRANCH   1   2
HETATM    2  N1  UNL     1      -2.333   0.241  -0.386  1.00  0.00    -0.193 NA
HETATM    3  C1  UNL     1      -3.380  -0.531   0.294  1.00  0.00     0.144 C 
BRANCH   2   4
HETATM    4  O1  UNL     1      -2.984   1.167  -1.133  1.00  0.00    -0.313 OA
ATOM      5  H1  UNL     1      -2.306   1.667  -1.573  1.00  0.00     0.237 HD
ENDBRANCH   2   4
ENDBRANCH   1   2
BRANCH   1   6
HETATM    6  C3  UNL     1      -0.165   0.284   0.524  1.00  0.00    -0.089 C 
HETATM    7  C4  UNL     1       0.957  -0.199   0.483  1.00  0.00    -0.100 C 
BRANCH   7   8
HETATM    8  C5  UNL     1       2.311  -0.761   0.448  1.00  0.00     0.065 A 
HETATM    9  C6  UNL     1       3.160  -0.338  -0.670  1.00  0.00     0.018 A 
HETATM   10  C7  UNL     1       3.387   0.267   0.701  1.00  0.00     0.018 A 
ENDBRANCH   7   8
ENDBRANCH   1   6
TORSDOF 4
