REMARK  4 active torsions:
REMARK  status: ('A' for Active; 'I' for Inactive)
REMARK    1  A    between atoms: N1_2  and  C4_5 
REMARK    2  A    between atoms: C4_5  and  C5_6 
REMARK    3  A    between atoms: C6_7  and  C7_8 
REMARK    4  A    between atoms: C7_8  and  O1_9 
ROOT
HETATM    1  C4  UNL     1      -0.145   0.693   0.682  1.00  0.00     0.329 C 
ENDROOT
BRANCH   1   2
HETATM    2  N1  UNL     1      -1.244   0.083  -0.010  1.00  0.00    -0.069 N 
HETATM    3  C1  UNL     1      -0.999  -0.173  -1.398  1.00  0.00     0.272 C 
HETATM    4  C2  UNL     1      -2.360   1.042   0.049  1.00  0.00     0.272 C 
HETATM    5  C3  UNL     1      -1.684  -1.137   0.637  1.00  0.00     0.272 C 
ENDBRANCH   1   2
BRANCH   1   6
HETATM    6  C5  UNL     1       1.159   0.206   0.245  1.00  0.00    -0.076 C 
HETATM    7  C6  UNL     1       2.241  -0.183  -0.099  1.00  0.00    -0.079 C 
BRANCH   7   8
HETATM    8  C7  UNL     1       3.566  -0.652  -0.494  1.00  0.00     0.257 C 
BRANCH   8   9
HETATM    9  O1  UNL     1       4.505   0.368  -0.349  1.00  0.00    -0.389 OA
ATOM     10  H1  UNL     1       5.367   0.063  -0.606  1.00  0.00     0.210 HD
ENDBRANCH   8   9
ENDBRANCH   7   8
ENDBRANCH   1   6
TORSDOF 4
