REMARK  6 active torsions:
REMARK  status: ('A' for Active; 'I' for Inactive)
REMARK    1  A    between atoms: C2_2  and  C3_3 
REMARK    2  A    between atoms: C3_3  and  C4_4 
REMARK    3  A    between atoms: C5_5  and  C6_6 
REMARK    4  A    between atoms: C7_7  and  C8_8 
REMARK    5  A    between atoms: C8_8  and  N1_9 
REMARK    6  A    between atoms: N1_9  and  N2_10 
ROOT
HETATM    1  C6  UNL     1       0.933   0.215  -0.255  1.00  0.00    -0.014 C 
HETATM    2  C7  UNL     1       2.114   0.444  -0.087  1.00  0.00    -0.075 C 
ENDROOT
BRANCH   1   3
HETATM    3  C5  UNL     1      -0.451  -0.032  -0.437  1.00  0.00    -0.015 C 
HETATM    4  C4  UNL     1      -1.639  -0.243  -0.573  1.00  0.00    -0.089 C 
BRANCH   4   5
HETATM    5  C3  UNL     1      -3.075  -0.489  -0.719  1.00  0.00     0.121 C 
BRANCH   5   6
HETATM    6  C2  UNL     1      -3.667  -0.582   0.627  1.00  0.00    -0.025 C 
HETATM    7  C1  UNL     1      -4.617   0.274   0.981  1.00  0.00     0.008 C 
ENDBRANCH   5   6
ENDBRANCH   4   5
ENDBRANCH   1   3
BRANCH   2   8
HETATM    8  C8  UNL     1       3.532   0.736   0.133  1.00  0.00     0.229 C 
BRANCH   8   9
HETATM    9  N1  UNL     1       4.150  -0.507   0.568  1.00  0.00    -0.136 NA
BRANCH   9  10
HETATM   10  N2  UNL     1       5.506  -0.266   0.788  1.00  0.00    -0.348 N 
ATOM     11  H22 UNL     1       5.970   0.633   0.661  1.00  0.00     0.172 HD
ATOM     12  H21 UNL     1       5.939  -1.138   1.093  1.00  0.00     0.172 HD
ENDBRANCH   9  10
ENDBRANCH   8   9
ENDBRANCH   2   8
TORSDOF 6
