REMARK  15 active torsions:
REMARK  status: ('A' for Active; 'I' for Inactive)
REMARK    1  A    between atoms: C2_2  and  N1_3 
REMARK    2  A    between atoms: C2_2  and  C3_7 
REMARK    3  A    between atoms: C3_7  and  N2_8 
REMARK    4  A    between atoms: N2_8  and  C4_9 
REMARK    5  A    between atoms: N2_8  and  C12_35 
REMARK    6  A    between atoms: C5_12  and  N4_13 
REMARK    7  A    between atoms: N7_19  and  C6_20 
REMARK    8  A    between atoms: N8_22  and  C8_23 
REMARK    9  A    between atoms: C8_23  and  O1_24 
REMARK   10  A    between atoms: C12_35  and  O4_36 
REMARK   11  A    between atoms: C12_35  and  C13_38 
REMARK   12  A    between atoms: C13_38  and  N11_39 
REMARK   13  A    between atoms: C14_44  and  C15_45 
REMARK   14  A    between atoms: C18_48  and  O5_49 
REMARK   15  A    between atoms: C21_53  and  O6_54 
ROOT
HETATM    1  N2  UNL     1       0.129  -1.867  -0.577  1.00  0.00    -0.165 N 
ENDROOT
BRANCH   1   2
HETATM    2  C3  UNL     1       0.287  -2.677  -1.712  1.00  0.00     0.117 C 
BRANCH   2   3
HETATM    3  C2  UNL     1      -0.686  -3.783  -1.956  1.00  0.00     0.218 C 
HETATM    4  C1  UNL     1      -0.698  -4.848  -0.883  1.00  0.00     0.045 C 
BRANCH   3   5
HETATM    5  N1  UNL     1      -0.310  -4.405  -3.216  1.00  0.00    -0.071 N 
ATOM      6  H13 UNL     1       0.574  -4.911  -3.155  1.00  0.00     0.275 HD
ATOM      7  H12 UNL     1      -0.907  -5.197  -3.456  1.00  0.00     0.275 HD
ATOM      8  H11 UNL     1      -0.302  -3.686  -3.940  1.00  0.00     0.275 HD
ENDBRANCH   3   5
ENDBRANCH   2   3
ENDBRANCH   1   2
BRANCH   1   9
HETATM    9  C4  UNL     1      -1.059  -1.843   0.203  1.00  0.00     0.715 A 
HETATM   10  N3  UNL     1      -1.323  -2.542   1.296  1.00  0.00    -0.019 N 
HETATM   11  C5  UNL     1      -2.438  -2.441   2.018  1.00  0.00     0.728 A 
ATOM     12  H3  UNL     1      -0.618  -3.209   1.609  1.00  0.00     0.203 HD
HETATM   13  N5  UNL     1      -3.403  -1.564   1.639  1.00  0.00     0.108 N 
HETATM   14  N6  UNL     1      -4.564  -0.938   1.738  1.00  0.00    -0.184 N 
HETATM   15  C11 UNL     1      -3.179  -0.831   0.532  1.00  0.00     0.757 A 
HETATM   16  N7  UNL     1      -4.387  -0.205   0.668  1.00  0.00    -0.061 N 
ATOM     17  H6  UNL     1      -5.328  -1.003   2.411  1.00  0.00     0.211 HD
HETATM   18  N10 UNL     1      -2.052  -0.959  -0.167  1.00  0.00    -0.017 N 
ATOM     19  H10 UNL     1      -1.919  -0.386  -1.001  1.00  0.00     0.203 HD
BRANCH  11  20
HETATM   20  N4  UNL     1      -2.611  -3.161   3.066  1.00  0.00    -0.232 N 
ATOM     21  H42 UNL     1      -1.886  -3.820   3.351  1.00  0.00     0.174 HD
ATOM     22  H41 UNL     1      -3.465  -3.084   3.619  1.00  0.00     0.174 HD
ENDBRANCH  11  20
BRANCH  16  23
HETATM   23  C6  UNL     1      -5.057   0.809  -0.089  1.00  0.00     0.160 A 
HETATM   24  C7  UNL     1      -5.760   1.776   0.583  1.00  0.00     0.136 A 
HETATM   25  N8  UNL     1      -6.362   2.737  -0.140  1.00  0.00    -0.286 N 
HETATM   26  C9  UNL     1      -6.285   2.760  -1.482  1.00  0.00     0.331 A 
HETATM   27  O2  UNL     1      -6.854   3.669  -2.159  1.00  0.00    -0.246 OA
HETATM   28  N9  UNL     1      -5.595   1.810  -2.141  1.00  0.00    -0.273 N 
HETATM   29  C10 UNL     1      -4.990   0.849  -1.457  1.00  0.00     0.280 A 
ATOM     30  H9  UNL     1      -5.538   1.830  -3.159  1.00  0.00     0.173 HD
HETATM   31  O3  UNL     1      -4.330  -0.063  -2.063  1.00  0.00    -0.265 OA
BRANCH  25  32
HETATM   32  C8  UNL     1      -7.118   3.792   0.556  1.00  0.00     0.299 C 
BRANCH  32  33
HETATM   33  O1  UNL     1      -6.266   4.853   0.847  1.00  0.00    -0.382 OA
ATOM     34  H1  UNL     1      -6.754   5.534   1.296  1.00  0.00     0.211 HD
ENDBRANCH  32  33
ENDBRANCH  25  32
ENDBRANCH  16  23
ENDBRANCH   1   9
BRANCH   1  35
HETATM   35  C12 UNL     1       1.136  -0.900  -0.122  1.00  0.00     0.262 C 
BRANCH  35  36
HETATM   36  O4  UNL     1       0.786  -0.280   1.059  1.00  0.00    -0.374 OA
ATOM     37  H4  UNL     1       1.437   0.346   1.353  1.00  0.00     0.212 HD
ENDBRANCH  35  36
BRANCH  35  38
HETATM   38  C13 UNL     1       2.442  -1.646   0.086  1.00  0.00     0.207 C 
BRANCH  38  39
HETATM   39  N11 UNL     1       3.441  -0.684   0.573  1.00  0.00    -0.251 N 
HETATM   40  N12 UNL     1       3.693  -0.397   1.834  1.00  0.00    -0.238 N 
HETATM   41  N13 UNL     1       4.620   0.511   1.946  1.00  0.00    -0.281 N 
ATOM     42  H12 UNL     1       3.220  -0.833   2.626  1.00  0.00     0.208 HD
HETATM   43  C14 UNL     1       5.008   0.849   0.690  1.00  0.00     0.112 A 
ATOM     44  H13 UNL     1       4.986   0.897   2.816  1.00  0.00     0.188 HD
HETATM   45  C21 UNL     1       4.256   0.086  -0.155  1.00  0.00     0.188 A 
BRANCH  43  46
HETATM   46  C15 UNL     1       6.010   1.858   0.328  1.00  0.00    -0.004 A 
HETATM   47  C16 UNL     1       7.211   1.966   0.992  1.00  0.00     0.016 A 
HETATM   48  C17 UNL     1       8.116   2.961   0.618  1.00  0.00     0.037 A 
HETATM   49  C18 UNL     1       7.841   3.832  -0.392  1.00  0.00     0.065 A 
HETATM   50  C19 UNL     1       6.642   3.728  -1.059  1.00  0.00     0.037 A 
HETATM   51  C20 UNL     1       5.751   2.746  -0.688  1.00  0.00     0.016 A 
BRANCH  49  52
HETATM   52  O5  UNL     1       8.766   4.811  -0.737  1.00  0.00    -0.361 OA
ATOM     53  H5  UNL     1       8.574   5.419  -1.442  1.00  0.00     0.217 HD
ENDBRANCH  49  52
ENDBRANCH  43  46
BRANCH  45  54
HETATM   54  O6  UNL     1       4.331   0.109  -1.540  1.00  0.00    -0.343 OA
ATOM     55  H6  UNL     1       4.910   0.656  -2.057  1.00  0.00     0.219 HD
ENDBRANCH  45  54
ENDBRANCH  38  39
ENDBRANCH  35  38
ENDBRANCH   1  35
TORSDOF 15
