REMARK  16 active torsions:
REMARK  status: ('A' for Active; 'I' for Inactive)
REMARK    1  A    between atoms: S1_2  and  C2_3 
REMARK    2  A    between atoms: C4_7  and  N1_8 
REMARK    3  A    between atoms: N1_8  and  C5_10 
REMARK    4  A    between atoms: C5_10  and  O3_11 
REMARK    5  A    between atoms: C5_10  and  C6_13 
REMARK    6  A    between atoms: N2_15  and  C8_16 
REMARK    7  A    between atoms: C8_16  and  C9_17 
REMARK    8  A    between atoms: C9_17  and  O4_18 
REMARK    9  A    between atoms: C9_17  and  C10_20 
REMARK   10  A    between atoms: C10_20  and  O5_21 
REMARK   11  A    between atoms: C10_20  and  C11_23 
REMARK       I    between atoms: N5_31  and  C14_33 
REMARK   12  A    between atoms: C14_33  and  C15_35 
REMARK   13  A    between atoms: C15_35  and  N6_36 
REMARK   14  A    between atoms: C15_35  and  C16_40 
REMARK   15  A    between atoms: C19_44  and  O9_45 
REMARK   16  A    between atoms: N7_48  and  O10_49 
ROOT
HETATM    1  C2  UNL     1      -0.781  -2.674  -0.003  1.00  0.00     0.241 C 
HETATM    2  O1  UNL     1       0.565  -2.417   0.335  1.00  0.00    -0.297 OA
HETATM    3  C3  UNL     1       0.567  -1.416   1.334  1.00  0.00     0.289 C 
HETATM    4  O2  UNL     1       1.406  -1.414   2.261  1.00  0.00    -0.262 OA
HETATM    5  C4  UNL     1      -0.557  -0.519   0.989  1.00  0.00     0.233 C 
HETATM    6  C13 UNL     1      -1.409  -1.329   0.080  1.00  0.00     0.061 C 
HETATM    7  N5  UNL     1      -2.478  -1.060  -0.553  1.00  0.00    -0.327 N 
ATOM      8  H5  UNL     1      -2.842  -1.839  -1.102  1.00  0.00     0.168 HD
HETATM    9  C14 UNL     1      -3.240   0.090  -0.637  1.00  0.00     0.258 C 
HETATM   10  O7  UNL     1      -3.179   0.741  -1.743  1.00  0.00    -0.270 OA
ENDROOT
BRANCH   5  11
HETATM   11  N1  UNL     1      -0.179   0.736   0.417  1.00  0.00    -0.350 N 
ATOM     12  H1  UNL     1      -0.458   1.011  -0.525  1.00  0.00     0.163 HD
BRANCH  11  13
HETATM   13  C5  UNL     1       0.610   1.574   1.248  1.00  0.00     0.167 C 
BRANCH  13  14
HETATM   14  O3  UNL     1       0.580   1.310   2.598  1.00  0.00    -0.345 OA
ATOM     15  H3  UNL     1       1.108   1.871   3.154  1.00  0.00     0.219 HD
ENDBRANCH  13  14
BRANCH  13  16
HETATM   16  C6  UNL     1       1.963   1.847   0.713  1.00  0.00     0.117 A 
HETATM   17  C7  UNL     1       2.852   1.057   0.024  1.00  0.00     0.147 A 
HETATM   18  N2  UNL     1       3.981   1.739  -0.245  1.00  0.00    -0.284 N 
HETATM   19  N3  UNL     1       3.813   2.940   0.264  1.00  0.00    -0.240 N 
HETATM   20  N4  UNL     1       2.636   3.045   0.838  1.00  0.00    -0.281 N 
ATOM     21  H3  UNL     1       4.504   3.689   0.219  1.00  0.00     0.208 HD
ATOM     22  H4  UNL     1       2.277   3.879   1.302  1.00  0.00     0.188 HD
BRANCH  18  23
HETATM   23  C8  UNL     1       5.163   1.244  -0.961  1.00  0.00     0.184 C 
BRANCH  23  24
HETATM   24  C9  UNL     1       6.120   0.636   0.048  1.00  0.00     0.174 C 
BRANCH  24  25
HETATM   25  O4  UNL     1       5.512  -0.414   0.718  1.00  0.00    -0.391 OA
ATOM     26  H4  UNL     1       6.111  -0.795   1.350  1.00  0.00     0.210 HD
ENDBRANCH  24  25
BRANCH  24  27
HETATM   27  C10 UNL     1       7.302   0.111  -0.747  1.00  0.00     0.217 C 
BRANCH  27  28
HETATM   28  O5  UNL     1       6.834  -0.817  -1.643  1.00  0.00    -0.385 OA
ATOM     29  H5  UNL     1       7.574  -1.146  -2.140  1.00  0.00     0.210 HD
ENDBRANCH  27  28
BRANCH  27  30
HETATM   30  C11 UNL     1       8.329  -0.497   0.129  1.00  0.00     0.154 C 
HETATM   31  C12 UNL     1       8.701  -1.924  -0.050  1.00  0.00     0.093 C 
HETATM   32  O6  UNL     1       8.848   0.197   0.981  1.00  0.00    -0.295 OA
ENDBRANCH  27  30
ENDBRANCH  24  27
ENDBRANCH  23  24
ENDBRANCH  18  23
ENDBRANCH  13  16
ENDBRANCH  11  13
ENDBRANCH   5  11
BRANCH   1  33
HETATM   33  S1  UNL     1      -0.894  -3.384  -1.662  1.00  0.00    -0.135 SA
HETATM   34  C1  UNL     1      -2.652  -3.686  -2.020  1.00  0.00     0.093 C 
ENDBRANCH   1  33
BRANCH   9  35
HETATM   35  C15 UNL     1      -4.114   0.660   0.383  1.00  0.00     0.327 C 
BRANCH  35  36
HETATM   36  N6  UNL     1      -4.102   0.015   1.655  1.00  0.00    -0.061 N 
ATOM     37  H63 UNL     1      -4.307  -0.978   1.540  1.00  0.00     0.275 HD
ATOM     38  H62 UNL     1      -3.146  -0.034   2.008  1.00  0.00     0.275 HD
ATOM     39  H61 UNL     1      -4.713   0.413   2.368  1.00  0.00     0.275 HD
ENDBRANCH  35  36
BRANCH  35  40
HETATM   40  C16 UNL     1      -5.528   0.837  -0.029  1.00  0.00     0.083 A 
HETATM   41  C17 UNL     1      -6.062   0.471  -1.220  1.00  0.00     0.088 A 
HETATM   42  C18 UNL     1      -7.393   0.706  -1.474  1.00  0.00     0.208 A 
HETATM   43  O8  UNL     1      -7.928   0.379  -2.574  1.00  0.00    -0.285 OA
HETATM   44  C19 UNL     1      -8.223   1.310  -0.553  1.00  0.00     0.134 A 
HETATM   45  C20 UNL     1      -7.644   1.668   0.647  1.00  0.00     0.163 A 
HETATM   46  N7  UNL     1      -6.337   1.430   0.879  1.00  0.00    -0.235 N 
BRANCH  44  47
HETATM   47  O9  UNL     1      -9.572   1.558  -0.789  1.00  0.00    -0.356 OA
ATOM     48  H9  UNL     1     -10.144   1.974  -0.155  1.00  0.00     0.218 HD
ENDBRANCH  44  47
BRANCH  46  49
HETATM   49  O10 UNL     1      -5.886   1.845   2.125  1.00  0.00    -0.283 OA
ATOM     50  H10 UNL     1      -6.454   2.261   2.763  1.00  0.00     0.245 HD
ENDBRANCH  46  49
ENDBRANCH  35  40
ENDBRANCH   9  35
TORSDOF 16
