REMARK  16 active torsions:
REMARK  status: ('A' for Active; 'I' for Inactive)
REMARK    1  A    between atoms: O1_2  and  C2_3 
REMARK    2  A    between atoms: C2_3  and  O2_4 
REMARK    3  A    between atoms: C2_3  and  C3_6 
REMARK    4  A    between atoms: C3_6  and  N1_7 
REMARK    5  A    between atoms: C3_6  and  C13_37 
REMARK    6  A    between atoms: N1_7  and  C4_9 
REMARK    7  A    between atoms: N4_16  and  N5_17 
REMARK    8  A    between atoms: C6_20  and  C7_21 
REMARK    9  A    between atoms: C7_21  and  S1_22 
REMARK   10  A    between atoms: S1_22  and  C8_23 
REMARK   11  A    between atoms: C9_28  and  C10_29 
REMARK   12  A    between atoms: C10_29  and  C11_31 
REMARK   13  A    between atoms: C11_31  and  C12_33 
REMARK   14  A    between atoms: C14_38  and  O7_39 
REMARK   15  A    between atoms: C15_43  and  N9_44 
REMARK   16  A    between atoms: N9_44  and  O8_46 
ROOT
HETATM    1  C4  UNL     1      -0.613   0.397   1.387  1.00  0.00     0.148 A 
HETATM    2  N2  UNL     1      -0.442   1.128   2.511  1.00  0.00    -0.173 N 
ATOM      3  H2  UNL     1      -1.087   1.839   2.857  1.00  0.00     0.186 HD
HETATM    4  C5  UNL     1       0.700   0.774   3.096  1.00  0.00     0.698 A 
HETATM    5  N3  UNL     1       1.197   1.264   4.200  1.00  0.00    -0.233 N 
ATOM      6  H31 UNL     1       2.072   0.993   4.648  1.00  0.00     0.174 HD
ATOM      7  H32 UNL     1       0.740   1.997   4.743  1.00  0.00     0.174 HD
HETATM    8  N4  UNL     1       1.307  -0.198   2.376  1.00  0.00    -0.093 N 
HETATM    9  C6  UNL     1       0.532  -0.453   1.319  1.00  0.00     0.106 A 
ENDROOT
BRANCH   1  10
HETATM   10  N1  UNL     1      -1.650   0.497   0.493  1.00  0.00    -0.336 N 
ATOM     11  H1  UNL     1      -1.508   1.141  -0.285  1.00  0.00     0.168 HD
BRANCH  10  12
HETATM   12  C3  UNL     1      -2.802  -0.134   0.515  1.00  0.00     0.112 C 
BRANCH  12  13
HETATM   13  C2  UNL     1      -3.074  -1.050   1.571  1.00  0.00     0.206 C 
BRANCH  13  14
HETATM   14  O1  UNL     1      -4.194  -1.797   1.777  1.00  0.00    -0.334 OA
HETATM   15  C1  UNL     1      -4.332  -2.685   2.892  1.00  0.00     0.212 C 
ENDBRANCH  13  14
BRANCH  13  16
HETATM   16  O2  UNL     1      -2.177  -1.248   2.496  1.00  0.00    -0.339 OA
ATOM     17  H2  UNL     1      -1.396  -0.727   2.352  1.00  0.00     0.220 HD
ENDBRANCH  13  16
ENDBRANCH  12  13
BRANCH  12  18
HETATM   18  C13 UNL     1      -3.653   0.241  -0.620  1.00  0.00     0.115 A 
HETATM   19  C14 UNL     1      -4.900  -0.223  -0.895  1.00  0.00     0.173 A 
HETATM   20  N8  UNL     1      -5.565   0.218  -1.989  1.00  0.00    -0.168 N 
HETATM   21  C15 UNL     1      -5.071   1.102  -2.844  1.00  0.00     0.706 A 
ATOM     22  H8  UNL     1      -6.499  -0.151  -2.165  1.00  0.00     0.186 HD
HETATM   23  N10 UNL     1      -3.849   1.578  -2.604  1.00  0.00    -0.153 N 
HETATM   24  C16 UNL     1      -3.143   1.179  -1.539  1.00  0.00     0.276 A 
ATOM     25  H10 UNL     1      -3.444   2.260  -3.245  1.00  0.00     0.187 HD
HETATM   26  O9  UNL     1      -1.978   1.680  -1.374  1.00  0.00    -0.267 OA
BRANCH  19  27
HETATM   27  O7  UNL     1      -5.543  -1.128  -0.119  1.00  0.00    -0.345 OA
ATOM     28  H7  UNL     1      -6.415  -1.452  -0.311  1.00  0.00     0.219 HD
ENDBRANCH  19  27
BRANCH  21  29
HETATM   29  N9  UNL     1      -5.777   1.471  -3.869  1.00  0.00    -0.098 N 
ATOM     30  H9  UNL     1      -5.384   2.152  -4.519  1.00  0.00     0.213 HD
BRANCH  29  31
HETATM   31  O8  UNL     1      -7.026   0.979  -4.105  1.00  0.00    -0.276 OA
ATOM     32  H8  UNL     1      -7.543   1.249  -4.855  1.00  0.00     0.245 HD
ENDBRANCH  29  31
ENDBRANCH  21  29
ENDBRANCH  12  18
ENDBRANCH  10  12
ENDBRANCH   1  10
BRANCH   9  33
HETATM   33  C7  UNL     1       0.635  -1.442   0.239  1.00  0.00     0.145 C 
BRANCH  33  34
HETATM   34  S1  UNL     1       2.186  -2.287   0.188  1.00  0.00    -0.097 SA
BRANCH  34  35
HETATM   35  C8  UNL     1       3.510  -1.379  -0.603  1.00  0.00     0.129 A 
HETATM   36  N6  UNL     1       3.803  -1.405  -1.922  1.00  0.00    -0.287 N 
HETATM   37  N7  UNL     1       4.766  -0.734  -2.361  1.00  0.00    -0.289 N 
ATOM     38  H6  UNL     1       3.241  -1.970  -2.559  1.00  0.00     0.188 HD
HETATM   39  C9  UNL     1       5.503   0.003  -1.535  1.00  0.00     0.146 A 
ATOM     40  H7  UNL     1       4.986  -0.753  -3.357  1.00  0.00     0.188 HD
HETATM   41  S2  UNL     1       4.714  -0.329  -0.057  1.00  0.00    -0.041 SA
BRANCH  39  42
HETATM   42  C10 UNL     1       6.662   0.856  -1.831  1.00  0.00     0.263 C 
HETATM   43  O3  UNL     1       7.035   0.918  -3.024  1.00  0.00    -0.281 OA
BRANCH  42  44
HETATM   44  C11 UNL     1       7.289   1.557  -0.742  1.00  0.00     0.300 C 
HETATM   45  O4  UNL     1       6.856   1.443   0.422  1.00  0.00    -0.277 OA
BRANCH  44  46
HETATM   46  C12 UNL     1       8.436   2.406  -0.997  1.00  0.00     0.255 C 
HETATM   47  O5  UNL     1       8.896   2.546  -2.149  1.00  0.00    -0.641 OA
HETATM   48  O6  UNL     1       9.084   3.110   0.025  1.00  0.00    -0.641 OA
ENDBRANCH  44  46
ENDBRANCH  42  44
ENDBRANCH  39  42
ENDBRANCH  34  35
ENDBRANCH  33  34
ENDBRANCH   9  33
BRANCH   8  49
HETATM   49  N5  UNL     1       2.500  -0.850   2.724  1.00  0.00    -0.324 N 
ATOM     50  H52 UNL     1       3.092  -0.655   3.531  1.00  0.00     0.178 HD
ATOM     51  H51 UNL     1       2.957  -1.583   2.181  1.00  0.00     0.178 HD
ENDBRANCH   8  49
TORSDOF 16
