REMARK  15 active torsions:
REMARK  status: ('A' for Active; 'I' for Inactive)
REMARK    1  A    between atoms: C2_2  and  O1_3 
REMARK    2  A    between atoms: O1_3  and  C3_4 
REMARK    3  A    between atoms: C3_4  and  C4_6 
REMARK    4  A    between atoms: C8_12  and  O4_13 
REMARK    5  A    between atoms: C8_12  and  C9_15 
REMARK    6  A    between atoms: C10_18  and  N3_19 
REMARK    7  A    between atoms: C11_24  and  N5_25 
REMARK    8  A    between atoms: N7_30  and  C12_31 
REMARK    9  A    between atoms: N8_33  and  N9_34 
REMARK   10  A    between atoms: C14_37  and  N10_38 
REMARK   11  A    between atoms: C16_40  and  C17_41 
REMARK   12  A    between atoms: C17_41  and  O5_42 
REMARK   13  A    between atoms: O5_42  and  C18_43 
REMARK   14  A    between atoms: C18_43  and  C19_44 
REMARK   15  A    between atoms: C19_44  and  O6_47 
ROOT
HETATM    1  C4  UNL     1      -3.321   0.994   1.454  1.00  0.00     0.220 C 
HETATM    2  C5  UNL     1      -4.554   0.378   2.025  1.00  0.00     0.190 C 
HETATM    3  O3  UNL     1      -4.356  -0.044   3.354  1.00  0.00    -0.278 OA
HETATM    4  N1  UNL     1      -4.818  -1.303   3.441  1.00  0.00    -0.100 NA
HETATM    5  C6  UNL     1      -4.242  -1.904   2.223  1.00  0.00     0.155 C 
HETATM    6  C7  UNL     1      -4.737  -0.908   1.211  1.00  0.00     0.100 C 
HETATM    7  C8  UNL     1      -3.824  -0.735   0.022  1.00  0.00     0.204 C 
HETATM    8  N7  UNL     1      -2.736   0.004   0.539  1.00  0.00    -0.310 N 
ENDROOT
BRANCH   8   9
HETATM    9  C12 UNL     1      -1.312  -0.069   0.343  1.00  0.00     0.141 A 
HETATM   10  C13 UNL     1      -0.459  -0.839   1.108  1.00  0.00     0.183 A 
HETATM   11  N8  UNL     1       0.807  -0.650   0.667  1.00  0.00    -0.099 N 
HETATM   12  C14 UNL     1       0.760   0.223  -0.355  1.00  0.00     0.724 A 
HETATM   13  N13 UNL     1      -0.523   0.560  -0.537  1.00  0.00    -0.172 N 
ATOM     14  H13 UNL     1      -0.855   1.209  -1.251  1.00  0.00     0.186 HD
BRANCH  11  15
HETATM   15  N9  UNL     1       1.932  -1.271   1.215  1.00  0.00    -0.324 N 
ATOM     16  H92 UNL     1       1.968  -1.933   1.990  1.00  0.00     0.178 HD
ATOM     17  H91 UNL     1       2.886  -1.129   0.883  1.00  0.00     0.178 HD
ENDBRANCH  11  15
BRANCH  12  18
HETATM   18  N10 UNL     1       1.943   0.648  -1.050  1.00  0.00    -0.078 N 
HETATM   19  C15 UNL     1       2.970   1.367  -0.499  1.00  0.00     0.161 A 
HETATM   20  C16 UNL     1       3.938   1.598  -1.478  1.00  0.00     0.065 A 
HETATM   21  N11 UNL     1       3.459   1.012  -2.588  1.00  0.00    -0.284 N 
HETATM   22  N12 UNL     1       2.281   0.457  -2.315  1.00  0.00    -0.000 NA
ATOM     23  H11 UNL     1       3.924   0.995  -3.496  1.00  0.00     0.184 HD
BRANCH  20  24
HETATM   24  C17 UNL     1       5.214   2.333  -1.329  1.00  0.00     0.227 C 
BRANCH  24  25
HETATM   25  O5  UNL     1       6.315   1.525  -1.124  1.00  0.00    -0.382 OA
BRANCH  25  26
HETATM   26  C18 UNL     1       6.180   0.749   0.002  1.00  0.00     0.205 C 
BRANCH  26  27
HETATM   27  C19 UNL     1       7.417  -0.103   0.206  1.00  0.00     0.072 C 
HETATM   28  C20 UNL     1       8.632   0.773   0.473  1.00  0.00     0.047 C 
HETATM   29  C21 UNL     1       7.743  -0.969  -0.966  1.00  0.00     0.047 C 
BRANCH  27  30
HETATM   30  O6  UNL     1       7.232  -0.874   1.347  1.00  0.00    -0.388 OA
ATOM     31  H6  UNL     1       8.007  -1.408   1.475  1.00  0.00     0.210 HD
ENDBRANCH  27  30
ENDBRANCH  26  27
ENDBRANCH  25  26
ENDBRANCH  24  25
ENDBRANCH  20  24
ENDBRANCH  12  18
ENDBRANCH   8   9
BRANCH   1  32
HETATM   32  C3  UNL     1      -3.646   2.270   0.783  1.00  0.00     0.284 C 
HETATM   33  O2  UNL     1      -3.274   2.520  -0.415  1.00  0.00    -0.263 OA
BRANCH  32  34
HETATM   34  O1  UNL     1      -4.384   3.301   1.392  1.00  0.00    -0.320 OA
BRANCH  34  35
HETATM   35  C2  UNL     1      -4.655   4.503   0.669  1.00  0.00     0.174 C 
HETATM   36  C1  UNL     1      -3.391   5.192   0.267  1.00  0.00     0.034 C 
ENDBRANCH  34  35
ENDBRANCH  32  34
ENDBRANCH   1  32
BRANCH   7  37
HETATM   37  O4  UNL     1      -4.541   0.086  -0.884  1.00  0.00    -0.364 OA
ATOM     38  H4  UNL     1      -3.966   0.195  -1.633  1.00  0.00     0.213 HD
ENDBRANCH   7  37
BRANCH   7  39
HETATM   39  C9  UNL     1      -3.527  -1.962  -0.712  1.00  0.00     0.169 A 
HETATM   40  N2  UNL     1      -2.405  -2.677  -0.683  1.00  0.00    -0.175 N 
HETATM   41  C10 UNL     1      -2.246  -3.812  -1.425  1.00  0.00     0.691 A 
ATOM     42  H2  UNL     1      -1.638  -2.367  -0.086  1.00  0.00     0.185 HD
HETATM   43  N4  UNL     1      -3.238  -4.247  -2.221  1.00  0.00    -0.023 N 
HETATM   44  C11 UNL     1      -4.372  -3.548  -2.269  1.00  0.00     0.691 A 
ATOM     45  H4  UNL     1      -3.125  -5.095  -2.777  1.00  0.00     0.203 HD
HETATM   46  N6  UNL     1      -4.512  -2.434  -1.532  1.00  0.00    -0.175 N 
ATOM     47  H6  UNL     1      -5.391  -1.919  -1.587  1.00  0.00     0.185 HD
BRANCH  41  48
HETATM   48  N3  UNL     1      -1.148  -4.489  -1.372  1.00  0.00    -0.234 N 
ATOM     49  H32 UNL     1      -0.395  -4.159  -0.768  1.00  0.00     0.174 HD
ATOM     50  H31 UNL     1      -1.029  -5.337  -1.926  1.00  0.00     0.174 HD
ENDBRANCH  41  48
BRANCH  44  51
HETATM   51  N5  UNL     1      -5.311  -3.987  -3.055  1.00  0.00    -0.234 N 
ATOM     52  H52 UNL     1      -5.205  -4.833  -3.615  1.00  0.00     0.174 HD
ATOM     53  H51 UNL     1      -6.179  -3.452  -3.092  1.00  0.00     0.174 HD
ENDBRANCH  44  51
ENDBRANCH   7  39
TORSDOF 15
