REMARK  14 active torsions:
REMARK  status: ('A' for Active; 'I' for Inactive)
REMARK    1  A    between atoms: O1_3  and  C2_4 
REMARK    2  A    between atoms: C2_4  and  C3_6 
REMARK    3  A    between atoms: C3_6  and  N2_7 
REMARK    4  A    between atoms: C3_6  and  C8_21 
REMARK    5  A    between atoms: N2_7  and  C4_9 
REMARK    6  A    between atoms: C5_15  and  O4_16 
REMARK    7  A    between atoms: O4_16  and  C6_17 
REMARK    8  A    between atoms: C6_17  and  C7_18 
REMARK    9  A    between atoms: C8_21  and  N6_25 
REMARK   10  A    between atoms: N6_25  and  N7_27 
REMARK   11  A    between atoms: N7_27  and  C9_29 
REMARK   12  A    between atoms: C11_31  and  O7_32 
REMARK   13  A    between atoms: N8_35  and  C12_36 
REMARK   14  A    between atoms: C12_36  and  C13_37 
ROOT
HETATM    1  N1  UNL     1      -3.994   4.472   0.639  1.00  0.00    -0.163 NA
HETATM    2  C1  UNL     1      -3.746   3.360   0.435  1.00  0.00     0.236 C 
HETATM    3  O1  UNL     1      -3.443   2.028   0.204  1.00  0.00    -0.202 OA
ENDROOT
BRANCH   3   4
HETATM    4  C2  UNL     1      -3.090   1.172   1.227  1.00  0.00     0.303 C 
HETATM    5  O2  UNL     1      -3.044   1.619   2.395  1.00  0.00    -0.261 OA
BRANCH   4   6
HETATM    6  C3  UNL     1      -2.764  -0.255   0.983  1.00  0.00     0.253 C 
BRANCH   6   7
HETATM    7  N2  UNL     1      -2.902  -0.500  -0.424  1.00  0.00    -0.351 N 
ATOM      8  H2  UNL     1      -2.036  -0.544  -0.961  1.00  0.00     0.162 HD
BRANCH   7   9
HETATM    9  C4  UNL     1      -3.975  -0.668  -1.077  1.00  0.00     0.178 A 
HETATM   10  N3  UNL     1      -4.075  -0.896  -2.391  1.00  0.00    -0.222 N 
HETATM   11  O3  UNL     1      -5.354  -1.018  -2.706  1.00  0.00    -0.153 OA
ATOM     12  H3  UNL     1      -3.294  -0.965  -3.043  1.00  0.00     0.198 HD
HETATM   13  N4  UNL     1      -6.092  -0.878  -1.645  1.00  0.00    -0.216 N 
HETATM   14  C5  UNL     1      -5.255  -0.654  -0.587  1.00  0.00     0.211 A 
ATOM     15  H4  UNL     1      -7.110  -0.926  -1.608  1.00  0.00     0.199 HD
BRANCH  14  16
HETATM   16  O4  UNL     1      -5.697  -0.461   0.709  1.00  0.00    -0.321 OA
BRANCH  16  17
HETATM   17  C6  UNL     1      -7.057  -0.469   1.061  1.00  0.00     0.290 C 
BRANCH  17  18
HETATM   18  C7  UNL     1      -7.858   0.587   0.415  1.00  0.00     0.198 C 
HETATM   19  O5  UNL     1      -9.089   0.620   0.634  1.00  0.00    -0.646 OA
HETATM   20  O6  UNL     1      -7.288   1.527  -0.413  1.00  0.00    -0.646 OA
ENDBRANCH  17  18
ENDBRANCH  16  17
ENDBRANCH  14  16
ENDBRANCH   7   9
ENDBRANCH   6   7
BRANCH   6  21
HETATM   21  C8  UNL     1      -1.402  -0.521   1.478  1.00  0.00     0.122 C 
HETATM   22  N5  UNL     1      -1.136  -1.370   2.385  1.00  0.00    -0.386 N 
ATOM     23  H52 UNL     1      -1.914  -1.892   2.789  1.00  0.00     0.157 HD
ATOM     24  H51 UNL     1      -0.193  -1.554   2.728  1.00  0.00     0.157 HD
BRANCH  21  25
HETATM   25  N6  UNL     1      -0.295   0.222   0.903  1.00  0.00    -0.286 N 
ATOM     26  H6  UNL     1       0.399   0.607   1.544  1.00  0.00     0.188 HD
BRANCH  25  27
HETATM   27  N7  UNL     1      -0.121   0.435  -0.378  1.00  0.00    -0.283 N 
ATOM     28  H7  UNL     1      -0.784   1.138  -0.705  1.00  0.00     0.188 HD
BRANCH  27  29
HETATM   29  C9  UNL     1       0.618   0.042  -1.358  1.00  0.00     0.132 A 
HETATM   30  C10 UNL     1       0.412   0.593  -2.615  1.00  0.00     0.096 A 
HETATM   31  C11 UNL     1       1.185   0.134  -3.621  1.00  0.00     0.127 A 
HETATM   32  S1  UNL     1       2.161  -1.016  -2.862  1.00  0.00     0.015 SA
HETATM   33  N8  UNL     1       1.554  -0.879  -1.265  1.00  0.00    -0.294 N 
BRANCH  31  34
HETATM   34  O7  UNL     1       1.152   0.546  -4.981  1.00  0.00    -0.353 OA
ATOM     35  H7  UNL     1       1.696   0.223  -5.689  1.00  0.00     0.218 HD
ENDBRANCH  31  34
BRANCH  33  36
HETATM   36  C12 UNL     1       2.095  -1.651  -0.126  1.00  0.00     0.196 C 
BRANCH  36  37
HETATM   37  C13 UNL     1       3.307  -0.959   0.372  1.00  0.00     0.029 A 
HETATM   38  C14 UNL     1       3.388  -0.222   1.509  1.00  0.00     0.028 A 
HETATM   39  C15 UNL     1       4.569   0.409   1.903  1.00  0.00     0.023 A 
HETATM   40  C16 UNL     1       5.672   0.272   1.108  1.00  0.00     0.075 A 
HETATM   41  C17 UNL     1       5.601  -0.485  -0.063  1.00  0.00     0.118 A 
HETATM   42  C19 UNL     1       6.959   0.883   1.414  1.00  0.00     0.256 C 
HETATM   43  N9  UNL     1       4.441  -1.057  -0.374  1.00  0.00    -0.344 N 
HETATM   44  N10 UNL     1       6.733  -0.636  -0.893  1.00  0.00    -0.359 N 
ATOM     45  H9  UNL     1       4.398  -1.608  -1.232  1.00  0.00     0.167 HD
HETATM   46  C18 UNL     1       8.067  -0.358  -0.422  1.00  0.00     0.248 C 
ATOM     47  H10 UNL     1       6.603  -0.951  -1.854  1.00  0.00     0.162 HD
HETATM   48  N11 UNL     1       8.052   0.699   0.551  1.00  0.00    -0.341 N 
ATOM     49  H11 UNL     1       8.852   1.329   0.616  1.00  0.00     0.164 HD
HETATM   50  O8  UNL     1       7.041   1.564   2.461  1.00  0.00    -0.267 OA
ENDBRANCH  36  37
ENDBRANCH  33  36
ENDBRANCH  27  29
ENDBRANCH  25  27
ENDBRANCH  21  25
ENDBRANCH   6  21
ENDBRANCH   4   6
ENDBRANCH   3   4
TORSDOF 14
