REMARK  3 active torsions:
REMARK  status: ('A' for Active; 'I' for Inactive)
REMARK    1  A    between atoms: C2_2  and  C4_4 
REMARK    2  A    between atoms: N2_19  and  C16_20 
REMARK    3  A    between atoms: C16_20  and  C17_21 
ROOT
HETATM    1  C4  UNL     1      -1.583  -1.216   0.502  1.00  0.00     0.213 C 
HETATM    2  N1  UNL     1      -2.432  -0.904  -0.682  1.00  0.00    -0.064 N 
ATOM      3  H11 UNL     1      -3.088  -1.650  -0.912  1.00  0.00     0.278 HD
ATOM      4  H12 UNL     1      -1.913  -0.911  -1.560  1.00  0.00     0.278 HD
HETATM    5  C5  UNL     1      -3.087   0.374  -0.413  1.00  0.00     0.191 C 
HETATM    6  C6  UNL     1      -4.077   0.700  -1.516  1.00  0.00     0.033 C 
HETATM    7  C7  UNL     1      -3.699   1.908  -2.306  1.00  0.00     0.002 C 
HETATM    8  C8  UNL     1      -3.372   3.105  -1.464  1.00  0.00     0.001 C 
HETATM    9  C9  UNL     1      -2.530   2.821  -0.278  1.00  0.00     0.007 C 
HETATM   10  C10 UNL     1      -2.027   1.409  -0.293  1.00  0.00     0.026 C 
HETATM   11  C11 UNL     1      -1.136   1.088   0.879  1.00  0.00    -0.016 C 
HETATM   12  C12 UNL     1      -1.937   1.116   2.101  1.00  0.00     0.018 C 
HETATM   13  C13 UNL     1      -0.010   2.072   1.022  1.00  0.00     0.013 C 
HETATM   14  C14 UNL     1       0.791   1.700   2.262  1.00  0.00     0.021 C 
HETATM   15  C15 UNL     1       0.971   0.219   2.387  1.00  0.00     0.122 C 
HETATM   16  N2  UNL     1       0.742  -0.457   1.143  1.00  0.00    -0.386 N 
HETATM   17  C23 UNL     1      -0.483  -0.279   0.508  1.00  0.00     0.123 C 
ENDROOT
BRANCH  16  18
HETATM   18  C16 UNL     1       1.806  -1.156   0.603  1.00  0.00     0.063 C 
BRANCH  18  19
HETATM   19  C17 UNL     1       3.043  -0.529   0.095  1.00  0.00     0.024 C 
HETATM   20  C18 UNL     1       2.831   0.424  -1.053  1.00  0.00     0.010 C 
HETATM   21  C19 UNL     1       3.965   0.376  -2.052  1.00  0.00     0.001 C 
HETATM   22  C20 UNL     1       5.298   0.151  -1.423  1.00  0.00     0.000 C 
HETATM   23  C21 UNL     1       5.337  -1.064  -0.527  1.00  0.00     0.001 C 
HETATM   24  C22 UNL     1       3.956  -1.625  -0.448  1.00  0.00     0.010 C 
ENDBRANCH  18  19
ENDBRANCH  16  18
BRANCH   1  25
HETATM   25  C2  UNL     1      -1.520  -2.674   0.516  1.00  0.00     0.010 C 
HETATM   26  C1  UNL     1      -0.978  -3.385  -0.681  1.00  0.00     0.011 C 
HETATM   27  C3  UNL     1      -1.049  -3.282   1.822  1.00  0.00     0.011 C 
ENDBRANCH   1  25
TORSDOF 3
