REMARK  5 active torsions:
REMARK  status: ('A' for Active; 'I' for Inactive)
REMARK    1  A    between atoms: C2_2  and  O1_4 
REMARK    2  A    between atoms: O1_4  and  C4_5 
REMARK    3  A    between atoms: C6_7  and  O2_9 
REMARK    4  A    between atoms: C8_11  and  C9_12 
REMARK       I    between atoms: N1_13  and  C10_15 
REMARK    5  A    between atoms: C10_15  and  C11_17 
ROOT
HETATM    1  C4  UNL     1      -1.930  -0.738   0.223  1.00  0.00     0.129 C 
HETATM    2  C5  UNL     1      -0.990  -1.899   0.648  1.00  0.00     0.070 C 
HETATM    3  C6  UNL     1       0.325  -1.224   0.950  1.00  0.00     0.065 C 
HETATM    4  C7  UNL     1       0.135  -0.371   2.169  1.00  0.00     0.046 C 
HETATM    5  C8  UNL     1       0.915  -0.501  -0.221  1.00  0.00     0.064 C 
HETATM    6  C14 UNL     1      -0.043   0.103  -1.164  1.00  0.00     0.023 C 
HETATM    7  C15 UNL     1      -0.267   1.597  -0.980  1.00  0.00     0.091 C 
HETATM    8 CL1  UNL     1       1.161   2.527  -1.498  1.00  0.00    -0.124 Cl
HETATM    9  C16 UNL     1      -1.351   1.837  -2.040  1.00  0.00     0.001 C 
HETATM   10  C17 UNL     1      -2.025   3.164  -1.828  1.00  0.00     0.011 C 
HETATM   11  C18 UNL     1      -2.281   0.671  -1.776  1.00  0.00     0.013 C 
HETATM   12  C19 UNL     1      -1.414  -0.438  -1.189  1.00  0.00     0.021 C 
ENDROOT
BRANCH   5  13
HETATM   13  C9  UNL     1       1.924   0.453   0.312  1.00  0.00     0.072 C 
HETATM   14  N1  UNL     1       3.194   0.293   0.145  1.00  0.00    -0.340 N 
HETATM   15  C10 UNL     1       4.156   1.194   0.648  1.00  0.00     0.224 C 
ATOM     16  H1  UNL     1       3.517  -0.523  -0.375  1.00  0.00     0.167 HD
HETATM   17  O3  UNL     1       3.777   2.158   1.378  1.00  0.00    -0.273 OA
BRANCH  15  18
HETATM   18  C11 UNL     1       5.569   1.008   0.325  1.00  0.00     0.070 C 
HETATM   19  C12 UNL     1       6.117  -0.320   0.799  1.00  0.00     0.019 C 
HETATM   20  C13 UNL     1       5.793   1.102  -1.175  1.00  0.00     0.019 C 
ENDBRANCH  15  18
ENDBRANCH   5  13
BRANCH   3  21
HETATM   21  O2  UNL     1       1.208  -2.262   1.334  1.00  0.00    -0.389 OA
ATOM     22  H2  UNL     1       2.036  -1.837   1.524  1.00  0.00     0.210 HD
ENDBRANCH   3  21
BRANCH   1  23
HETATM   23  O1  UNL     1      -3.146  -0.893   0.402  1.00  0.00    -0.381 OA
BRANCH  23  24
HETATM   24  C2  UNL     1      -4.363  -1.046   0.583  1.00  0.00     0.113 C 
HETATM   25  C1  UNL     1      -5.256  -1.208  -0.687  1.00  0.00     0.039 C 
HETATM   26  C3  UNL     1      -4.614  -2.409   1.298  1.00  0.00     0.039 C 
ENDBRANCH  23  24
ENDBRANCH   1  23
TORSDOF 5
