REMARK  4 active torsions:
REMARK  status: ('A' for Active; 'I' for Inactive)
REMARK    1  A    between atoms: N1_2  and  C2_5 
REMARK    2  A    between atoms: C2_5  and  C3_6 
REMARK    3  A    between atoms: C3_6  and  O1_8 
REMARK    4  A    between atoms: O1_8  and  C5_9 
ROOT
HETATM    1  C5  UNL     1       1.299  -0.344  -0.450  1.00  0.00     0.168 C 
HETATM    2  C6  UNL     1       1.327  -1.888  -1.125  1.00  0.00     0.069 C 
HETATM    3  C7  UNL     1      -0.121  -2.155  -0.939  1.00  0.00    -0.081 C 
HETATM    4  C8  UNL     1      -1.183  -2.052  -1.615  1.00  0.00    -0.023 C 
HETATM    5  C9  UNL     1      -2.637  -2.352  -1.121  1.00  0.00     0.032 C 
HETATM    6  C10 UNL     1      -3.083  -0.884  -0.654  1.00  0.00    -0.005 C 
HETATM    7  C11 UNL     1      -3.888  -0.547   0.451  1.00  0.00     0.045 C 
HETATM    8  C12 UNL     1      -3.446   0.918   0.783  1.00  0.00     0.093 C 
HETATM    9  C13 UNL     1      -4.729   1.721   0.779  1.00  0.00     0.049 C 
HETATM   10  C14 UNL     1      -2.820   1.046   2.122  1.00  0.00     0.044 C 
HETATM   11  C15 UNL     1      -1.481   0.342   2.167  1.00  0.00     0.048 C 
HETATM   12  C16 UNL     1      -0.980   0.365   0.685  1.00  0.00     0.135 C 
HETATM   13  C17 UNL     1      -1.743  -0.534  -0.125  1.00  0.00     0.050 C 
HETATM   14  O2  UNL     1      -1.293   1.581   0.271  1.00  0.00    -0.225 OA
HETATM   15  O3  UNL     1      -2.594   1.485  -0.134  1.00  0.00    -0.229 OA
HETATM   16  C18 UNL     1       0.411  -0.239   0.665  1.00  0.00     0.164 C 
HETATM   17  F1  UNL     1       1.047   0.573   1.677  1.00  0.00    -0.237 F 
HETATM   18  C19 UNL     1       0.427  -1.604   1.377  1.00  0.00     0.054 C 
HETATM   19  C20 UNL     1      -0.027  -2.747   0.510  1.00  0.00     0.037 C 
ENDROOT
BRANCH   1  20
HETATM   20  O1  UNL     1       2.620  -0.223  -0.158  1.00  0.00    -0.376 OA
BRANCH  20  21
HETATM   21  C3  UNL     1       3.393   0.484  -1.034  1.00  0.00     0.143 C 
HETATM   22  C4  UNL     1       4.385  -0.436  -1.770  1.00  0.00     0.041 C 
BRANCH  21  23
HETATM   23  C2  UNL     1       4.231   1.501  -0.340  1.00  0.00     0.263 C 
BRANCH  23  24
HETATM   24  N1  UNL     1       3.531   2.519   0.361  1.00  0.00    -0.077 N 
HETATM   25  C1  UNL     1       4.427   3.451   0.996  1.00  0.00     0.267 C 
ATOM     26  H12 UNL     1       2.874   2.121   1.032  1.00  0.00     0.276 HD
ATOM     27  H11 UNL     1       2.868   2.999  -0.248  1.00  0.00     0.276 HD
ENDBRANCH  23  24
ENDBRANCH  21  23
ENDBRANCH  20  21
ENDBRANCH   1  20
TORSDOF 4
