REMARK  1 active torsions:
REMARK  status: ('A' for Active; 'I' for Inactive)
REMARK       I    between atoms: C1_2  and  N2_5 
REMARK    1  A    between atoms: N2_5  and  N3_7 
ROOT
HETATM    1  O1  UNL     1       1.299   0.177  -1.072  1.00  0.00    -0.228 OA
HETATM    2  C1  UNL     1       0.975   0.634   0.083  1.00  0.00     0.421 C 
HETATM    3  N1  UNL     1       1.548   1.588   0.842  1.00  0.00    -0.300 NA
HETATM    4  S1  UNL     1       2.248   2.752   1.769  1.00  0.00     0.149 SA
HETATM    5  N2  UNL     1      -0.230  -0.054   0.580  1.00  0.00    -0.218 N 
ATOM      6  H2  UNL     1      -0.616   0.192   1.492  1.00  0.00     0.194 HD
ENDROOT
BRANCH   5   7
HETATM    7  N3  UNL     1      -0.839  -1.030  -0.183  1.00  0.00    -0.172 N 
HETATM    8  C2  UNL     1      -1.905  -1.791   0.145  1.00  0.00     0.238 A 
HETATM    9  N4  UNL     1      -2.221  -2.614  -0.861  1.00  0.00    -0.279 N 
HETATM   10  N5  UNL     1      -1.347  -2.366  -1.834  1.00  0.00    -0.006 NA
ATOM     11  H4  UNL     1      -2.980  -3.295  -0.879  1.00  0.00     0.184 HD
HETATM   12  N6  UNL     1      -0.526  -1.414  -1.410  1.00  0.00     0.015 NA
ENDBRANCH   5   7
TORSDOF 0
