REMARK  3 active torsions:
REMARK  status: ('A' for Active; 'I' for Inactive)
REMARK    1  A    between atoms: N1_1  and  C1_4 
REMARK    2  A    between atoms: N4_13  and  C4_14 
REMARK    3  A    between atoms: C8_18  and  S1_19 
ROOT
HETATM    1  C1  UNL     1       2.188   1.346   0.096  1.00  0.00     0.686 A 
HETATM    2  N2  UNL     1       3.503   1.628   0.242  1.00  0.00    -0.141 N 
ATOM      3  H2  UNL     1       3.800   2.557   0.541  1.00  0.00     0.189 HD
HETATM    4  C2  UNL     1       4.418   0.669  -0.011  1.00  0.00     0.342 A 
HETATM    5  O1  UNL     1       5.638   0.929   0.124  1.00  0.00    -0.246 OA
HETATM    6  N3  UNL     1       3.978  -0.543  -0.404  1.00  0.00    -0.259 N 
ATOM      7  H3  UNL     1       4.655  -1.281  -0.600  1.00  0.00     0.175 HD
HETATM    8  C3  UNL     1       2.673  -0.798  -0.542  1.00  0.00     0.345 A 
HETATM    9  O2  UNL     1       2.349  -1.956  -0.913  1.00  0.00    -0.246 OA
HETATM   10  N4  UNL     1       1.730   0.166  -0.288  1.00  0.00    -0.128 N 
ENDROOT
BRANCH  10  11
HETATM   11  C4  UNL     1       0.384  -0.251  -0.478  1.00  0.00     0.118 C 
HETATM   12  C5  UNL     1       0.118  -1.390   0.488  1.00  0.00     0.027 C 
HETATM   13  C6  UNL     1      -1.017  -1.139   1.425  1.00  0.00     0.004 C 
HETATM   14  C7  UNL     1      -2.341  -1.527   0.768  1.00  0.00     0.022 C 
HETATM   15  C8  UNL     1      -2.850  -0.291   0.095  1.00  0.00     0.131 C 
HETATM   16  C9  UNL     1      -1.953   0.042  -1.053  1.00  0.00     0.258 C 
HETATM   17  F1  UNL     1      -1.608  -1.074  -1.791  1.00  0.00    -0.205 F 
HETATM   18  F2  UNL     1      -2.656   0.872  -1.905  1.00  0.00    -0.205 F 
HETATM   19  C10 UNL     1      -0.684   0.751  -0.531  1.00  0.00     0.106 C 
BRANCH  15  20
HETATM   20  S1  UNL     1      -4.589  -0.373  -0.338  1.00  0.00    -0.074 SA
HETATM   21  S2  UNL     1      -5.118   1.478  -1.282  1.00  0.00    -0.013 SA
ENDBRANCH  15  20
ENDBRANCH  10  11
BRANCH   1  22
HETATM   22  N1  UNL     1       1.342   2.256   0.338  1.00  0.00    -0.234 N 
ATOM     23  H12 UNL     1       1.695   3.166   0.634  1.00  0.00     0.174 HD
ATOM     24  H11 UNL     1       0.351   2.043   0.228  1.00  0.00     0.174 HD
ENDBRANCH   1  22
TORSDOF 3
