REMARK  3 active torsions:
REMARK  status: ('A' for Active; 'I' for Inactive)
REMARK    1  A    between atoms: N1_1  and  C1_4 
REMARK    2  A    between atoms: C8_19  and  O2_20 
REMARK    3  A    between atoms: O2_20  and  C9_21 
ROOT
HETATM    1  C1  UNL     1      -3.551  -1.174  -1.746  1.00  0.00     0.679 A 
HETATM    2  N2  UNL     1      -2.232  -1.375  -1.824  1.00  0.00    -0.176 N 
ATOM      3  H2  UNL     1      -1.865  -2.051  -2.494  1.00  0.00     0.186 HD
HETATM    4  C2  UNL     1      -1.388  -0.704  -1.037  1.00  0.00     0.142 A 
HETATM    5  N3  UNL     1      -0.056  -0.902  -1.110  1.00  0.00    -0.325 N 
ATOM      6  H3  UNL     1       0.337  -1.572  -1.771  1.00  0.00     0.169 HD
HETATM    7  C3  UNL     1       0.745  -0.192  -0.288  1.00  0.00     0.140 A 
HETATM    8  C4  UNL     1       2.122  -0.167  -0.122  1.00  0.00     0.012 A 
HETATM    9  C5  UNL     1       2.456   0.736   0.855  1.00  0.00     0.036 A 
HETATM   10  N4  UNL     1       1.262   1.251   1.273  1.00  0.00    -0.293 N 
ATOM     11  H4  UNL     1       1.153   1.958   2.001  1.00  0.00     0.187 HD
HETATM   12  N5  UNL     1       0.268   0.700   0.597  1.00  0.00    -0.202 N 
HETATM   13  C6  UNL     1      -1.057   0.920   0.693  1.00  0.00     0.286 A 
HETATM   14  O1  UNL     1      -1.483   1.758   1.526  1.00  0.00    -0.265 OA
HETATM   15  C7  UNL     1      -1.909   0.211  -0.134  1.00  0.00     0.130 A 
HETATM   16  C8  UNL     1      -3.285   0.430  -0.043  1.00  0.00     0.182 A 
HETATM   17  N6  UNL     1      -4.066  -0.278  -0.862  1.00  0.00    -0.169 N 
ATOM     18  H6  UNL     1      -5.076  -0.143  -0.824  1.00  0.00     0.186 HD
HETATM   19  C10 UNL     1       3.850   1.009   1.279  1.00  0.00     0.059 C 
HETATM   20  C11 UNL     1       4.812  -0.004   0.792  1.00  0.00     0.006 C 
HETATM   21  C12 UNL     1       4.197  -1.284   0.273  1.00  0.00     0.005 C 
HETATM   22  C13 UNL     1       3.179  -0.944  -0.825  1.00  0.00     0.044 C 
ENDROOT
BRANCH  16  23
HETATM   23  O2  UNL     1      -3.718   1.352   0.877  1.00  0.00    -0.272 OA
BRANCH  23  24
HETATM   24  C9  UNL     1      -5.045   1.722   1.130  1.00  0.00     0.506 C 
HETATM   25  F1  UNL     1      -5.293   1.434   2.477  1.00  0.00    -0.184 F 
HETATM   26  F2  UNL     1      -5.200   3.108   0.989  1.00  0.00    -0.184 F 
ENDBRANCH  23  24
ENDBRANCH  16  23
BRANCH   1  27
HETATM   27  N1  UNL     1      -4.334  -1.840  -2.521  1.00  0.00    -0.234 N 
ATOM     28  H12 UNL     1      -3.948  -2.512  -3.184  1.00  0.00     0.174 HD
ATOM     29  H11 UNL     1      -5.341  -1.687  -2.461  1.00  0.00     0.174 HD
ENDBRANCH   1  27
TORSDOF 3
