REMARK  7 active torsions:
REMARK  status: ('A' for Active; 'I' for Inactive)
REMARK    1  A    between atoms: C2_2  and  N1_5 
REMARK    2  A    between atoms: N1_5  and  C6_8 
REMARK    3  A    between atoms: C6_8  and  C7_9 
REMARK    4  A    between atoms: N3_11  and  C9_12 
REMARK    5  A    between atoms: C9_12  and  C10_13 
REMARK    6  A    between atoms: C10_13  and  O1_14 
REMARK    7  A    between atoms: C14_25  and  C15_26 
ROOT
HETATM    1  N1  UNL     1       4.819   0.513  -0.591  1.00  0.00    -0.306 N 
HETATM    2  C5  UNL     1       5.125   0.694  -1.965  1.00  0.00     0.180 C 
HETATM    3  N2  UNL     1       5.383   0.824  -3.085  1.00  0.00    -0.172 NA
ENDROOT
BRANCH   1   4
HETATM    4  C2  UNL     1       5.191  -0.702   0.096  1.00  0.00     0.032 C 
HETATM    5  C1  UNL     1       4.814  -0.704   1.553  1.00  0.00     0.038 C 
HETATM    6  C3  UNL     1       4.535  -1.920  -0.540  1.00  0.00     0.038 C 
HETATM    7  C4  UNL     1       6.695  -0.904   0.004  1.00  0.00     0.038 C 
ENDBRANCH   1   4
BRANCH   1   8
HETATM    8  C6  UNL     1       4.117   1.599   0.062  1.00  0.00     0.195 C 
BRANCH   8   9
HETATM    9  C7  UNL     1       2.787   1.206   0.557  1.00  0.00     0.062 A 
HETATM   10  C8  UNL     1       1.825   0.453  -0.099  1.00  0.00     0.140 A 
HETATM   11  N3  UNL     1       0.744   0.327   0.715  1.00  0.00    -0.282 N 
HETATM   12  N8  UNL     1       1.057   0.982   1.811  1.00  0.00    -0.241 N 
HETATM   13  N9  UNL     1       2.250   1.509   1.751  1.00  0.00    -0.287 N 
ATOM     14  H8  UNL     1       0.438   1.069   2.617  1.00  0.00     0.208 HD
ATOM     15  H9  UNL     1       2.698   2.057   2.485  1.00  0.00     0.188 HD
BRANCH  11  16
HETATM   16  C9  UNL     1      -0.478  -0.377   0.443  1.00  0.00     0.212 C 
BRANCH  16  17
HETATM   17  C10 UNL     1      -1.534   0.451  -0.220  1.00  0.00     0.167 C 
HETATM   18  N4  UNL     1      -1.865   1.647   0.531  1.00  0.00    -0.345 N 
HETATM   19  C11 UNL     1      -3.047   2.340   0.191  1.00  0.00     0.091 C 
ATOM     20  H4  UNL     1      -1.261   1.978   1.283  1.00  0.00     0.164 HD
HETATM   21  N5  UNL     1      -3.138   3.594   0.374  1.00  0.00    -0.388 N 
HETATM   22  C12 UNL     1      -4.169   1.579  -0.377  1.00  0.00     0.170 C 
ATOM     23  H52 UNL     1      -2.359   4.122   0.768  1.00  0.00     0.157 HD
ATOM     24  H51 UNL     1      -3.992   4.095   0.128  1.00  0.00     0.157 HD
HETATM   25  C13 UNL     1      -5.472   2.092  -0.015  1.00  0.00     0.072 C 
HETATM   26  C14 UNL     1      -3.976   0.146   0.138  1.00  0.00     0.073 C 
HETATM   27  N6  UNL     1      -6.512   2.498   0.255  1.00  0.00    -0.196 NA
HETATM   28  C19 UNL     1      -2.747  -0.412  -0.489  1.00  0.00     0.160 C 
HETATM   29  C20 UNL     1      -2.489  -1.784  -0.068  1.00  0.00     0.069 C 
HETATM   30  N7  UNL     1      -2.299  -2.869   0.277  1.00  0.00    -0.197 NA
BRANCH  17  31
HETATM   31  O1  UNL     1      -0.973   0.894  -1.441  1.00  0.00    -0.368 OA
ATOM     32  H1  UNL     1      -1.643   1.420  -1.862  1.00  0.00     0.212 HD
ENDBRANCH  17  31
BRANCH  26  33
HETATM   33  C15 UNL     1      -5.163  -0.687  -0.196  1.00  0.00    -0.010 A 
HETATM   34  C16 UNL     1      -5.980  -1.315   0.704  1.00  0.00     0.015 A 
HETATM   35  C17 UNL     1      -7.007  -2.027   0.210  1.00  0.00     0.008 A 
HETATM   36  C18 UNL     1      -7.152  -2.065  -1.149  1.00  0.00     0.050 A 
HETATM   37  S1  UNL     1      -5.852  -1.108  -1.698  1.00  0.00    -0.106 SA
ENDBRANCH  26  33
ENDBRANCH  16  17
ENDBRANCH  11  16
ENDBRANCH   8   9
ENDBRANCH   1   8
TORSDOF 7
