REMARK  8 active torsions:
REMARK  status: ('A' for Active; 'I' for Inactive)
REMARK    1  A    between atoms: C2_2  and  O2_4 
REMARK    2  A    between atoms: O2_4  and  C3_5 
REMARK    3  A    between atoms: N1_13  and  O4_15 
REMARK    4  A    between atoms: O4_15  and  C10_16 
REMARK    5  A    between atoms: C10_16  and  C11_17 
REMARK    6  A    between atoms: C12_19  and  O6_20 
REMARK    7  A    between atoms: C13_22  and  O7_23 
REMARK    8  A    between atoms: C14_25  and  O8_26 
ROOT
HETATM    1  C3  UNL     1      -4.111   0.893  -0.034  1.00  0.00     0.273 C 
HETATM    2  O3  UNL     1      -3.488   1.520   1.066  1.00  0.00    -0.360 OA
HETATM    3  C4  UNL     1      -2.702   2.521   0.491  1.00  0.00     0.175 C 
HETATM    4  C5  UNL     1      -1.492   1.922  -0.209  1.00  0.00     0.010 C 
HETATM    5  C6  UNL     1      -0.921   3.048  -1.060  1.00  0.00     0.012 C 
HETATM    6  C7  UNL     1      -1.928   0.841  -1.128  1.00  0.00     0.007 C 
HETATM    7  C8  UNL     1      -0.831  -0.023  -1.687  1.00  0.00     0.092 C 
HETATM    8  C9  UNL     1       0.269  -0.324  -0.752  1.00  0.00     0.143 C 
HETATM    9  N1  UNL     1       1.143   0.640  -0.625  1.00  0.00    -0.248 N 
ATOM     10  H1  UNL     1       0.992   1.491  -1.167  1.00  0.00     0.196 HD
HETATM   11  O9  UNL     1       0.393  -1.475  -0.075  1.00  0.00    -0.301 OA
HETATM   12  C15 UNL     1      -0.162  -2.699  -0.041  1.00  0.00     0.047 C 
HETATM   13  C16 UNL     1       0.840  -3.864   0.106  1.00  0.00     0.076 C 
HETATM   14  C17 UNL     1      -1.404  -3.088  -0.108  1.00  0.00     0.006 C 
HETATM   15  C18 UNL     1      -2.648  -2.352  -0.246  1.00  0.00     0.030 C 
HETATM   16  C19 UNL     1      -2.657  -1.017   0.422  1.00  0.00     0.013 C 
HETATM   17  C20 UNL     1      -3.074  -0.011  -0.640  1.00  0.00     0.047 C 
ENDROOT
BRANCH   9  18
HETATM   18  O4  UNL     1       2.226   0.589   0.169  1.00  0.00    -0.276 OA
BRANCH  18  19
HETATM   19  C10 UNL     1       3.497   1.123  -0.069  1.00  0.00     0.235 C 
BRANCH  19  20
HETATM   20  C11 UNL     1       4.440   0.855   1.081  1.00  0.00     0.182 C 
HETATM   21  O5  UNL     1       4.602  -0.512   1.310  1.00  0.00    -0.349 OA
HETATM   22  C12 UNL     1       5.757  -0.629   2.080  1.00  0.00     0.288 C 
HETATM   23  C13 UNL     1       6.674   0.513   1.681  1.00  0.00     0.204 C 
HETATM   24  C14 UNL     1       5.845   1.263   0.660  1.00  0.00     0.183 C 
BRANCH  22  25
HETATM   25  O6  UNL     1       6.371  -1.859   1.957  1.00  0.00    -0.369 OA
ATOM     26  H6  UNL     1       7.159  -1.939   2.482  1.00  0.00     0.212 HD
ENDBRANCH  22  25
BRANCH  23  27
HETATM   27  O7  UNL     1       7.818   0.056   1.035  1.00  0.00    -0.388 OA
ATOM     28  H7  UNL     1       8.392   0.771   0.785  1.00  0.00     0.210 HD
ENDBRANCH  23  27
BRANCH  24  29
HETATM   29  O8  UNL     1       6.040   0.763  -0.641  1.00  0.00    -0.390 OA
ATOM     30  H8  UNL     1       6.917   1.018  -0.904  1.00  0.00     0.210 HD
ENDBRANCH  24  29
ENDBRANCH  19  20
ENDBRANCH  18  19
ENDBRANCH   9  18
BRANCH   1  31
HETATM   31  O2  UNL     1      -5.210   0.116   0.395  1.00  0.00    -0.290 OA
BRANCH  31  32
HETATM   32  C2  UNL     1      -6.499   0.338   0.000  1.00  0.00     0.257 C 
HETATM   33  C1  UNL     1      -7.652  -0.485   0.460  1.00  0.00     0.126 C 
HETATM   34  O1  UNL     1      -6.680   1.314  -0.805  1.00  0.00    -0.266 OA
ENDBRANCH  31  32
ENDBRANCH   1  31
TORSDOF 8
