REMARK  8 active torsions:
REMARK  status: ('A' for Active; 'I' for Inactive)
REMARK    1  A    between atoms: C3_3  and  S1_4 
REMARK    2  A    between atoms: S1_4  and  S2_5 
REMARK    3  A    between atoms: S2_5  and  N1_6 
REMARK    4  A    between atoms: C9_15  and  C10_16 
REMARK    5  A    between atoms: C16_23  and  C17_24 
REMARK    6  A    between atoms: C17_24  and  O5_25 
REMARK    7  A    between atoms: C18_27  and  O6_28 
REMARK    8  A    between atoms: C19_30  and  O7_31 
ROOT
HETATM    1  N1  UNL     1      -1.540  -0.598  -0.255  1.00  0.00    -0.205 N 
HETATM    2  O1  UNL     1      -1.093  -1.765   0.269  1.00  0.00    -0.240 OA
HETATM    3  C4  UNL     1      -1.724  -2.951  -0.171  1.00  0.00     0.174 C 
HETATM    4  C5  UNL     1      -3.044  -2.889  -0.215  1.00  0.00    -0.015 C 
HETATM    5  C6  UNL     1      -4.110  -3.861  -0.604  1.00  0.00     0.216 C 
HETATM    6  O2  UNL     1      -5.235  -3.031  -0.832  1.00  0.00    -0.316 OA
HETATM    7  C7  UNL     1      -5.046  -1.782  -0.242  1.00  0.00     0.270 C 
HETATM    8  O3  UNL     1      -5.972  -0.941  -0.132  1.00  0.00    -0.264 OA
HETATM    9  C8  UNL     1      -3.666  -1.611   0.209  1.00  0.00     0.149 C 
HETATM   10  C9  UNL     1      -2.917  -0.505  -0.551  1.00  0.00     0.174 C 
ENDROOT
BRANCH   1  11
HETATM   11  S2  UNL     1      -0.672   0.823   0.147  1.00  0.00     0.048 SA
BRANCH  11  12
HETATM   12  S1  UNL     1       0.994   1.078  -1.149  1.00  0.00    -0.037 SA
BRANCH  12  13
HETATM   13  C3  UNL     1       2.472   0.280  -0.510  1.00  0.00     0.227 C 
HETATM   14  C2  UNL     1       3.004   0.901   0.716  1.00  0.00    -0.019 C 
HETATM   15  C1  UNL     1       2.385   1.872   1.325  1.00  0.00     0.020 C 
HETATM   16  C19 UNL     1       4.289   0.388   1.245  1.00  0.00     0.181 C 
HETATM   17  C18 UNL     1       4.726  -0.744   0.344  1.00  0.00     0.182 C 
HETATM   18  C16 UNL     1       4.658  -0.271  -1.088  1.00  0.00     0.178 C 
HETATM   19  O4  UNL     1       3.477   0.324  -1.453  1.00  0.00    -0.360 OA
BRANCH  16  20
HETATM   20  O7  UNL     1       4.161  -0.037   2.571  1.00  0.00    -0.388 OA
ATOM     21  H7  UNL     1       4.985  -0.366   2.910  1.00  0.00     0.210 HD
ENDBRANCH  16  20
BRANCH  17  22
HETATM   22  O6  UNL     1       6.018  -1.174   0.658  1.00  0.00    -0.390 OA
ATOM     23  H6  UNL     1       6.061  -1.472   1.559  1.00  0.00     0.210 HD
ENDBRANCH  17  22
BRANCH  18  24
HETATM   24  C17 UNL     1       5.849   0.636  -1.326  1.00  0.00     0.198 C 
BRANCH  24  25
HETATM   25  O5  UNL     1       5.960   0.978  -2.673  1.00  0.00    -0.398 OA
ATOM     26  H5  UNL     1       6.706   1.546  -2.822  1.00  0.00     0.209 HD
ENDBRANCH  24  25
ENDBRANCH  18  24
ENDBRANCH  12  13
ENDBRANCH  11  12
ENDBRANCH   1  11
BRANCH  10  27
HETATM   27  C10 UNL     1      -3.552   0.804  -0.319  1.00  0.00    -0.031 A 
HETATM   28  C11 UNL     1      -3.420   1.506   0.859  1.00  0.00     0.009 A 
HETATM   29  C12 UNL     1      -4.033   2.752   1.040  1.00  0.00     0.001 A 
HETATM   30  C13 UNL     1      -4.774   3.283   0.032  1.00  0.00     0.000 A 
HETATM   31  C14 UNL     1      -4.926   2.603  -1.164  1.00  0.00     0.001 A 
HETATM   32  C15 UNL     1      -4.320   1.392  -1.315  1.00  0.00     0.009 A 
ENDBRANCH  10  27
TORSDOF 8
