REMARK  13 active torsions:
REMARK  status: ('A' for Active; 'I' for Inactive)
REMARK    1  A    between atoms: C2_2  and  C3_3 
REMARK    2  A    between atoms: C3_3  and  N1_5 
REMARK       I    between atoms: N1_5  and  C5_7 
REMARK       I    between atoms: C5_7  and  N2_9 
REMARK    3  A    between atoms: C8_13  and  N3_14 
REMARK       I    between atoms: N3_14  and  C9_16 
REMARK    4  A    between atoms: C9_16  and  C10_18 
REMARK    5  A    between atoms: C10_18  and  C11_20 
REMARK    6  A    between atoms: C11_20  and  C12_21 
REMARK    7  A    between atoms: C11_20  and  N4_25 
REMARK    8  A    between atoms: C12_21  and  C13_22 
REMARK       I    between atoms: N4_25  and  C16_27 
REMARK    9  A    between atoms: C16_27  and  C17_29 
REMARK       I    between atoms: N5_36  and  C24_37 
REMARK   10  A    between atoms: C24_37  and  O7_39 
REMARK   11  A    between atoms: O7_39  and  C25_40 
REMARK   12  A    between atoms: C25_40  and  C26_41 
REMARK   13  A    between atoms: C26_41  and  S1_42 
ROOT
HETATM    1  N1  UNL     1      -5.687  -2.684  -0.027  1.00  0.00    -0.339 N 
ATOM      2  H1  UNL     1      -5.604  -1.857  -0.618  1.00  0.00     0.164 HD
HETATM    3  C5  UNL     1      -4.615  -3.032   0.830  1.00  0.00     0.320 C 
HETATM    4  O1  UNL     1      -4.762  -4.075   1.553  1.00  0.00    -0.247 OA
HETATM    5  N2  UNL     1      -3.418  -2.324   0.950  1.00  0.00    -0.310 N 
HETATM    6  C6  UNL     1      -2.387  -2.745   1.881  1.00  0.00     0.211 C 
HETATM    7  C7  UNL     1      -2.086  -1.545   2.752  1.00  0.00     0.187 C 
HETATM    8  O2  UNL     1      -2.185  -1.663   3.940  1.00  0.00    -0.292 OA
HETATM    9  C8  UNL     1      -1.687  -0.295   2.064  1.00  0.00     0.265 C 
HETATM   10  N5  UNL     1      -2.673  -0.083   1.007  1.00  0.00    -0.283 N 
HETATM   11  C24 UNL     1      -3.215   1.239   0.838  1.00  0.00     0.366 C 
HETATM   12  O6  UNL     1      -4.073   1.548  -0.016  1.00  0.00    -0.238 OA
HETATM   13  C28 UNL     1      -3.138  -1.145   0.173  1.00  0.00     0.262 C 
ENDROOT
BRANCH   9  14
HETATM   14  N3  UNL     1      -0.361  -0.466   1.573  1.00  0.00    -0.326 N 
HETATM   15  C9  UNL     1       0.189   0.221   0.467  1.00  0.00     0.291 C 
HETATM   16  O3  UNL     1      -0.460   1.022  -0.236  1.00  0.00    -0.264 OA
ATOM     17  H3  UNL     1       0.238  -1.136   2.057  1.00  0.00     0.165 HD
BRANCH  15  18
HETATM   18  C10 UNL     1       1.570  -0.008   0.131  1.00  0.00     0.238 C 
HETATM   19  O4  UNL     1       2.229  -0.767   0.924  1.00  0.00    -0.285 OA
BRANCH  18  20
HETATM   20  C11 UNL     1       2.251   0.579  -1.054  1.00  0.00     0.164 C 
BRANCH  20  21
HETATM   21  C12 UNL     1       1.886   1.945  -1.401  1.00  0.00     0.037 C 
BRANCH  21  22
HETATM   22  C13 UNL     1       2.537   2.560  -2.608  1.00  0.00    -0.020 C 
HETATM   23  C14 UNL     1       1.985   3.980  -2.828  1.00  0.00     0.009 C 
HETATM   24  C15 UNL     1       4.015   2.562  -2.642  1.00  0.00     0.009 C 
ENDBRANCH  21  22
ENDBRANCH  20  21
BRANCH  20  25
HETATM   25  N4  UNL     1       3.672   0.310  -0.803  1.00  0.00    -0.348 N 
HETATM   26  C16 UNL     1       4.359  -0.834  -1.292  1.00  0.00     0.226 C 
HETATM   27  O5  UNL     1       3.759  -1.689  -1.983  1.00  0.00    -0.273 OA
ATOM     28  H4  UNL     1       4.197   0.983  -0.245  1.00  0.00     0.163 HD
BRANCH  26  29
HETATM   29  C17 UNL     1       5.815  -0.978  -0.952  1.00  0.00     0.037 C 
HETATM   30  C18 UNL     1       6.613  -0.048  -1.821  1.00  0.00     0.025 C 
HETATM   31  C19 UNL     1       6.273  -2.388  -1.214  1.00  0.00     0.019 C 
HETATM   32  C20 UNL     1       7.764  -2.494  -0.958  1.00  0.00     0.001 C 
HETATM   33  C21 UNL     1       8.224  -1.719   0.223  1.00  0.00     0.000 C 
HETATM   34  C22 UNL     1       7.174  -1.243   1.162  1.00  0.00     0.001 C 
HETATM   35  C23 UNL     1       5.961  -0.618   0.518  1.00  0.00     0.019 C 
ENDBRANCH  26  29
ENDBRANCH  20  25
ENDBRANCH  18  20
ENDBRANCH  15  18
ENDBRANCH   9  14
BRANCH  11  36
HETATM   36  O7  UNL     1      -2.758   2.279   1.684  1.00  0.00    -0.303 OA
BRANCH  36  37
HETATM   37  C25 UNL     1      -3.251   3.592   1.547  1.00  0.00     0.191 C 
BRANCH  37  38
HETATM   38  C26 UNL     1      -2.562   4.535   2.521  1.00  0.00     0.100 C 
BRANCH  38  39
HETATM   39  S1  UNL     1      -3.234   6.216   2.280  1.00  0.00    -0.171 SA
HETATM   40  C27 UNL     1      -2.788   6.893   0.661  1.00  0.00     0.089 C 
ENDBRANCH  38  39
ENDBRANCH  37  38
ENDBRANCH  36  37
ENDBRANCH  11  36
BRANCH   1  41
HETATM   41  C3  UNL     1      -6.903  -3.479  -0.084  1.00  0.00     0.081 C 
HETATM   42  C4  UNL     1      -7.181  -3.803  -1.522  1.00  0.00     0.032 C 
BRANCH  41  43
HETATM   43  C2  UNL     1      -8.052  -2.630   0.447  1.00  0.00     0.020 C 
HETATM   44  C1  UNL     1      -9.389  -3.316   0.353  1.00  0.00     0.007 C 
ENDBRANCH  41  43
ENDBRANCH   1  41
TORSDOF 13
