REMARK  15 active torsions:
REMARK  status: ('A' for Active; 'I' for Inactive)
REMARK    1  A    between atoms: O1_2  and  N1_3 
REMARK    2  A    between atoms: C2_5  and  C3_6 
REMARK    3  A    between atoms: C2_5  and  C21_49 
REMARK    4  A    between atoms: C3_6  and  O3_8 
REMARK    5  A    between atoms: O3_8  and  C4_9 
REMARK    6  A    between atoms: C4_9  and  C5_10 
REMARK    7  A    between atoms: N4_15  and  C6_16 
REMARK    8  A    between atoms: C7_17  and  N5_18 
REMARK       I    between atoms: N5_18  and  C8_20 
REMARK       I    between atoms: C8_20  and  N6_22 
REMARK       I    between atoms: N6_22  and  C9_24 
REMARK    9  A    between atoms: C9_24  and  C10_26 
REMARK   10  A    between atoms: C10_26  and  O6_28 
REMARK   11  A    between atoms: O6_28  and  C12_29 
REMARK   12  A    between atoms: C14_32  and  O8_33 
REMARK   13  A    between atoms: C17_39  and  C18_40 
REMARK   14  A    between atoms: C19_43  and  C20_44 
REMARK   15  A    between atoms: C23_52  and  N8_53 
ROOT
HETATM    1  C6  UNL     1      -1.308  -2.039   0.275  1.00  0.00     0.178 C 
HETATM    2  C7  UNL     1      -2.178  -0.828   0.412  1.00  0.00     0.145 C 
HETATM    3  C14 UNL     1      -3.350  -1.075  -0.581  1.00  0.00     0.173 C 
HETATM    4  C15 UNL     1      -3.485  -2.530  -0.479  1.00  0.00     0.179 C 
HETATM    5  O9  UNL     1      -4.164  -3.157  -1.482  1.00  0.00    -0.358 OA
HETATM    6  C16 UNL     1      -4.124  -4.525  -1.212  1.00  0.00     0.339 C 
HETATM    7  O10 UNL     1      -2.826  -5.021  -1.236  1.00  0.00    -0.349 OA
HETATM    8  C17 UNL     1      -2.120  -4.424  -0.131  1.00  0.00     0.248 C 
HETATM    9  C19 UNL     1      -2.010  -2.978  -0.613  1.00  0.00     0.139 C 
ENDROOT
BRANCH   1  10
HETATM   10  N4  UNL     1       0.036  -1.655  -0.124  1.00  0.00    -0.210 N 
HETATM   11  N3  UNL     1       0.499  -1.225  -1.283  1.00  0.00    -0.224 N 
HETATM   12  N2  UNL     1       1.797  -0.994  -1.247  1.00  0.00    -0.270 N 
ATOM     13  H3  UNL     1      -0.080  -1.087  -2.111  1.00  0.00     0.210 HD
HETATM   14  C5  UNL     1       2.210  -1.286  -0.010  1.00  0.00     0.138 A 
ATOM     15  H2  UNL     1       2.375  -0.657  -2.017  1.00  0.00     0.190 HD
HETATM   16  N7  UNL     1       1.121  -1.683   0.651  1.00  0.00    -0.268 N 
ATOM     17  H7  UNL     1       1.119  -1.972   1.629  1.00  0.00     0.190 HD
BRANCH  14  18
HETATM   18  C4  UNL     1       3.556  -1.233   0.589  1.00  0.00     0.258 C 
BRANCH  18  19
HETATM   19  O3  UNL     1       4.387  -0.266  -0.018  1.00  0.00    -0.309 OA
BRANCH  19  20
HETATM   20  C3  UNL     1       5.691  -0.111   0.425  1.00  0.00     0.314 C 
HETATM   21  O2  UNL     1       6.044  -0.896   1.383  1.00  0.00    -0.257 OA
BRANCH  20  22
HETATM   22  C2  UNL     1       6.670   0.804  -0.051  1.00  0.00     0.156 C 
HETATM   23  N1  UNL     1       7.849   0.780   0.500  1.00  0.00    -0.259 N 
ATOM     24  H1  UNL     1       8.556   1.434   0.164  1.00  0.00     0.194 HD
BRANCH  23  25
HETATM   25  O1  UNL     1       8.178  -0.068   1.493  1.00  0.00    -0.285 OA
HETATM   26  C1  UNL     1       9.348   0.114   2.281  1.00  0.00     0.237 C 
ENDBRANCH  23  25
BRANCH  22  27
HETATM   27  C21 UNL     1       6.423   1.788  -1.161  1.00  0.00     0.075 A 
HETATM   28  C22 UNL     1       5.185   1.918  -1.735  1.00  0.00     0.085 A 
HETATM   29  S1  UNL     1       5.461   3.132  -2.915  1.00  0.00    -0.064 SA
HETATM   30  C23 UNL     1       7.096   3.399  -2.619  1.00  0.00     0.142 A 
HETATM   31  N9  UNL     1       7.386   2.552  -1.624  1.00  0.00    -0.335 N 
ATOM     32  H9  UNL     1       8.328   2.501  -1.236  1.00  0.00     0.168 HD
BRANCH  30  33
HETATM   33  N8  UNL     1       7.950   4.235  -3.189  1.00  0.00    -0.380 N 
ATOM     34  H82 UNL     1       7.729   4.880  -3.947  1.00  0.00     0.158 HD
ATOM     35  H81 UNL     1       8.941   4.397  -3.010  1.00  0.00     0.158 HD
ENDBRANCH  30  33
ENDBRANCH  22  27
ENDBRANCH  20  22
ENDBRANCH  19  20
ENDBRANCH  18  19
ENDBRANCH  14  18
ENDBRANCH   1  10
BRANCH   2  36
HETATM   36  N5  UNL     1      -1.638   0.443   0.169  1.00  0.00    -0.333 N 
HETATM   37  C8  UNL     1      -2.182   1.602   0.928  1.00  0.00     0.323 C 
HETATM   38  O4  UNL     1      -3.029   1.261   1.730  1.00  0.00    -0.247 OA
HETATM   39  N6  UNL     1      -1.675   2.815   0.603  1.00  0.00    -0.277 N 
HETATM   40  C9  UNL     1      -3.030   3.779   0.944  1.00  0.00     0.254 C 
ATOM     41  H6  UNL     1      -0.751   3.073   0.256  1.00  0.00     0.173 HD
HETATM   42  O5  UNL     1      -2.712   4.949   0.776  1.00  0.00    -0.270 OA
ATOM     43  H5  UNL     1      -0.890   0.570  -0.512  1.00  0.00     0.164 HD
BRANCH  40  44
HETATM   44  C10 UNL     1      -4.272   3.279   1.316  1.00  0.00     0.220 C 
HETATM   45  C11 UNL     1      -4.632   3.325   2.818  1.00  0.00     0.050 C 
BRANCH  44  46
HETATM   46  O6  UNL     1      -5.296   4.260   0.794  1.00  0.00    -0.307 OA
BRANCH  46  47
HETATM   47  C12 UNL     1      -6.273   3.818  -0.052  1.00  0.00     0.255 C 
HETATM   48  C13 UNL     1      -7.299   4.734  -0.605  1.00  0.00     0.126 C 
HETATM   49  O7  UNL     1      -6.309   2.598  -0.378  1.00  0.00    -0.266 OA
ENDBRANCH  46  47
ENDBRANCH  44  46
ENDBRANCH  40  44
ENDBRANCH   2  36
BRANCH   9  50
HETATM   50  C20 UNL     1      -1.607  -3.019  -2.021  1.00  0.00     0.190 C 
HETATM   51  O13 UNL     1      -2.256  -2.445  -2.927  1.00  0.00    -0.647 OA
HETATM   52  O14 UNL     1      -0.468  -3.714  -2.389  1.00  0.00    -0.647 OA
ENDBRANCH   9  50
BRANCH   3  53
HETATM   53  O8  UNL     1      -4.467  -0.484   0.003  1.00  0.00    -0.391 OA
ATOM     54  H8  UNL     1      -5.183  -0.635  -0.603  1.00  0.00     0.210 HD
ENDBRANCH   3  53
BRANCH   8  55
HETATM   55  C18 UNL     1      -0.891  -5.124   0.116  1.00  0.00     0.204 C 
HETATM   56  O11 UNL     1      -0.526  -6.051  -0.670  1.00  0.00    -0.646 OA
HETATM   57  O12 UNL     1      -0.072  -4.844   1.177  1.00  0.00    -0.646 OA
ENDBRANCH   8  55
TORSDOF 15
