REMARK  2 active torsions:
REMARK  status: ('A' for Active; 'I' for Inactive)
REMARK    1  A    between atoms: C6_9  and  C7_10 
REMARK    2  A    between atoms: C10_13  and  C11_14 
ROOT
HETATM    1  O1  UNL     1      -6.931  -2.614   1.852  1.00  0.00    -0.268 OA
HETATM    2  C1  UNL     1      -5.752  -2.488   1.433  1.00  0.00     0.249 A 
HETATM    3  C2  UNL     1      -5.083  -1.212   1.260  1.00  0.00     0.107 A 
HETATM    4  C3  UNL     1      -3.844  -1.418   0.799  1.00  0.00     0.082 A 
HETATM    5  N1  UNL     1      -2.941  -0.380   0.536  1.00  0.00    -0.352 N 
ATOM      6  H1  UNL     1      -3.351   0.545   0.667  1.00  0.00     0.166 HD
HETATM    7  C4  UNL     1      -1.697  -0.333   0.162  1.00  0.00     0.047 C 
HETATM    8  C5  UNL     1      -1.107   0.972   0.007  1.00  0.00     0.031 A 
HETATM    9  C6  UNL     1       0.167   1.378  -0.262  1.00  0.00     0.056 A 
HETATM   10  N4  UNL     1       0.183   2.706  -0.648  1.00  0.00    -0.354 N 
ATOM     11  H4  UNL     1       1.010   3.243  -0.910  1.00  0.00     0.166 HD
HETATM   12  C16 UNL     1      -1.064   3.161  -0.618  1.00  0.00     0.043 A 
HETATM   13  C17 UNL     1      -1.533   4.438  -0.920  1.00  0.00     0.030 A 
HETATM   14  C18 UNL     1      -2.873   4.699  -0.819  1.00  0.00     0.002 A 
HETATM   15  C19 UNL     1      -3.715   3.699  -0.426  1.00  0.00     0.001 A 
HETATM   16  C20 UNL     1      -3.214   2.410  -0.125  1.00  0.00     0.014 A 
HETATM   17  C21 UNL     1      -1.883   2.139  -0.222  1.00  0.00     0.005 A 
HETATM   18  C22 UNL     1      -1.000  -1.518  -0.305  1.00  0.00     0.047 C 
HETATM   19  C23 UNL     1      -1.382  -2.817  -0.288  1.00  0.00     0.092 C 
HETATM   20  N5  UNL     1      -2.569  -3.428   0.179  1.00  0.00    -0.350 N 
ATOM     21  H5  UNL     1      -2.592  -4.447   0.146  1.00  0.00     0.166 HD
HETATM   22  C24 UNL     1      -3.633  -2.849   0.645  1.00  0.00     0.135 A 
HETATM   23  N6  UNL     1      -4.826  -3.489   1.044  1.00  0.00    -0.308 N 
ATOM     24  H6  UNL     1      -4.993  -4.495   1.051  1.00  0.00     0.170 HD
ENDROOT
BRANCH   9  25
HETATM   25  C7  UNL     1       1.436   0.688  -0.130  1.00  0.00    -0.008 A 
HETATM   26  C8  UNL     1       1.729  -0.216   0.848  1.00  0.00     0.014 A 
HETATM   27  C9  UNL     1       2.954  -0.883   0.922  1.00  0.00     0.013 A 
HETATM   28  C10 UNL     1       3.911  -0.624  -0.026  1.00  0.00    -0.023 A 
HETATM   29  C14 UNL     1       3.666   0.278  -1.029  1.00  0.00     0.013 A 
HETATM   30  C15 UNL     1       2.449   0.914  -1.069  1.00  0.00     0.014 A 
BRANCH  28  31
HETATM   31  C11 UNL     1       5.189  -1.299   0.023  1.00  0.00     0.008 A 
HETATM   32  C12 UNL     1       5.475  -2.566   0.477  1.00  0.00     0.120 A 
HETATM   33  N2  UNL     1       6.789  -2.745   0.323  1.00  0.00    -0.311 N 
HETATM   34  N3  UNL     1       7.311  -1.663  -0.195  1.00  0.00    -0.311 N 
ATOM     35  H2  UNL     1       7.304  -3.590   0.570  1.00  0.00     0.186 HD
HETATM   36  C13 UNL     1       6.373  -0.732  -0.404  1.00  0.00     0.120 A 
ATOM     37  H3  UNL     1       8.301  -1.545  -0.411  1.00  0.00     0.186 HD
ENDBRANCH  28  31
ENDBRANCH   9  25
TORSDOF 2
