REMARK  5 active torsions:
REMARK  status: ('A' for Active; 'I' for Inactive)
REMARK    1  A    between atoms: C3_5  and  C4_6 
REMARK       I    between atoms: C4_6  and  N2_8 
REMARK    2  A    between atoms: N2_8  and  C5_10 
REMARK    3  A    between atoms: C5_10  and  C6_11 
REMARK    4  A    between atoms: C6_11  and  N3_14 
REMARK    5  A    between atoms: C18_29  and  C19_30 
ROOT
HETATM    1  C1  UNL     1       0.065  -4.776  -0.633  1.00  0.00     0.070 C 
HETATM    2  C2  UNL     1       0.349  -3.312  -0.469  1.00  0.00     0.033 A 
HETATM    3  N1  UNL     1       1.593  -2.901  -0.704  1.00  0.00    -0.353 N 
ATOM      4  H1  UNL     1       2.311  -3.568  -0.987  1.00  0.00     0.166 HD
HETATM    5  C3  UNL     1       1.900  -1.568  -0.562  1.00  0.00     0.107 A 
HETATM    6  C9  UNL     1       0.913  -0.688  -0.183  1.00  0.00    -0.020 A 
HETATM    7  C10 UNL     1       1.229   0.751  -0.211  1.00  0.00     0.051 C 
HETATM    8  C11 UNL     1      -0.367  -1.066   0.073  1.00  0.00    -0.009 A 
HETATM    9  C12 UNL     1      -0.642  -2.449  -0.087  1.00  0.00     0.059 A 
HETATM   10  N4  UNL     1      -1.960  -2.936   0.103  1.00  0.00    -0.379 N 
ATOM     11  H4  UNL     1      -2.111  -3.857   0.514  1.00  0.00     0.160 HD
HETATM   12  C13 UNL     1      -3.106  -2.111  -0.294  1.00  0.00     0.028 C 
HETATM   13  C14 UNL     1      -3.431  -2.533  -1.738  1.00  0.00     0.038 C 
HETATM   14  C15 UNL     1      -4.260  -2.489   0.538  1.00  0.00     0.038 C 
HETATM   15  C16 UNL     1      -2.671  -0.707  -0.338  1.00  0.00     0.033 C 
HETATM   16  C17 UNL     1      -3.674   0.327  -0.072  1.00  0.00     0.043 C 
HETATM   17  C18 UNL     1      -2.805   1.501   0.223  1.00  0.00    -0.074 C 
HETATM   18  C23 UNL     1      -1.595   1.105   0.586  1.00  0.00    -0.009 C 
HETATM   19  C24 UNL     1      -1.508  -0.331   0.576  1.00  0.00     0.010 C 
HETATM   20  C25 UNL     1      -1.850  -0.801   2.020  1.00  0.00     0.025 C 
ENDROOT
BRANCH   5  21
HETATM   21  C4  UNL     1       3.309  -1.217  -0.814  1.00  0.00     0.268 C 
HETATM   22  O1  UNL     1       3.855  -1.913  -1.759  1.00  0.00    -0.266 OA
HETATM   23  N2  UNL     1       4.066  -0.251  -0.144  1.00  0.00    -0.353 N 
ATOM     24  H2  UNL     1       3.657   0.302   0.609  1.00  0.00     0.162 HD
BRANCH  23  25
HETATM   25  C5  UNL     1       5.455  -0.053  -0.548  1.00  0.00     0.160 C 
BRANCH  25  26
HETATM   26  C6  UNL     1       6.114   1.025   0.280  1.00  0.00     0.132 C 
HETATM   27  C7  UNL     1       5.355   2.327   0.090  1.00  0.00     0.047 C 
HETATM   28  C8  UNL     1       6.185   0.652   1.740  1.00  0.00     0.047 C 
BRANCH  26  29
HETATM   29  N3  UNL     1       7.449   1.228  -0.223  1.00  0.00    -0.070 N 
ATOM     30  H33 UNL     1       7.994   0.366  -0.251  1.00  0.00     0.275 HD
ATOM     31  H32 UNL     1       7.465   1.434  -1.222  1.00  0.00     0.275 HD
ATOM     32  H31 UNL     1       7.894   1.956   0.336  1.00  0.00     0.275 HD
ENDBRANCH  26  29
ENDBRANCH  25  26
ENDBRANCH  23  25
ENDBRANCH   5  21
BRANCH  17  33
HETATM   33  C19 UNL     1      -3.259   2.915   0.118  1.00  0.00    -0.028 C 
HETATM   34  C20 UNL     1      -4.421   3.177   1.052  1.00  0.00     0.019 C 
HETATM   35  C21 UNL     1      -2.127   3.849   0.366  1.00  0.00     0.019 C 
HETATM   36  C22 UNL     1      -3.799   3.136  -1.297  1.00  0.00     0.019 C 
ENDBRANCH  17  33
TORSDOF 5
