REMARK  6 active torsions:
REMARK  status: ('A' for Active; 'I' for Inactive)
REMARK    1  A    between atoms: C6_6  and  N1_7 
REMARK    2  A    between atoms: N1_7  and  C7_9 
REMARK    3  A    between atoms: C8_12  and  N3_13 
REMARK    4  A    between atoms: N3_13  and  C9_15 
REMARK    5  A    between atoms: C16_24  and  N5_25 
REMARK    6  A    between atoms: N5_25  and  C17_27 
ROOT
HETATM    1  C1  UNL     1       0.216  -7.629  -0.150  1.00  0.00     0.018 C 
HETATM    2  C2  UNL     1      -0.320  -6.564  -0.131  1.00  0.00    -0.078 C 
HETATM    3  C3  UNL     1      -0.956  -5.268  -0.121  1.00  0.00     0.017 A 
HETATM    4  C4  UNL     1      -1.100  -4.577   1.078  1.00  0.00     0.023 A 
HETATM    5  C5  UNL     1      -1.703  -3.337   1.118  1.00  0.00     0.031 A 
HETATM    6  C6  UNL     1      -2.189  -2.731  -0.029  1.00  0.00     0.049 A 
HETATM    7  C24 UNL     1      -2.038  -3.434  -1.224  1.00  0.00     0.031 A 
HETATM    8  C25 UNL     1      -1.438  -4.669  -1.271  1.00  0.00     0.023 A 
ENDROOT
BRANCH   6   9
HETATM    9  N1  UNL     1      -2.803  -1.470   0.023  1.00  0.00    -0.191 N 
ATOM     10  H1  UNL     1      -3.820  -1.395   0.050  1.00  0.00     0.184 HD
BRANCH   9  11
HETATM   11  C7  UNL     1      -2.078  -0.413   0.036  1.00  0.00     0.711 A 
HETATM   12  N2  UNL     1      -0.746  -0.519  -0.002  1.00  0.00    -0.021 N 
HETATM   13  C8  UNL     1      -0.021   0.617   0.014  1.00  0.00     0.711 A 
ATOM     14  H2  UNL     1      -0.292  -1.432  -0.042  1.00  0.00     0.203 HD
HETATM   15  N4  UNL     1      -0.627   1.819   0.066  1.00  0.00    -0.021 N 
HETATM   16  C16 UNL     1      -1.972   1.940   0.106  1.00  0.00     0.711 A 
ATOM     17  H4  UNL     1      -0.054   2.663   0.075  1.00  0.00     0.203 HD
HETATM   18  N6  UNL     1      -2.688   0.805   0.089  1.00  0.00    -0.021 N 
ATOM     19  H6  UNL     1      -3.706   0.855   0.116  1.00  0.00     0.203 HD
BRANCH  13  20
HETATM   20  N3  UNL     1       1.243   0.538  -0.023  1.00  0.00    -0.191 N 
ATOM     21  H3  UNL     1       1.754   1.421  -0.011  1.00  0.00     0.184 HD
BRANCH  20  22
HETATM   22  C9  UNL     1       2.015  -0.630  -0.079  1.00  0.00     0.049 A 
HETATM   23  C10 UNL     1       2.201  -1.242  -1.302  1.00  0.00     0.030 A 
HETATM   24  C11 UNL     1       2.947  -2.394  -1.449  1.00  0.00     0.009 A 
HETATM   25  C12 UNL     1       3.547  -2.988  -0.355  1.00  0.00    -0.062 A 
HETATM   26  C13 UNL     1       4.358  -4.228  -0.475  1.00  0.00     0.048 C 
HETATM   27  C14 UNL     1       3.363  -2.378   0.868  1.00  0.00     0.009 A 
HETATM   28  C15 UNL     1       2.617  -1.226   1.018  1.00  0.00     0.030 A 
ENDBRANCH  20  22
ENDBRANCH  13  20
BRANCH  16  29
HETATM   29  N5  UNL     1      -2.581   3.068   0.158  1.00  0.00    -0.191 N 
ATOM     30  H5  UNL     1      -3.600   3.035   0.185  1.00  0.00     0.184 HD
BRANCH  29  31
HETATM   31  C17 UNL     1      -1.996   4.340   0.182  1.00  0.00     0.049 A 
HETATM   32  C18 UNL     1      -1.760   4.974   1.385  1.00  0.00     0.030 A 
HETATM   33  C19 UNL     1      -1.183   6.234   1.445  1.00  0.00     0.009 A 
HETATM   34  C20 UNL     1      -0.828   6.888   0.281  1.00  0.00    -0.062 A 
HETATM   35  C21 UNL     1      -0.212   8.240   0.384  1.00  0.00     0.048 C 
HETATM   36  C22 UNL     1      -1.056   6.271  -0.930  1.00  0.00     0.009 A 
HETATM   37  C23 UNL     1      -1.632   5.017  -0.962  1.00  0.00     0.030 A 
ENDBRANCH  29  31
ENDBRANCH  16  29
ENDBRANCH   9  11
ENDBRANCH   6   9
TORSDOF 6
