REMARK  7 active torsions:
REMARK  status: ('A' for Active; 'I' for Inactive)
REMARK    1  A    between atoms: O1_2  and  C2_3 
REMARK    2  A    between atoms: C5_6  and  C6_7 
REMARK    3  A    between atoms: C7_8  and  C8_9 
REMARK    4  A    between atoms: C18_19  and  N1_20 
REMARK    5  A    between atoms: N1_20  and  C19_22 
REMARK    6  A    between atoms: C19_22  and  C20_23 
REMARK    7  A    between atoms: C20_23  and  N2_24 
ROOT
HETATM    1  C2  UNL     1      -0.509  -3.519  -0.670  1.00  0.00     0.104 A 
HETATM    2  C3  UNL     1      -1.621  -2.750  -0.441  1.00  0.00    -0.007 A 
HETATM    3  C4  UNL     1      -2.932  -3.407  -0.289  1.00  0.00     0.052 C 
HETATM    4  C5  UNL     1      -1.542  -1.368  -0.349  1.00  0.00     0.027 A 
HETATM    5  C16 UNL     1      -0.309  -0.732  -0.491  1.00  0.00     0.039 A 
HETATM    6  C17 UNL     1       0.789  -1.498  -0.717  1.00  0.00     0.041 A 
HETATM    7  C18 UNL     1       2.119  -1.139  -0.897  1.00  0.00     0.128 A 
HETATM    8  N3  UNL     1       2.782  -2.288  -1.088  1.00  0.00    -0.284 N 
ATOM      9  H3  UNL     1       3.787  -2.356  -1.251  1.00  0.00     0.188 HD
HETATM   10  N4  UNL     1       1.958  -3.324  -1.037  1.00  0.00    -0.295 N 
ATOM     11  H4  UNL     1       2.224  -4.302  -1.151  1.00  0.00     0.187 HD
HETATM   12  C25 UNL     1       0.711  -2.870  -0.809  1.00  0.00     0.096 A 
ENDROOT
BRANCH   4  13
HETATM   13  C6  UNL     1      -2.692  -0.542  -0.115  1.00  0.00    -0.066 C 
HETATM   14  C7  UNL     1      -3.653   0.167   0.063  1.00  0.00    -0.091 C 
BRANCH  14  15
HETATM   15  C8  UNL     1      -4.797   1.025   0.251  1.00  0.00     0.097 C 
HETATM   16  C9  UNL     1      -4.908   1.574   1.633  1.00  0.00    -0.071 C 
HETATM   17  C10 UNL     1      -3.990   1.200   2.743  1.00  0.00     0.044 C 
HETATM   18  C11 UNL     1      -5.921   2.450   1.806  1.00  0.00    -0.023 C 
HETATM   19  C12 UNL     1      -6.741   2.707   0.587  1.00  0.00     0.028 C 
HETATM   20  C13 UNL     1      -5.896   3.049  -0.606  1.00  0.00     0.009 C 
HETATM   21  C14 UNL     1      -4.705   2.138  -0.771  1.00  0.00     0.001 C 
HETATM   22  C15 UNL     1      -4.730   1.532  -2.143  1.00  0.00     0.011 C 
ENDBRANCH  14  15
ENDBRANCH   4  13
BRANCH   1  23
HETATM   23  O1  UNL     1      -0.596  -4.894  -0.760  1.00  0.00    -0.353 OA
HETATM   24  C1  UNL     1      -0.472  -5.780   0.315  1.00  0.00     0.210 C 
ENDBRANCH   1  23
BRANCH   7  25
HETATM   25  N1  UNL     1       2.559   0.082  -0.872  1.00  0.00    -0.373 N 
ATOM     26  H1  UNL     1       1.924   0.864  -0.713  1.00  0.00     0.161 HD
BRANCH  25  27
HETATM   27  C19 UNL     1       3.968   0.303  -1.075  1.00  0.00     0.151 C 
BRANCH  27  28
HETATM   28  C20 UNL     1       4.490   1.442  -0.218  1.00  0.00     0.292 C 
BRANCH  28  29
HETATM   29  N2  UNL     1       5.909   1.640  -0.454  1.00  0.00     0.090 N 
HETATM   30  C21 UNL     1       6.665   0.486   0.057  1.00  0.00     0.272 C 
HETATM   31  C22 UNL     1       8.066   1.093   0.105  1.00  0.00     0.032 C 
HETATM   32  C23 UNL     1       7.823   2.449   0.679  1.00  0.00     0.032 C 
HETATM   33  C24 UNL     1       6.371   2.739   0.373  1.00  0.00     0.272 C 
ENDBRANCH  28  29
ENDBRANCH  27  28
ENDBRANCH  25  27
ENDBRANCH   7  25
TORSDOF 7
