REMARK  4 active torsions:
REMARK  status: ('A' for Active; 'I' for Inactive)
REMARK    1  A    between atoms: C2_7  and  N3_8 
REMARK    2  A    between atoms: N3_8  and  N4_9 
REMARK    3  A    between atoms: N4_9  and  C3_11 
REMARK    4  A    between atoms: C8_16  and  C9_17 
ROOT
HETATM    1  O1  UNL     1      -3.832  -2.617  -1.731  1.00  0.00    -0.264 OA
HETATM    2  C1  UNL     1      -2.714  -2.105  -1.496  1.00  0.00     0.287 A 
HETATM    3  N1  UNL     1      -1.701  -2.320  -2.328  1.00  0.00    -0.261 N 
ATOM      4  H1  UNL     1      -1.846  -2.901  -3.154  1.00  0.00     0.190 HD
HETATM    5  N2  UNL     1      -0.506  -1.793  -2.104  1.00  0.00    -0.255 N 
ATOM      6  H2  UNL     1       0.266  -1.964  -2.748  1.00  0.00     0.191 HD
HETATM    7  C2  UNL     1      -0.328  -1.016  -0.993  1.00  0.00     0.296 A 
HETATM    8  N5  UNL     1      -1.394  -0.795  -0.136  1.00  0.00    -0.308 N 
ATOM      9  H5  UNL     1      -1.246  -0.206   0.684  1.00  0.00     0.170 HD
HETATM   10  C15 UNL     1      -2.594  -1.312  -0.332  1.00  0.00     0.117 A 
HETATM   11  C16 UNL     1      -3.802  -1.183   0.454  1.00  0.00     0.007 A 
HETATM   12  C17 UNL     1      -4.346  -2.381   0.920  1.00  0.00     0.015 A 
HETATM   13  C18 UNL     1      -5.546  -2.410   1.633  1.00  0.00     0.002 A 
HETATM   14  C19 UNL     1      -6.200  -1.214   1.878  1.00  0.00     0.012 A 
HETATM   15  C20 UNL     1      -5.675  -0.042   1.430  1.00  0.00    -0.025 A 
HETATM   16  C21 UNL     1      -6.336   1.147   1.685  1.00  0.00     0.012 A 
HETATM   17  C22 UNL     1      -5.783   2.314   1.223  1.00  0.00     0.001 A 
HETATM   18  C23 UNL     1      -4.595   2.343   0.515  1.00  0.00     0.001 A 
HETATM   19  C24 UNL     1      -3.925   1.159   0.252  1.00  0.00     0.013 A 
HETATM   20  C25 UNL     1      -4.457  -0.019   0.707  1.00  0.00    -0.013 A 
ENDROOT
BRANCH   7  21
HETATM   21  N3  UNL     1       0.773  -0.561  -0.781  1.00  0.00    -0.286 NA
BRANCH  21  22
HETATM   22  N4  UNL     1       1.971  -0.087  -0.580  1.00  0.00    -0.232 N 
ATOM     23  H4  UNL     1       2.125   0.295   0.353  1.00  0.00     0.202 HD
BRANCH  22  24
HETATM   24  C3  UNL     1       3.082  -0.015  -1.431  1.00  0.00     0.072 A 
HETATM   25  C4  UNL     1       3.076  -0.442  -2.782  1.00  0.00     0.033 A 
HETATM   26  C5  UNL     1       4.106  -0.338  -3.620  1.00  0.00     0.002 A 
HETATM   27  C6  UNL     1       5.334   0.233  -3.198  1.00  0.00     0.001 A 
HETATM   28  C7  UNL     1       5.322   0.637  -1.889  1.00  0.00     0.014 A 
HETATM   29  C8  UNL     1       4.291   0.547  -0.996  1.00  0.00     0.003 A 
BRANCH  29  30
HETATM   30  C9  UNL     1       4.503   0.961   0.369  1.00  0.00    -0.024 A 
HETATM   31  C10 UNL     1       5.050   2.224   0.654  1.00  0.00     0.012 A 
HETATM   32  C11 UNL     1       5.405   2.626   1.906  1.00  0.00     0.001 A 
HETATM   33  C12 UNL     1       5.237   1.788   2.996  1.00  0.00     0.000 A 
HETATM   34  C13 UNL     1       4.692   0.537   2.726  1.00  0.00     0.001 A 
HETATM   35  C14 UNL     1       4.334   0.137   1.445  1.00  0.00     0.012 A 
ENDBRANCH  29  30
ENDBRANCH  22  24
ENDBRANCH  21  22
ENDBRANCH   7  21
TORSDOF 4
