REMARK  6 active torsions:
REMARK  status: ('A' for Active; 'I' for Inactive)
REMARK    1  A    between atoms: C7_7  and  N1_8 
REMARK    2  A    between atoms: N1_8  and  C8_10 
REMARK    3  A    between atoms: C8_10  and  N2_12 
REMARK    4  A    between atoms: N2_12  and  N3_14 
REMARK       I    between atoms: N3_14  and  C9_16 
REMARK    5  A    between atoms: C9_16  and  C10_18 
REMARK    6  A    between atoms: C10_18  and  C11_19 
ROOT
HETATM    1  N3  UNL     1       1.149  -0.818   0.020  1.00  0.00    -0.268 N 
ATOM      2  H3  UNL     1       1.806  -0.058  -0.159  1.00  0.00     0.190 HD
HETATM    3  C9  UNL     1      -0.233  -0.537   0.293  1.00  0.00     0.240 C 
HETATM    4  O1  UNL     1      -0.977  -1.558   0.509  1.00  0.00    -0.272 OA
ENDROOT
BRANCH   1   5
HETATM    5  N2  UNL     1       1.578  -2.138   0.003  1.00  0.00    -0.274 N 
ATOM      6  H2  UNL     1       0.799  -2.794   0.053  1.00  0.00     0.189 HD
BRANCH   5   7
HETATM    7  C8  UNL     1       2.791  -2.781  -0.064  1.00  0.00     0.191 C 
HETATM    8  S1  UNL     1       2.526  -4.516  -0.038  1.00  0.00    -0.039 SA
BRANCH   7   9
HETATM    9  N1  UNL     1       4.124  -2.443  -0.141  1.00  0.00    -0.332 N 
ATOM     10  H1  UNL     1       4.704  -3.281  -0.193  1.00  0.00     0.168 HD
BRANCH   9  11
HETATM   11  C7  UNL     1       4.913  -1.302  -0.169  1.00  0.00     0.035 A 
HETATM   12  C6  UNL     1       6.123  -1.306  -0.921  1.00  0.00     0.036 A 
HETATM   13  C4  UNL     1       6.981  -0.275  -0.967  1.00  0.00    -0.059 A 
HETATM   14  C3  UNL     1       6.716   0.869  -0.264  1.00  0.00     0.013 A 
HETATM   15  C5  UNL     1       8.219  -0.358  -1.768  1.00  0.00     0.048 C 
HETATM   16  C2  UNL     1       5.558   0.924   0.481  1.00  0.00    -0.059 A 
HETATM   17  C1  UNL     1       5.271   2.164   1.248  1.00  0.00     0.048 C 
HETATM   18  C23 UNL     1       4.693  -0.145   0.513  1.00  0.00     0.036 A 
ENDBRANCH   9  11
ENDBRANCH   7   9
ENDBRANCH   5   7
ENDBRANCH   1   5
BRANCH   3  19
HETATM   19  C10 UNL     1      -0.860   0.782   0.346  1.00  0.00     0.146 C 
BRANCH  19  20
HETATM   20  C11 UNL     1      -2.335   0.623   0.622  1.00  0.00    -0.015 A 
HETATM   21  C12 UNL     1      -2.925   0.346   1.831  1.00  0.00     0.015 A 
HETATM   22  C13 UNL     1      -2.229   0.221   3.119  1.00  0.00     0.069 C 
HETATM   23  N4  UNL     1      -4.266   0.210   1.652  1.00  0.00    -0.353 N 
HETATM   24  C14 UNL     1      -5.232  -0.095   2.670  1.00  0.00     0.156 C 
HETATM   25  C15 UNL     1      -4.562   0.397   0.341  1.00  0.00     0.051 A 
HETATM   26  C16 UNL     1      -5.746   0.366  -0.360  1.00  0.00    -0.034 A 
HETATM   27  C22 UNL     1      -3.341   0.659  -0.303  1.00  0.00     0.000 A 
HETATM   28  C17 UNL     1      -7.048   0.076   0.261  1.00  0.00     0.050 C 
HETATM   29  C18 UNL     1      -5.682   0.604  -1.721  1.00  0.00     0.015 A 
HETATM   30  C19 UNL     1      -4.507   0.864  -2.382  1.00  0.00    -0.061 A 
HETATM   31  C20 UNL     1      -4.562   1.106  -3.845  1.00  0.00     0.048 C 
HETATM   32  C21 UNL     1      -3.338   0.889  -1.665  1.00  0.00     0.021 A 
ENDBRANCH  19  20
ENDBRANCH   3  19
TORSDOF 6
