REMARK  3 active torsions:
REMARK  status: ('A' for Active; 'I' for Inactive)
REMARK    1  A    between atoms: N2_5  and  C3_6 
REMARK    2  A    between atoms: C3_6  and  C4_7 
REMARK    3  A    between atoms: C4_7  and  C5_9 
ROOT
HETATM    1  C1  UNL     1      -3.904   0.959  -0.639  1.00  0.00     0.071 C 
HETATM    2  C2  UNL     1      -2.805   0.324   0.124  1.00  0.00     0.045 A 
HETATM    3  N1  UNL     1      -1.523   0.746   0.262  1.00  0.00    -0.298 N 
ATOM      4  H1  UNL     1      -1.141   1.592  -0.161  1.00  0.00     0.187 HD
HETATM    5  N2  UNL     1      -0.838  -0.091   1.020  1.00  0.00    -0.249 N 
HETATM    6  C8  UNL     1      -1.639  -1.115   1.423  1.00  0.00     0.281 A 
HETATM    7  O2  UNL     1      -1.316  -2.101   2.161  1.00  0.00    -0.265 OA
HETATM    8  C9  UNL     1      -2.868  -0.850   0.859  1.00  0.00     0.103 A 
HETATM    9 BR1  UNL     1      -4.452  -1.919   1.039  1.00  0.00    -0.043 Br
ENDROOT
BRANCH   5  10
HETATM   10  C3  UNL     1       0.568   0.004   1.408  1.00  0.00     0.231 C 
BRANCH  10  11
HETATM   11  C4  UNL     1       1.440  -0.681   0.424  1.00  0.00     0.150 C 
HETATM   12  O1  UNL     1       1.632  -1.875   0.593  1.00  0.00    -0.296 OA
BRANCH  11  13
HETATM   13  C5  UNL     1       2.072   0.007  -0.724  1.00  0.00     0.049 C 
HETATM   14  C6  UNL     1       3.000   1.118  -0.282  1.00  0.00     0.017 C 
HETATM   15  C7  UNL     1       2.845  -0.992  -1.559  1.00  0.00     0.017 C 
ENDBRANCH  11  13
ENDBRANCH  10  11
ENDBRANCH   5  10
TORSDOF 3
