REMARK  5 active torsions:
REMARK  status: ('A' for Active; 'I' for Inactive)
REMARK    1  A    between atoms: C2_2  and  O1_3 
REMARK    2  A    between atoms: O1_3  and  C3_4 
REMARK       I    between atoms: C3_4  and  N1_6 
REMARK    3  A    between atoms: N2_9  and  C6_10 
REMARK    4  A    between atoms: C6_10  and  N3_11 
REMARK    5  A    between atoms: C6_10  and  C7_15 
ROOT
HETATM    1  C3  UNL     1       3.367   0.265  -0.082  1.00  0.00     0.363 C 
HETATM    2  O2  UNL     1       4.021   1.319   0.132  1.00  0.00    -0.238 OA
HETATM    3  N1  UNL     1       1.970   0.193   0.128  1.00  0.00    -0.319 N 
HETATM    4  C4  UNL     1       1.232  -0.995  -0.109  1.00  0.00     0.159 C 
HETATM    5  C5  UNL     1      -0.233  -0.844  -0.376  1.00  0.00     0.303 C 
HETATM    6  N2  UNL     1      -0.832   0.396   0.016  1.00  0.00     0.195 N 
HETATM    7  C11 UNL     1       0.057   1.466  -0.358  1.00  0.00     0.457 C 
HETATM    8  F1  UNL     1       0.459   1.212  -1.658  1.00  0.00    -0.171 F 
HETATM    9  F2  UNL     1      -0.364   2.730  -0.259  1.00  0.00    -0.171 F 
HETATM   10  C12 UNL     1       1.257   1.355   0.600  1.00  0.00     0.242 C 
ENDROOT
BRANCH   6  11
HETATM   11  C6  UNL     1      -2.167   0.646  -0.323  1.00  0.00     0.432 C 
BRANCH  11  12
HETATM   12  N3  UNL     1      -2.535   1.983   0.213  1.00  0.00    -0.046 N 
ATOM     13  H33 UNL     1      -2.360   2.068   1.214  1.00  0.00     0.276 HD
ATOM     14  H32 UNL     1      -1.904   2.721  -0.100  1.00  0.00     0.276 HD
ATOM     15  H31 UNL     1      -3.508   2.165  -0.034  1.00  0.00     0.276 HD
ENDBRANCH  11  12
BRANCH  11  16
HETATM   16  C7  UNL     1      -3.251  -0.234   0.192  1.00  0.00     0.006 C 
HETATM   17  C8  UNL     1      -4.612   0.342  -0.322  1.00  0.00     0.018 C 
HETATM   18  C9  UNL     1      -3.378  -0.226   1.693  1.00  0.00     0.018 C 
HETATM   19  C10 UNL     1      -3.271  -1.634  -0.398  1.00  0.00     0.018 C 
ENDBRANCH  11  16
ENDBRANCH   6  11
BRANCH   1  20
HETATM   20  O1  UNL     1       4.098  -0.830  -0.536  1.00  0.00    -0.304 OA
BRANCH  20  21
HETATM   21  C2  UNL     1       5.496  -0.789  -0.755  1.00  0.00     0.176 C 
HETATM   22  C1  UNL     1       6.248  -0.452   0.516  1.00  0.00     0.034 C 
ENDBRANCH  20  21
ENDBRANCH   1  20
TORSDOF 5
