REMARK  5 active torsions:
REMARK  status: ('A' for Active; 'I' for Inactive)
REMARK    1  A    between atoms: O1_2  and  C2_3 
REMARK    2  A    between atoms: C2_3  and  N2_7 
REMARK    3  A    between atoms: N2_7  and  C3_9 
REMARK    4  A    between atoms: C3_9  and  C4_10 
REMARK    5  A    between atoms: C4_10  and  C5_11 
ROOT
HETATM    1  C4  UNL     1       0.414  -1.137  -0.232  1.00  0.00     0.079 A 
HETATM    2  C8  UNL     1      -0.488  -0.045  -0.653  1.00  0.00     0.010 A 
HETATM    3  C9  UNL     1      -1.607   0.257  -0.010  1.00  0.00     0.012 A 
HETATM    4  C10 UNL     1      -2.399   1.292  -0.463  1.00  0.00     0.053 A 
HETATM    5 CL1  UNL     1      -1.933   2.202  -1.881  1.00  0.00    -0.083 Cl
HETATM    6  C11 UNL     1      -3.564   1.631   0.182  1.00  0.00    -0.020 A 
HETATM    7  C12 UNL     1      -4.405   2.752  -0.324  1.00  0.00     0.051 C 
HETATM    8  C13 UNL     1      -3.992   0.955   1.307  1.00  0.00     0.042 A 
HETATM    9 BR1  UNL     1      -5.603   1.401   2.224  1.00  0.00    -0.049 Br
HETATM   10  C14 UNL     1      -3.187  -0.083   1.752  1.00  0.00     0.079 A 
HETATM   11 CL2  UNL     1      -3.738  -0.946   3.192  1.00  0.00    -0.080 Cl
HETATM   12  C15 UNL     1      -2.027  -0.425   1.115  1.00  0.00     0.070 A 
HETATM   13  N3  UNL     1      -1.335  -1.404   1.599  1.00  0.00    -0.324 N 
ATOM     14  H3  UNL     1      -1.666  -1.893   2.431  1.00  0.00     0.169 HD
HETATM   15  C16 UNL     1      -0.124  -1.804   0.987  1.00  0.00     0.236 A 
HETATM   16  O2  UNL     1       0.528  -2.758   1.486  1.00  0.00    -0.272 OA
ENDROOT
BRANCH   1  17
HETATM   17  C3  UNL     1       1.762  -0.580   0.071  1.00  0.00     0.147 C 
BRANCH  17  18
HETATM   18  N2  UNL     1       1.780   0.414   1.112  1.00  0.00    -0.355 N 
ATOM     19  H2  UNL     1       0.927   0.700   1.592  1.00  0.00     0.163 HD
BRANCH  18  20
HETATM   20  C2  UNL     1       3.045   0.978   1.439  1.00  0.00     0.212 C 
HETATM   21  N1  UNL     1       3.669   0.481   2.454  1.00  0.00    -0.366 N 
ATOM     22  H12 UNL     1       4.576   0.885   2.688  1.00  0.00     0.159 HD
ATOM     23  H11 UNL     1       3.224  -0.283   2.962  1.00  0.00     0.159 HD
BRANCH  20  24
HETATM   24  O1  UNL     1       3.643   2.004   0.757  1.00  0.00    -0.328 OA
HETATM   25  C1  UNL     1       5.029   2.283   0.793  1.00  0.00     0.213 C 
ENDBRANCH  20  24
ENDBRANCH  18  20
ENDBRANCH  17  18
ENDBRANCH   1  17
BRANCH   1  26
HETATM   26  C5  UNL     1       0.602  -2.168  -1.353  1.00  0.00     0.001 C 
HETATM   27  C6  UNL     1       1.181  -1.516  -2.564  1.00  0.00     0.011 C 
HETATM   28  C7  UNL     1      -0.691  -2.891  -1.634  1.00  0.00     0.011 C 
ENDBRANCH   1  26
TORSDOF 5
