REMARK  5 active torsions:
REMARK  status: ('A' for Active; 'I' for Inactive)
REMARK    1  A    between atoms: C3_3  and  N1_4 
REMARK       I    between atoms: N1_4  and  C4_6 
REMARK    2  A    between atoms: C4_6  and  C5_8 
REMARK    3  A    between atoms: C6_9  and  C7_10 
REMARK       I    between atoms: C7_10  and  N2_12 
REMARK    4  A    between atoms: N2_12  and  C8_14 
REMARK    5  A    between atoms: C11_17  and  C12_18 
ROOT
HETATM    1  C1  UNL     1      -1.460   4.999  -1.343  1.00  0.00     0.014 C 
HETATM    2  C2  UNL     1      -2.352   4.192  -1.307  1.00  0.00    -0.098 C 
HETATM    3  C3  UNL     1      -3.434   3.229  -1.285  1.00  0.00     0.216 C 
ENDROOT
BRANCH   3   4
HETATM    4  N1  UNL     1      -2.930   1.876  -1.246  1.00  0.00    -0.350 N 
HETATM    5  C4  UNL     1      -2.108   1.375  -0.207  1.00  0.00     0.223 C 
HETATM    6  O1  UNL     1      -1.825   2.180   0.710  1.00  0.00    -0.273 OA
ATOM      7  H1  UNL     1      -3.180   1.247  -2.009  1.00  0.00     0.163 HD
BRANCH   5   8
HETATM    8  C5  UNL     1      -1.656  -0.024  -0.279  1.00  0.00     0.097 C 
HETATM    9  C6  UNL     1      -0.820  -0.488   0.838  1.00  0.00     0.096 C 
HETATM   10  C16 UNL     1      -1.377  -1.890   1.133  1.00  0.00     0.009 C 
HETATM   11  C17 UNL     1      -2.597  -1.631   1.974  1.00  0.00     0.026 C 
HETATM   12  C21 UNL     1      -1.987  -2.310  -0.184  1.00  0.00    -0.037 C 
HETATM   13  C18 UNL     1      -3.586  -1.130   0.939  1.00  0.00     0.099 C 
HETATM   14  C19 UNL     1      -4.324   0.012   1.359  1.00  0.00     0.064 C 
HETATM   15  C20 UNL     1      -2.801  -1.003  -0.339  1.00  0.00     0.025 C 
HETATM   16  N4  UNL     1      -4.940   0.922   1.701  1.00  0.00    -0.197 NA
HETATM   17  C22 UNL     1      -1.078  -2.591  -1.293  1.00  0.00     0.015 C 
HETATM   18  C23 UNL     1      -2.916  -3.496  -0.056  1.00  0.00     0.015 C 
BRANCH   9  19
HETATM   19  C7  UNL     1       0.650  -0.562   0.607  1.00  0.00     0.227 C 
HETATM   20  O2  UNL     1       1.185  -1.661   0.829  1.00  0.00    -0.273 OA
HETATM   21  N2  UNL     1       1.402   0.521   0.171  1.00  0.00    -0.327 N 
ATOM     22  H2  UNL     1       0.854   1.368   0.022  1.00  0.00     0.169 HD
BRANCH  21  23
HETATM   23  C8  UNL     1       2.764   0.676  -0.103  1.00  0.00     0.036 A 
HETATM   24  C9  UNL     1       3.279   1.852  -0.653  1.00  0.00     0.030 A 
HETATM   25  C10 UNL     1       4.622   1.981  -0.906  1.00  0.00     0.020 A 
HETATM   26  C11 UNL     1       5.522   0.973  -0.636  1.00  0.00     0.068 A 
HETATM   27  C13 UNL     1       5.044  -0.182  -0.100  1.00  0.00     0.061 A 
HETATM   28  C14 UNL     1       5.957  -1.243   0.189  1.00  0.00     0.100 C 
HETATM   29  C15 UNL     1       3.669  -0.313   0.159  1.00  0.00     0.053 A 
HETATM   30  N3  UNL     1       6.701  -2.085   0.429  1.00  0.00    -0.191 NA
BRANCH  26  31
HETATM   31  C12 UNL     1       6.959   1.160  -0.927  1.00  0.00     0.418 C 
HETATM   32  F1  UNL     1       7.185   2.414  -1.465  1.00  0.00    -0.166 F 
HETATM   33  F2  UNL     1       7.436   0.241  -1.818  1.00  0.00    -0.166 F 
HETATM   34  F3  UNL     1       7.680   1.103   0.270  1.00  0.00    -0.166 F 
ENDBRANCH  26  31
ENDBRANCH  21  23
ENDBRANCH   9  19
ENDBRANCH   5   8
ENDBRANCH   3   4
TORSDOF 5
