REMARK  7 active torsions:
REMARK  status: ('A' for Active; 'I' for Inactive)
REMARK    1  A    between atoms: C2_2  and  N1_3 
REMARK    2  A    between atoms: N1_3  and  C3_5 
REMARK    3  A    between atoms: C5_9  and  C6_10 
REMARK    4  A    between atoms: C7_11  and  C8_12 
REMARK    5  A    between atoms: C12_16  and  C13_17 
REMARK    6  A    between atoms: C22_34  and  C23_35 
REMARK    7  A    between atoms: C23_35  and  O1_36 
ROOT
HETATM    1  C3  UNL     1      -1.785   2.885   0.034  1.00  0.00     0.114 A 
HETATM    2  N2  UNL     1      -0.612   3.533  -0.124  1.00  0.00    -0.350 N 
ATOM      3  H2  UNL     1      -0.581   4.552  -0.141  1.00  0.00     0.166 HD
HETATM    4  C4  UNL     1       0.505   2.820  -0.258  1.00  0.00     0.112 A 
HETATM    5  C5  UNL     1       0.509   1.440  -0.240  1.00  0.00     0.061 A 
HETATM    6  C16 UNL     1      -0.683   0.767  -0.079  1.00  0.00     0.067 A 
HETATM    7  N3  UNL     1      -0.977  -0.540  -0.024  1.00  0.00    -0.355 N 
ATOM      8  H3  UNL     1      -0.307  -1.305  -0.100  1.00  0.00     0.166 HD
HETATM    9  C17 UNL     1      -2.297  -0.672   0.147  1.00  0.00     0.050 A 
HETATM   10  C18 UNL     1      -2.882   0.599   0.205  1.00  0.00    -0.015 A 
HETATM   11  C19 UNL     1      -1.859   1.504   0.062  1.00  0.00     0.044 A 
HETATM   12  C20 UNL     1      -4.321   0.816   0.386  1.00  0.00     0.069 C 
HETATM   13  C21 UNL     1      -5.164  -0.392   0.084  1.00  0.00     0.238 C 
HETATM   14  N4  UNL     1      -4.401  -1.474  -0.497  1.00  0.00    -0.063 N 
ATOM     15  H41 UNL     1      -4.139  -1.263  -1.460  1.00  0.00     0.278 HD
ATOM     16  H42 UNL     1      -4.989  -2.291  -0.663  1.00  0.00     0.278 HD
HETATM   17  C22 UNL     1      -3.256  -1.815   0.285  1.00  0.00     0.259 C 
ENDROOT
BRANCH   5  18
HETATM   18  C6  UNL     1       1.749   0.715  -0.390  1.00  0.00    -0.058 C 
HETATM   19  C7  UNL     1       2.796   0.108  -0.495  1.00  0.00    -0.058 C 
BRANCH  19  20
HETATM   20  C8  UNL     1       4.040  -0.605  -0.595  1.00  0.00     0.057 A 
HETATM   21  C9  UNL     1       4.341  -1.288  -1.755  1.00  0.00     0.024 A 
HETATM   22  C10 UNL     1       5.532  -1.985  -1.883  1.00  0.00     0.002 A 
HETATM   23  C11 UNL     1       6.434  -1.999  -0.836  1.00  0.00     0.016 A 
HETATM   24  C12 UNL     1       6.166  -1.330   0.333  1.00  0.00     0.052 A 
HETATM   25  C15 UNL     1       4.962  -0.640   0.430  1.00  0.00     0.147 A 
HETATM   26  F3  UNL     1       4.710   0.019   1.596  1.00  0.00    -0.204 F 
BRANCH  24  27
HETATM   27  C13 UNL     1       7.103  -1.315   1.488  1.00  0.00     0.270 C 
HETATM   28  C14 UNL     1       8.327  -2.123   1.152  1.00  0.00     0.096 C 
HETATM   29  F1  UNL     1       7.471  -0.010   1.786  1.00  0.00    -0.201 F 
HETATM   30  F2  UNL     1       6.522  -1.848   2.621  1.00  0.00    -0.201 F 
ENDBRANCH  24  27
ENDBRANCH  19  20
ENDBRANCH   5  18
BRANCH   1  31
HETATM   31  N1  UNL     1      -2.874   3.542   0.166  1.00  0.00    -0.376 N 
ATOM     32  H1  UNL     1      -3.760   3.051   0.287  1.00  0.00     0.161 HD
BRANCH  31  33
HETATM   33  C2  UNL     1      -2.839   4.980   0.143  1.00  0.00     0.116 C 
HETATM   34  C1  UNL     1      -4.180   5.602   0.400  1.00  0.00     0.026 C 
ENDBRANCH  31  33
ENDBRANCH   1  31
BRANCH  17  35
HETATM   35  C23 UNL     1      -2.641  -3.119  -0.025  1.00  0.00     0.206 C 
BRANCH  35  36
HETATM   36  O1  UNL     1      -3.436  -4.187   0.196  1.00  0.00    -0.394 OA
HETATM   37  C24 UNL     1      -4.621  -4.332  -0.459  1.00  0.00     0.201 C 
ENDBRANCH  35  36
ENDBRANCH  17  35
TORSDOF 7
