REMARK  5 active torsions:
REMARK  status: ('A' for Active; 'I' for Inactive)
REMARK    1  A    between atoms: N1_1  and  C1_4 
REMARK    2  A    between atoms: C2_7  and  C3_8 
REMARK    3  A    between atoms: C4_10  and  C5_11 
REMARK    4  A    between atoms: N3_14  and  C7_16 
REMARK    5  A    between atoms: C7_16  and  C8_17 
ROOT
HETATM    1  C1  UNL     1       2.800  -2.015  -0.065  1.00  0.00     0.677 A 
HETATM    2  N2  UNL     1       3.708  -1.057   0.142  1.00  0.00    -0.194 N 
ATOM      3  H2  UNL     1       4.701  -1.277   0.218  1.00  0.00     0.184 HD
HETATM    4  C2  UNL     1       3.267   0.199   0.245  1.00  0.00     0.057 A 
HETATM    5  C4  UNL     1       1.905   0.476   0.136  1.00  0.00     0.070 A 
HETATM    6  C6  UNL     1       0.979  -0.529  -0.078  1.00  0.00     0.136 A 
HETATM    7  N3  UNL     1      -0.261  -0.353  -0.171  1.00  0.00    -0.350 N 
ATOM      8  H3  UNL     1      -0.758  -1.230  -0.328  1.00  0.00     0.166 HD
HETATM    9  N4  UNL     1       1.497  -1.806  -0.175  1.00  0.00    -0.176 N 
ATOM     10  H4  UNL     1       0.870  -2.595  -0.333  1.00  0.00     0.186 HD
ENDROOT
BRANCH   5  11
HETATM   11  C5  UNL     1       1.536   1.871   0.266  1.00  0.00     0.275 C 
HETATM   12  O1  UNL     1       1.470   2.677  -0.674  1.00  0.00    -0.301 OA
ENDBRANCH   5  11
BRANCH   7  13
HETATM   13  C7  UNL     1      -1.131   0.734  -0.114  1.00  0.00     0.102 C 
BRANCH  13  14
HETATM   14  C8  UNL     1      -2.574   0.329  -0.089  1.00  0.00    -0.003 A 
HETATM   15  C9  UNL     1      -2.880  -1.007  -0.122  1.00  0.00     0.015 A 
HETATM   16  C10 UNL     1      -4.212  -1.444  -0.099  1.00  0.00     0.020 A 
HETATM   17  C11 UNL     1      -5.211  -0.497  -0.044  1.00  0.00     0.012 A 
HETATM   18 BR1  UNL     1      -7.056  -1.064  -0.011  1.00  0.00    -0.051 Br
HETATM   19  C12 UNL     1      -4.913   0.844  -0.011  1.00  0.00     0.039 A 
HETATM   20  C13 UNL     1      -3.580   1.253  -0.034  1.00  0.00     0.023 A 
HETATM   21 BR2  UNL     1      -3.118   3.111   0.010  1.00  0.00    -0.050 Br
ENDBRANCH  13  14
ENDBRANCH   7  13
BRANCH   4  22
HETATM   22  C3  UNL     1       4.211   1.336   0.474  1.00  0.00     0.173 C 
HETATM   23 CL1  UNL     1       4.521   2.270  -0.992  1.00  0.00    -0.124 Cl
ENDBRANCH   4  22
BRANCH   1  24
HETATM   24  N1  UNL     1       3.257  -3.230  -0.162  1.00  0.00    -0.234 N 
ATOM     25  H12 UNL     1       4.261  -3.391  -0.077  1.00  0.00     0.174 HD
ATOM     26  H11 UNL     1       2.564  -3.961  -0.320  1.00  0.00     0.174 HD
ENDBRANCH   1  24
TORSDOF 5
