REMARK  5 active torsions:
REMARK  status: ('A' for Active; 'I' for Inactive)
REMARK    1  A    between atoms: C3_4  and  N2_5 
REMARK       I    between atoms: N2_5  and  C4_7 
REMARK       I    between atoms: C4_7  and  N4_14 
REMARK    2  A    between atoms: N3_8  and  C5_10 
REMARK       I    between atoms: C9_16  and  N5_17 
REMARK       I    between atoms: C9_16  and  N6_25 
REMARK    3  A    between atoms: N5_17  and  C10_19 
REMARK    4  A    between atoms: N6_25  and  N7_27 
REMARK    5  A    between atoms: C18_32  and  C19_33 
ROOT
HETATM    1  N2  UNL     1      -0.783   0.197   0.855  1.00  0.00    -0.190 N 
ATOM      2  H2  UNL     1      -0.393   0.449   1.763  1.00  0.00     0.184 HD
HETATM    3  C4  UNL     1      -0.206  -0.929   0.187  1.00  0.00     0.693 C 
HETATM    4  N3  UNL     1      -0.831  -1.994   0.297  1.00  0.00    -0.217 N 
ATOM      5  H3  UNL     1      -1.657  -1.812   0.866  1.00  0.00     0.178 HD
HETATM    6  N4  UNL     1       0.984  -0.787  -0.536  1.00  0.00    -0.021 N 
ATOM      7  H4  UNL     1       1.082  -1.402  -1.344  1.00  0.00     0.203 HD
HETATM    8  C9  UNL     1       1.944  -0.012  -0.331  1.00  0.00     0.716 C 
HETATM    9  N5  UNL     1       3.094   0.023  -1.158  1.00  0.00    -0.190 N 
ATOM     10  H5  UNL     1       3.010  -0.231  -2.142  1.00  0.00     0.184 HD
HETATM   11  N6  UNL     1       1.917   0.898   0.766  1.00  0.00    -0.071 N 
ATOM     12  H6  UNL     1       1.899   0.542   1.722  1.00  0.00     0.212 HD
ENDROOT
BRANCH   1  13
HETATM   13  C3  UNL     1      -1.848   0.992   0.367  1.00  0.00     0.064 A 
HETATM   14  C2  UNL     1      -3.121   0.897   0.923  1.00  0.00     0.120 A 
HETATM   15  N1  UNL     1      -4.166   1.646   0.516  1.00  0.00    -0.355 N 
HETATM   16  C1  UNL     1      -5.422   1.394   1.196  1.00  0.00     0.156 C 
HETATM   17  C18 UNL     1      -4.037   2.547  -0.474  1.00  0.00     0.118 A 
HETATM   18  C17 UNL     1      -2.795   2.672  -1.055  1.00  0.00     0.037 A 
HETATM   19  C16 UNL     1      -1.691   1.902  -0.641  1.00  0.00     0.034 A 
BRANCH  17  20
HETATM   20  C19 UNL     1      -5.197   3.376  -0.914  1.00  0.00     0.432 C 
HETATM   21  F1  UNL     1      -5.782   4.060   0.132  1.00  0.00    -0.165 F 
HETATM   22  F2  UNL     1      -4.774   4.358  -1.803  1.00  0.00    -0.165 F 
HETATM   23  F3  UNL     1      -6.121   2.627  -1.642  1.00  0.00    -0.165 F 
ENDBRANCH  17  20
ENDBRANCH   1  13
BRANCH   4  24
HETATM   24  C5  UNL     1      -0.845  -3.321  -0.048  1.00  0.00     0.036 C 
HETATM   25  C6  UNL     1       0.488  -4.004  -0.063  1.00  0.00     0.038 C 
HETATM   26  C7  UNL     1      -1.679  -4.070   1.046  1.00  0.00     0.038 C 
HETATM   27  C8  UNL     1      -1.517  -3.698  -1.369  1.00  0.00     0.038 C 
ENDBRANCH   4  24
BRANCH   9  28
HETATM   28  C10 UNL     1       4.376   0.410  -0.637  1.00  0.00     0.049 A 
HETATM   29  C11 UNL     1       5.279   1.010  -1.476  1.00  0.00     0.030 A 
HETATM   30  C12 UNL     1       6.519   1.416  -0.993  1.00  0.00     0.002 A 
HETATM   31  C13 UNL     1       6.839   1.218   0.312  1.00  0.00     0.000 A 
HETATM   32  C14 UNL     1       5.956   0.620   1.174  1.00  0.00     0.002 A 
HETATM   33  C15 UNL     1       4.711   0.218   0.674  1.00  0.00     0.030 A 
ENDBRANCH   9  28
BRANCH  11  34
HETATM   34  N7  UNL     1       1.915   2.296   0.533  1.00  0.00    -0.024 N 
HETATM   35  O1  UNL     1       2.068   2.742  -0.632  1.00  0.00    -0.516 OA
HETATM   36  O2  UNL     1       1.755   3.156   1.572  1.00  0.00    -0.516 OA
ENDBRANCH  11  34
TORSDOF 5
