REMARK  10 active torsions:
REMARK  status: ('A' for Active; 'I' for Inactive)
REMARK    1  A    between atoms: C5_5  and  C6_6 
REMARK       I    between atoms: C6_6  and  N1_8 
REMARK    2  A    between atoms: N1_8  and  C7_10 
REMARK    3  A    between atoms: C10_13  and  C11_14 
REMARK    4  A    between atoms: C11_14  and  N2_15 
REMARK    5  A    between atoms: N2_15  and  C13_17 
REMARK    6  A    between atoms: C13_17  and  C14_18 
REMARK    7  A    between atoms: C19_25  and  N3_26 
REMARK       I    between atoms: N3_26  and  C20_28 
REMARK       I    between atoms: C20_28  and  N4_30 
REMARK    8  A    between atoms: N4_30  and  C21_32 
REMARK    9  A    between atoms: C21_32  and  C22_33 
REMARK   10  A    between atoms: C21_32  and  C25_36 
ROOT
HETATM    1  C1  UNL     1       4.830  -4.174  -3.639  1.00  0.00     0.018 C 
HETATM    2  C2  UNL     1       4.228  -3.416  -2.940  1.00  0.00    -0.073 C 
HETATM    3  C3  UNL     1       3.517  -2.486  -2.106  1.00  0.00     0.071 A 
HETATM    4  C4  UNL     1       2.147  -2.541  -1.817  1.00  0.00     0.068 A 
HETATM    5  C5  UNL     1       1.905  -1.468  -0.994  1.00  0.00     0.146 A 
HETATM    6  O2  UNL     1       3.023  -0.820  -0.800  1.00  0.00    -0.286 OA
HETATM    7  C19 UNL     1       4.011  -1.384  -1.439  1.00  0.00     0.171 A 
ENDROOT
BRANCH   7   8
HETATM    8  N3  UNL     1       5.351  -0.924  -1.434  1.00  0.00    -0.288 N 
HETATM    9  C20 UNL     1       5.692   0.224  -0.670  1.00  0.00     0.322 C 
HETATM   10  O3  UNL     1       4.831   0.846   0.017  1.00  0.00    -0.247 OA
HETATM   11  N4  UNL     1       7.034   0.682  -0.680  1.00  0.00    -0.329 N 
ATOM     12  H4  UNL     1       7.735   0.190  -1.234  1.00  0.00     0.165 HD
ATOM     13  H3  UNL     1       6.065  -1.413  -1.974  1.00  0.00     0.172 HD
BRANCH  11  14
HETATM   14  C21 UNL     1       7.409   1.834   0.085  1.00  0.00     0.197 C 
BRANCH  14  15
HETATM   15  C22 UNL     1       8.493   1.546   1.098  1.00  0.00     0.009 C 
HETATM   16  C23 UNL     1       9.751   1.055   0.461  1.00  0.00     0.012 C 
HETATM   17  C24 UNL     1       7.983   0.467   2.048  1.00  0.00     0.012 C 
ENDBRANCH  14  15
BRANCH  14  18
HETATM   18  C25 UNL     1       7.867   2.985  -0.816  1.00  0.00     0.407 C 
HETATM   19  F1  UNL     1       6.822   3.329  -1.661  1.00  0.00    -0.169 F 
HETATM   20  F2  UNL     1       8.922   2.605  -1.610  1.00  0.00    -0.169 F 
HETATM   21  F3  UNL     1       8.215   4.025   0.002  1.00  0.00    -0.169 F 
ENDBRANCH  14  18
ENDBRANCH  11  14
ENDBRANCH   7   8
BRANCH   5  22
HETATM   22  C6  UNL     1       0.582  -1.124  -0.435  1.00  0.00     0.275 C 
HETATM   23  O1  UNL     1       0.432  -0.125   0.282  1.00  0.00    -0.265 OA
HETATM   24  N1  UNL     1      -0.511  -1.967  -0.740  1.00  0.00    -0.351 N 
ATOM     25  H1  UNL     1      -0.360  -2.785  -1.331  1.00  0.00     0.163 HD
BRANCH  24  26
HETATM   26  C7  UNL     1      -1.836  -1.698  -0.235  1.00  0.00     0.084 C 
HETATM   27  C8  UNL     1      -2.323  -0.403  -0.825  1.00  0.00     0.026 C 
HETATM   28  C9  UNL     1      -3.787  -0.157  -0.455  1.00  0.00     0.008 C 
HETATM   29  C10 UNL     1      -4.016  -0.623   0.991  1.00  0.00     0.014 C 
HETATM   30  C17 UNL     1      -2.701  -0.453   1.685  1.00  0.00     0.008 C 
HETATM   31  C18 UNL     1      -1.809  -1.626   1.255  1.00  0.00     0.026 C 
BRANCH  29  32
HETATM   32  C11 UNL     1      -5.091   0.231   1.582  1.00  0.00     0.276 C 
BRANCH  32  33
HETATM   33  N2  UNL     1      -6.349   0.112   0.836  1.00  0.00     0.086 N 
HETATM   34  C12 UNL     1      -6.931  -1.171   1.001  1.00  0.00     0.310 C 
BRANCH  33  35
HETATM   35  C13 UNL     1      -7.154   1.260   0.975  1.00  0.00     0.296 C 
BRANCH  35  36
HETATM   36  C14 UNL     1      -8.384   1.266   0.130  1.00  0.00     0.056 C 
HETATM   37  C15 UNL     1      -9.166   2.577   0.339  1.00  0.00     0.034 C 
HETATM   38  C16 UNL     1      -8.025   1.234  -1.346  1.00  0.00     0.034 C 
HETATM   39 CL1  UNL     1      -9.537  -0.028   0.445  1.00  0.00    -0.118 Cl
ENDBRANCH  35  36
ENDBRANCH  33  35
ENDBRANCH  32  33
ENDBRANCH  29  32
ENDBRANCH  24  26
ENDBRANCH   5  22
TORSDOF 10
