REMARK  15 active torsions:
REMARK  status: ('A' for Active; 'I' for Inactive)
REMARK    1  A    between atoms: N1_1  and  C1_4 
REMARK    2  A    between atoms: C3_8  and  C4_9 
REMARK    3  A    between atoms: C4_9  and  C5_10 
REMARK    4  A    between atoms: C6_11  and  O1_12 
REMARK    5  A    between atoms: N3_14  and  C7_15 
REMARK    6  A    between atoms: C7_15  and  C8_16 
REMARK    7  A    between atoms: C14_22  and  N4_23 
REMARK    8  A    between atoms: N5_26  and  C15_27 
REMARK    9  A    between atoms: C15_27  and  S1_28 
REMARK   10  A    between atoms: S1_28  and  C16_29 
REMARK   11  A    between atoms: C17_34  and  N8_35 
REMARK   12  A    between atoms: C19_43  and  N11_44 
REMARK   13  A    between atoms: N11_44  and  C20_46 
REMARK   14  A    between atoms: C20_46  and  C21_47 
REMARK   15  A    between atoms: C21_47  and  N12_48 
ROOT
HETATM    1  C5  UNL     1      -1.607  -0.514  -1.593  1.00  0.00     0.105 A 
HETATM    2  C6  UNL     1      -2.304  -1.708  -1.607  1.00  0.00     0.186 A 
HETATM    3  N3  UNL     1      -3.557  -1.472  -1.180  1.00  0.00    -0.156 N 
HETATM    4  C14 UNL     1      -3.668  -0.180  -0.901  1.00  0.00     0.684 A 
HETATM    5  N5  UNL     1      -2.484   0.418  -1.148  1.00  0.00    -0.169 N 
ENDROOT
BRANCH   1   6
HETATM    6  C4  UNL     1      -0.226  -0.229  -1.960  1.00  0.00     0.051 C 
BRANCH   6   7
HETATM    7  C3  UNL     1       0.778  -0.385  -1.111  1.00  0.00     0.030 A 
HETATM    8  C2  UNL     1       2.120  -0.155  -1.323  1.00  0.00     0.172 A 
HETATM    9  N2  UNL     1       2.822   0.279  -2.400  1.00  0.00    -0.173 N 
HETATM   10  N10 UNL     1       2.816  -0.434  -0.207  1.00  0.00    -0.068 N 
HETATM   11  C1  UNL     1       4.164   0.432  -2.376  1.00  0.00     0.692 A 
ATOM     12  H2  UNL     1       2.318   0.498  -3.259  1.00  0.00     0.186 HD
HETATM   13  N13 UNL     1       4.804   0.138  -1.235  1.00  0.00    -0.021 N 
HETATM   14  C19 UNL     1       4.152  -0.295  -0.141  1.00  0.00     0.715 A 
ATOM     15  H13 UNL     1       5.817   0.246  -1.195  1.00  0.00     0.203 HD
HETATM   16  N9  UNL     1       1.943  -0.837   0.715  1.00  0.00    -0.288 N 
HETATM   17  C18 UNL     1       0.698  -0.821   0.205  1.00  0.00     0.123 A 
ATOM     18  H9  UNL     1       2.183  -1.116   1.666  1.00  0.00     0.187 HD
BRANCH  11  19
HETATM   19  N1  UNL     1       4.834   0.837  -3.379  1.00  0.00    -0.234 N 
ATOM     20  H12 UNL     1       4.347   1.061  -4.247  1.00  0.00     0.174 HD
ATOM     21  H11 UNL     1       5.847   0.953  -3.361  1.00  0.00     0.174 HD
ENDBRANCH  11  19
BRANCH  14  22
HETATM   22  N11 UNL     1       4.748  -0.579   0.957  1.00  0.00    -0.222 N 
ATOM     23  H11 UNL     1       4.172  -0.900   1.736  1.00  0.00     0.177 HD
BRANCH  22  24
HETATM   24  C20 UNL     1       6.156  -0.481   1.175  1.00  0.00     0.165 C 
BRANCH  24  25
HETATM   25  C21 UNL     1       6.565   0.930   1.610  1.00  0.00     0.249 C 
BRANCH  25  26
HETATM   26  N12 UNL     1       7.993   0.989   1.820  1.00  0.00    -0.078 N 
ATOM     27 3H12 UNL     1       8.312   0.279   2.479  1.00  0.00     0.274 HD
ATOM     28 2H12 UNL     1       8.513   0.676   1.000  1.00  0.00     0.274 HD
ATOM     29 1H12 UNL     1       8.265   1.928   2.110  1.00  0.00     0.274 HD
ENDBRANCH  25  26
ENDBRANCH  24  25
ENDBRANCH  22  24
ENDBRANCH  14  22
ENDBRANCH   6   7
ENDBRANCH   1   6
BRANCH   2  30
HETATM   30  O1  UNL     1      -1.723  -2.888  -2.010  1.00  0.00    -0.344 OA
ATOM     31  H1  UNL     1      -2.202  -3.708  -2.020  1.00  0.00     0.219 HD
ENDBRANCH   2  30
BRANCH   5  32
HETATM   32  C15 UNL     1      -2.288   1.820  -0.939  1.00  0.00     0.230 C 
BRANCH  32  33
HETATM   33  S1  UNL     1      -1.728   2.257   0.699  1.00  0.00    -0.064 SA
BRANCH  33  34
HETATM   34  C16 UNL     1      -1.542   4.039   0.764  1.00  0.00     0.206 A 
HETATM   35  N6  UNL     1      -2.447   4.969   1.102  1.00  0.00    -0.271 N 
HETATM   36  N7  UNL     1      -1.921   6.180   1.025  1.00  0.00    -0.263 N 
ATOM     37  H6  UNL     1      -3.408   4.770   1.380  1.00  0.00     0.189 HD
HETATM   38  C17 UNL     1      -0.652   6.007   0.627  1.00  0.00     0.239 A 
ATOM     39  H7  UNL     1      -2.386   7.065   1.227  1.00  0.00     0.190 HD
HETATM   40  O2  UNL     1      -0.433   4.712   0.472  1.00  0.00    -0.253 OA
BRANCH  38  41
HETATM   41  N8  UNL     1       0.196   6.969   0.434  1.00  0.00    -0.364 N 
ATOM     42  H82 UNL     1       0.027   7.968   0.554  1.00  0.00     0.159 HD
ATOM     43  H81 UNL     1       1.161   6.837   0.131  1.00  0.00     0.159 HD
ENDBRANCH  38  41
ENDBRANCH  33  34
ENDBRANCH  32  33
ENDBRANCH   5  32
BRANCH   3  44
HETATM   44  C7  UNL     1      -4.585  -2.486  -1.063  1.00  0.00     0.188 C 
BRANCH  44  45
HETATM   45  C8  UNL     1      -4.621  -3.153   0.256  1.00  0.00    -0.039 A 
HETATM   46  C9  UNL     1      -5.422  -2.646   1.248  1.00  0.00     0.009 A 
HETATM   47  C10 UNL     1      -5.443  -3.283   2.475  1.00  0.00     0.001 A 
HETATM   48  C11 UNL     1      -4.660  -4.414   2.680  1.00  0.00     0.000 A 
HETATM   49  C12 UNL     1      -3.860  -4.913   1.677  1.00  0.00     0.001 A 
HETATM   50  C13 UNL     1      -3.839  -4.280   0.457  1.00  0.00     0.009 A 
ENDBRANCH  44  45
ENDBRANCH   3  44
BRANCH   4  51
HETATM   51  N4  UNL     1      -4.752   0.395  -0.466  1.00  0.00    -0.234 N 
ATOM     52  H42 UNL     1      -5.647  -0.057  -0.279  1.00  0.00     0.174 HD
ATOM     53  H41 UNL     1      -4.837   1.389  -0.251  1.00  0.00     0.174 HD
ENDBRANCH   4  51
TORSDOF 15
