REMARK  12 active torsions:
REMARK  status: ('A' for Active; 'I' for Inactive)
REMARK    1  A    between atoms: N1_2  and  C2_4 
REMARK    2  A    between atoms: C3_9  and  C4_10 
REMARK    3  A    between atoms: C4_10  and  O1_11 
REMARK    4  A    between atoms: C4_10  and  O2_13 
REMARK    5  A    between atoms: N4_17  and  C7_19 
REMARK    6  A    between atoms: C9_21  and  N5_22 
REMARK    7  A    between atoms: N5_22  and  C10_24 
REMARK    8  A    between atoms: C10_24  and  C11_25 
REMARK    9  A    between atoms: C16_34  and  O3_35 
REMARK   10  A    between atoms: O3_35  and  C17_36 
REMARK   11  A    between atoms: C18_39  and  N9_40 
REMARK   12  A    between atoms: C19_45  and  N11_46 
ROOT
HETATM    1  C7  UNL     1      -0.064  -0.238   1.237  1.00  0.00     0.093 C 
HETATM    2  C8  UNL     1      -1.252   0.738   1.173  1.00  0.00     0.101 C 
HETATM    3  C9  UNL     1      -1.767   0.848  -0.196  1.00  0.00     0.076 C 
HETATM    4  N7  UNL     1      -1.990  -0.259  -0.823  1.00  0.00    -0.353 N 
ATOM      5  H7  UNL     1      -2.348  -0.248  -1.778  1.00  0.00     0.163 HD
HETATM    6  C16 UNL     1      -1.729  -1.498  -0.163  1.00  0.00     0.233 C 
HETATM    7  C20 UNL     1      -0.434  -1.554   0.606  1.00  0.00     0.079 C 
ENDROOT
BRANCH   1   8
HETATM    8  N4  UNL     1       1.067   0.396   0.709  1.00  0.00    -0.376 N 
HETATM    9  C6  UNL     1       2.325   0.274   0.813  1.00  0.00     0.117 A 
HETATM   10  C2  UNL     1       3.014  -0.641   1.578  1.00  0.00     0.149 A 
HETATM   11  S1  UNL     1       3.396   1.340  -0.059  1.00  0.00    -0.049 SA
HETATM   12  N2  UNL     1       4.358  -0.726   1.663  1.00  0.00    -0.283 N 
HETATM   13  N3  UNL     1       5.241   0.003   1.068  1.00  0.00    -0.292 N 
ATOM     14  H2  UNL     1       4.721  -1.458   2.274  1.00  0.00     0.188 HD
HETATM   15  C3  UNL     1       5.026   1.006   0.235  1.00  0.00     0.123 A 
ATOM     16  H3  UNL     1       6.217  -0.221   1.263  1.00  0.00     0.187 HD
ATOM     17  H4  UNL     1       0.813   1.154   0.075  1.00  0.00     0.160 HD
BRANCH  10  18
HETATM   18  N1  UNL     1       2.293  -1.491   2.269  1.00  0.00    -0.377 N 
HETATM   19  C1  UNL     1       2.962  -2.473   3.085  1.00  0.00     0.148 C 
ATOM     20  H1  UNL     1       1.274  -1.458   2.230  1.00  0.00     0.160 HD
ENDBRANCH  10  18
BRANCH  15  21
HETATM   21  C4  UNL     1       6.173   1.772  -0.388  1.00  0.00     0.316 C 
BRANCH  21  22
HETATM   22  O1  UNL     1       5.811   3.125  -0.267  1.00  0.00    -0.365 OA
ATOM     23  H1  UNL     1       6.531   3.606  -0.658  1.00  0.00     0.213 HD
ENDBRANCH  21  22
BRANCH  21  24
HETATM   24  O2  UNL     1       7.334   1.591   0.320  1.00  0.00    -0.360 OA
HETATM   25  C5  UNL     1       8.385   1.099  -0.413  1.00  0.00     0.205 C 
ENDBRANCH  21  24
ENDBRANCH  15  21
ENDBRANCH   1   8
BRANCH   3  26
HETATM   26  N5  UNL     1      -1.996   2.125  -0.772  1.00  0.00    -0.376 N 
ATOM     27  H5  UNL     1      -1.198   2.753  -0.866  1.00  0.00     0.161 HD
BRANCH  26  28
HETATM   28  C10 UNL     1      -3.281   2.597  -1.235  1.00  0.00     0.160 C 
BRANCH  28  29
HETATM   29  C11 UNL     1      -3.169   3.953  -1.769  1.00  0.00    -0.025 A 
HETATM   30  C12 UNL     1      -3.347   5.045  -0.947  1.00  0.00     0.011 A 
HETATM   31  C13 UNL     1      -3.240   6.327  -1.459  1.00  0.00     0.018 A 
HETATM   32  C14 UNL     1      -2.952   6.460  -2.805  1.00  0.00     0.087 A 
HETATM   33  N6  UNL     1      -2.779   5.407  -3.605  1.00  0.00    -0.375 N 
HETATM   34  C15 UNL     1      -2.888   4.174  -3.088  1.00  0.00     0.096 A 
ATOM     35  H6  UNL     1      -2.567   5.537  -4.594  1.00  0.00     0.164 HD
ENDBRANCH  28  29
ENDBRANCH  26  28
ENDBRANCH   3  26
BRANCH   6  36
HETATM   36  O3  UNL     1      -1.874  -2.612  -1.021  1.00  0.00    -0.295 OA
BRANCH  36  37
HETATM   37  C17 UNL     1      -2.839  -3.584  -0.841  1.00  0.00     0.254 A 
HETATM   38  N8  UNL     1      -3.689  -3.484   0.193  1.00  0.00    -0.154 N 
HETATM   39  C18 UNL     1      -4.655  -4.424   0.406  1.00  0.00     0.693 A 
ATOM     40  H8  UNL     1      -3.612  -2.692   0.831  1.00  0.00     0.188 HD
HETATM   41  N10 UNL     1      -4.767  -5.458  -0.417  1.00  0.00    -0.023 N 
HETATM   42  C19 UNL     1      -3.929  -5.576  -1.455  1.00  0.00     0.693 A 
ATOM     43  H10 UNL     1      -5.489  -6.161  -0.260  1.00  0.00     0.203 HD
HETATM   44  N12 UNL     1      -2.964  -4.633  -1.663  1.00  0.00    -0.154 N 
ATOM     45  H12 UNL     1      -2.329  -4.729  -2.456  1.00  0.00     0.188 HD
BRANCH  39  46
HETATM   46  N9  UNL     1      -5.454  -4.296   1.409  1.00  0.00    -0.234 N 
ATOM     47  H92 UNL     1      -5.368  -3.501   2.042  1.00  0.00     0.174 HD
ATOM     48  H91 UNL     1      -6.176  -4.999   1.568  1.00  0.00     0.174 HD
ENDBRANCH  39  46
BRANCH  42  49
HETATM   49  N11 UNL     1      -4.028  -6.567  -2.253  1.00  0.00    -0.234 N 
ATOM     50 2H11 UNL     1      -4.749  -7.272  -2.098  1.00  0.00     0.174 HD
ATOM     51 1H11 UNL     1      -3.390  -6.657  -3.044  1.00  0.00     0.174 HD
ENDBRANCH  42  49
ENDBRANCH  36  37
ENDBRANCH   6  36
TORSDOF 12
