REMARK  12 active torsions:
REMARK  status: ('A' for Active; 'I' for Inactive)
REMARK    1  A    between atoms: C2_2  and  C3_3 
REMARK    2  A    between atoms: C2_2  and  N1_6 
REMARK    3  A    between atoms: N1_6  and  C4_7 
REMARK    4  A    between atoms: N1_6  and  C6_11 
REMARK    5  A    between atoms: C4_7  and  C5_8 
REMARK    6  A    between atoms: C5_8  and  O3_9 
REMARK    7  A    between atoms: C6_11  and  C7_12 
REMARK    8  A    between atoms: C8_15  and  N3_16 
REMARK    9  A    between atoms: C9_19  and  N5_20 
REMARK   10  A    between atoms: C12_23  and  N6_24 
REMARK   11  A    between atoms: C14_31  and  C15_32 
REMARK   12  A    between atoms: C16_38  and  N10_39 
ROOT
HETATM    1  C7  UNL     1      -1.723  -0.993  -0.095  1.00  0.00     0.082 A 
HETATM    2  N2  UNL     1      -0.465  -0.542  -0.006  1.00  0.00    -0.189 N 
ATOM      3  H2  UNL     1      -0.113  -0.239   0.902  1.00  0.00     0.184 HD
HETATM    4  C8  UNL     1       0.357  -0.474  -1.083  1.00  0.00     0.708 A 
HETATM    5  N11 UNL     1      -0.159  -0.881  -2.258  1.00  0.00    -0.172 N 
ATOM      6  H11 UNL     1       0.440  -0.836  -3.082  1.00  0.00     0.186 HD
HETATM    7  C17 UNL     1      -1.422  -1.346  -2.419  1.00  0.00     0.160 A 
HETATM    8  N12 UNL     1      -2.187  -1.799  -3.423  1.00  0.00    -0.305 N 
ATOM      9  H12 UNL     1      -1.883  -1.882  -4.393  1.00  0.00     0.171 HD
HETATM   10  C18 UNL     1      -3.419  -2.131  -2.969  1.00  0.00     0.224 A 
HETATM   11  N13 UNL     1      -4.420  -2.602  -3.659  1.00  0.00    -0.365 N 
ATOM     12 1H13 UNL     1      -5.348  -2.852  -3.317  1.00  0.00     0.159 HD
ATOM     13 2H13 UNL     1      -4.436  -2.799  -4.660  1.00  0.00     0.159 HD
HETATM   14  O5  UNL     1      -3.399  -1.878  -1.685  1.00  0.00    -0.274 OA
HETATM   15  C19 UNL     1      -2.236  -1.407  -1.297  1.00  0.00     0.148 A 
ENDROOT
BRANCH   4  16
HETATM   16  N3  UNL     1       1.700  -0.026  -0.951  1.00  0.00    -0.052 N 
HETATM   17  N4  UNL     1       2.674  -0.744  -0.443  1.00  0.00    -0.109 N 
HETATM   18  C9  UNL     1       3.844  -0.093  -0.459  1.00  0.00     0.697 A 
ATOM     19  H4  UNL     1       2.554  -1.689  -0.078  1.00  0.00     0.207 HD
HETATM   20  N7  UNL     1       3.603   1.099  -1.005  1.00  0.00    -0.170 N 
HETATM   21  C14 UNL     1       2.273   1.132  -1.307  1.00  0.00     0.193 A 
ATOM     22  H7  UNL     1       4.282   1.843  -1.166  1.00  0.00     0.186 HD
BRANCH  18  23
HETATM   23  N5  UNL     1       5.117  -0.573   0.030  1.00  0.00    -0.214 N 
HETATM   24  C10 UNL     1       5.298  -1.917   0.566  1.00  0.00     0.143 C 
HETATM   25  C11 UNL     1       6.755  -2.013   0.882  1.00  0.00     0.055 C 
HETATM   26  C12 UNL     1       7.175  -0.590   1.097  1.00  0.00     0.203 C 
HETATM   27  C13 UNL     1       6.327   0.167   0.076  1.00  0.00     0.174 C 
BRANCH  26  28
HETATM   28  N6  UNL     1       6.790  -0.185   2.446  1.00  0.00    -0.073 N 
ATOM     29  H63 UNL     1       5.797  -0.330   2.628  1.00  0.00     0.274 HD
ATOM     30  H62 UNL     1       7.158  -0.812   3.161  1.00  0.00     0.274 HD
ATOM     31  H61 UNL     1       7.076   0.783   2.592  1.00  0.00     0.274 HD
ENDBRANCH  26  28
ENDBRANCH  18  23
BRANCH  21  32
HETATM   32  C15 UNL     1       1.582   2.252  -1.935  1.00  0.00     0.148 A 
HETATM   33  N8  UNL     1       0.276   2.338  -2.184  1.00  0.00    -0.234 N 
HETATM   34  O4  UNL     1       0.006   3.482  -2.764  1.00  0.00    -0.155 OA
ATOM     35  H8  UNL     1      -0.412   1.620  -1.957  1.00  0.00     0.197 HD
HETATM   36  N9  UNL     1       1.082   4.190  -2.928  1.00  0.00    -0.224 N 
HETATM   37  C16 UNL     1       2.112   3.443  -2.413  1.00  0.00     0.154 A 
ATOM     38  H9  UNL     1       1.148   5.115  -3.354  1.00  0.00     0.198 HD
BRANCH  37  39
HETATM   39  N10 UNL     1       3.339   3.789  -2.401  1.00  0.00    -0.382 N 
ATOM     40 2H10 UNL     1       4.104   3.234  -2.018  1.00  0.00     0.157 HD
ATOM     41 1H10 UNL     1       3.728   4.664  -2.752  1.00  0.00     0.157 HD
ENDBRANCH  37  39
ENDBRANCH  21  32
ENDBRANCH   4  16
BRANCH   1  42
HETATM   42  C6  UNL     1      -2.535  -1.151   1.133  1.00  0.00     0.183 C 
BRANCH  42  43
HETATM   43  N1  UNL     1      -3.844  -0.600   1.077  1.00  0.00    -0.371 N 
BRANCH  43  44
HETATM   44  C2  UNL     1      -4.022   0.752   0.749  1.00  0.00     0.081 C 
HETATM   45  C1  UNL     1      -5.356   1.001   0.033  1.00  0.00     0.075 C 
BRANCH  44  46
HETATM   46  C3  UNL     1      -3.713   1.779   1.718  1.00  0.00     0.222 C 
HETATM   47  O1  UNL     1      -2.987   1.591   2.725  1.00  0.00    -0.643 OA
HETATM   48  O2  UNL     1      -4.236   3.082   1.561  1.00  0.00    -0.643 OA
ENDBRANCH  44  46
ENDBRANCH  43  44
BRANCH  43  49
HETATM   49  C4  UNL     1      -4.793  -1.255   1.904  1.00  0.00     0.149 C 
BRANCH  49  50
HETATM   50  C5  UNL     1      -4.890  -0.813   3.327  1.00  0.00     0.183 C 
BRANCH  50  51
HETATM   51  O3  UNL     1      -5.865  -1.575   4.021  1.00  0.00    -0.399 OA
ATOM     52  H3  UNL     1      -5.927  -1.294   4.926  1.00  0.00     0.209 HD
ENDBRANCH  50  51
ENDBRANCH  49  50
ENDBRANCH  43  49
ENDBRANCH  42  43
ENDBRANCH   1  42
TORSDOF 12
