REMARK  12 active torsions:
REMARK  status: ('A' for Active; 'I' for Inactive)
REMARK    1  A    between atoms: C3_6  and  C4_7 
REMARK       I    between atoms: C4_7  and  N3_9 
REMARK    2  A    between atoms: N3_9  and  C5_11 
REMARK    3  A    between atoms: C7_13  and  C8_14 
REMARK    4  A    between atoms: C9_20  and  N6_21 
REMARK    5  A    between atoms: C10_26  and  N8_27 
REMARK    6  A    between atoms: N8_27  and  C11_29 
REMARK    7  A    between atoms: C15_35  and  N10_36 
REMARK    8  A    between atoms: C17_38  and  C18_39 
REMARK    9  A    between atoms: C18_39  and  C19_40 
REMARK   10  A    between atoms: C19_40  and  C20_41 
REMARK   11  A    between atoms: C20_41  and  N11_42 
REMARK   12  A    between atoms: N14_50  and  N15_51 
ROOT
HETATM    1  N1  UNL     1       1.242  -4.240  -3.878  1.00  0.00    -0.188 NA
HETATM    2  C1  UNL     1       1.264  -3.243  -3.281  1.00  0.00     0.139 C 
HETATM    3  C2  UNL     1       1.304  -2.001  -2.574  1.00  0.00     0.212 A 
HETATM    4  N2  UNL     1       0.250  -1.348  -2.090  1.00  0.00    -0.324 N 
ATOM      5  H2  UNL     1      -0.719  -1.657  -2.170  1.00  0.00     0.168 HD
HETATM    6  C3  UNL     1       0.654  -0.219  -1.480  1.00  0.00     0.151 A 
HETATM    7  C15 UNL     1       2.055  -0.151  -1.585  1.00  0.00     0.184 A 
HETATM    8  N14 UNL     1       2.403  -1.278  -2.268  1.00  0.00    -0.216 N 
ENDROOT
BRANCH   8   9
HETATM    9  N15 UNL     1       3.710  -1.643  -2.599  1.00  0.00    -0.335 N 
ATOM     10 2H15 UNL     1       3.970  -2.486  -3.110  1.00  0.00     0.177 HD
ATOM     11 1H15 UNL     1       4.540  -1.097  -2.368  1.00  0.00     0.177 HD
ENDBRANCH   8   9
BRANCH   6  12
HETATM   12  C4  UNL     1      -0.129   0.753  -0.768  1.00  0.00     0.277 C 
HETATM   13  O1  UNL     1       0.290   1.977  -0.762  1.00  0.00    -0.265 OA
HETATM   14  N3  UNL     1      -1.290   0.575  -0.058  1.00  0.00    -0.307 N 
ATOM     15  H3  UNL     1      -1.578   1.515   0.213  1.00  0.00     0.170 HD
BRANCH  14  16
HETATM   16  C5  UNL     1      -2.249  -0.250   0.463  1.00  0.00     0.126 A 
HETATM   17  C6  UNL     1      -2.275  -1.633   0.354  1.00  0.00     0.081 A 
HETATM   18  C7  UNL     1      -3.328  -2.399   0.861  1.00  0.00     0.085 A 
HETATM   19  N7  UNL     1      -4.341  -1.772   1.466  1.00  0.00    -0.189 N 
HETATM   20  C10 UNL     1      -4.370  -0.429   1.597  1.00  0.00     0.680 A 
ATOM     21  H7  UNL     1      -5.114  -2.323   1.839  1.00  0.00     0.184 HD
HETATM   22  N9  UNL     1      -3.356   0.254   1.108  1.00  0.00    -0.177 N 
ATOM     23  H9  UNL     1      -3.395   1.267   1.219  1.00  0.00     0.186 HD
BRANCH  18  24
HETATM   24  C8  UNL     1      -3.264  -3.848   0.739  1.00  0.00     0.129 A 
HETATM   25  N4  UNL     1      -2.316  -4.604   0.152  1.00  0.00    -0.236 N 
HETATM   26  O2  UNL     1      -2.622  -5.867   0.304  1.00  0.00    -0.155 OA
ATOM     27  H4  UNL     1      -1.492  -4.249  -0.333  1.00  0.00     0.197 HD
HETATM   28  N5  UNL     1      -3.708  -6.013   0.949  1.00  0.00    -0.224 N 
HETATM   29  C9  UNL     1      -4.171  -4.784   1.256  1.00  0.00     0.152 A 
ATOM     30  H5  UNL     1      -4.150  -6.900   1.191  1.00  0.00     0.198 HD
BRANCH  29  31
HETATM   31  N6  UNL     1      -5.198  -4.413   1.903  1.00  0.00    -0.382 N 
ATOM     32  H62 UNL     1      -5.548  -3.484   2.135  1.00  0.00     0.157 HD
ATOM     33  H61 UNL     1      -5.858  -5.094   2.279  1.00  0.00     0.157 HD
ENDBRANCH  29  31
ENDBRANCH  18  24
BRANCH  20  34
HETATM   34  N8  UNL     1      -5.382   0.150   2.213  1.00  0.00    -0.221 N 
ATOM     35  H8  UNL     1      -6.150  -0.397   2.603  1.00  0.00     0.178 HD
BRANCH  34  36
HETATM   36  C11 UNL     1      -5.358   1.585   2.312  1.00  0.00     0.099 C 
HETATM   37  C12 UNL     1      -5.750   2.390   1.090  1.00  0.00     0.026 C 
HETATM   38  C13 UNL     1      -6.312   3.416   2.113  1.00  0.00     0.004 C 
HETATM   39  C14 UNL     1      -6.648   2.164   2.947  1.00  0.00     0.026 C 
ENDBRANCH  34  36
ENDBRANCH  20  34
ENDBRANCH  14  16
ENDBRANCH   6  12
BRANCH   7  40
HETATM   40  N10 UNL     1       2.921   0.848  -1.094  1.00  0.00    -0.231 N 
HETATM   41  C16 UNL     1       3.985   1.381  -1.789  1.00  0.00     0.146 A 
HETATM   42  C17 UNL     1       4.628   2.331  -1.020  1.00  0.00     0.044 A 
HETATM   43  N12 UNL     1       3.940   2.354   0.127  1.00  0.00    -0.289 N 
HETATM   44  N13 UNL     1       2.961   1.495   0.069  1.00  0.00    -0.234 N 
ATOM     45  H12 UNL     1       4.150   2.953   0.926  1.00  0.00     0.188 HD
ATOM     46  H13 UNL     1       2.300   1.336   0.829  1.00  0.00     0.209 HD
BRANCH  42  47
HETATM   47  C18 UNL     1       5.836   3.142  -1.346  1.00  0.00     0.062 C 
BRANCH  47  48
HETATM   48  C19 UNL     1       7.070   2.460  -0.806  1.00  0.00     0.033 C 
BRANCH  48  49
HETATM   49  C20 UNL     1       7.315   1.082  -1.351  1.00  0.00     0.230 C 
BRANCH  49  50
HETATM   50  N11 UNL     1       8.550   0.592  -0.699  1.00  0.00    -0.079 N 
ATOM     51 3H11 UNL     1       9.345   1.220  -0.813  1.00  0.00     0.274 HD
ATOM     52 2H11 UNL     1       8.511   0.624   0.320  1.00  0.00     0.274 HD
ATOM     53 1H11 UNL     1       8.716  -0.344  -1.069  1.00  0.00     0.274 HD
ENDBRANCH  49  50
ENDBRANCH  48  49
ENDBRANCH  47  48
ENDBRANCH  42  47
ENDBRANCH   7  40
TORSDOF 12
