REMARK  7 active torsions:
REMARK  status: ('A' for Active; 'I' for Inactive)
REMARK    1  A    between atoms: N1_2  and  C4_5 
REMARK    2  A    between atoms: C4_5  and  C5_6 
REMARK    3  A    between atoms: C5_6  and  N3_10 
REMARK    4  A    between atoms: N3_10  and  N4_12 
REMARK       I    between atoms: N4_12  and  C6_14 
REMARK       I    between atoms: C6_14  and  N6_18 
REMARK    5  A    between atoms: N6_18  and  C7_20 
REMARK    6  A    between atoms: C7_20  and  C8_21 
REMARK    7  A    between atoms: C8_21  and  N7_22 
ROOT
HETATM    1  N4  UNL     1       1.137  -0.922   0.261  1.00  0.00    -0.131 N 
ATOM      2  H4  UNL     1       1.436  -1.762   0.757  1.00  0.00     0.205 HD
HETATM    3  C6  UNL     1       0.130  -0.071   0.828  1.00  0.00     0.686 C 
HETATM    4  N5  UNL     1       0.364   0.809   1.716  1.00  0.00    -0.234 N 
ATOM      5  H51 UNL     1      -0.352   1.414   2.119  1.00  0.00     0.174 HD
ATOM      6  H52 UNL     1       1.311   0.944   2.069  1.00  0.00     0.174 HD
HETATM    7  N6  UNL     1      -1.193  -0.259   0.335  1.00  0.00    -0.224 N 
ATOM      8  H6  UNL     1      -1.775  -0.992   0.739  1.00  0.00     0.177 HD
ENDROOT
BRANCH   1   9
HETATM    9  N3  UNL     1       1.705  -0.596  -0.971  1.00  0.00    -0.274 N 
ATOM     10  H3  UNL     1       1.130  -0.561  -1.813  1.00  0.00     0.189 HD
BRANCH   9  11
HETATM   11  C5  UNL     1       3.086  -0.316  -1.034  1.00  0.00     0.116 C 
HETATM   12  N2  UNL     1       3.700  -0.475  -2.147  1.00  0.00    -0.386 N 
ATOM     13  H22 UNL     1       4.699  -0.273  -2.193  1.00  0.00     0.157 HD
ATOM     14  H21 UNL     1       3.199  -0.798  -2.975  1.00  0.00     0.157 HD
BRANCH  11  15
HETATM   15  C4  UNL     1       3.802   0.145   0.148  1.00  0.00     0.312 C 
BRANCH  15  16
HETATM   16  N1  UNL     1       5.195   0.401  -0.023  1.00  0.00    -0.072 N 
HETATM   17  C1  UNL     1       5.684   0.883   1.279  1.00  0.00     0.272 C 
HETATM   18  C2  UNL     1       5.954  -0.785  -0.352  1.00  0.00     0.272 C 
HETATM   19  C3  UNL     1       5.494   1.410  -0.993  1.00  0.00     0.272 C 
ENDBRANCH  15  16
ENDBRANCH  11  15
ENDBRANCH   9  11
ENDBRANCH   1   9
BRANCH   7  20
HETATM   20  C7  UNL     1      -1.728   0.561  -0.720  1.00  0.00     0.166 C 
BRANCH  20  21
HETATM   21  C8  UNL     1      -3.120   0.172  -1.034  1.00  0.00     0.257 C 
BRANCH  21  22
HETATM   22  N7  UNL     1      -4.073   0.283   0.032  1.00  0.00    -0.069 N 
HETATM   23  C9  UNL     1      -3.641   1.082   1.133  1.00  0.00     0.272 C 
HETATM   24  C10 UNL     1      -4.476  -1.010   0.501  1.00  0.00     0.237 C 
HETATM   25  C11 UNL     1      -5.985  -1.042   0.581  1.00  0.00     0.029 C 
HETATM   26  C12 UNL     1      -6.410   0.397   0.357  1.00  0.00     0.029 C 
HETATM   27  C13 UNL     1      -5.292   0.902  -0.499  1.00  0.00     0.237 C 
ENDBRANCH  21  22
ENDBRANCH  20  21
ENDBRANCH   7  20
TORSDOF 7
