REMARK  5 active torsions:
REMARK  status: ('A' for Active; 'I' for Inactive)
REMARK    1  A    between atoms: C3_3  and  N1_4 
REMARK    2  A    between atoms: C3_3  and  C4_8 
REMARK       I    between atoms: N2_12  and  C8_13 
REMARK       I    between atoms: C8_13  and  N4_17 
REMARK    3  A    between atoms: N4_17  and  C9_19 
REMARK    4  A    between atoms: C9_19  and  C10_20 
REMARK    5  A    between atoms: C10_20  and  N5_21 
ROOT
HETATM    1  C1  UNL     1      -6.957   0.119  -0.678  1.00  0.00     0.014 C 
HETATM    2  C2  UNL     1      -5.762  -0.005  -0.823  1.00  0.00    -0.082 C 
HETATM    3  C3  UNL     1      -4.301  -0.153  -0.981  1.00  0.00     0.284 C 
ENDROOT
BRANCH   3   4
HETATM    4  N1  UNL     1      -3.948  -1.481  -0.609  1.00  0.00    -0.063 N 
ATOM      5  H13 UNL     1      -4.270  -1.727   0.327  1.00  0.00     0.275 HD
ATOM      6  H12 UNL     1      -4.473  -2.187  -1.124  1.00  0.00     0.275 HD
ATOM      7  H11 UNL     1      -2.939  -1.583  -0.718  1.00  0.00     0.275 HD
ENDBRANCH   3   4
BRANCH   3   8
HETATM    8  C4  UNL     1      -3.643   0.913  -0.164  1.00  0.00     0.144 C 
HETATM    9  C5  UNL     1      -3.955   0.852   1.292  1.00  0.00     0.030 C 
HETATM   10  C6  UNL     1      -2.802   1.616   1.915  1.00  0.00     0.022 C 
HETATM   11  C7  UNL     1      -1.785   1.807   0.811  1.00  0.00     0.142 C 
HETATM   12  N2  UNL     1      -2.199   0.835  -0.180  1.00  0.00    -0.211 N 
HETATM   13  C8  UNL     1      -1.318   0.032  -0.946  1.00  0.00     0.670 C 
HETATM   14  N3  UNL     1      -1.489  -0.100  -2.216  1.00  0.00    -0.235 N 
HETATM   15  N4  UNL     1      -0.204  -0.673  -0.378  1.00  0.00    -0.225 N 
ATOM     16  H32 UNL     1      -2.281   0.401  -2.620  1.00  0.00     0.174 HD
ATOM     17  H31 UNL     1      -0.855  -0.678  -2.767  1.00  0.00     0.174 HD
ATOM     18  H4  UNL     1      -0.373  -1.531   0.146  1.00  0.00     0.177 HD
BRANCH  15  19
HETATM   19  C9  UNL     1       1.157  -0.194  -0.532  1.00  0.00     0.166 C 
BRANCH  19  20
HETATM   20  C10 UNL     1       2.073  -1.133   0.162  1.00  0.00     0.259 C 
BRANCH  20  21
HETATM   21  N5  UNL     1       3.455  -0.798   0.102  1.00  0.00    -0.044 N 
HETATM   22  C11 UNL     1       4.223  -2.029   0.048  1.00  0.00     0.274 C 
HETATM   23  C12 UNL     1       3.916  -0.029   1.240  1.00  0.00     0.266 C 
HETATM   24  C13 UNL     1       5.224   0.538   0.728  1.00  0.00     0.262 C 
HETATM   25  N6  UNL     1       5.130   0.527  -0.712  1.00  0.00    -0.049 N 
HETATM   26  C14 UNL     1       3.821  -0.002  -1.040  1.00  0.00     0.467 C 
ATOM     27  H62 UNL     1       5.314   1.437  -1.134  1.00  0.00     0.279 HD
ATOM     28  H61 UNL     1       5.893   0.021  -1.161  1.00  0.00     0.279 HD
ENDBRANCH  20  21
ENDBRANCH  19  20
ENDBRANCH  15  19
ENDBRANCH   3   8
TORSDOF 5
