REMARK  5 active torsions:
REMARK  status: ('A' for Active; 'I' for Inactive)
REMARK    1  A    between atoms: C3_4  and  C4_5 
REMARK    2  A    between atoms: C4_5  and  N2_6 
REMARK       I    between atoms: N2_6  and  C5_8 
REMARK       I    between atoms: C5_8  and  N4_12 
REMARK    3  A    between atoms: N4_12  and  C6_14 
REMARK    4  A    between atoms: C6_14  and  C9_17 
REMARK    5  A    between atoms: C9_17  and  N5_18 
ROOT
HETATM    1  N2  UNL     1      -0.099   0.782  -0.123  1.00  0.00    -0.225 N 
ATOM      2  H2  UNL     1      -0.081   0.915  -1.134  1.00  0.00     0.177 HD
HETATM    3  C5  UNL     1       1.033   1.098   0.664  1.00  0.00     0.668 C 
HETATM    4  N3  UNL     1       1.289   2.352   0.929  1.00  0.00    -0.235 N 
ATOM      5  H31 UNL     1       2.105   2.580   1.497  1.00  0.00     0.174 HD
ATOM      6  H32 UNL     1       0.644   3.043   0.545  1.00  0.00     0.174 HD
HETATM    7  N4  UNL     1       1.921   0.147   1.193  1.00  0.00    -0.217 N 
ATOM      8  H4  UNL     1       1.759  -0.212   2.134  1.00  0.00     0.178 HD
ENDROOT
BRANCH   1   9
HETATM    9  C4  UNL     1      -1.273   0.271   0.525  1.00  0.00     0.164 C 
BRANCH   9  10
HETATM   10  C3  UNL     1      -2.396  -0.021  -0.422  1.00  0.00     0.120 C 
HETATM   11  C2  UNL     1      -3.560  -0.552   0.417  1.00  0.00     0.151 C 
HETATM   12  N1  UNL     1      -4.671  -0.363  -0.478  1.00  0.00    -0.361 N 
HETATM   13  C1  UNL     1      -5.872  -1.154  -0.635  1.00  0.00     0.152 C 
HETATM   14  C10 UNL     1      -4.355   0.819  -1.228  1.00  0.00     0.169 C 
HETATM   15  N7  UNL     1      -2.984   1.142  -1.014  1.00  0.00    -0.359 N 
HETATM   16  S1  UNL     1      -5.426   1.637  -2.169  1.00  0.00    -0.041 SA
ATOM     17  H7  UNL     1      -2.517   2.021  -1.237  1.00  0.00     0.162 HD
ENDBRANCH   9  10
ENDBRANCH   1   9
BRANCH   7  18
HETATM   18  C6  UNL     1       3.060  -0.339   0.443  1.00  0.00     0.057 C 
HETATM   19  C7  UNL     1       3.848  -1.343   1.224  1.00  0.00     0.040 C 
HETATM   20  C8  UNL     1       2.551  -0.905  -0.860  1.00  0.00     0.040 C 
BRANCH  18  21
HETATM   21  C9  UNL     1       3.967   0.855   0.122  1.00  0.00     0.169 C 
BRANCH  21  22
HETATM   22  N5  UNL     1       5.115   0.433  -0.621  1.00  0.00    -0.341 N 
HETATM   23  N6  UNL     1       6.288   0.629  -0.260  1.00  0.00    -0.349 N 
ATOM     24  H62 UNL     1       6.423   1.122   0.622  1.00  0.00     0.176 HD
ATOM     25  H61 UNL     1       7.106   0.328  -0.790  1.00  0.00     0.176 HD
ATOM     26  H5  UNL     1       4.961  -0.059  -1.501  1.00  0.00     0.179 HD
ENDBRANCH  21  22
ENDBRANCH  18  21
ENDBRANCH   7  18
TORSDOF 5
