REMARK  7 active torsions:
REMARK  status: ('A' for Active; 'I' for Inactive)
REMARK    1  A    between atoms: N1_1  and  C1_4 
REMARK    2  A    between atoms: C2_9  and  C3_10 
REMARK    3  A    between atoms: C6_13  and  C7_14 
REMARK    4  A    between atoms: C7_14  and  N4_15 
REMARK    5  A    between atoms: C9_19  and  C10_20 
REMARK    6  A    between atoms: C10_20  and  S1_21 
REMARK    7  A    between atoms: S1_21  and  C11_22 
ROOT
HETATM    1  C3  UNL     1       3.665   0.304   0.474  1.00  0.00     0.017 A 
HETATM    2  C4  UNL     1       3.042   0.598   1.669  1.00  0.00     0.016 A 
HETATM    3  C5  UNL     1       2.060  -0.267   2.146  1.00  0.00     0.010 A 
HETATM    4  C6  UNL     1       1.692  -1.400   1.470  1.00  0.00    -0.040 A 
HETATM    5  C16 UNL     1       2.330  -1.673   0.277  1.00  0.00     0.010 A 
HETATM    6  C17 UNL     1       3.308  -0.840  -0.228  1.00  0.00     0.016 A 
ENDROOT
BRANCH   4   7
HETATM    7  C7  UNL     1       0.668  -2.335   1.931  1.00  0.00     0.167 C 
BRANCH   7   8
HETATM    8  N4  UNL     1      -0.651  -2.046   1.479  1.00  0.00    -0.347 N 
HETATM    9  C8  UNL     1      -1.545  -1.277   2.101  1.00  0.00     0.183 A 
HETATM   10  N5  UNL     1      -2.678  -1.226   1.390  1.00  0.00    -0.354 N 
HETATM   11  C9  UNL     1      -2.491  -1.980   0.294  1.00  0.00     0.035 A 
ATOM     12  H5  UNL     1      -3.524  -0.711   1.634  1.00  0.00     0.166 HD
HETATM   13  C15 UNL     1      -1.214  -2.495   0.354  1.00  0.00     0.117 A 
BRANCH  11  14
HETATM   14  C10 UNL     1      -3.465  -2.247  -0.825  1.00  0.00     0.132 C 
BRANCH  14  15
HETATM   15  S1  UNL     1      -3.283  -0.998  -2.126  1.00  0.00    -0.158 SA
BRANCH  15  16
HETATM   16  C11 UNL     1      -3.781   0.633  -1.513  1.00  0.00     0.047 C 
HETATM   17  C12 UNL     1      -5.276   0.722  -1.188  1.00  0.00     0.015 C 
HETATM   18  C13 UNL     1      -5.261   2.072  -1.916  1.00  0.00     0.002 C 
HETATM   19  C14 UNL     1      -4.046   1.569  -2.671  1.00  0.00     0.015 C 
ENDBRANCH  15  16
ENDBRANCH  14  15
ENDBRANCH  11  14
ENDBRANCH   7   8
ENDBRANCH   4   7
BRANCH   1  20
HETATM   20  C2  UNL     1       4.696   1.184  -0.055  1.00  0.00     0.176 A 
HETATM   21  N3  UNL     1       5.370   1.007  -1.207  1.00  0.00    -0.276 N 
HETATM   22  N2  UNL     1       6.225   1.989  -1.375  1.00  0.00    -0.263 N 
ATOM     23  H3  UNL     1       5.237   0.228  -1.852  1.00  0.00     0.189 HD
HETATM   24  C1  UNL     1       6.084   2.807  -0.300  1.00  0.00     0.238 A 
ATOM     25  H2  UNL     1       6.868   2.113  -2.157  1.00  0.00     0.190 HD
HETATM   26  O1  UNL     1       5.160   2.280   0.456  1.00  0.00    -0.259 OA
BRANCH  24  27
HETATM   27  N1  UNL     1       6.726   3.892  -0.055  1.00  0.00    -0.364 N 
ATOM     28  H12 UNL     1       7.448   4.304  -0.646  1.00  0.00     0.159 HD
ATOM     29  H11 UNL     1       6.620   4.506   0.752  1.00  0.00     0.159 HD
ENDBRANCH  24  27
ENDBRANCH   1  20
TORSDOF 7
