REMARK  6 active torsions:
REMARK  status: ('A' for Active; 'I' for Inactive)
REMARK       I    between atoms: N1_2  and  C2_4 
REMARK    1  A    between atoms: C2_4  and  C3_6 
REMARK    2  A    between atoms: C4_9  and  C5_10 
REMARK    3  A    between atoms: N3_13  and  C8_14 
REMARK    4  A    between atoms: C11_17  and  S1_18 
REMARK    5  A    between atoms: S1_18  and  C12_19 
REMARK    6  A    between atoms: C12_19  and  C13_20 
ROOT
HETATM    1  C13 UNL     1       3.528   0.177  -0.103  1.00  0.00     0.026 A 
HETATM    2  C14 UNL     1       3.477   1.491   0.218  1.00  0.00     0.122 A 
HETATM    3  N4  UNL     1       4.418   1.768   1.184  1.00  0.00    -0.310 N 
ATOM      4  H4  UNL     1       4.600   2.676   1.611  1.00  0.00     0.186 HD
HETATM    5  N5  UNL     1       5.038   0.640   1.452  1.00  0.00    -0.290 N 
ATOM      6  H5  UNL     1       5.790   0.542   2.134  1.00  0.00     0.188 HD
HETATM    7  C15 UNL     1       4.550  -0.365   0.709  1.00  0.00     0.140 A 
HETATM    8  C16 UNL     1       4.952  -1.742   0.710  1.00  0.00     0.120 C 
HETATM    9  N6  UNL     1       5.295  -2.865   0.729  1.00  0.00    -0.190 NA
ENDROOT
BRANCH   1  10
HETATM   10  C12 UNL     1       2.823  -0.629  -1.056  1.00  0.00     0.067 C 
BRANCH  10  11
HETATM   11  S1  UNL     1       1.486  -0.016  -2.038  1.00  0.00    -0.081 SA
BRANCH  11  12
HETATM   12  C11 UNL     1       0.008   0.213  -1.078  1.00  0.00     0.110 A 
HETATM   13  C3  UNL     1      -0.516   1.356  -0.548  1.00  0.00     0.136 A 
HETATM   14  N2  UNL     1      -1.583   0.988   0.211  1.00  0.00    -0.339 N 
HETATM   15  C4  UNL     1      -1.740  -0.340   0.167  1.00  0.00     0.088 A 
ATOM     16  H2  UNL     1      -2.176   1.630   0.737  1.00  0.00     0.167 HD
HETATM   17  N3  UNL     1      -0.778  -0.827  -0.620  1.00  0.00    -0.324 N 
BRANCH  13  18
HETATM   18  C2  UNL     1      -0.092   2.726  -0.793  1.00  0.00     0.270 C 
HETATM   19  N1  UNL     1      -0.565   3.777   0.013  1.00  0.00    -0.360 N 
HETATM   20  C1  UNL     1      -0.182   5.166  -0.181  1.00  0.00     0.149 C 
ATOM     21  H1  UNL     1      -1.209   3.554   0.772  1.00  0.00     0.162 HD
HETATM   22  O1  UNL     1       0.695   2.955  -1.727  1.00  0.00    -0.266 OA
ENDBRANCH  13  18
BRANCH  15  23
HETATM   23  C5  UNL     1      -2.775  -1.070   0.867  1.00  0.00     0.045 C 
HETATM   24  C6  UNL     1      -2.673  -0.893   2.403  1.00  0.00     0.017 C 
HETATM   25  C7  UNL     1      -4.113  -0.411   0.517  1.00  0.00     0.017 C 
ENDBRANCH  15  23
BRANCH  17  26
HETATM   26  C8  UNL     1      -0.564  -2.170  -0.978  1.00  0.00     0.084 C 
HETATM   27  C9  UNL     1      -1.581  -2.645  -2.046  1.00  0.00     0.032 C 
HETATM   28  C10 UNL     1      -0.570  -3.196   0.090  1.00  0.00     0.032 C 
ENDBRANCH  17  26
ENDBRANCH  11  12
ENDBRANCH  10  11
ENDBRANCH   1  10
TORSDOF 6
