REMARK  3 active torsions:
REMARK  status: ('A' for Active; 'I' for Inactive)
REMARK    1  A    between atoms: N1_1  and  N2_4 
REMARK       I    between atoms: N2_4  and  C1_6 
REMARK       I    between atoms: C1_6  and  N3_8 
REMARK    2  A    between atoms: C3_10  and  C4_11 
REMARK    3  A    between atoms: N4_12  and  N5_14 
ROOT
HETATM    1  N2  UNL     1      -4.522  -0.378  -0.045  1.00  0.00    -0.257 N 
ATOM      2  H2  UNL     1      -4.879   0.430   0.465  1.00  0.00     0.191 HD
HETATM    3  C1  UNL     1      -3.163  -0.477  -0.270  1.00  0.00     0.348 C 
HETATM    4  O1  UNL     1      -2.798  -1.538  -0.926  1.00  0.00    -0.245 OA
HETATM    5  N3  UNL     1      -2.121   0.387   0.100  1.00  0.00    -0.224 N 
HETATM    6  C2  UNL     1      -0.829   0.077  -0.238  1.00  0.00     0.125 A 
HETATM    7  C3  UNL     1       0.255   0.852   0.075  1.00  0.00     0.065 A 
HETATM    8  C6  UNL     1      -0.007   2.014   0.777  1.00  0.00     0.262 A 
HETATM    9  O2  UNL     1       0.943   2.771   1.096  1.00  0.00    -0.267 OA
HETATM   10  N8  UNL     1      -1.259   2.351   1.125  1.00  0.00    -0.274 N 
ATOM     11  H8  UNL     1      -1.435   3.212   1.643  1.00  0.00     0.173 HD
HETATM   12  C7  UNL     1      -2.307   1.520   0.775  1.00  0.00     0.337 A 
HETATM   13  O3  UNL     1      -3.465   1.871   1.121  1.00  0.00    -0.246 OA
ENDROOT
BRANCH   7  14
HETATM   14  C4  UNL     1       1.611   0.484  -0.304  1.00  0.00     0.125 C 
HETATM   15  N4  UNL     1       1.872  -0.588  -0.954  1.00  0.00    -0.309 N 
ATOM     16  H4  UNL     1       1.093  -1.195  -1.209  1.00  0.00     0.186 HD
BRANCH  15  17
HETATM   17  N5  UNL     1       3.139  -0.971  -1.330  1.00  0.00    -0.276 N 
HETATM   18  C5  UNL     1       4.180  -0.986  -0.603  1.00  0.00     0.215 C 
HETATM   19  N6  UNL     1       4.227  -0.603   0.760  1.00  0.00    -0.065 NA
HETATM   20  N7  UNL     1       5.406  -1.423  -1.199  1.00  0.00    -0.065 NA
ATOM     21  H5  UNL     1       3.254  -1.276  -2.297  1.00  0.00     0.189 HD
ENDBRANCH  15  17
ENDBRANCH   7  14
BRANCH   1  22
HETATM   22  N1  UNL     1      -5.445  -1.367  -0.502  1.00  0.00    -0.341 N 
ATOM     23  H12 UNL     1      -5.071  -2.168  -1.011  1.00  0.00     0.177 HD
ATOM     24  H11 UNL     1      -6.449  -1.294  -0.336  1.00  0.00     0.177 HD
ENDBRANCH   1  22
TORSDOF 3
