REMARK  5 active torsions:
REMARK  status: ('A' for Active; 'I' for Inactive)
REMARK    1  A    between atoms: N1_2  and  C2_4 
REMARK    2  A    between atoms: C4_11  and  N4_12 
REMARK    3  A    between atoms: N7_19  and  C7_21 
REMARK    4  A    between atoms: C7_21  and  O2_23 
REMARK    5  A    between atoms: O2_23  and  N8_24 
ROOT
HETATM    1  N4  UNL     1      -1.297  -2.840  -0.509  1.00  0.00    -0.126 N 
ATOM      2  H4  UNL     1      -0.394  -3.237  -0.768  1.00  0.00     0.197 HD
HETATM    3  C5  UNL     1      -2.401  -3.688  -0.390  1.00  0.00     0.196 C 
HETATM    4  N5  UNL     1      -3.312  -4.412  -0.294  1.00  0.00    -0.171 NA
ENDROOT
BRANCH   1   5
HETATM    5  C4  UNL     1      -1.385  -1.573  -0.302  1.00  0.00     0.697 C 
HETATM    6  N3  UNL     1      -2.586  -1.104   0.033  1.00  0.00    -0.140 N 
HETATM    7  C3  UNL     1      -2.895   0.181   0.318  1.00  0.00     0.340 C 
ATOM      8  H3  UNL     1      -3.348  -1.781   0.079  1.00  0.00     0.189 HD
HETATM    9  N2  UNL     1      -2.091   1.267   0.403  1.00  0.00    -0.291 N 
HETATM   10  O1  UNL     1      -4.107   0.434   0.543  1.00  0.00    -0.246 OA
HETATM   11  C2  UNL     1      -0.782   1.374   0.122  1.00  0.00     0.150 C 
ATOM     12  H2  UNL     1      -2.542   2.123   0.725  1.00  0.00     0.172 HD
HETATM   13  C6  UNL     1       0.105   0.333  -0.059  1.00  0.00     0.163 C 
HETATM   14  N6  UNL     1      -0.233  -0.904  -0.459  1.00  0.00    -0.172 N 
HETATM   15  N7  UNL     1       1.307   0.606   0.176  1.00  0.00    -0.345 N 
ATOM     16  H6  UNL     1       0.497  -1.412  -0.958  1.00  0.00     0.186 HD
ATOM     17  H7  UNL     1       1.475   1.568   0.472  1.00  0.00     0.163 HD
BRANCH  11  18
HETATM   18  N1  UNL     1      -0.323   2.579   0.013  1.00  0.00    -0.378 N 
HETATM   19  C1  UNL     1      -1.153   3.745   0.181  1.00  0.00     0.148 C 
ATOM     20  H1  UNL     1       0.666   2.709  -0.200  1.00  0.00     0.160 HD
ENDBRANCH  11  18
BRANCH  15  21
HETATM   21  C7  UNL     1       2.474  -0.205   0.098  1.00  0.00     0.247 C 
HETATM   22  C8  UNL     1       2.859  -0.298  -1.385  1.00  0.00     0.065 C 
BRANCH  21  23
HETATM   23  O2  UNL     1       2.332  -1.474   0.635  1.00  0.00    -0.262 OA
BRANCH  23  24
HETATM   24  N8  UNL     1       3.248  -1.693   1.576  1.00  0.00    -0.309 N 
ATOM     25  H82 UNL     1       3.952  -1.009   1.853  1.00  0.00     0.184 HD
ATOM     26  H81 UNL     1       3.143  -2.627   1.971  1.00  0.00     0.184 HD
ENDBRANCH  23  24
ENDBRANCH  21  23
ENDBRANCH  15  21
ENDBRANCH   1   5
TORSDOF 5
