REMARK  9 active torsions:
REMARK  status: ('A' for Active; 'I' for Inactive)
REMARK    1  A    between atoms: N1_1  and  C1_4 
REMARK    2  A    between atoms: C2_7  and  O1_8 
REMARK    3  A    between atoms: O1_8  and  C3_9 
REMARK    4  A    between atoms: N3_11  and  N4_13 
REMARK    5  A    between atoms: N4_13  and  C5_15 
REMARK    6  A    between atoms: C8_25  and  C9_26 
REMARK    7  A    between atoms: C9_26  and  O3_27 
REMARK       I    between atoms: N9_30  and  C10_31 
REMARK    8  A    between atoms: C10_31  and  C11_33 
REMARK    9  A    between atoms: C11_33  and  O5_34 
ROOT
HETATM    1  C3  UNL     1      -0.990  -0.714  -0.447  1.00  0.00     0.303 C 
HETATM    2  C4  UNL     1       0.519  -0.732  -0.579  1.00  0.00     0.077 C 
HETATM    3  N3  UNL     1       1.170   0.259  -1.034  1.00  0.00    -0.301 N 
ATOM      4  H3  UNL     1       0.623   1.075  -1.308  1.00  0.00     0.186 HD
HETATM    5  C8  UNL     1       0.900  -2.060  -0.084  1.00  0.00     0.174 C 
HETATM    6  N8  UNL     1      -0.190  -2.869  -0.558  1.00  0.00    -0.120 NA
HETATM    7  N9  UNL     1      -1.287  -2.105  -0.159  1.00  0.00    -0.227 N 
HETATM    8  C10 UNL     1      -2.456  -2.638   0.416  1.00  0.00     0.261 C 
HETATM    9  O4  UNL     1      -3.391  -1.871   0.743  1.00  0.00    -0.269 OA
ENDROOT
BRANCH   1  10
HETATM   10  O1  UNL     1      -1.250   0.118   0.637  1.00  0.00    -0.288 OA
BRANCH  10  11
HETATM   11  C2  UNL     1      -1.988   1.291   0.651  1.00  0.00     0.244 A 
HETATM   12  N2  UNL     1      -2.575   1.796  -0.441  1.00  0.00    -0.155 N 
HETATM   13  C1  UNL     1      -3.275   2.943  -0.343  1.00  0.00     0.683 A 
ATOM     14  H2  UNL     1      -2.493   1.317  -1.338  1.00  0.00     0.188 HD
HETATM   15  N11 UNL     1      -3.422   3.622   0.809  1.00  0.00    -0.141 N 
HETATM   16  C12 UNL     1      -2.813   3.078   1.889  1.00  0.00     0.341 A 
ATOM     17  H11 UNL     1      -3.957   4.489   0.865  1.00  0.00     0.189 HD
HETATM   18  N10 UNL     1      -2.117   1.947   1.815  1.00  0.00    -0.273 N 
HETATM   19  O6  UNL     1      -2.924   3.686   3.006  1.00  0.00    -0.246 OA
ATOM     20  H10 UNL     1      -1.675   1.573   2.655  1.00  0.00     0.174 HD
BRANCH  13  21
HETATM   21  N1  UNL     1      -3.843   3.427  -1.414  1.00  0.00    -0.234 N 
ATOM     22  H12 UNL     1      -3.732   2.912  -2.287  1.00  0.00     0.174 HD
ATOM     23  H11 UNL     1      -4.373   4.295  -1.340  1.00  0.00     0.174 HD
ENDBRANCH  13  21
ENDBRANCH  10  11
ENDBRANCH   1  10
BRANCH   3  24
HETATM   24  N4  UNL     1       2.533   0.352  -1.197  1.00  0.00    -0.284 N 
ATOM     25  H4  UNL     1       2.999  -0.264  -1.863  1.00  0.00     0.188 HD
BRANCH  24  26
HETATM   26  C5  UNL     1       3.236   1.202  -0.525  1.00  0.00     0.141 A 
HETATM   27  C6  UNL     1       4.600   1.322  -0.663  1.00  0.00     0.157 A 
HETATM   28  N5  UNL     1       5.301   2.216   0.050  1.00  0.00    -0.304 N 
HETATM   29  N6  UNL     1       4.721   3.033   0.927  1.00  0.00    -0.252 N 
ATOM     30  H5  UNL     1       6.311   2.272  -0.084  1.00  0.00     0.186 HD
HETATM   31  C7  UNL     1       3.389   2.926   1.070  1.00  0.00     0.340 A 
ATOM     32  H6  UNL     1       5.263   3.709   1.466  1.00  0.00     0.191 HD
HETATM   33  O2  UNL     1       2.767   3.665   1.880  1.00  0.00    -0.245 OA
HETATM   34  N7  UNL     1       2.661   2.040   0.369  1.00  0.00    -0.291 N 
ATOM     35  H7  UNL     1       1.652   1.998   0.514  1.00  0.00     0.172 HD
ENDBRANCH  24  26
ENDBRANCH   3  24
BRANCH   5  36
HETATM   36  C9  UNL     1       2.246  -2.528  -0.495  1.00  0.00     0.193 C 
BRANCH  36  37
HETATM   37  O3  UNL     1       2.475  -2.593  -1.836  1.00  0.00    -0.399 OA
ATOM     38  H3  UNL     1       3.337  -2.893  -2.099  1.00  0.00     0.209 HD
ENDBRANCH  36  37
ENDBRANCH   5  36
BRANCH   8  39
HETATM   39  C11 UNL     1      -2.640  -4.084   0.661  1.00  0.00     0.268 C 
BRANCH  39  40
HETATM   40  O5  UNL     1      -1.536  -4.787   0.252  1.00  0.00    -0.392 OA
ATOM     41  H5  UNL     1      -1.654  -5.716   0.409  1.00  0.00     0.210 HD
ENDBRANCH  39  40
ENDBRANCH   8  39
TORSDOF 9
