REMARK  9 active torsions:
REMARK  status: ('A' for Active; 'I' for Inactive)
REMARK    1  A    between atoms: C1_4  and  C2_5 
REMARK    2  A    between atoms: C1_4  and  N6_17 
REMARK       I    between atoms: N2_6  and  C3_8 
REMARK    3  A    between atoms: C3_8  and  C4_10 
REMARK    4  A    between atoms: N4_12  and  N5_14 
REMARK    5  A    between atoms: N6_17  and  C5_19 
REMARK    6  A    between atoms: N7_24  and  N8_25 
REMARK    7  A    between atoms: N8_25  and  C7_27 
REMARK    8  A    between atoms: C10_35  and  C11_36 
REMARK    9  A    between atoms: C11_36  and  O4_37 
ROOT
HETATM    1  C5  UNL     1       0.210   0.549  -0.473  1.00  0.00     0.105 C 
HETATM    2  C6  UNL     1      -0.725   0.346  -1.654  1.00  0.00     0.184 C 
HETATM    3  S1  UNL     1      -1.878  -0.940  -1.230  1.00  0.00     0.230 S 
HETATM    4  O2  UNL     1      -3.077  -0.782  -2.117  1.00  0.00    -0.210 OA
HETATM    5  O3  UNL     1      -1.214  -2.270  -1.420  1.00  0.00    -0.210 OA
HETATM    6  N7  UNL     1      -2.264  -0.689   0.425  1.00  0.00    -0.118 NA
HETATM    7  C9  UNL     1      -2.019   0.713   0.704  1.00  0.00     0.141 C 
HETATM    8  C10 UNL     1      -0.508   0.873   0.787  1.00  0.00     0.049 C 
ENDROOT
BRANCH   1   9
HETATM    9  N6  UNL     1       1.143   1.613  -0.780  1.00  0.00    -0.369 N 
ATOM     10  H6  UNL     1       1.076   2.105  -1.671  1.00  0.00     0.161 HD
BRANCH   9  11
HETATM   11  C1  UNL     1       2.149   1.975   0.150  1.00  0.00     0.110 C 
HETATM   12  N1  UNL     1       2.035   3.076   0.820  1.00  0.00    -0.385 N 
ATOM     13  H12 UNL     1       2.759   3.337   1.489  1.00  0.00     0.157 HD
ATOM     14  H11 UNL     1       1.233   3.694   0.697  1.00  0.00     0.157 HD
BRANCH  11  15
HETATM   15  C2  UNL     1       3.290   1.095   0.325  1.00  0.00     0.139 C 
HETATM   16  N2  UNL     1       3.371   0.012  -0.355  1.00  0.00    -0.327 N 
HETATM   17  C3  UNL     1       4.493  -0.827  -0.166  1.00  0.00     0.287 C 
ATOM     18  H2  UNL     1       2.640  -0.240  -1.020  1.00  0.00     0.168 HD
HETATM   19  O1  UNL     1       4.323  -2.004   0.208  1.00  0.00    -0.264 OA
BRANCH  17  20
HETATM   20  C4  UNL     1       5.820  -0.304  -0.410  1.00  0.00     0.199 C 
HETATM   21  N3  UNL     1       5.987   1.056  -0.840  1.00  0.00    -0.075 NA
HETATM   22  N4  UNL     1       6.904  -1.004  -0.261  1.00  0.00    -0.290 N 
ATOM     23  H4  UNL     1       7.821  -0.597  -0.443  1.00  0.00     0.187 HD
BRANCH  22  24
HETATM   24  N5  UNL     1       6.776  -2.320   0.153  1.00  0.00    -0.344 N 
ATOM     25  H52 UNL     1       5.851  -2.712   0.331  1.00  0.00     0.176 HD
ATOM     26  H51 UNL     1       7.627  -2.870   0.270  1.00  0.00     0.176 HD
ENDBRANCH  22  24
ENDBRANCH  17  20
ENDBRANCH  11  15
ENDBRANCH   9  11
ENDBRANCH   1   9
BRANCH   8  27
HETATM   27  C11 UNL     1      -0.048  -0.022   1.941  1.00  0.00     0.172 C 
BRANCH  27  28
HETATM   28  O4  UNL     1      -0.254  -1.360   1.706  1.00  0.00    -0.400 OA
ATOM     29  H4  UNL     1       0.031  -1.915   2.422  1.00  0.00     0.209 HD
ENDBRANCH  27  28
ENDBRANCH   8  27
BRANCH   6  30
HETATM   30  N8  UNL     1      -3.514  -1.121   0.788  1.00  0.00    -0.276 N 
ATOM     31  H8  UNL     1      -3.601  -1.618   1.675  1.00  0.00     0.185 HD
BRANCH  30  32
HETATM   32  C7  UNL     1      -4.702  -0.929   0.021  1.00  0.00     0.203 A 
HETATM   33  N9  UNL     1      -5.493  -1.807  -0.496  1.00  0.00    -0.345 N 
HETATM   34  C8  UNL     1      -6.584  -1.204  -1.197  1.00  0.00     0.259 A 
ATOM     35  H9  UNL     1      -5.356  -2.814  -0.414  1.00  0.00     0.163 HD
HETATM   36  N10 UNL     1      -6.454   0.202  -0.982  1.00  0.00    -0.119 NA
HETATM   37  N11 UNL     1      -5.233   0.347  -0.314  1.00  0.00    -0.273 N 
ATOM     38  H11 UNL     1      -4.788   1.239  -0.098  1.00  0.00     0.185 HD
ENDBRANCH  30  32
ENDBRANCH   6  30
TORSDOF 9
