REMARK  3 active torsions:
REMARK  status: ('A' for Active; 'I' for Inactive)
REMARK    1  A    between atoms: N1_4  and  C3_5 
REMARK    2  A    between atoms: C4_8  and  N3_9 
REMARK    3  A    between atoms: C10_17  and  N5_18 
ROOT
HETATM    1  C3  UNL     1      -1.110   0.807  -0.731  1.00  0.00     0.709 A 
HETATM    2  N2  UNL     1       0.180   1.172  -0.511  1.00  0.00    -0.021 N 
ATOM      3  H2  UNL     1       0.464   2.127  -0.731  1.00  0.00     0.203 HD
HETATM    4  C4  UNL     1       1.097   0.324  -0.015  1.00  0.00     0.709 A 
HETATM    5  N4  UNL     1       0.683  -0.927   0.262  1.00  0.00    -0.021 N 
ATOM      6  H4  UNL     1       1.351  -1.599   0.640  1.00  0.00     0.203 HD
HETATM    7  C10 UNL     1      -0.585  -1.312   0.054  1.00  0.00     0.709 A 
HETATM    8  N6  UNL     1      -1.481  -0.451  -0.440  1.00  0.00    -0.021 N 
ATOM      9  H6  UNL     1      -2.444  -0.749  -0.596  1.00  0.00     0.203 HD
ENDROOT
BRANCH   1  10
HETATM   10  N1  UNL     1      -2.056   1.720  -1.255  1.00  0.00    -0.206 N 
HETATM   11  C2  UNL     1      -1.731   3.090  -1.592  1.00  0.00     0.244 C 
HETATM   12  C1  UNL     1      -2.910   3.923  -1.216  1.00  0.00     0.236 C 
HETATM   13  O1  UNL     1      -2.895   5.121  -1.629  1.00  0.00    -0.272 OA
HETATM   14  N7  UNL     1      -3.970   3.392  -0.444  1.00  0.00    -0.358 N 
HETATM   15  C16 UNL     1      -4.257   1.964  -0.379  1.00  0.00     0.143 C 
ATOM     16  H7  UNL     1      -4.557   4.034   0.089  1.00  0.00     0.162 HD
HETATM   17  C15 UNL     1      -3.420   1.294  -1.475  1.00  0.00     0.161 C 
ENDBRANCH   1  10
BRANCH   4  18
HETATM   18  N3  UNL     1       2.458   0.719   0.214  1.00  0.00    -0.217 N 
HETATM   19  C5  UNL     1       3.376  -0.239   0.745  1.00  0.00     0.141 C 
HETATM   20  C6  UNL     1       4.800  -0.005   0.441  1.00  0.00     0.020 C 
HETATM   21  C7  UNL     1       5.152   1.383   0.010  1.00  0.00     0.003 C 
HETATM   22  C8  UNL     1       4.120   2.015  -0.885  1.00  0.00     0.020 C 
HETATM   23  C9  UNL     1       2.822   2.072  -0.108  1.00  0.00     0.141 C 
ENDBRANCH   4  18
BRANCH   7  24
HETATM   24  N5  UNL     1      -0.960  -2.629   0.362  1.00  0.00    -0.213 N 
HETATM   25  C11 UNL     1      -0.005  -3.560   0.893  1.00  0.00     0.167 C 
HETATM   26  C12 UNL     1      -0.469  -4.008   2.247  1.00  0.00     0.188 C 
HETATM   27  O2  UNL     1      -1.845  -3.922   2.401  1.00  0.00    -0.388 OA
HETATM   28  C13 UNL     1      -2.542  -4.181   1.239  1.00  0.00     0.188 C 
HETATM   29  C14 UNL     1      -2.317  -3.131   0.168  1.00  0.00     0.167 C 
ENDBRANCH   7  24
TORSDOF 3
