REMARK  4 active torsions:
REMARK  status: ('A' for Active; 'I' for Inactive)
REMARK    1  A    between atoms: N1_4  and  C4_5 
REMARK    2  A    between atoms: C5_8  and  N3_9 
REMARK    3  A    between atoms: N3_9  and  N4_11 
REMARK    4  A    between atoms: C10_19  and  N6_20 
ROOT
HETATM    1  C4  UNL     1      -0.696  -0.253  -0.061  1.00  0.00     0.709 A 
HETATM    2  N2  UNL     1       0.636  -0.426  -0.100  1.00  0.00    -0.020 N 
ATOM      3  H2  UNL     1       1.033  -1.351  -0.268  1.00  0.00     0.203 HD
HETATM    4  C5  UNL     1       1.430   0.626   0.083  1.00  0.00     0.725 A 
HETATM    5  N5  UNL     1       0.883   1.828   0.302  1.00  0.00    -0.020 N 
ATOM      6  H5  UNL     1       1.499   2.629   0.442  1.00  0.00     0.203 HD
HETATM    7  C10 UNL     1      -0.451   2.022   0.345  1.00  0.00     0.709 A 
HETATM    8  N7  UNL     1      -1.233   0.949   0.157  1.00  0.00    -0.021 N 
ATOM      9  H7  UNL     1      -2.247   1.053   0.181  1.00  0.00     0.203 HD
ENDROOT
BRANCH   4  10
HETATM   10  N3  UNL     1       2.712   0.454   0.045  1.00  0.00    -0.133 N 
ATOM     11  H3  UNL     1       3.307   1.270   0.188  1.00  0.00     0.205 HD
BRANCH  10  12
HETATM   12  N4  UNL     1       3.323  -0.758  -0.176  1.00  0.00    -0.310 N 
HETATM   13  C6  UNL     1       4.238  -0.944  -1.266  1.00  0.00     0.169 C 
HETATM   14  C7  UNL     1       4.777  -2.360  -1.220  1.00  0.00     0.189 C 
HETATM   15  O1  UNL     1       5.189  -2.763   0.015  1.00  0.00    -0.388 OA
HETATM   16  C8  UNL     1       4.403  -2.451   1.084  1.00  0.00     0.189 C 
HETATM   17  C9  UNL     1       3.060  -1.877   0.684  1.00  0.00     0.169 C 
ENDBRANCH  10  12
ENDBRANCH   4  10
BRANCH   1  18
HETATM   18  N1  UNL     1      -1.487  -1.414  -0.265  1.00  0.00    -0.217 N 
HETATM   19  C3  UNL     1      -1.874  -1.747  -1.617  1.00  0.00     0.141 C 
HETATM   20  C2  UNL     1      -3.218  -2.478  -1.506  1.00  0.00     0.020 C 
HETATM   21  C1  UNL     1      -2.961  -3.766  -0.791  1.00  0.00     0.003 C 
HETATM   22  C16 UNL     1      -2.228  -3.622   0.504  1.00  0.00     0.020 C 
HETATM   23  C15 UNL     1      -1.871  -2.207   0.855  1.00  0.00     0.141 C 
ENDBRANCH   1  18
BRANCH   7  24
HETATM   24  N6  UNL     1      -0.950   3.320   0.579  1.00  0.00    -0.213 N 
HETATM   25  C11 UNL     1      -2.349   3.647   0.651  1.00  0.00     0.167 C 
HETATM   26  C12 UNL     1      -2.636   4.600  -0.511  1.00  0.00     0.188 C 
HETATM   27  O2  UNL     1      -1.576   5.414  -0.778  1.00  0.00    -0.388 OA
HETATM   28  C13 UNL     1      -0.702   5.666   0.242  1.00  0.00     0.188 C 
HETATM   29  C14 UNL     1      -0.021   4.414   0.761  1.00  0.00     0.167 C 
ENDBRANCH   7  24
TORSDOF 4
