REMARK  6 active torsions:
REMARK  status: ('A' for Active; 'I' for Inactive)
REMARK    1  A    between atoms: O1_1  and  N1_3 
REMARK    2  A    between atoms: N2_6  and  C3_7 
REMARK    3  A    between atoms: C3_7  and  C4_12 
REMARK    4  A    between atoms: N3_8  and  O2_10 
REMARK    5  A    between atoms: N5_16  and  C6_17 
REMARK    6  A    between atoms: C11_22  and  N6_23 
ROOT
HETATM    1  C4  UNL     1      -0.299  -1.199   0.754  1.00  0.00     0.112 A 
HETATM    2  C5  UNL     1       0.404  -1.806   1.768  1.00  0.00     0.144 A 
HETATM    3  N4  UNL     1       1.709  -1.418   1.654  1.00  0.00    -0.288 N 
ATOM      4  H4  UNL     1       2.473  -1.705   2.265  1.00  0.00     0.188 HD
HETATM    5  N5  UNL     1       1.812  -0.599   0.605  1.00  0.00    -0.194 N 
HETATM    6  N7  UNL     1       0.617  -0.476   0.079  1.00  0.00    -0.274 N 
ATOM      7  H7  UNL     1       0.407   0.096  -0.739  1.00  0.00     0.189 HD
ENDROOT
BRANCH   1   8
HETATM    8  C3  UNL     1      -1.722  -1.340   0.503  1.00  0.00     0.153 C 
HETATM    9  N3  UNL     1      -2.377  -2.438   0.756  1.00  0.00    -0.251 N 
ATOM     10  H3  UNL     1      -3.378  -2.489   0.565  1.00  0.00     0.196 HD
BRANCH   8  11
HETATM   11  N2  UNL     1      -2.519  -0.300  -0.034  1.00  0.00    -0.354 N 
HETATM   12  C2  UNL     1      -2.506  -0.050  -1.443  1.00  0.00     0.147 C 
HETATM   13  C1  UNL     1      -3.884   0.178  -2.019  1.00  0.00     0.179 C 
HETATM   14  N1  UNL     1      -4.501   1.280  -1.278  1.00  0.00    -0.226 N 
HETATM   15  C13 UNL     1      -4.394   1.234   0.138  1.00  0.00     0.261 C 
HETATM   16  C12 UNL     1      -3.333   0.492   0.850  1.00  0.00     0.229 C 
HETATM   17  O5  UNL     1      -5.246   1.858   0.813  1.00  0.00    -0.269 OA
BRANCH  14  18
HETATM   18  O1  UNL     1      -5.140   2.292  -1.866  1.00  0.00    -0.285 OA
ATOM     19  H1  UNL     1      -5.540   3.007  -1.385  1.00  0.00     0.245 HD
ENDBRANCH  14  18
ENDBRANCH   8  11
BRANCH   9  20
HETATM   20  O2  UNL     1      -1.734  -3.508   1.271  1.00  0.00    -0.288 OA
ATOM     21  H2  UNL     1      -2.211  -4.308   1.455  1.00  0.00     0.244 HD
ENDBRANCH   9  20
ENDBRANCH   1   8
BRANCH   5  22
HETATM   22  C6  UNL     1       3.060  -0.034   0.228  1.00  0.00     0.107 A 
HETATM   23  C7  UNL     1       4.014  -0.805  -0.435  1.00  0.00     0.036 A 
HETATM   24  C8  UNL     1       5.232  -0.290  -0.817  1.00  0.00     0.003 A 
HETATM   25  C9  UNL     1       5.527   1.024  -0.542  1.00  0.00     0.003 A 
HETATM   26  C10 UNL     1       4.616   1.821   0.110  1.00  0.00     0.038 A 
HETATM   27  C11 UNL     1       3.380   1.279   0.492  1.00  0.00     0.133 A 
BRANCH  27  28
HETATM   28  N6  UNL     1       2.435   2.097   1.162  1.00  0.00    -0.113 N 
HETATM   29  O3  UNL     1       1.672   1.598   1.994  1.00  0.00    -0.532 OA
HETATM   30  O4  UNL     1       2.365   3.434   0.899  1.00  0.00    -0.532 OA
ENDBRANCH  27  28
ENDBRANCH   5  22
TORSDOF 6
