REMARK  5 active torsions:
REMARK  status: ('A' for Active; 'I' for Inactive)
REMARK    1  A    between atoms: C4_7  and  C5_8 
REMARK    2  A    between atoms: N3_12  and  C7_14 
REMARK    3  A    between atoms: C10_17  and  N4_18 
REMARK    4  A    between atoms: C17_27  and  C18_28 
REMARK    5  A    between atoms: C22_34  and  N6_35 
ROOT
HETATM    1  C5  UNL     1      -0.608  -0.260   0.684  1.00  0.00     0.065 A 
HETATM    2  N2  UNL     1      -1.723   0.414   0.894  1.00  0.00    -0.335 N 
ATOM      3  H2  UNL     1      -2.617   0.057   0.558  1.00  0.00     0.168 HD
HETATM    4  C6  UNL     1      -1.658   1.564   1.550  1.00  0.00     0.150 A 
HETATM    5  N3  UNL     1      -2.637   2.383   1.862  1.00  0.00    -0.337 N 
ATOM      6  H3  UNL     1      -2.449   3.245   2.374  1.00  0.00     0.168 HD
HETATM    7  S1  UNL     1      -0.001   1.731   1.894  1.00  0.00    -0.049 SA
HETATM    8  C17 UNL     1       0.552   0.291   1.169  1.00  0.00     0.062 A 
ENDROOT
BRANCH   8   9
HETATM    9  C18 UNL     1       1.924  -0.257   1.069  1.00  0.00     0.053 A 
HETATM   10  C19 UNL     1       2.297  -1.451   1.645  1.00  0.00     0.033 A 
HETATM   11  C20 UNL     1       3.592  -1.918   1.522  1.00  0.00     0.036 A 
HETATM   12  C21 UNL     1       4.521  -1.197   0.824  1.00  0.00     0.093 A 
HETATM   13  N5  UNL     1       5.842  -1.375   0.527  1.00  0.00    -0.188 N 
HETATM   14  C28 UNL     1       4.129  -0.005   0.256  1.00  0.00     0.149 A 
HETATM   15  C22 UNL     1       6.279  -0.336  -0.205  1.00  0.00     0.682 A 
ATOM     16  H5  UNL     1       6.409  -2.172   0.816  1.00  0.00     0.184 HD
HETATM   17  N7  UNL     1       5.224   0.480  -0.356  1.00  0.00    -0.174 N 
ATOM     18  H7  UNL     1       5.250   1.360  -0.872  1.00  0.00     0.186 HD
HETATM   19  N8  UNL     1       2.845   0.431   0.393  1.00  0.00    -0.339 N 
ATOM     20  H8  UNL     1       2.579   1.316  -0.038  1.00  0.00     0.167 HD
BRANCH  15  21
HETATM   21  N6  UNL     1       7.610  -0.162  -0.708  1.00  0.00    -0.218 N 
HETATM   22  C23 UNL     1       7.910   1.013  -1.479  1.00  0.00     0.141 C 
HETATM   23  C24 UNL     1       9.313   1.526  -1.258  1.00  0.00     0.020 C 
HETATM   24  C25 UNL     1      10.338   0.423  -1.302  1.00  0.00     0.003 C 
HETATM   25  C26 UNL     1       9.702  -0.930  -1.557  1.00  0.00     0.020 C 
HETATM   26  C27 UNL     1       8.654  -1.126  -0.466  1.00  0.00     0.141 C 
ENDBRANCH  15  21
ENDBRANCH   8   9
BRANCH   1  27
HETATM   27  C4  UNL     1      -0.591  -1.563  -0.045  1.00  0.00     0.009 A 
HETATM   28  C3  UNL     1      -1.284  -2.634   0.452  1.00  0.00     0.101 A 
HETATM   29  N1  UNL     1      -1.311  -3.836  -0.155  1.00  0.00    -0.373 N 
HETATM   30  C2  UNL     1      -0.626  -3.989  -1.298  1.00  0.00     0.111 A 
ATOM     31  H1  UNL     1      -1.840  -4.611   0.245  1.00  0.00     0.164 HD
HETATM   32  C1  UNL     1       0.096  -2.952  -1.858  1.00  0.00     0.050 A 
HETATM   33 CL1  UNL     1       0.971  -3.217  -3.357  1.00  0.00    -0.083 Cl
HETATM   34  C29 UNL     1       0.106  -1.730  -1.215  1.00  0.00     0.040 A 
ENDBRANCH   1  27
BRANCH   5  35
HETATM   35  C7  UNL     1      -3.949   2.051   1.477  1.00  0.00     0.034 A 
HETATM   36  C8  UNL     1      -4.323   2.171   0.166  1.00  0.00     0.032 A 
HETATM   37  C9  UNL     1      -5.592   1.850  -0.210  1.00  0.00     0.031 A 
HETATM   38  C10 UNL     1      -6.511   1.404   0.715  1.00  0.00     0.030 A 
HETATM   39  C15 UNL     1      -6.138   1.282   2.037  1.00  0.00     0.031 A 
HETATM   40  C16 UNL     1      -4.834   1.610   2.428  1.00  0.00     0.032 A 
BRANCH  38  41
HETATM   41  N4  UNL     1      -7.836   1.067   0.312  1.00  0.00    -0.377 N 
HETATM   42  C11 UNL     1      -8.204   1.074  -1.090  1.00  0.00     0.149 C 
HETATM   43  C12 UNL     1      -9.400   0.150  -1.250  1.00  0.00     0.187 C 
HETATM   44  O1  UNL     1     -10.487   0.545  -0.509  1.00  0.00    -0.388 OA
HETATM   45  C13 UNL     1     -10.185   1.207   0.655  1.00  0.00     0.187 C 
HETATM   46  C14 UNL     1      -8.865   0.710   1.263  1.00  0.00     0.149 C 
ENDBRANCH  38  41
ENDBRANCH   5  35
TORSDOF 5
