REMARK  7 active torsions:
REMARK  status: ('A' for Active; 'I' for Inactive)
REMARK    1  A    between atoms: O1_2  and  C2_3 
REMARK    2  A    between atoms: C2_3  and  C3_5 
REMARK    3  A    between atoms: C5_7  and  O3_8 
REMARK    4  A    between atoms: O3_8  and  C6_9 
REMARK    5  A    between atoms: C6_9  and  C10_14 
REMARK    6  A    between atoms: C12_17  and  O5_18 
REMARK    7  A    between atoms: C13_20  and  C14_21 
ROOT
HETATM    1  C6  UNL     1       4.169   1.974   0.424  1.00  0.00     0.101 C 
HETATM    2  C7  UNL     1       4.409   3.055   1.129  1.00  0.00     0.053 C 
HETATM    3  C8  UNL     1       3.263   3.977   1.431  1.00  0.00     0.063 C 
HETATM    4  C9  UNL     1       5.700   3.403   1.602  1.00  0.00     0.097 C 
HETATM    5  N1  UNL     1       6.757   3.716   1.987  1.00  0.00    -0.192 NA
ENDROOT
BRANCH   1   6
HETATM    6  O3  UNL     1       2.860   1.712  -0.025  1.00  0.00    -0.318 OA
BRANCH   6   7
HETATM    7  C5  UNL     1       1.989   0.801   0.550  1.00  0.00     0.267 C 
HETATM    8  C4  UNL     1       2.560  -0.597   0.485  1.00  0.00     0.076 C 
HETATM    9  C3  UNL     1       1.457  -1.506   1.023  1.00  0.00     0.101 C 
HETATM   10  C28 UNL     1       0.351  -1.547  -0.024  1.00  0.00    -0.005 C 
HETATM   11  C15 UNL     1       0.339  -0.206  -0.695  1.00  0.00     0.134 C 
HETATM   12  C27 UNL     1      -0.941  -1.858   0.690  1.00  0.00     0.015 C 
HETATM   13  C29 UNL     1       0.668  -2.647  -0.990  1.00  0.00     0.019 C 
HETATM   14  O6  UNL     1       0.690   0.850   0.102  1.00  0.00    -0.355 OA
HETATM   15  C16 UNL     1      -0.934   0.091  -1.460  1.00  0.00     0.040 C 
HETATM   16  C17 UNL     1      -2.105   0.428  -0.527  1.00  0.00     0.020 C 
HETATM   17  C18 UNL     1      -2.646   1.715  -0.991  1.00  0.00     0.008 C 
HETATM   18  C25 UNL     1      -2.966  -0.738  -0.289  1.00  0.00     0.164 C 
HETATM   19  C19 UNL     1      -3.677   2.441  -0.237  1.00  0.00     0.006 C 
HETATM   20  C20 UNL     1      -4.772   1.703   0.362  1.00  0.00    -0.002 C 
HETATM   21  C21 UNL     1      -6.190   2.131   0.426  1.00  0.00     0.014 C 
HETATM   22  C30 UNL     1      -5.312   0.745  -0.654  1.00  0.00     0.001 A 
HETATM   23  C22 UNL     1      -6.611   0.711  -0.043  1.00  0.00     0.036 A 
HETATM   24  C23 UNL     1      -5.753  -0.443   0.054  1.00  0.00     0.105 A 
HETATM   25  C24 UNL     1      -5.801  -0.858   1.462  1.00  0.00     0.050 C 
HETATM   26  O7  UNL     1      -5.137  -1.355  -0.745  1.00  0.00    -0.228 OA
HETATM   27  O8  UNL     1      -3.939  -1.075  -1.143  1.00  0.00    -0.234 OA
HETATM   28  C31 UNL     1      -5.403   1.016  -2.083  1.00  0.00     0.019 C 
HETATM   29  C26 UNL     1      -2.045  -1.989  -0.280  1.00  0.00     0.036 C 
BRANCH   9  30
HETATM   30  C2  UNL     1       2.005  -2.806   1.386  1.00  0.00     0.263 C 
HETATM   31  O2  UNL     1       1.808  -3.235   2.578  1.00  0.00    -0.265 OA
BRANCH  30  32
HETATM   32  O1  UNL     1       2.733  -3.660   0.579  1.00  0.00    -0.326 OA
HETATM   33  C1  UNL     1       3.217  -4.920   1.059  1.00  0.00     0.213 C 
ENDBRANCH  30  32
ENDBRANCH   9  30
ENDBRANCH   6   7
ENDBRANCH   1   6
BRANCH   1  34
HETATM   34  C10 UNL     1       5.282   1.064   0.124  1.00  0.00     0.033 A 
HETATM   35  C11 UNL     1       6.251   0.578   0.967  1.00  0.00     0.159 A 
HETATM   36  O4  UNL     1       7.072  -0.191   0.261  1.00  0.00    -0.299 OA
HETATM   37  C12 UNL     1       6.700  -0.234  -0.977  1.00  0.00     0.191 A 
HETATM   38  C13 UNL     1       5.576   0.536  -1.130  1.00  0.00     0.029 A 
BRANCH  37  39
HETATM   39  O5  UNL     1       7.369  -0.968  -1.978  1.00  0.00    -0.340 OA
ATOM     40  H5  UNL     1       7.096  -1.000  -2.887  1.00  0.00     0.220 HD
ENDBRANCH  37  39
BRANCH  38  41
HETATM   41  C14 UNL     1       4.840   0.751  -2.384  1.00  0.00     0.159 C 
HETATM   42 CL1  UNL     1       5.205   2.372  -3.029  1.00  0.00    -0.125 Cl
ENDBRANCH  38  41
ENDBRANCH   1  34
TORSDOF 7
