REMARK  9 active torsions:
REMARK  status: ('A' for Active; 'I' for Inactive)
REMARK    1  A    between atoms: O1_2  and  C2_3 
REMARK    2  A    between atoms: C2_3  and  C3_5 
REMARK    3  A    between atoms: C3_5  and  C4_6 
REMARK    4  A    between atoms: C8_10  and  O3_11 
REMARK    5  A    between atoms: O3_11  and  C9_12 
REMARK    6  A    between atoms: C13_16  and  O4_17 
REMARK    7  A    between atoms: C25_32  and  O6_34 
REMARK    8  A    between atoms: C28_37  and  O7_38 
REMARK    9  A    between atoms: O7_38  and  C29_39 
ROOT
HETATM    1  C4  UNL     1      -3.128   2.556  -0.397  1.00  0.00    -0.010 C 
HETATM    2  C5  UNL     1      -3.231   1.256  -0.059  1.00  0.00    -0.065 C 
HETATM    3  C6  UNL     1      -2.019   0.688   0.537  1.00  0.00     0.043 C 
HETATM    4  C7  UNL     1      -0.857   0.655  -0.469  1.00  0.00     0.065 C 
HETATM    5  C8  UNL     1      -0.464  -0.798  -0.789  1.00  0.00     0.264 C 
HETATM    6  O5  UNL     1      -1.149  -1.311  -1.831  1.00  0.00    -0.326 OA
HETATM    7  C25 UNL     1      -2.108  -2.306  -1.553  1.00  0.00     0.163 C 
HETATM    8  C26 UNL     1      -1.743  -3.131  -0.356  1.00  0.00     0.079 C 
HETATM    9  C27 UNL     1      -3.461  -1.762  -1.673  1.00  0.00     0.101 C 
HETATM   10  C28 UNL     1      -4.488  -1.913  -0.646  1.00  0.00     0.144 C 
HETATM   11  C31 UNL     1      -4.866  -0.697   0.167  1.00  0.00     0.034 C 
HETATM   12  C32 UNL     1      -4.551  -0.822   1.636  1.00  0.00     0.017 C 
HETATM   13  C33 UNL     1      -4.519   0.628  -0.340  1.00  0.00    -0.013 C 
ENDROOT
BRANCH   5  14
HETATM   14  O3  UNL     1       0.877  -0.668  -1.240  1.00  0.00    -0.351 OA
BRANCH  14  15
HETATM   15  C9  UNL     1       1.794  -1.264  -0.420  1.00  0.00     0.157 C 
HETATM   16  C10 UNL     1       2.666  -2.268  -1.086  1.00  0.00    -0.056 C 
HETATM   17  C11 UNL     1       2.077  -3.254  -2.057  1.00  0.00     0.046 C 
HETATM   18  C12 UNL     1       3.976  -2.378  -0.894  1.00  0.00     0.010 C 
HETATM   19  C13 UNL     1       4.770  -1.509   0.020  1.00  0.00     0.146 C 
HETATM   20  C14 UNL     1       3.809  -0.800   0.909  1.00  0.00     0.028 C 
HETATM   21  C15 UNL     1       4.422   0.093   1.929  1.00  0.00    -0.011 C 
HETATM   22  C24 UNL     1       2.709  -0.143   0.102  1.00  0.00     0.026 C 
HETATM   23  C16 UNL     1       4.805  -0.716   3.178  1.00  0.00     0.010 C 
HETATM   24  C17 UNL     1       5.558   0.929   1.477  1.00  0.00     0.009 C 
HETATM   25  C18 UNL     1       5.146   2.383   1.212  1.00  0.00     0.037 C 
HETATM   26  C19 UNL     1       4.495   2.551  -0.083  1.00  0.00    -0.046 C 
HETATM   27  C20 UNL     1       5.226   3.093  -1.055  1.00  0.00     0.092 C 
HETATM   28  C22 UNL     1       3.119   2.232  -0.581  1.00  0.00     0.037 C 
HETATM   29  C21 UNL     1       6.638   3.497  -0.802  1.00  0.00     0.082 C 
HETATM   30  F1  UNL     1       4.718   3.296  -2.300  1.00  0.00    -0.211 F 
HETATM   31  C23 UNL     1       3.172   0.752  -0.985  1.00  0.00     0.012 C 
BRANCH  19  32
HETATM   32  O4  UNL     1       5.588  -2.368   0.773  1.00  0.00    -0.391 OA
ATOM     33  H4  UNL     1       6.094  -1.814   1.356  1.00  0.00     0.210 HD
ENDBRANCH  19  32
ENDBRANCH  14  15
ENDBRANCH   5  14
BRANCH   7  34
HETATM   34  O6  UNL     1      -1.839  -3.234  -2.615  1.00  0.00    -0.365 OA
ATOM     35  H6  UNL     1      -2.485  -3.905  -2.428  1.00  0.00     0.213 HD
ENDBRANCH   7  34
BRANCH   1  36
HETATM   36  C3  UNL     1      -4.231   3.337  -1.016  1.00  0.00     0.138 C 
BRANCH  36  37
HETATM   37  C2  UNL     1      -4.552   4.460  -0.096  1.00  0.00     0.261 C 
HETATM   38  O2  UNL     1      -3.944   4.638   0.993  1.00  0.00    -0.265 OA
BRANCH  37  39
HETATM   39  O1  UNL     1      -5.560   5.391  -0.393  1.00  0.00    -0.326 OA
HETATM   40  C1  UNL     1      -5.842   6.455   0.512  1.00  0.00     0.213 C 
ENDBRANCH  37  39
ENDBRANCH  36  37
ENDBRANCH   1  36
BRANCH  10  41
HETATM   41  O7  UNL     1      -4.297  -2.939   0.315  1.00  0.00    -0.315 OA
BRANCH  41  42
HETATM   42  C29 UNL     1      -5.085  -4.042   0.485  1.00  0.00     0.255 C 
HETATM   43  C30 UNL     1      -4.733  -5.018   1.546  1.00  0.00     0.126 C 
HETATM   44  O8  UNL     1      -6.080  -4.183  -0.269  1.00  0.00    -0.266 OA
ENDBRANCH  41  42
ENDBRANCH  10  41
TORSDOF 9
