REMARK  6 active torsions:
REMARK  status: ('A' for Active; 'I' for Inactive)
REMARK    1  A    between atoms: C2_2  and  C3_3 
REMARK    2  A    between atoms: C6_6  and  O1_7 
REMARK    3  A    between atoms: O1_7  and  C7_8 
REMARK    4  A    between atoms: C21_26  and  C23_28 
REMARK    5  A    between atoms: C24_29  and  C25_30 
REMARK    6  A    between atoms: C31_38  and  O7_39 
ROOT
HETATM    1  C7  UNL     1       2.563  -1.318   0.077  1.00  0.00     0.269 C 
HETATM    2  C8  UNL     1       1.474  -2.056   0.853  1.00  0.00     0.104 C 
HETATM    3  C9  UNL     1       0.332  -1.841  -0.113  1.00  0.00     0.123 C 
HETATM    4  C10 UNL     1       0.521  -2.776  -1.265  1.00  0.00     0.052 C 
HETATM    5  O2  UNL     1      -0.925  -1.951   0.488  1.00  0.00    -0.224 OA
HETATM    6  O3  UNL     1      -1.732  -1.362  -0.299  1.00  0.00    -0.198 OA
HETATM    7  C11 UNL     1      -3.033  -1.289  -0.038  1.00  0.00     0.215 C 
HETATM    8  O4  UNL     1      -3.679  -1.997  -1.126  1.00  0.00    -0.279 OA
HETATM    9  C12 UNL     1      -3.483  -3.332  -0.826  1.00  0.00     0.266 C 
HETATM   10  O5  UNL     1      -3.116  -4.309  -1.528  1.00  0.00    -0.265 OA
HETATM   11  C13 UNL     1      -3.816  -3.424   0.620  1.00  0.00     0.091 C 
HETATM   12  C14 UNL     1      -5.248  -3.878   0.685  1.00  0.00     0.021 C 
HETATM   13  C15 UNL     1      -3.586  -2.009   1.126  1.00  0.00     0.065 C 
HETATM   14  C16 UNL     1      -4.751  -1.484   1.845  1.00  0.00     0.011 C 
HETATM   15  C17 UNL     1      -5.408  -0.248   1.324  1.00  0.00     0.005 C 
HETATM   16  C18 UNL     1      -4.965   0.080  -0.071  1.00  0.00    -0.008 C 
HETATM   17  C19 UNL     1      -5.793   1.146  -0.720  1.00  0.00     0.010 C 
HETATM   18  C20 UNL     1      -3.501   0.147  -0.232  1.00  0.00     0.067 C 
HETATM   19  C21 UNL     1      -2.684   1.170   0.415  1.00  0.00    -0.017 C 
HETATM   20  C22 UNL     1      -2.359   1.086   1.856  1.00  0.00     0.020 C 
HETATM   21  C27 UNL     1      -1.331   1.210  -0.326  1.00  0.00     0.016 C 
HETATM   22  C28 UNL     1      -0.208   0.569   0.393  1.00  0.00     0.036 C 
HETATM   23  C29 UNL     1       0.599  -0.381  -0.511  1.00  0.00     0.162 C 
HETATM   24  O6  UNL     1       1.943  -0.181  -0.362  1.00  0.00    -0.352 OA
ENDROOT
BRANCH   1  25
HETATM   25  O1  UNL     1       3.694  -1.088   0.888  1.00  0.00    -0.325 OA
BRANCH  25  26
HETATM   26  C6  UNL     1       4.786  -0.426   0.342  1.00  0.00     0.049 C 
HETATM   27  C5  UNL     1       5.356   0.624   0.858  1.00  0.00     0.019 C 
HETATM   28  C3  UNL     1       6.504   1.344   0.310  1.00  0.00    -0.005 C 
HETATM   29  C4  UNL     1       6.030   2.684  -0.260  1.00  0.00     0.024 C 
HETATM   30  C32 UNL     1       7.193   0.621  -0.809  1.00  0.00     0.049 C 
HETATM   31  C31 UNL     1       6.872  -0.845  -0.786  1.00  0.00     0.125 C 
HETATM   32  C30 UNL     1       5.351  -0.966  -0.946  1.00  0.00     0.096 C 
BRANCH  28  33
HETATM   33  C2  UNL     1       7.500   1.617   1.372  1.00  0.00    -0.024 C 
HETATM   34  C1  UNL     1       8.641   2.226   1.103  1.00  0.00     0.008 C 
ENDBRANCH  28  33
BRANCH  31  35
HETATM   35  O7  UNL     1       7.537  -1.538  -1.769  1.00  0.00    -0.395 OA
ATOM     36  H7  UNL     1       8.479  -1.463  -1.670  1.00  0.00     0.210 HD
ENDBRANCH  31  35
ENDBRANCH  25  26
ENDBRANCH   1  25
BRANCH  19  37
HETATM   37  C23 UNL     1      -3.346   2.496   0.242  1.00  0.00    -0.015 C 
HETATM   38  C24 UNL     1      -3.184   3.296  -0.794  1.00  0.00     0.019 C 
BRANCH  38  39
HETATM   39  C25 UNL     1      -3.862   4.583  -0.905  1.00  0.00     0.024 C 
HETATM   40  C26 UNL     1      -3.692   5.370  -1.938  1.00  0.00     0.037 C 
HETATM   41 CL1  UNL     1      -4.932   5.092   0.377  1.00  0.00    -0.085 Cl
ENDBRANCH  38  39
ENDBRANCH  19  37
TORSDOF 6
