REMARK  6 active torsions:
REMARK  status: ('A' for Active; 'I' for Inactive)
REMARK    1  A    between atoms: N4_8  and  C3_9 
REMARK    2  A    between atoms: C9_16  and  C10_17 
REMARK    3  A    between atoms: N5_20  and  C13_21 
REMARK    4  A    between atoms: C14_24  and  N7_25 
REMARK    5  A    between atoms: C18_33  and  C19_34 
REMARK    6  A    between atoms: N9_41  and  C26_42 
ROOT
HETATM    1  N1  UNL     1       4.117  -4.664  -0.944  1.00  0.00    -0.190 NA
HETATM    2  C1  UNL     1       4.858  -3.765  -0.883  1.00  0.00     0.121 C 
HETATM    3  C2  UNL     1       5.775  -2.671  -0.850  1.00  0.00     0.159 A 
HETATM    4  N2  UNL     1       7.053  -2.837  -1.216  1.00  0.00    -0.274 N 
ATOM      5  H2  UNL     1       7.499  -3.709  -1.500  1.00  0.00     0.189 HD
HETATM    6  N3  UNL     1       7.608  -1.675  -1.138  1.00  0.00    -0.234 N 
ATOM      7  H3  UNL     1       8.586  -1.486  -1.359  1.00  0.00     0.209 HD
HETATM    8  N4  UNL     1       6.743  -0.761  -0.734  1.00  0.00    -0.239 N 
HETATM    9  C9  UNL     1       5.517  -1.334  -0.530  1.00  0.00     0.099 A 
ENDROOT
BRANCH   9  10
HETATM   10  C10 UNL     1       4.314  -0.734   0.085  1.00  0.00    -0.045 C 
HETATM   11  C11 UNL     1       3.733   0.355  -0.730  1.00  0.00     0.057 C 
HETATM   12  C12 UNL     1       2.293   0.727  -0.436  1.00  0.00     0.145 C 
HETATM   13  N5  UNL     1       1.588  -0.080   0.489  1.00  0.00    -0.217 N 
HETATM   14  C32 UNL     1       2.250  -0.882   1.486  1.00  0.00     0.145 C 
HETATM   15  C33 UNL     1       3.551  -1.507   1.034  1.00  0.00     0.057 C 
BRANCH  13  16
HETATM   16  C13 UNL     1       0.168  -0.164   0.474  1.00  0.00     0.682 A 
HETATM   17  N6  UNL     1      -0.474  -0.956   1.381  1.00  0.00    -0.175 N 
HETATM   18  C14 UNL     1      -1.790  -1.177   1.439  1.00  0.00     0.143 A 
ATOM     19  H6  UNL     1       0.105  -1.422   2.079  1.00  0.00     0.186 HD
HETATM   20  C15 UNL     1      -2.594  -0.562   0.501  1.00  0.00     0.103 A 
HETATM   21  C16 UNL     1      -1.998   0.261  -0.427  1.00  0.00     0.058 A 
HETATM   22  N9  UNL     1      -3.950  -0.893   0.365  1.00  0.00    -0.342 N 
HETATM   23  N8  UNL     1      -0.651   0.419  -0.401  1.00  0.00    -0.193 N 
HETATM   24  C17 UNL     1      -2.824   1.082  -1.341  1.00  0.00     0.071 C 
ATOM     25  H8  UNL     1      -0.234   1.030  -1.104  1.00  0.00     0.184 HD
HETATM   26  C18 UNL     1      -4.254   0.806  -1.424  1.00  0.00     0.042 C 
HETATM   27  C25 UNL     1      -4.872  -0.098  -0.415  1.00  0.00     0.139 C 
BRANCH  18  28
HETATM   28  N7  UNL     1      -2.312  -1.850   2.409  1.00  0.00    -0.383 N 
ATOM     29  H72 UNL     1      -1.718  -2.305   3.102  1.00  0.00     0.157 HD
ATOM     30  H71 UNL     1      -3.317  -2.019   2.453  1.00  0.00     0.157 HD
ENDBRANCH  18  28
BRANCH  26  31
HETATM   31  C19 UNL     1      -5.065   2.090  -1.425  1.00  0.00    -0.052 A 
HETATM   32  C20 UNL     1      -5.241   2.817  -0.250  1.00  0.00     0.007 A 
HETATM   33  C21 UNL     1      -6.038   3.957  -0.268  1.00  0.00     0.001 A 
HETATM   34  C22 UNL     1      -6.669   4.416  -1.402  1.00  0.00     0.000 A 
HETATM   35  C23 UNL     1      -6.482   3.675  -2.571  1.00  0.00     0.001 A 
HETATM   36  C24 UNL     1      -5.697   2.547  -2.550  1.00  0.00     0.007 A 
ENDBRANCH  26  31
BRANCH  22  37
HETATM   37  C26 UNL     1      -4.494  -2.077   0.921  1.00  0.00     0.035 A 
HETATM   38  C27 UNL     1      -5.592  -1.963   1.736  1.00  0.00     0.029 A 
HETATM   39  C28 UNL     1      -6.278  -3.022   2.281  1.00  0.00     0.002 A 
HETATM   40  C29 UNL     1      -5.786  -4.292   1.954  1.00  0.00     0.000 A 
HETATM   41  C30 UNL     1      -4.686  -4.417   1.140  1.00  0.00     0.002 A 
HETATM   42  C31 UNL     1      -4.028  -3.296   0.611  1.00  0.00     0.029 A 
ENDBRANCH  22  37
ENDBRANCH  13  16
ENDBRANCH   9  10
BRANCH   8  43
HETATM   43  C3  UNL     1       7.145   0.531  -0.422  1.00  0.00     0.058 A 
HETATM   44  C4  UNL     1       7.372   0.766   0.951  1.00  0.00     0.033 A 
HETATM   45  C5  UNL     1       7.787   2.002   1.331  1.00  0.00     0.026 A 
HETATM   46  C6  UNL     1       7.996   3.039   0.431  1.00  0.00     0.034 A 
HETATM   47 CL1  UNL     1       8.521   4.572   1.025  1.00  0.00    -0.084 Cl
HETATM   48  C7  UNL     1       7.765   2.771  -0.926  1.00  0.00     0.026 A 
HETATM   49  C8  UNL     1       7.341   1.519  -1.338  1.00  0.00     0.033 A 
ENDBRANCH   8  43
TORSDOF 6
