REMARK  7 active torsions:
REMARK  status: ('A' for Active; 'I' for Inactive)
REMARK    1  A    between atoms: C9_9  and  O1_10 
REMARK    2  A    between atoms: C10_12  and  C11_13 
REMARK    3  A    between atoms: C11_13  and  S1_14 
REMARK    4  A    between atoms: S1_14  and  C12_15 
REMARK    5  A    between atoms: N4_22  and  C13_23 
REMARK    6  A    between atoms: C16_26  and  N5_27 
REMARK    7  A    between atoms: N6_29  and  C17_31 
ROOT
HETATM    1  S1  UNL     1       2.085  -2.083  -1.848  1.00  0.00    -0.090 SA
ENDROOT
BRANCH   1   2
HETATM    2  C11 UNL     1       1.264  -1.571  -0.354  1.00  0.00     0.090 C 
BRANCH   2   3
HETATM    3  C10 UNL     1      -0.106  -0.933  -0.548  1.00  0.00     0.031 C 
HETATM    4  C9  UNL     1      -0.719  -0.582   0.782  1.00  0.00     0.070 C 
HETATM    5  C8  UNL     1      -1.566  -1.664   1.375  1.00  0.00     0.039 C 
HETATM    6  C22 UNL     1      -1.535   0.652   0.574  1.00  0.00    -0.009 C 
HETATM    7  C7  UNL     1      -2.621  -2.028   0.410  1.00  0.00     0.008 C 
HETATM    8  C6  UNL     1      -3.338  -0.923  -0.284  1.00  0.00    -0.004 C 
HETATM    9  C5  UNL     1      -2.811   0.451  -0.168  1.00  0.00     0.001 C 
HETATM   10  C24 UNL     1      -4.827  -1.064  -0.022  1.00  0.00     0.006 C 
HETATM   11  C4  UNL     1      -3.866   1.495   0.201  1.00  0.00     0.007 C 
HETATM   12  C3  UNL     1      -4.792   1.080   1.274  1.00  0.00     0.018 C 
HETATM   13  C2  UNL     1      -5.403  -0.281   1.071  1.00  0.00     0.021 C 
HETATM   14  C1  UNL     1      -5.477  -1.052   2.397  1.00  0.00     0.024 C 
HETATM   15  C27 UNL     1      -6.830  -0.125   0.669  1.00  0.00     0.135 C 
HETATM   16  C26 UNL     1      -6.925  -0.142  -0.798  1.00  0.00     0.079 C 
HETATM   17  O2  UNL     1      -7.781  -0.001   1.419  1.00  0.00    -0.297 OA
HETATM   18  C25 UNL     1      -5.667  -0.794  -1.255  1.00  0.00     0.013 C 
HETATM   19  C21 UNL     1      -0.499   1.465  -0.235  1.00  0.00     0.013 C 
HETATM   20  C23 UNL     1      -1.637   1.347   1.901  1.00  0.00     0.019 C 
HETATM   21  C20 UNL     1       0.114   0.432  -1.161  1.00  0.00     0.009 C 
BRANCH   4  22
HETATM   22  O1  UNL     1       0.302  -0.325   1.689  1.00  0.00    -0.389 OA
ATOM     23  H1  UNL     1       0.840   0.362   1.313  1.00  0.00     0.210 HD
ENDBRANCH   4  22
ENDBRANCH   2   3
ENDBRANCH   1   2
BRANCH   1  24
HETATM   24  C12 UNL     1       2.578  -0.828  -2.951  1.00  0.00     0.183 A 
HETATM   25  N1  UNL     1       1.882  -0.323  -3.981  1.00  0.00    -0.263 N 
HETATM   26  N2  UNL     1       2.550   0.607  -4.604  1.00  0.00    -0.226 N 
ATOM     27  H1  UNL     1       0.945  -0.629  -4.244  1.00  0.00     0.190 HD
HETATM   28  N3  UNL     1       3.692   0.718  -3.983  1.00  0.00    -0.219 N 
ATOM     29  H2  UNL     1       2.241   1.142  -5.416  1.00  0.00     0.210 HD
HETATM   30  N4  UNL     1       3.744  -0.154  -2.956  1.00  0.00    -0.217 N 
ATOM     31  H3  UNL     1       4.436   1.368  -4.237  1.00  0.00     0.210 HD
BRANCH  30  32
HETATM   32  C13 UNL     1       4.866  -0.271  -2.090  1.00  0.00     0.062 A 
HETATM   33  C14 UNL     1       5.575   0.859  -1.752  1.00  0.00     0.034 A 
HETATM   34  C15 UNL     1       6.681   0.815  -0.919  1.00  0.00     0.035 A 
HETATM   35  C16 UNL     1       7.091  -0.418  -0.404  1.00  0.00     0.070 A 
HETATM   36  C18 UNL     1       6.391  -1.560  -0.733  1.00  0.00     0.064 A 
HETATM   37 CL1  UNL     1       6.886  -3.137  -0.095  1.00  0.00    -0.082 Cl
HETATM   38  C19 UNL     1       5.285  -1.476  -1.573  1.00  0.00     0.058 A 
BRANCH  35  39
HETATM   39  N5  UNL     1       8.220  -0.526   0.456  1.00  0.00    -0.297 N 
HETATM   40  N6  UNL     1       8.402   0.285   1.434  1.00  0.00    -0.278 N 
ATOM     41  H6  UNL     1       7.747   1.040   1.636  1.00  0.00     0.189 HD
ATOM     42  H5  UNL     1       8.902  -1.267   0.291  1.00  0.00     0.187 HD
BRANCH  40  43
HETATM   43  C17 UNL     1       9.574   0.071   2.224  1.00  0.00     0.199 C 
HETATM   44  N7  UNL     1      10.767  -0.377   1.603  1.00  0.00    -0.068 NA
HETATM   45  S2  UNL     1       9.562   0.336   3.834  1.00  0.00    -0.043 SA
ENDBRANCH  40  43
ENDBRANCH  35  39
ENDBRANCH  30  32
ENDBRANCH   1  24
TORSDOF 7
