REMARK  8 active torsions:
REMARK  status: ('A' for Active; 'I' for Inactive)
REMARK    1  A    between atoms: C2_5  and  N3_6 
REMARK    2  A    between atoms: N3_6  and  C3_8 
REMARK    3  A    between atoms: C13_20  and  C14_21 
REMARK    4  A    between atoms: C14_21  and  C29_44 
REMARK    5  A    between atoms: N4_22  and  N5_24 
REMARK    6  A    between atoms: N5_24  and  C15_26 
REMARK    7  A    between atoms: N6_28  and  O1_29 
REMARK    8  A    between atoms: N7_37  and  C23_38 
ROOT
HETATM    1  C14 UNL     1       0.032  -0.180  -0.123  1.00  0.00     0.102 C 
HETATM    2  N4  UNL     1      -0.988  -0.380  -0.907  1.00  0.00    -0.295 N 
ATOM      3  H4  UNL     1      -0.807  -0.470  -1.907  1.00  0.00     0.187 HD
ENDROOT
BRANCH   1   4
HETATM    4  C13 UNL     1       1.343  -0.104  -0.759  1.00  0.00     0.080 A 
HETATM    5  C1  UNL     1       1.640  -0.216  -2.085  1.00  0.00     0.138 A 
HETATM    6  N1  UNL     1       0.585  -0.442  -3.066  1.00  0.00    -0.081 NA
HETATM    7  N2  UNL     1       2.894  -0.115  -2.443  1.00  0.00    -0.324 N 
HETATM    8  C2  UNL     1       3.814   0.091  -1.502  1.00  0.00     0.151 A 
ATOM      9  H2  UNL     1       3.162  -0.193  -3.424  1.00  0.00     0.169 HD
HETATM   10  S1  UNL     1       2.887   0.144  -0.073  1.00  0.00    -0.048 SA
BRANCH   8  11
HETATM   11  N3  UNL     1       5.118   0.219  -1.665  1.00  0.00    -0.336 N 
ATOM     12  H3  UNL     1       5.524   0.162  -2.599  1.00  0.00     0.168 HD
BRANCH  11  13
HETATM   13  C3  UNL     1       5.954   0.436  -0.537  1.00  0.00     0.045 A 
HETATM   14  C4  UNL     1       5.685   1.404   0.406  1.00  0.00     0.033 A 
HETATM   15  C5  UNL     1       6.563   1.527   1.458  1.00  0.00     0.045 A 
HETATM   16  C6  UNL     1       7.673   0.750   1.614  1.00  0.00     0.127 A 
HETATM   17  F1  UNL     1       8.550   0.854   2.641  1.00  0.00    -0.205 F 
HETATM   18  C7  UNL     1       7.925  -0.215   0.656  1.00  0.00     0.015 A 
HETATM   19  C8  UNL     1       9.052  -1.030   0.783  1.00  0.00     0.015 A 
HETATM   20  C12 UNL     1       7.075  -0.375  -0.414  1.00  0.00     0.004 A 
HETATM   21  C9  UNL     1       9.263  -1.980  -0.198  1.00  0.00     0.001 A 
HETATM   22  C10 UNL     1       8.421  -2.148  -1.270  1.00  0.00     0.001 A 
HETATM   23  C11 UNL     1       7.322  -1.348  -1.385  1.00  0.00     0.014 A 
ENDBRANCH  11  13
ENDBRANCH   8  11
ENDBRANCH   1   4
BRANCH   1  24
HETATM   24  C29 UNL     1      -0.189  -0.051   1.289  1.00  0.00     0.104 A 
HETATM   25  C30 UNL     1       0.688   0.159   2.307  1.00  0.00     0.041 A 
HETATM   26  C31 UNL     1      -0.032   0.208   3.492  1.00  0.00     0.027 A 
HETATM   27  C32 UNL     1      -1.332   0.021   3.117  1.00  0.00     0.142 A 
HETATM   28  O2  UNL     1      -1.376  -0.124   1.841  1.00  0.00    -0.320 OA
ENDBRANCH   1  24
BRANCH   2  29
HETATM   29  N5  UNL     1      -2.292  -0.479  -0.483  1.00  0.00    -0.283 N 
ATOM     30  H5  UNL     1      -2.546  -1.287   0.085  1.00  0.00     0.188 HD
BRANCH  29  31
HETATM   31  C15 UNL     1      -3.216   0.377  -0.753  1.00  0.00     0.145 A 
HETATM   32  C16 UNL     1      -2.938   1.488  -1.515  1.00  0.00     0.173 A 
HETATM   33  N6  UNL     1      -3.910   2.396  -1.804  1.00  0.00    -0.230 N 
HETATM   34  C17 UNL     1      -5.157   2.225  -1.352  1.00  0.00     0.089 A 
HETATM   35  C18 UNL     1      -6.104   3.172  -1.672  1.00  0.00     0.034 A 
HETATM   36  C22 UNL     1      -5.450   1.114  -0.586  1.00  0.00     0.070 A 
HETATM   37  C19 UNL     1      -7.386   3.026  -1.225  1.00  0.00     0.002 A 
HETATM   38  C20 UNL     1      -7.702   1.917  -0.454  1.00  0.00     0.002 A 
HETATM   39  C21 UNL     1      -6.731   0.972  -0.142  1.00  0.00     0.032 A 
HETATM   40  N7  UNL     1      -4.469   0.211  -0.302  1.00  0.00    -0.293 N 
BRANCH  33  41
HETATM   41  O1  UNL     1      -3.579   3.475  -2.560  1.00  0.00    -0.283 OA
ATOM     42  H1  UNL     1      -4.257   4.109  -2.762  1.00  0.00     0.245 HD
ENDBRANCH  33  41
BRANCH  40  43
HETATM   43  C23 UNL     1      -4.837  -0.909   0.490  1.00  0.00     0.041 A 
HETATM   44  C24 UNL     1      -5.081  -2.119  -0.145  1.00  0.00     0.030 A 
HETATM   45  C25 UNL     1      -5.435  -3.203   0.613  1.00  0.00     0.002 A 
HETATM   46  C26 UNL     1      -5.555  -3.125   1.983  1.00  0.00     0.000 A 
HETATM   47  C27 UNL     1      -5.311  -1.923   2.604  1.00  0.00     0.002 A 
HETATM   48  C28 UNL     1      -4.956  -0.830   1.866  1.00  0.00     0.030 A 
ENDBRANCH  40  43
ENDBRANCH  29  31
ENDBRANCH   2  29
TORSDOF 8
