REMARK  6 active torsions:
REMARK  status: ('A' for Active; 'I' for Inactive)
REMARK    1  A    between atoms: C2_2  and  N1_3 
REMARK    2  A    between atoms: N1_3  and  C3_4 
REMARK    3  A    between atoms: N1_3  and  C5_6 
REMARK    4  A    between atoms: C5_6  and  C6_7 
REMARK    5  A    between atoms: C6_7  and  N2_8 
REMARK    6  A    between atoms: C20_27  and  N5_28 
ROOT
HETATM    1  N2  UNL     1       3.076   0.154   0.284  1.00  0.00    -0.306 N 
HETATM    2  C7  UNL     1       2.309   1.292   0.866  1.00  0.00     0.133 C 
HETATM    3  C8  UNL     1       2.461   2.537   0.069  1.00  0.00     0.021 C 
HETATM    4  C9  UNL     1       1.592   3.643   0.655  1.00  0.00     0.005 C 
HETATM    5  C10 UNL     1       0.139   3.464   0.381  1.00  0.00     0.027 C 
HETATM    6  C11 UNL     1      -0.423   4.654  -0.331  1.00  0.00    -0.031 C 
HETATM    7  C12 UNL     1      -1.677   5.020  -0.319  1.00  0.00    -0.031 C 
HETATM    8  C13 UNL     1      -2.753   4.299   0.415  1.00  0.00     0.027 C 
HETATM    9  C14 UNL     1      -2.820   2.835   0.068  1.00  0.00     0.006 C 
HETATM   10  C15 UNL     1      -4.224   2.345  -0.184  1.00  0.00     0.027 C 
HETATM   11  C16 UNL     1      -4.191   0.818   0.044  1.00  0.00     0.176 C 
HETATM   12  O1  UNL     1      -5.268   0.330  -0.674  1.00  0.00    -0.345 OA
HETATM   13  C17 UNL     1      -6.246  -0.575  -0.444  1.00  0.00     0.142 A 
HETATM   14  C18 UNL     1      -6.077  -1.906  -0.110  1.00  0.00     0.105 A 
HETATM   15  N3  UNL     1      -7.182  -2.706   0.093  1.00  0.00    -0.348 N 
ATOM     16  H3  UNL     1      -7.035  -3.685   0.339  1.00  0.00     0.167 HD
HETATM   17  C19 UNL     1      -8.434  -2.258  -0.018  1.00  0.00     0.182 A 
HETATM   18  N4  UNL     1      -8.596  -0.974  -0.340  1.00  0.00    -0.337 N 
ATOM     19  H4  UNL     1      -9.547  -0.616  -0.428  1.00  0.00     0.168 HD
HETATM   20  C20 UNL     1      -7.578  -0.128  -0.555  1.00  0.00     0.136 A 
HETATM   21  C21 UNL     1      -4.821  -2.620   0.037  1.00  0.00     0.109 C 
HETATM   22  C22 UNL     1      -5.025  -3.809  -0.587  1.00  0.00     0.041 C 
HETATM   23  C23 UNL     1      -4.237  -5.005  -0.842  1.00  0.00     0.026 C 
HETATM   24  C24 UNL     1      -2.909  -5.242  -0.868  1.00  0.00     0.034 C 
HETATM   25 CL1  UNL     1      -2.525  -6.902  -1.238  1.00  0.00    -0.084 Cl
HETATM   26  C25 UNL     1      -1.759  -4.355  -0.644  1.00  0.00     0.037 C 
HETATM   27  C26 UNL     1      -1.505  -3.234   0.128  1.00  0.00     0.021 C 
HETATM   28  C27 UNL     1      -0.105  -3.026  -0.283  1.00  0.00     0.072 C 
HETATM   29  C28 UNL     1       0.412  -1.622  -0.345  1.00  0.00     0.185 C 
HETATM   30  O2  UNL     1       1.336  -1.489   0.712  1.00  0.00    -0.303 OA
HETATM   31  C29 UNL     1       2.679  -1.151   0.635  1.00  0.00     0.366 C 
HETATM   32  O3  UNL     1       3.593  -1.985   0.873  1.00  0.00    -0.238 OA
HETATM   33  C30 UNL     1      -2.402  -2.552   1.009  1.00  0.00     0.294 C 
HETATM   34  O4  UNL     1      -2.171  -2.255   2.213  1.00  0.00    -0.259 OA
HETATM   35  O5  UNL     1      -3.723  -2.082   0.703  1.00  0.00    -0.273 OA
ENDROOT
BRANCH   1  36
HETATM   36  C6  UNL     1       4.144   0.499  -0.562  1.00  0.00     0.099 C 
BRANCH  36  37
HETATM   37  C5  UNL     1       5.482   0.751   0.034  1.00  0.00     0.317 C 
BRANCH  37  38
HETATM   38  N1  UNL     1       6.124  -0.398   0.642  1.00  0.00     0.092 N 
BRANCH  38  39
HETATM   39  C2  UNL     1       7.265   0.078   1.416  1.00  0.00     0.268 C 
HETATM   40  C1  UNL     1       8.126   1.072   0.744  1.00  0.00     0.037 C 
ENDBRANCH  38  39
BRANCH  38  41
HETATM   41  C3  UNL     1       6.690  -1.213  -0.460  1.00  0.00     0.268 C 
HETATM   42  C4  UNL     1       7.312  -2.485   0.063  1.00  0.00     0.037 C 
ENDBRANCH  38  41
ENDBRANCH  37  38
ENDBRANCH  36  37
ENDBRANCH   1  36
BRANCH  20  43
HETATM   43  N5  UNL     1      -7.918   1.074  -0.871  1.00  0.00    -0.383 N 
ATOM     44  H52 UNL     1      -7.144   1.717  -1.035  1.00  0.00     0.157 HD
ATOM     45  H51 UNL     1      -8.882   1.398  -0.951  1.00  0.00     0.157 HD
ENDBRANCH  20  43
TORSDOF 6
