REMARK  10 active torsions:
REMARK  status: ('A' for Active; 'I' for Inactive)
REMARK    1  A    between atoms: C1_2  and  C2_3 
REMARK       I    between atoms: C1_2  and  N6_34 
REMARK    2  A    between atoms: C2_3  and  N1_4 
REMARK    3  A    between atoms: N1_4  and  C3_6 
REMARK    4  A    between atoms: N3_11  and  C5_12 
REMARK    5  A    between atoms: C5_12  and  C6_13 
REMARK    6  A    between atoms: C12_19  and  N4_20 
REMARK    7  A    between atoms: N4_20  and  C13_22 
REMARK    8  A    between atoms: N6_34  and  C23_36 
REMARK    9  A    between atoms: C23_36  and  C24_37 
REMARK   10  A    between atoms: C24_37  and  N7_38 
ROOT
HETATM    1  C3  UNL     1       0.370  -0.781   1.852  1.00  0.00     0.697 A 
HETATM    2  N2  UNL     1      -0.051   0.389   2.333  1.00  0.00    -0.140 N 
ATOM      3  H2  UNL     1      -0.891   0.410   2.911  1.00  0.00     0.189 HD
HETATM    4  C4  UNL     1       0.605   1.563   2.079  1.00  0.00     0.355 A 
HETATM    5  O2  UNL     1       0.115   2.585   2.585  1.00  0.00    -0.245 OA
HETATM    6  N3  UNL     1       1.706   1.517   1.320  1.00  0.00    -0.127 N 
HETATM    7  C12 UNL     1       2.135   0.342   0.834  1.00  0.00     0.703 A 
HETATM    8  N5  UNL     1       1.479  -0.781   1.096  1.00  0.00    -0.022 N 
ATOM      9  H5  UNL     1       1.824  -1.662   0.715  1.00  0.00     0.203 HD
ENDROOT
BRANCH   1  10
HETATM   10  N1  UNL     1      -0.246  -1.914   2.095  1.00  0.00    -0.217 N 
ATOM     11  H1  UNL     1       0.110  -2.787   1.706  1.00  0.00     0.178 HD
BRANCH  10  12
HETATM   12  C2  UNL     1      -1.418  -1.913   2.909  1.00  0.00     0.240 C 
BRANCH  12  13
HETATM   13  C1  UNL     1      -2.642  -1.541   2.174  1.00  0.00     0.235 C 
HETATM   14  O1  UNL     1      -3.742  -1.490   2.806  1.00  0.00    -0.272 OA
HETATM   15  N6  UNL     1      -2.576  -1.252   0.796  1.00  0.00    -0.358 N 
ATOM     16  H6  UNL     1      -1.683  -1.309   0.307  1.00  0.00     0.162 HD
BRANCH  15  17
HETATM   17  C23 UNL     1      -3.772  -0.875   0.073  1.00  0.00     0.143 C 
BRANCH  17  18
HETATM   18  C24 UNL     1      -4.320   0.403   0.634  1.00  0.00     0.147 C 
BRANCH  18  19
HETATM   19  N7  UNL     1      -5.516   0.710  -0.169  1.00  0.00    -0.365 N 
HETATM   20  C25 UNL     1      -5.391   1.459  -1.275  1.00  0.00     0.090 A 
HETATM   21  C26 UNL     1      -6.543   1.732  -2.014  1.00  0.00     0.017 A 
HETATM   22  C27 UNL     1      -7.785   1.248  -1.624  1.00  0.00     0.003 A 
HETATM   23  C28 UNL     1      -7.870   0.481  -0.479  1.00  0.00     0.017 A 
HETATM   24  C29 UNL     1      -6.716   0.241   0.210  1.00  0.00     0.090 A 
ENDBRANCH  18  19
ENDBRANCH  17  18
ENDBRANCH  15  17
ENDBRANCH  12  13
ENDBRANCH  10  12
ENDBRANCH   1  10
BRANCH   7  25
HETATM   25  N4  UNL     1       3.245   0.286   0.123  1.00  0.00    -0.191 N 
ATOM     26  H4  UNL     1       3.780   1.135  -0.060  1.00  0.00     0.184 HD
BRANCH  25  27
HETATM   27  C13 UNL     1       3.695  -0.970  -0.390  1.00  0.00     0.050 A 
HETATM   28  C14 UNL     1       3.294  -1.426  -1.633  1.00  0.00     0.031 A 
HETATM   29  C15 UNL     1       3.703  -2.631  -2.165  1.00  0.00     0.014 A 
HETATM   30  C16 UNL     1       4.554  -3.438  -1.438  1.00  0.00    -0.026 A 
HETATM   31  C17 UNL     1       4.998  -4.658  -1.919  1.00  0.00     0.012 A 
HETATM   32  C21 UNL     1       4.973  -3.013  -0.194  1.00  0.00    -0.024 A 
HETATM   33  C18 UNL     1       5.848  -5.416  -1.141  1.00  0.00     0.001 A 
HETATM   34  C19 UNL     1       6.287  -5.022   0.106  1.00  0.00     0.001 A 
HETATM   35  C20 UNL     1       5.829  -3.802   0.564  1.00  0.00     0.012 A 
HETATM   36  C22 UNL     1       4.546  -1.787   0.327  1.00  0.00     0.042 A 
ENDBRANCH  25  27
ENDBRANCH   7  25
BRANCH   6  37
HETATM   37  C5  UNL     1       2.411   2.757   1.078  1.00  0.00     0.191 C 
BRANCH  37  38
HETATM   38  C6  UNL     1       1.854   3.518  -0.045  1.00  0.00    -0.039 A 
HETATM   39  C7  UNL     1       2.046   3.261  -1.371  1.00  0.00     0.009 A 
HETATM   40  C8  UNL     1       1.498   4.041  -2.403  1.00  0.00     0.001 A 
HETATM   41  C9  UNL     1       0.726   5.124  -2.078  1.00  0.00     0.000 A 
HETATM   42  C10 UNL     1       0.518   5.405  -0.746  1.00  0.00     0.001 A 
HETATM   43  C11 UNL     1       1.058   4.637   0.256  1.00  0.00     0.009 A 
ENDBRANCH  37  38
ENDBRANCH   6  37
TORSDOF 10
