REMARK  10 active torsions:
REMARK  status: ('A' for Active; 'I' for Inactive)
REMARK    1  A    between atoms: C2_2  and  C3_3 
REMARK    2  A    between atoms: C3_3  and  C4_4 
REMARK    3  A    between atoms: C4_4  and  C5_5 
REMARK    4  A    between atoms: C10_16  and  C11_17 
REMARK    5  A    between atoms: C11_17  and  C12_18 
REMARK    6  A    between atoms: C15_24  and  C16_25 
REMARK    7  A    between atoms: C16_25  and  C17_26 
REMARK    8  A    between atoms: N4_29  and  S1_30 
REMARK    9  A    between atoms: S1_30  and  C21_33 
REMARK   10  A    between atoms: C24_37  and  O5_38 
ROOT
HETATM    1  C5  UNL     1       2.350  -1.328  -0.399  1.00  0.00     0.064 C 
HETATM    2  N1  UNL     1       2.178  -2.764  -0.207  1.00  0.00    -0.327 N 
ATOM      3  H1  UNL     1       2.646  -3.366  -0.884  1.00  0.00     0.168 HD
HETATM    4  C6  UNL     1       1.451  -3.412   0.791  1.00  0.00     0.223 C 
HETATM    5  O1  UNL     1       2.052  -4.361   1.414  1.00  0.00    -0.273 OA
HETATM    6  C7  UNL     1       0.066  -3.156   1.239  1.00  0.00     0.122 C 
HETATM    7  C8  UNL     1      -0.949  -4.097   0.630  1.00  0.00     0.132 C 
HETATM    8  N2  UNL     1      -1.233  -3.864  -0.749  1.00  0.00    -0.359 N 
ATOM      9  H2  UNL     1      -0.597  -4.288  -1.424  1.00  0.00     0.162 HD
HETATM   10  C9  UNL     1      -2.306  -3.105  -1.280  1.00  0.00     0.240 C 
HETATM   11  O2  UNL     1      -3.015  -3.649  -2.198  1.00  0.00    -0.271 OA
HETATM   12  C10 UNL     1      -2.688  -1.746  -0.879  1.00  0.00     0.176 C 
HETATM   13  N3  UNL     1      -2.257  -0.709  -1.826  1.00  0.00    -0.346 N 
ATOM     14  H3  UNL     1      -2.229  -0.965  -2.813  1.00  0.00     0.163 HD
HETATM   15  C14 UNL     1      -1.885   0.587  -1.499  1.00  0.00     0.243 C 
HETATM   16  O3  UNL     1      -2.403   1.551  -2.143  1.00  0.00    -0.271 OA
HETATM   17  C15 UNL     1      -0.880   0.951  -0.398  1.00  0.00     0.209 C 
HETATM   18  N4  UNL     1       0.311   1.419  -0.936  1.00  0.00    -0.233 N 
HETATM   19  N5  UNL     1       0.911   0.409  -1.752  1.00  0.00    -0.264 N 
HETATM   20  C23 UNL     1       0.929   0.793  -3.184  1.00  0.00     0.181 C 
HETATM   21  C24 UNL     1       1.456  -0.810  -1.427  1.00  0.00     0.180 C 
ENDROOT
BRANCH  18  22
HETATM   22  S1  UNL     1       0.866   3.113  -1.307  1.00  0.00     0.037 S 
HETATM   23  C20 UNL     1       1.530   4.376  -0.049  1.00  0.00     0.138 C 
HETATM   24  O4  UNL     1      -0.862   3.602  -0.866  1.00  0.00    -0.249 OA
BRANCH  22  25
HETATM   25  C21 UNL     1       0.458   3.930  -3.077  1.00  0.00     0.114 C 
HETATM   26  C22 UNL     1       0.167   5.435  -2.901  1.00  0.00     0.019 C 
ENDBRANCH  22  25
ENDBRANCH  18  22
BRANCH  17  27
HETATM   27  C16 UNL     1      -1.671   1.598   0.638  1.00  0.00     0.041 C 
BRANCH  27  28
HETATM   28  C17 UNL     1      -1.046   2.052   1.915  1.00  0.00    -0.020 C 
HETATM   29  C18 UNL     1      -2.183   2.719   2.731  1.00  0.00     0.009 C 
HETATM   30  C19 UNL     1      -0.616   0.890   2.788  1.00  0.00     0.009 C 
ENDBRANCH  27  28
ENDBRANCH  17  27
BRANCH  21  31
HETATM   31  O5  UNL     1       1.090  -1.763  -2.247  1.00  0.00    -0.344 OA
ATOM     32  H5  UNL     1       0.507  -1.425  -2.917  1.00  0.00     0.219 HD
ENDBRANCH  21  31
BRANCH   1  33
HETATM   33  C4  UNL     1       2.533  -0.541   0.836  1.00  0.00     0.062 C 
BRANCH  33  34
HETATM   34  C3  UNL     1       3.754  -0.962   1.607  1.00  0.00     0.006 C 
BRANCH  34  35
HETATM   35  C2  UNL     1       5.050  -0.833   0.896  1.00  0.00    -0.004 C 
HETATM   36  C1  UNL     1       6.130  -1.312   1.882  1.00  0.00     0.005 C 
ENDBRANCH  34  35
ENDBRANCH  33  34
ENDBRANCH   1  33
BRANCH  12  37
HETATM   37  C11 UNL     1      -4.203  -1.599  -0.744  1.00  0.00     0.034 C 
BRANCH  37  38
HETATM   38  C12 UNL     1      -4.817  -2.496   0.266  1.00  0.00    -0.002 C 
HETATM   39  C13 UNL     1      -4.330  -2.305   1.669  1.00  0.00     0.005 C 
ENDBRANCH  37  38
ENDBRANCH  12  37
TORSDOF 10
