REMARK  9 active torsions:
REMARK  status: ('A' for Active; 'I' for Inactive)
REMARK    1  A    between atoms: C5_5  and  C6_6 
REMARK    2  A    between atoms: C6_6  and  C7_7 
REMARK    3  A    between atoms: C7_7  and  C8_8 
REMARK       I    between atoms: C8_8  and  N1_10 
REMARK    4  A    between atoms: N1_10  and  C9_12 
REMARK    5  A    between atoms: C10_17  and  C11_18 
REMARK    6  A    between atoms: C11_18  and  C12_19 
REMARK    7  A    between atoms: C12_19  and  C13_20 
REMARK    8  A    between atoms: C13_20  and  C14_21 
REMARK    9  A    between atoms: C14_21  and  C15_22 
ROOT
HETATM    1  C11 UNL     1      -0.631  -0.945   0.766  1.00  0.00     0.066 C 
ENDROOT
BRANCH   1   2
HETATM    2  C10 UNL     1       0.724  -1.349   0.244  1.00  0.00     0.069 A 
HETATM    3  N3  UNL     1       1.724  -0.633  -0.228  1.00  0.00    -0.296 N 
HETATM    4  N2  UNL     1       2.792  -1.182  -0.632  1.00  0.00    -0.279 N 
ATOM      5  H3  UNL     1       1.637   0.382  -0.269  1.00  0.00     0.187 HD
HETATM    6  C9  UNL     1       2.895  -2.513  -0.574  1.00  0.00     0.167 A 
ATOM      7  H2  UNL     1       3.560  -0.618  -0.995  1.00  0.00     0.189 HD
HETATM    8  S1  UNL     1       1.371  -2.941   0.095  1.00  0.00    -0.038 SA
BRANCH   6   9
HETATM    9  N1  UNL     1       3.885  -3.293  -0.941  1.00  0.00    -0.306 N 
HETATM   10  C8  UNL     1       5.077  -2.740  -1.498  1.00  0.00     0.223 C 
HETATM   11  O1  UNL     1       4.948  -1.938  -2.484  1.00  0.00    -0.273 OA
ATOM     12  H1  UNL     1       3.802  -4.303  -0.827  1.00  0.00     0.171 HD
BRANCH  10  13
HETATM   13  C7  UNL     1       6.378  -3.093  -0.952  1.00  0.00     0.108 C 
BRANCH  13  14
HETATM   14  C6  UNL     1       7.536  -2.212  -1.262  1.00  0.00     0.048 C 
BRANCH  14  15
HETATM   15  C5  UNL     1       7.408  -0.832  -0.762  1.00  0.00    -0.058 A 
HETATM   16  C4  UNL     1       7.707  -0.544   0.578  1.00  0.00     0.007 A 
HETATM   17  C3  UNL     1       7.627   0.725   1.083  1.00  0.00     0.007 A 
HETATM   18  C2  UNL     1       7.249   1.777   0.296  1.00  0.00    -0.062 A 
HETATM   19  C1  UNL     1       7.168   3.147   0.878  1.00  0.00     0.048 C 
HETATM   20  C27 UNL     1       6.952   1.521  -1.020  1.00  0.00     0.007 A 
HETATM   21  C26 UNL     1       7.033   0.239  -1.531  1.00  0.00     0.007 A 
ENDBRANCH  14  15
ENDBRANCH  13  14
ENDBRANCH  10  13
ENDBRANCH   6   9
ENDBRANCH   1   2
BRANCH   1  22
HETATM   22  C12 UNL     1      -0.900   0.521   0.640  1.00  0.00     0.007 C 
BRANCH  22  23
HETATM   23  C13 UNL     1      -0.908   0.983  -0.774  1.00  0.00     0.005 C 
BRANCH  23  24
HETATM   24  C14 UNL     1      -1.994   0.338  -1.586  1.00  0.00     0.038 C 
BRANCH  24  25
HETATM   25  C15 UNL     1      -3.343   0.693  -1.076  1.00  0.00    -0.057 A 
HETATM   26  C16 UNL     1      -3.936   1.873  -1.556  1.00  0.00     0.009 A 
HETATM   27  C17 UNL     1      -5.181   2.286  -1.172  1.00  0.00     0.031 A 
HETATM   28  C18 UNL     1      -5.888   1.488  -0.258  1.00  0.00     0.046 A 
HETATM   29  C19 UNL     1      -5.342   0.331   0.231  1.00  0.00     0.009 A 
HETATM   30  N6  UNL     1      -7.199   1.682   0.283  1.00  0.00    -0.319 N 
HETATM   31  C20 UNL     1      -4.064  -0.049  -0.193  1.00  0.00     0.019 A 
HETATM   32  C21 UNL     1      -6.296  -0.271   1.161  1.00  0.00     0.161 A 
HETATM   33  C22 UNL     1      -5.657  -0.279   2.538  1.00  0.00     0.171 C 
HETATM   34  N5  UNL     1      -6.601  -1.652   0.861  1.00  0.00    -0.319 N 
HETATM   35  C24 UNL     1      -7.474   0.598   1.143  1.00  0.00     0.259 A 
HETATM   36  N4  UNL     1      -6.287  -1.413   3.168  1.00  0.00    -0.340 N 
HETATM   37  C23 UNL     1      -6.672  -2.316   2.129  1.00  0.00     0.317 C 
ATOM     38  H4  UNL     1      -6.431  -1.546   4.169  1.00  0.00     0.164 HD
HETATM   39  O2  UNL     1      -7.014  -3.502   2.326  1.00  0.00    -0.247 OA
ATOM     40  H5  UNL     1      -6.737  -2.067  -0.061  1.00  0.00     0.166 HD
HETATM   41  O3  UNL     1      -8.578   0.447   1.774  1.00  0.00    -0.270 OA
HETATM   42  C25 UNL     1      -8.071   2.811  -0.021  1.00  0.00     0.159 C 
ENDBRANCH  24  25
ENDBRANCH  23  24
ENDBRANCH  22  23
ENDBRANCH   1  22
TORSDOF 9
