REMARK  5 active torsions:
REMARK  status: ('A' for Active; 'I' for Inactive)
REMARK    1  A    between atoms: C2_2  and  N1_3 
REMARK    2  A    between atoms: N1_3  and  C3_5 
REMARK    3  A    between atoms: C5_9  and  N3_10 
REMARK    4  A    between atoms: N3_10  and  C6_12 
REMARK    5  A    between atoms: N4_17  and  S1_18 
ROOT
HETATM    1  N3  UNL     1       0.291  -0.208   1.887  1.00  0.00    -0.353 N 
ATOM      2  H3  UNL     1       0.271  -0.343   2.898  1.00  0.00     0.166 HD
ENDROOT
BRANCH   1   3
HETATM    3  C5  UNL     1       1.539  -0.223   1.234  1.00  0.00     0.049 A 
HETATM    4  C4  UNL     1       1.705  -0.054  -0.116  1.00  0.00     0.119 A 
HETATM    5  N2  UNL     1       2.956  -0.086  -0.640  1.00  0.00    -0.349 N 
HETATM    6  C3  UNL     1       4.064  -0.273   0.063  1.00  0.00     0.118 A 
ATOM      7  H2  UNL     1       3.051   0.043  -1.647  1.00  0.00     0.167 HD
HETATM    8  C15 UNL     1       3.930  -0.448   1.435  1.00  0.00     0.057 A 
HETATM    9  C14 UNL     1       2.674  -0.420   1.990  1.00  0.00     0.054 A 
HETATM   10 BR1  UNL     1       5.487  -0.723   2.514  1.00  0.00    -0.047 Br
BRANCH   6  11
HETATM   11  N1  UNL     1       5.242  -0.304  -0.430  1.00  0.00    -0.376 N 
ATOM     12  H1  UNL     1       6.046  -0.453   0.180  1.00  0.00     0.161 HD
BRANCH  11  13
HETATM   13  C2  UNL     1       5.436  -0.128  -1.847  1.00  0.00     0.116 C 
HETATM   14  C1  UNL     1       5.073  -1.388  -2.562  1.00  0.00     0.026 C 
ENDBRANCH  11  13
ENDBRANCH   6  11
ENDBRANCH   1   3
BRANCH   1  15
HETATM   15  C6  UNL     1      -0.950  -0.013   1.201  1.00  0.00     0.064 A 
HETATM   16  C7  UNL     1      -1.733  -1.016   0.674  1.00  0.00    -0.010 A 
HETATM   17  C8  UNL     1      -1.452  -2.489   0.709  1.00  0.00     0.052 C 
HETATM   18  C9  UNL     1      -2.857  -0.439   0.086  1.00  0.00     0.032 A 
HETATM   19  C10 UNL     1      -3.976  -1.170  -0.609  1.00  0.00     0.070 C 
HETATM   20  N4  UNL     1      -2.763   0.892   0.252  1.00  0.00    -0.246 N 
HETATM   21  C12 UNL     1      -1.622   1.155   0.920  1.00  0.00     0.051 A 
HETATM   22  C13 UNL     1      -1.189   2.507   1.279  1.00  0.00     0.072 C 
BRANCH  20  23
HETATM   23  S1  UNL     1      -3.955   1.998  -0.331  1.00  0.00     0.233 S 
HETATM   24  C11 UNL     1      -5.530   1.727   0.401  1.00  0.00     0.186 C 
HETATM   25  O1  UNL     1      -3.539   3.417  -0.086  1.00  0.00    -0.206 OA
HETATM   26  O2  UNL     1      -4.094   1.828  -1.819  1.00  0.00    -0.206 OA
ENDBRANCH  20  23
ENDBRANCH   1  15
TORSDOF 5
