REMARK  6 active torsions:
REMARK  status: ('A' for Active; 'I' for Inactive)
REMARK    1  A    between atoms: C2_2  and  C3_3 
REMARK       I    between atoms: N1_5  and  C5_7 
REMARK    2  A    between atoms: C5_7  and  C6_9 
REMARK    3  A    between atoms: C6_9  and  N2_10 
REMARK    4  A    between atoms: C9_17  and  C10_18 
REMARK    5  A    between atoms: C10_18  and  C11_19 
REMARK    6  A    between atoms: C14_23  and  O3_24 
ROOT
HETATM    1  N2  UNL     1      -0.706  -0.610  -2.155  1.00  0.00    -0.362 N 
ATOM      2  H2  UNL     1      -0.826  -1.150  -3.012  1.00  0.00     0.162 HD
HETATM    3  C7  UNL     1       0.419  -0.605  -1.565  1.00  0.00     0.148 C 
HETATM    4  N3  UNL     1       0.797   0.056  -0.396  1.00  0.00    -0.303 N 
ATOM      5  H3  UNL     1       0.115   0.545   0.184  1.00  0.00     0.171 HD
HETATM    6  C8  UNL     1       2.153   0.018  -0.054  1.00  0.00     0.264 C 
HETATM    7  O2  UNL     1       2.636   0.582   0.999  1.00  0.00    -0.267 OA
HETATM    8  C9  UNL     1       3.016  -0.706  -0.955  1.00  0.00     0.079 C 
HETATM    9  S1  UNL     1       1.852  -1.500  -2.108  1.00  0.00    -0.049 SA
ENDROOT
BRANCH   1  10
HETATM   10  C6  UNL     1      -1.834   0.156  -1.612  1.00  0.00     0.224 C 
BRANCH  10  11
HETATM   11  C5  UNL     1      -3.115  -0.421  -2.054  1.00  0.00     0.239 C 
HETATM   12  N1  UNL     1      -4.346   0.145  -1.644  1.00  0.00    -0.333 N 
HETATM   13  C3  UNL     1      -4.838  -0.114  -0.468  1.00  0.00    -0.015 C 
ATOM     14  H1  UNL     1      -4.853   0.763  -2.278  1.00  0.00     0.168 HD
HETATM   15  C4  UNL     1      -4.082  -1.011   0.419  1.00  0.00     0.063 C 
HETATM   16  O1  UNL     1      -3.120  -1.431  -2.806  1.00  0.00    -0.271 OA
BRANCH  13  17
HETATM   17  C2  UNL     1      -6.116   0.452  -0.000  1.00  0.00     0.047 C 
HETATM   18  C1  UNL     1      -5.859   1.272   1.253  1.00  0.00     0.011 C 
ENDBRANCH  13  17
ENDBRANCH  10  11
ENDBRANCH   1  10
BRANCH   8  19
HETATM   19  C10 UNL     1       4.304  -0.856  -1.071  1.00  0.00     0.062 C 
BRANCH  19  20
HETATM   20  C11 UNL     1       5.350  -0.278  -0.247  1.00  0.00     0.081 A 
HETATM   21  C12 UNL     1       5.569   0.998   0.202  1.00  0.00     0.061 A 
HETATM   22  C13 UNL     1       6.715   0.994   0.957  1.00  0.00     0.071 A 
HETATM   23 BR1  UNL     1       7.470   2.527   1.822  1.00  0.00    -0.046 Br
HETATM   24  C14 UNL     1       7.164  -0.293   0.947  1.00  0.00     0.201 A 
HETATM   25  O4  UNL     1       6.353  -1.016   0.239  1.00  0.00    -0.287 OA
BRANCH  24  26
HETATM   26  O3  UNL     1       8.326  -0.690   1.620  1.00  0.00    -0.340 OA
ATOM     27  H3  UNL     1       8.639  -1.587   1.613  1.00  0.00     0.220 HD
ENDBRANCH  24  26
ENDBRANCH  19  20
ENDBRANCH   8  19
TORSDOF 6
