REMARK  1 active torsions:
REMARK  status: ('A' for Active; 'I' for Inactive)
REMARK    1  A    between atoms: C7_13  and  C8_14 
ROOT
HETATM    1  N1  UNL     1       4.808   2.014  -1.192  1.00  0.00    -0.191 NA
HETATM    2  C1  UNL     1       4.117   1.223  -0.655  1.00  0.00     0.105 C 
HETATM    3  C2  UNL     1       3.264   0.243   0.038  1.00  0.00     0.111 A 
HETATM    4  C3  UNL     1       1.928   0.274  -0.139  1.00  0.00     0.130 A 
HETATM    5 CL1  UNL     1       1.346   1.509  -1.276  1.00  0.00    -0.062 Cl
HETATM    6  N2  UNL     1       0.987  -0.555   0.425  1.00  0.00    -0.319 N 
HETATM    7  C4  UNL     1       1.398  -1.537   1.260  1.00  0.00     0.117 A 
HETATM    8  S1  UNL     1       3.052  -1.763   1.633  1.00  0.00    -0.052 SA
HETATM    9  C5  UNL     1       4.006  -0.616   0.818  1.00  0.00     0.098 A 
HETATM   10  S2  UNL     1       5.622  -0.590   0.983  1.00  0.00    -0.070 SA
HETATM   11  S3  UNL     1      -0.041  -2.551   1.756  1.00  0.00    -0.102 SA
HETATM   12  C6  UNL     1      -0.911  -2.014   0.180  1.00  0.00     0.107 C 
HETATM   13  C7  UNL     1      -0.422  -0.563   0.351  1.00  0.00     0.106 C 
ENDROOT
BRANCH  13  14
HETATM   14  C8  UNL     1      -1.201   0.308  -0.519  1.00  0.00     0.010 C 
HETATM   15  C9  UNL     1      -2.697  -0.114  -0.347  1.00  0.00     0.007 C 
HETATM   16  C10 UNL     1      -3.108   1.338  -0.487  1.00  0.00     0.001 C 
HETATM   17  C11 UNL     1      -1.680   1.648   0.028  1.00  0.00     0.007 C 
ENDBRANCH  13  14
TORSDOF 1
