REMARK  1 active torsions:
REMARK  status: ('A' for Active; 'I' for Inactive)
REMARK    1  A    between atoms: C2_2  and  C4_4 
ROOT
HETATM    1  C4  UNL     1       1.116  -0.297  -0.463  1.00  0.00     0.019 C 
HETATM    2  C5  UNL     1       0.619  -1.112   0.742  1.00  0.00     0.020 C 
HETATM    3  C6  UNL     1      -0.729  -0.473   1.111  1.00  0.00     0.070 C 
HETATM    4  C7  UNL     1      -1.841  -1.497   0.847  1.00  0.00     0.245 C 
HETATM    5  C8  UNL     1      -1.891  -2.326   2.077  1.00  0.00     0.114 C 
HETATM    6  N1  UNL     1      -1.943  -2.959   3.044  1.00  0.00    -0.193 NA
HETATM    7  C9  UNL     1      -1.508  -2.391  -0.241  1.00  0.00     0.114 C 
HETATM    8  N2  UNL     1      -1.219  -3.122  -1.119  1.00  0.00    -0.193 NA
HETATM    9  O1  UNL     1      -3.073  -0.921   0.705  1.00  0.00    -0.323 OA
HETATM   10  C10 UNL     1      -3.368  -0.493  -0.580  1.00  0.00     0.284 C 
HETATM   11 CL1  UNL     1      -4.094  -1.697  -1.606  1.00  0.00    -0.084 Cl
HETATM   12  S1  UNL     1      -1.793   0.160  -1.267  1.00  0.00    -0.111 SA
HETATM   13  C11 UNL     1      -0.870   0.639   0.205  1.00  0.00     0.024 C 
HETATM   14  C12 UNL     1      -1.310   1.962   0.658  1.00  0.00     0.021 C 
HETATM   15  C13 UNL     1      -0.781   2.852  -0.483  1.00  0.00     0.002 C 
HETATM   16  C14 UNL     1       0.328   2.022  -1.158  1.00  0.00     0.007 C 
HETATM   17  C15 UNL     1       0.587   1.014  -0.134  1.00  0.00     0.013 C 
ENDROOT
BRANCH   1  18
HETATM   18  C2  UNL     1       2.602  -0.294  -0.378  1.00  0.00    -0.088 C 
HETATM   19  C1  UNL     1       3.324   0.761  -0.055  1.00  0.00     0.014 C 
HETATM   20  C3  UNL     1       3.316  -1.578  -0.679  1.00  0.00     0.043 C 
ENDBRANCH   1  18
TORSDOF 1
