REMARK  1 active torsions:
REMARK  status: ('A' for Active; 'I' for Inactive)
REMARK    1  A    between atoms: C6_7  and  C7_8 
ROOT
HETATM    1  C7  UNL     1       1.138   0.071  -0.484  1.00  0.00     0.368 C 
HETATM    2  O1  UNL     1       0.769  -1.253  -0.206  1.00  0.00    -0.197 OA
HETATM    3  O2  UNL     1      -0.476  -1.490  -0.481  1.00  0.00    -0.195 OA
HETATM    4  C8  UNL     1      -1.351  -0.539   0.057  1.00  0.00     0.229 C 
HETATM    5  C9  UNL     1      -1.965   0.198  -1.101  1.00  0.00     0.074 C 
HETATM    6  C10 UNL     1      -3.455   0.314  -1.011  1.00  0.00     0.006 C 
HETATM    7  C11 UNL     1      -3.771   0.737   0.424  1.00  0.00     0.000 C 
HETATM    8  C12 UNL     1      -3.550  -0.486   1.279  1.00  0.00     0.006 C 
HETATM    9  C13 UNL     1      -2.353  -1.284   0.891  1.00  0.00     0.074 C 
HETATM   10  O3  UNL     1      -0.625   0.299   0.901  1.00  0.00    -0.195 OA
HETATM   11  O4  UNL     1       0.364   0.896   0.292  1.00  0.00    -0.197 OA
ENDROOT
BRANCH   1  12
HETATM   12  C6  UNL     1       2.592   0.170  -0.193  1.00  0.00     0.019 A 
HETATM   13  C1  UNL     1       3.430   0.813  -1.075  1.00  0.00     0.022 A 
HETATM   14 BR1  UNL     1       2.695   1.578  -2.680  1.00  0.00    -0.050 Br
HETATM   15  C2  UNL     1       4.794   0.910  -0.809  1.00  0.00     0.020 A 
HETATM   16  C3  UNL     1       5.348   0.372   0.331  1.00  0.00     0.001 A 
HETATM   17  C4  UNL     1       4.495  -0.266   1.200  1.00  0.00     0.001 A 
HETATM   18  C5  UNL     1       3.134  -0.373   0.954  1.00  0.00     0.013 A 
ENDBRANCH   1  12
TORSDOF 1
