REMARK  1 active torsions:
REMARK  status: ('A' for Active; 'I' for Inactive)
REMARK    1  A    between atoms: C6_6  and  C7_7 
ROOT
HETATM    1  C1  UNL     1       4.070   0.280  -0.973  1.00  0.00     0.043 C 
HETATM    2  C2  UNL     1       2.687   0.415  -0.464  1.00  0.00    -0.081 C 
HETATM    3  C3  UNL     1       2.016   1.508  -0.770  1.00  0.00    -0.023 C 
HETATM    4  C4  UNL     1       0.604   1.822  -0.345  1.00  0.00     0.035 C 
HETATM    5  C5  UNL     1       0.213   0.944   0.759  1.00  0.00     0.029 C 
HETATM    6  C6  UNL     1      -1.249   0.616   0.986  1.00  0.00     0.180 C 
HETATM    7  O2  UNL     1      -1.775  -0.398   0.299  1.00  0.00    -0.372 OA
HETATM    8  C10 UNL     1      -1.397  -1.692   0.334  1.00  0.00     0.147 C 
HETATM    9  C11 UNL     1      -2.631  -2.478  -0.179  1.00  0.00     0.042 C 
HETATM   10  C12 UNL     1      -0.292  -2.102  -0.661  1.00  0.00     0.150 C 
HETATM   11  C13 UNL     1       0.266  -0.691  -0.944  1.00  0.00     0.040 C 
HETATM   12  C14 UNL     1       0.741  -0.366   0.468  1.00  0.00     0.005 C 
HETATM   13  C15 UNL     1       2.183  -0.706   0.361  1.00  0.00     0.042 C 
HETATM   14  C16 UNL     1       2.052  -2.055  -0.320  1.00  0.00     0.177 C 
HETATM   15  O3  UNL     1       0.810  -2.709  -0.074  1.00  0.00    -0.383 OA
ENDROOT
BRANCH   6  16
HETATM   16  C7  UNL     1      -2.128   1.793   0.857  1.00  0.00     0.086 A 
HETATM   17  N1  UNL     1      -1.905   3.022   0.378  1.00  0.00    -0.345 N 
HETATM   18  C8  UNL     1      -3.078   3.702   0.487  1.00  0.00     0.235 A 
ATOM     19  H1  UNL     1      -1.026   3.380   0.004  1.00  0.00     0.167 HD
HETATM   20  O1  UNL     1      -3.990   2.913   1.016  1.00  0.00    -0.292 OA
HETATM   21  C9  UNL     1      -3.455   1.765   1.249  1.00  0.00     0.171 A 
HETATM   22 CL1  UNL     1      -4.340   0.406   1.965  1.00  0.00    -0.054 Cl
ENDBRANCH   6  16
TORSDOF 1
