REMARK  6 active torsions:
REMARK  status: ('A' for Active; 'I' for Inactive)
REMARK    1  A    between atoms: N2_5  and  C4_6 
REMARK    2  A    between atoms: C4_6  and  C5_7 
REMARK    3  A    between atoms: C5_7  and  N3_8 
REMARK    4  A    between atoms: C11_14  and  C12_15 
REMARK    5  A    between atoms: C11_14  and  C20_30 
REMARK    6  A    between atoms: C15_20  and  C16_21 
ROOT
HETATM    1  N3  UNL     1      -1.048  -0.278  -0.205  1.00  0.00     0.099 N 
HETATM    2  C6  UNL     1      -1.117  -1.716  -0.329  1.00  0.00     0.223 C 
HETATM    3  C7  UNL     1      -1.342  -2.189   1.115  1.00  0.00     0.038 C 
HETATM    4  C8  UNL     1      -0.956  -0.999   1.937  1.00  0.00     0.038 C 
HETATM    5  C9  UNL     1      -0.359   0.013   0.989  1.00  0.00     0.224 C 
HETATM    6  C10 UNL     1       1.088   0.110   0.919  1.00  0.00     0.053 C 
HETATM    7  C11 UNL     1       1.877  -0.845   0.135  1.00  0.00     0.024 C 
HETATM    8  C23 UNL     1       1.149  -1.280  -1.134  1.00  0.00     0.020 C 
HETATM    9  C24 UNL     1       0.116  -2.366  -0.864  1.00  0.00     0.037 C 
ENDROOT
BRANCH   7  10
HETATM   10  C12 UNL     1       3.172  -0.261  -0.291  1.00  0.00     0.091 A 
HETATM   11  N4  UNL     1       3.560   1.028  -0.050  1.00  0.00    -0.343 N 
HETATM   12  C13 UNL     1       4.846   1.195  -0.450  1.00  0.00     0.061 A 
ATOM     13  H4  UNL     1       2.974   1.752   0.366  1.00  0.00     0.167 HD
HETATM   14  C14 UNL     1       5.737   2.271  -0.395  1.00  0.00     0.048 A 
HETATM   15  C19 UNL     1       5.252  -0.011  -0.946  1.00  0.00     0.060 A 
HETATM   16  C15 UNL     1       7.032   2.149  -0.835  1.00  0.00     0.050 A 
HETATM   17  C17 UNL     1       7.446   0.936  -1.346  1.00  0.00     0.018 A 
HETATM   18  C18 UNL     1       6.535  -0.123  -1.389  1.00  0.00     0.032 A 
HETATM   19  N5  UNL     1       4.244  -0.872  -0.853  1.00  0.00    -0.343 N 
ATOM     20  H5  UNL     1       4.272  -1.845  -1.158  1.00  0.00     0.167 HD
BRANCH  16  21
HETATM   21  C16 UNL     1       7.952   3.338  -0.741  1.00  0.00     0.417 C 
HETATM   22  F1  UNL     1       8.800   3.171   0.313  1.00  0.00    -0.166 F 
HETATM   23  F2  UNL     1       8.711   3.356  -1.909  1.00  0.00    -0.166 F 
HETATM   24  F3  UNL     1       7.178   4.479  -0.636  1.00  0.00    -0.166 F 
ENDBRANCH  16  21
ENDBRANCH   7  10
BRANCH   7  25
HETATM   25  C20 UNL     1       2.221  -2.116   0.880  1.00  0.00     0.002 A 
HETATM   26  C21 UNL     1       2.496  -2.283   2.310  1.00  0.00     0.006 A 
HETATM   27  C22 UNL     1       3.640  -1.879   1.553  1.00  0.00     0.006 A 
ENDBRANCH   7  25
BRANCH   1  28
HETATM   28  C5  UNL     1      -2.381   0.246  -0.138  1.00  0.00     0.292 C 
BRANCH  28  29
HETATM   29  C4  UNL     1      -3.061   0.523  -1.448  1.00  0.00     0.147 C 
BRANCH  29  30
HETATM   30  N2  UNL     1      -4.387   0.936  -1.137  1.00  0.00    -0.407 N 
HETATM   31  C3  UNL     1      -4.595   2.129  -0.421  1.00  0.00     0.147 C 
HETATM   32  C2  UNL     1      -6.082   2.284  -0.094  1.00  0.00     0.291 C 
HETATM   33  N1  UNL     1      -6.614   1.180   0.653  1.00  0.00     0.087 N 
HETATM   34  C1  UNL     1      -8.004   0.906   0.376  1.00  0.00     0.310 C 
HETATM   35  C26 UNL     1      -5.815  -0.024   0.589  1.00  0.00     0.291 C 
HETATM   36  C25 UNL     1      -5.251  -0.179  -0.792  1.00  0.00     0.147 C 
ENDBRANCH  29  30
ENDBRANCH  28  29
ENDBRANCH   1  28
TORSDOF 6
