REMARK  5 active torsions:
REMARK  status: ('A' for Active; 'I' for Inactive)
REMARK    1  A    between atoms: C2_2  and  C5_5 
REMARK    2  A    between atoms: C6_8  and  C7_9 
REMARK    3  A    between atoms: C7_9  and  O1_10 
REMARK    4  A    between atoms: C7_9  and  C8_12 
REMARK    5  A    between atoms: C8_12  and  C9_13 
ROOT
HETATM    1  C5  UNL     1      -1.170  -0.529  -0.305  1.00  0.00     0.058 A 
HETATM    2  N1  UNL     1      -0.206   0.285   0.062  1.00  0.00    -0.354 N 
ATOM      3  H1  UNL     1      -0.432   1.215   0.416  1.00  0.00     0.166 HD
HETATM    4  C6  UNL     1       1.036  -0.092  -0.025  1.00  0.00     0.045 A 
HETATM    5  C10 UNL     1       1.275  -1.356  -0.510  1.00  0.00     0.079 A 
HETATM    6  S1  UNL     1      -0.308  -1.916  -0.807  1.00  0.00    -0.086 SA
ENDROOT
BRANCH   4   7
HETATM    7  C7  UNL     1       2.178   0.834   0.372  1.00  0.00     0.169 C 
BRANCH   7   8
HETATM    8  O1  UNL     1       2.531   1.484  -0.835  1.00  0.00    -0.389 OA
ATOM      9  H1  UNL     1       3.243   2.062  -0.587  1.00  0.00     0.210 HD
ENDBRANCH   7   8
BRANCH   7  10
HETATM   10  C8  UNL     1       3.327   0.015   0.853  1.00  0.00     0.053 C 
BRANCH  10  11
HETATM   11  C9  UNL     1       4.497   0.920   1.265  1.00  0.00     0.117 C 
HETATM   12 CL1  UNL     1       5.813  -0.142   1.810  1.00  0.00    -0.130 Cl
ENDBRANCH  10  11
ENDBRANCH   7  10
ENDBRANCH   4   7
BRANCH   1  13
HETATM   13  C2  UNL     1      -2.662  -0.252  -0.289  1.00  0.00    -0.002 C 
HETATM   14  C1  UNL     1      -3.278  -1.163  -1.320  1.00  0.00     0.021 C 
HETATM   15  C3  UNL     1      -2.906   1.171  -0.732  1.00  0.00     0.021 C 
HETATM   16  C4  UNL     1      -3.268  -0.510   1.053  1.00  0.00     0.021 C 
ENDBRANCH   1  13
TORSDOF 5
