REMARK  4 active torsions:
REMARK  status: ('A' for Active; 'I' for Inactive)
REMARK    1  A    between atoms: C2_2  and  C3_4 
REMARK       I    between atoms: C3_4  and  N1_6 
REMARK    2  A    between atoms: N1_6  and  C4_8 
REMARK    3  A    between atoms: C4_8  and  C5_9 
REMARK    4  A    between atoms: C7_12  and  C8_13 
ROOT
HETATM    1  C5  UNL     1       0.054  -1.408   0.511  1.00  0.00     0.034 A 
HETATM    2  C6  UNL     1       0.265  -2.105  -0.652  1.00  0.00     0.078 A 
HETATM    3  S1  UNL     1       1.711  -1.371  -1.229  1.00  0.00    -0.086 SA
HETATM    4  C7  UNL     1       1.941  -0.249   0.026  1.00  0.00     0.054 A 
HETATM    5  N2  UNL     1       0.913  -0.486   0.819  1.00  0.00    -0.355 N 
ATOM      6  H2  UNL     1       0.794   0.056   1.675  1.00  0.00     0.166 HD
ENDROOT
BRANCH   1   7
HETATM    7  C4  UNL     1      -1.145  -1.713   1.392  1.00  0.00     0.180 C 
BRANCH   7   8
HETATM    8  N1  UNL     1      -2.178  -0.732   1.129  1.00  0.00    -0.353 N 
HETATM    9  C3  UNL     1      -3.024  -0.760  -0.014  1.00  0.00     0.251 C 
HETATM   10  O1  UNL     1      -2.904  -1.660  -0.854  1.00  0.00    -0.270 OA
ATOM     11  H1  UNL     1      -2.306   0.023   1.803  1.00  0.00     0.162 HD
BRANCH   9  12
HETATM   12  C2  UNL     1      -4.041   0.334  -0.137  1.00  0.00     0.257 C 
HETATM   13  C1  UNL     1      -3.295   1.639  -0.270  1.00  0.00     0.055 C 
HETATM   14  F1  UNL     1      -4.927   0.110  -1.149  1.00  0.00    -0.240 F 
ENDBRANCH   9  12
ENDBRANCH   7   8
ENDBRANCH   1   7
BRANCH   4  15
HETATM   15  C8  UNL     1       3.049   0.750   0.162  1.00  0.00     0.035 C 
HETATM   16  C9  UNL     1       4.363   0.035   0.019  1.00  0.00     0.016 C 
HETATM   17  C10 UNL     1       2.814   1.751  -0.969  1.00  0.00     0.016 C 
ENDBRANCH   4  15
TORSDOF 4
