REMARK  8 active torsions:
REMARK  status: ('A' for Active; 'I' for Inactive)
REMARK    1  A    between atoms: O1_2  and  C2_3 
REMARK    2  A    between atoms: C4_5  and  O2_6 
REMARK    3  A    between atoms: O2_6  and  C5_7 
REMARK    4  A    between atoms: C5_7  and  C6_8 
REMARK    5  A    between atoms: C6_8  and  N1_9 
REMARK    6  A    between atoms: C15_25  and  C16_26 
REMARK    7  A    between atoms: C17_27  and  C18_28 
REMARK    8  A    between atoms: C19_30  and  C20_31 
ROOT
HETATM    1  C2  UNL     1       1.445  -0.640   0.014  1.00  0.00     0.082 A 
HETATM    2  C3  UNL     1       0.174  -1.223   0.017  1.00  0.00     0.074 A 
HETATM    3  C4  UNL     1      -0.769  -0.828   0.929  1.00  0.00     0.073 A 
HETATM    4  C13 UNL     1      -0.400   0.150   1.815  1.00  0.00     0.061 A 
HETATM    5  C14 UNL     1       0.839   0.731   1.825  1.00  0.00     0.049 A 
HETATM    6 CL2  UNL     1       1.216   1.983   3.008  1.00  0.00    -0.083 Cl
HETATM    7  C15 UNL     1       1.811   0.337   0.899  1.00  0.00     0.019 A 
ENDROOT
BRANCH   3   8
HETATM    8  O2  UNL     1      -2.005  -1.385   0.945  1.00  0.00    -0.349 OA
BRANCH   8   9
HETATM    9  C5  UNL     1      -3.048  -1.071   1.819  1.00  0.00     0.197 C 
BRANCH   9  10
HETATM   10  C6  UNL     1      -4.233  -1.967   1.436  1.00  0.00     0.177 C 
BRANCH  10  11
HETATM   11  N1  UNL     1      -4.553  -1.646   0.058  1.00  0.00    -0.274 N 
HETATM   12  N2  UNL     1      -4.031  -2.243  -0.986  1.00  0.00    -0.240 N 
HETATM   13  N3  UNL     1      -4.517  -1.732  -2.107  1.00  0.00    -0.284 N 
ATOM     14  H2  UNL     1      -3.345  -2.997  -0.941  1.00  0.00     0.208 HD
HETATM   15  C7  UNL     1      -5.386  -0.769  -1.777  1.00  0.00     0.080 A 
ATOM     16  H3  UNL     1      -4.272  -2.021  -3.054  1.00  0.00     0.188 HD
HETATM   17  C8  UNL     1      -6.202   0.114  -2.447  1.00  0.00     0.077 A 
HETATM   18  C12 UNL     1      -5.400  -0.723  -0.395  1.00  0.00     0.082 A 
HETATM   19  C9  UNL     1      -6.998   1.005  -1.791  1.00  0.00     0.140 A 
HETATM   20  F1  UNL     1      -7.796   1.868  -2.477  1.00  0.00    -0.204 F 
HETATM   21  C10 UNL     1      -7.012   1.050  -0.426  1.00  0.00     0.074 A 
HETATM   22 CL1  UNL     1      -8.036   2.194   0.400  1.00  0.00    -0.081 Cl
HETATM   23  C11 UNL     1      -6.204   0.176   0.269  1.00  0.00     0.060 A 
ENDBRANCH  10  11
ENDBRANCH   9  10
ENDBRANCH   8   9
ENDBRANCH   3   8
BRANCH   1  24
HETATM   24  O1  UNL     1       2.311  -1.106  -0.938  1.00  0.00    -0.355 OA
HETATM   25  C1  UNL     1       2.006  -2.103  -1.877  1.00  0.00     0.210 C 
ENDBRANCH   1  24
BRANCH   7  26
HETATM   26  C16 UNL     1       3.108   0.971   0.937  1.00  0.00     0.017 C 
HETATM   27  C17 UNL     1       4.156   0.776   0.192  1.00  0.00     0.025 C 
BRANCH  27  28
HETATM   28  C18 UNL     1       5.360   1.572   0.455  1.00  0.00     0.037 C 
HETATM   29 CL3  UNL     1       5.406   2.762   1.739  1.00  0.00    -0.084 Cl
HETATM   30  C19 UNL     1       6.415   1.367  -0.305  1.00  0.00     0.073 C 
BRANCH  30  31
HETATM   31  C20 UNL     1       7.656   2.097  -0.133  1.00  0.00     0.147 C 
HETATM   32  C21 UNL     1       8.844   1.868  -0.987  1.00  0.00     0.096 C 
HETATM   33  O3  UNL     1       7.756   2.965   0.769  1.00  0.00    -0.294 OA
ENDBRANCH  30  31
ENDBRANCH  27  28
ENDBRANCH   7  26
TORSDOF 8
