REMARK  9 active torsions:
REMARK  status: ('A' for Active; 'I' for Inactive)
REMARK    1  A    between atoms: C2_2  and  C3_3 
REMARK    2  A    between atoms: C3_3  and  C4_4 
REMARK    3  A    between atoms: C5_5  and  C6_6 
REMARK       I    between atoms: C6_6  and  N1_8 
REMARK    4  A    between atoms: N1_8  and  C7_9 
REMARK    5  A    between atoms: N1_8  and  C11_14 
REMARK    6  A    between atoms: C7_9  and  C8_10 
REMARK    7  A    between atoms: C8_10  and  C9_11 
REMARK    8  A    between atoms: C9_11  and  O2_12 
REMARK    9  A    between atoms: C16_24  and  C17_25 
ROOT
HETATM    1  C11 UNL     1       1.848  -0.853   1.732  1.00  0.00     0.091 C 
HETATM    2  C12 UNL     1       1.880  -2.270   1.276  1.00  0.00     0.081 C 
HETATM    3  C13 UNL     1       1.192  -0.704   3.066  1.00  0.00     0.113 C 
HETATM    4  N2  UNL     1       0.698  -0.582   4.118  1.00  0.00    -0.190 NA
ENDROOT
BRANCH   1   5
HETATM    5  N1  UNL     1       1.519   0.188   0.836  1.00  0.00    -0.307 N 
HETATM    6  C6  UNL     1       0.289   0.487   0.152  1.00  0.00     0.277 C 
HETATM    7  O1  UNL     1       0.389   1.536  -0.576  1.00  0.00    -0.265 OA
BRANCH   6   8
HETATM    8  C5  UNL     1      -0.953  -0.263   0.231  1.00  0.00     0.126 A 
HETATM    9  C4  UNL     1      -2.180  -0.113  -0.429  1.00  0.00     0.051 A 
HETATM   10  N4  UNL     1      -2.986  -1.194  -0.073  1.00  0.00    -0.290 N 
HETATM   11  C14 UNL     1      -2.217  -1.901   0.769  1.00  0.00     0.158 A 
HETATM   12  C16 UNL     1      -4.197  -1.674  -0.353  1.00  0.00     0.101 A 
HETATM   13  N3  UNL     1      -1.003  -1.359   0.961  1.00  0.00    -0.330 N 
HETATM   14  S1  UNL     1      -3.143  -3.253   1.216  1.00  0.00    -0.039 SA
ATOM     15  H3  UNL     1      -0.262  -1.726   1.558  1.00  0.00     0.168 HD
HETATM   16  C15 UNL     1      -4.504  -2.912   0.320  1.00  0.00     0.105 A 
HETATM   17 CL1  UNL     1      -6.029  -3.826   0.164  1.00  0.00    -0.074 Cl
BRANCH   9  18
HETATM   18  C3  UNL     1      -2.524   1.072  -1.186  1.00  0.00     0.060 C 
BRANCH  18  19
HETATM   19  C2  UNL     1      -3.115   2.182  -0.350  1.00  0.00     0.002 C 
HETATM   20  C1  UNL     1      -2.366   2.758   0.767  1.00  0.00     0.005 C 
ENDBRANCH  18  19
ENDBRANCH   9  18
BRANCH  12  21
HETATM   21  C17 UNL     1      -5.292  -1.291  -1.285  1.00  0.00     0.233 C 
HETATM   22 CL2  UNL     1      -5.471  -2.642  -2.521  1.00  0.00    -0.077 Cl
HETATM   23 CL3  UNL     1      -6.887  -1.612  -0.363  1.00  0.00    -0.077 Cl
HETATM   24 CL4  UNL     1      -5.594   0.210  -1.963  1.00  0.00    -0.077 Cl
ENDBRANCH  12  21
ENDBRANCH   6   8
BRANCH   5  25
HETATM   25  C7  UNL     1       2.563   1.191   0.572  1.00  0.00     0.135 C 
BRANCH  25  26
HETATM   26  C8  UNL     1       3.398   1.056  -0.618  1.00  0.00     0.046 C 
BRANCH  26  27
HETATM   27  C9  UNL     1       4.188  -0.197  -0.684  1.00  0.00     0.168 C 
BRANCH  27  28
HETATM   28  O2  UNL     1       5.019  -0.262  -1.814  1.00  0.00    -0.396 OA
HETATM   29  C10 UNL     1       5.951   0.731  -1.899  1.00  0.00     0.201 C 
ENDBRANCH  27  28
ENDBRANCH  26  27
ENDBRANCH  25  26
ENDBRANCH   5  25
ENDBRANCH   1   5
TORSDOF 9
