REMARK  6 active torsions:
REMARK  status: ('A' for Active; 'I' for Inactive)
REMARK    1  A    between atoms: C2_2  and  C3_3 
REMARK    2  A    between atoms: C3_3  and  C4_4 
REMARK    3  A    between atoms: C5_5  and  C6_6 
REMARK    4  A    between atoms: C6_6  and  C9_9 
REMARK    5  A    between atoms: C11_11  and  O1_12 
REMARK    6  A    between atoms: C15_17  and  O2_18 
ROOT
HETATM    1  C9  UNL     1      -0.369   0.552   0.332  1.00  0.00    -0.043 A 
HETATM    2  C10 UNL     1      -0.758   1.069   1.544  1.00  0.00     0.047 A 
HETATM    3  C11 UNL     1      -2.111   0.974   1.864  1.00  0.00     0.100 A 
HETATM    4  C12 UNL     1      -3.041   0.395   1.027  1.00  0.00     0.117 A 
HETATM    5  C13 UNL     1      -2.651  -0.120  -0.182  1.00  0.00     0.013 A 
HETATM    6  C14 UNL     1      -1.306  -0.028  -0.507  1.00  0.00     0.021 A 
HETATM    7  C15 UNL     1      -3.554  -0.757  -1.150  1.00  0.00     0.235 C 
HETATM    8  C16 UNL     1      -4.988  -0.708  -0.780  1.00  0.00     0.364 C 
HETATM    9  F1  UNL     1      -5.707  -0.355  -1.931  1.00  0.00    -0.193 F 
HETATM   10  F2  UNL     1      -5.498  -1.960  -0.417  1.00  0.00    -0.193 F 
HETATM   11  C17 UNL     1      -5.353   0.258   0.284  1.00  0.00     0.428 C 
HETATM   12  F3  UNL     1      -6.578  -0.058   0.836  1.00  0.00    -0.168 F 
HETATM   13  F4  UNL     1      -5.471   1.516  -0.282  1.00  0.00    -0.168 F 
HETATM   14  O3  UNL     1      -4.392   0.301   1.348  1.00  0.00    -0.275 OA
ENDROOT
BRANCH   1  15
HETATM   15  C6  UNL     1       1.083   0.639  -0.044  1.00  0.00    -0.003 C 
HETATM   16  C7  UNL     1       1.852   1.300   1.026  1.00  0.00     0.024 C 
HETATM   17  C8  UNL     1       1.078   1.633  -1.235  1.00  0.00     0.024 C 
BRANCH  15  18
HETATM   18  C5  UNL     1       1.586  -0.608  -0.602  1.00  0.00    -0.017 C 
HETATM   19  C4  UNL     1       2.556  -1.401  -0.300  1.00  0.00    -0.030 C 
BRANCH  19  20
HETATM   20  C3  UNL     1       3.573  -1.376   0.745  1.00  0.00     0.026 C 
BRANCH  20  21
HETATM   21  C2  UNL     1       4.988  -1.352   0.200  1.00  0.00    -0.001 C 
HETATM   22  C1  UNL     1       5.202  -0.128  -0.661  1.00  0.00     0.005 C 
ENDBRANCH  20  21
ENDBRANCH  19  20
ENDBRANCH  15  18
ENDBRANCH   1  15
BRANCH   3  23
HETATM   23  O1  UNL     1      -2.514   1.492   3.083  1.00  0.00    -0.358 OA
ATOM     24  H1  UNL     1      -3.436   1.427   3.301  1.00  0.00     0.217 HD
ENDBRANCH   3  23
BRANCH   7  25
HETATM   25  O2  UNL     1      -3.181  -2.120  -1.214  1.00  0.00    -0.384 OA
ATOM     26  H2  UNL     1      -3.765  -2.532  -1.840  1.00  0.00     0.210 HD
ENDBRANCH   7  25
TORSDOF 6
