REMARK  7 active torsions:
REMARK  status: ('A' for Active; 'I' for Inactive)
REMARK    1  A    between atoms: O1_1  and  C1_3 
REMARK    2  A    between atoms: C3_5  and  C4_6 
REMARK    3  A    between atoms: C4_6  and  C5_7 
REMARK    4  A    between atoms: C5_7  and  C6_8 
REMARK    5  A    between atoms: C11_14  and  O2_15 
REMARK    6  A    between atoms: N1_17  and  C12_18 
REMARK    7  A    between atoms: C12_18  and  C13_19 
ROOT
HETATM    1  C1  UNL     1       3.054   1.209  -0.857  1.00  0.00     0.144 A 
HETATM    2  C2  UNL     1       1.750   1.136  -1.348  1.00  0.00     0.067 A 
HETATM    3  C3  UNL     1       1.046   0.234  -0.580  1.00  0.00    -0.003 A 
HETATM    4  C11 UNL     1       1.951  -0.223   0.370  1.00  0.00     0.150 A 
HETATM    5  N1  UNL     1       3.135   0.364   0.192  1.00  0.00    -0.304 N 
ENDROOT
BRANCH   3   6
HETATM    6  C4  UNL     1      -0.397  -0.182  -0.722  1.00  0.00     0.043 C 
BRANCH   6   7
HETATM    7  C5  UNL     1      -1.146   0.512   0.360  1.00  0.00     0.012 C 
BRANCH   7   8
HETATM    8  C6  UNL     1      -2.595   0.279   0.444  1.00  0.00     0.020 C 
HETATM    9  C7  UNL     1      -3.394   0.673  -0.766  1.00  0.00     0.007 C 
HETATM   10  C8  UNL     1      -4.799   0.271  -0.291  1.00  0.00     0.003 C 
HETATM   11  C9  UNL     1      -4.582  -0.929   0.610  1.00  0.00     0.037 C 
HETATM   12  C10 UNL     1      -3.057  -1.119   0.672  1.00  0.00     0.174 C 
HETATM   13  F1  UNL     1      -2.764  -1.984  -0.373  1.00  0.00    -0.249 F 
ENDBRANCH   7   8
ENDBRANCH   6   7
ENDBRANCH   3   6
BRANCH   4  14
HETATM   14  O2  UNL     1       1.631  -1.153   1.342  1.00  0.00    -0.345 OA
ATOM     15  H2  UNL     1       2.250  -1.465   1.992  1.00  0.00     0.219 HD
ENDBRANCH   4  14
BRANCH   1  16
HETATM   16  O1  UNL     1       4.057   2.015  -1.378  1.00  0.00    -0.346 OA
ATOM     17  H1  UNL     1       4.945   2.065  -1.044  1.00  0.00     0.219 HD
ENDBRANCH   1  16
BRANCH   5  18
HETATM   18  C12 UNL     1       4.328   0.149   0.981  1.00  0.00     0.192 C 
BRANCH  18  19
HETATM   19  C13 UNL     1       5.183  -0.972   0.423  1.00  0.00     0.204 C 
HETATM   20 CL1  UNL     1       5.709  -0.624  -1.234  1.00  0.00    -0.082 Cl
HETATM   21 CL2  UNL     1       4.313  -2.516   0.537  1.00  0.00    -0.082 Cl
HETATM   22 CL3  UNL     1       6.664  -1.127   1.415  1.00  0.00    -0.082 Cl
ENDBRANCH  18  19
ENDBRANCH   5  18
TORSDOF 7
