REMARK  4 active torsions:
REMARK  status: ('A' for Active; 'I' for Inactive)
REMARK    1  A    between atoms: C7_11  and  C8_12 
REMARK    2  A    between atoms: C7_11  and  C9_15 
REMARK    3  A    between atoms: C8_12  and  O5_13 
REMARK    4  A    between atoms: C9_15  and  O6_16 
ROOT
HETATM    1  O1  UNL     1       1.401   0.498   2.309  1.00  0.00    -0.262 OA
HETATM    2  C1  UNL     1       0.802   0.573   1.175  1.00  0.00     0.298 C 
HETATM    3  O2  UNL     1      -0.276   1.287   0.858  1.00  0.00    -0.315 OA
HETATM    4  C2  UNL     1      -1.597   1.432   0.975  1.00  0.00     0.206 C 
HETATM    5  C3  UNL     1      -2.415   1.595  -0.266  1.00  0.00    -0.002 C 
HETATM    6  C4  UNL     1      -2.832   0.568  -1.001  1.00  0.00    -0.003 C 
HETATM    7  C5  UNL     1      -2.486  -0.842  -0.602  1.00  0.00     0.197 C 
HETATM    8  O3  UNL     1      -1.192  -1.090  -1.053  1.00  0.00    -0.363 OA
HETATM    9  C6  UNL     1      -0.398  -1.728  -0.163  1.00  0.00     0.340 C 
HETATM   10  O4  UNL     1       0.889  -1.469  -0.093  1.00  0.00    -0.341 OA
HETATM   11  C7  UNL     1       1.452  -0.275   0.118  1.00  0.00     0.192 C 
ENDROOT
BRANCH  11  12
HETATM   12  C8  UNL     1       1.775   0.532  -1.114  1.00  0.00     0.215 C 
BRANCH  12  13
HETATM   13  O5  UNL     1       0.740   0.863  -1.916  1.00  0.00    -0.397 OA
ATOM     14  H5  UNL     1       0.944   1.371  -2.692  1.00  0.00     0.209 HD
ENDBRANCH  12  13
ENDBRANCH  11  12
BRANCH  11  15
HETATM   15  C9  UNL     1       2.886  -0.682   0.563  1.00  0.00     0.215 C 
BRANCH  15  16
HETATM   16  O6  UNL     1       2.729  -1.457   1.707  1.00  0.00    -0.397 OA
ATOM     17  H6  UNL     1       3.605  -1.706   1.979  1.00  0.00     0.209 HD
ENDBRANCH  15  16
ENDBRANCH  11  15
TORSDOF 4
