REMARK  4 active torsions:
REMARK  status: ('A' for Active; 'I' for Inactive)
REMARK    1  A    between atoms: O1_2  and  C2_3 
REMARK    2  A    between atoms: C8_11  and  C9_12 
REMARK    3  A    between atoms: C9_12  and  O4_13 
REMARK    4  A    between atoms: C10_15  and  O5_16 
ROOT
HETATM    1  C2  UNL     1       2.451  -0.062  -0.106  1.00  0.00     0.283 C 
HETATM    2  C3  UNL     1       2.166  -1.362   0.537  1.00  0.00     0.029 C 
HETATM    3  C4  UNL     1       1.019  -2.008   0.551  1.00  0.00    -0.023 C 
HETATM    4  C5  UNL     1      -0.262  -1.656  -0.036  1.00  0.00     0.070 C 
HETATM    5  C6  UNL     1      -0.722  -0.253   0.215  1.00  0.00     0.114 C 
HETATM    6  C7  UNL     1       0.407   0.726   0.332  1.00  0.00     0.212 C 
HETATM    7  O2  UNL     1       1.306   0.437  -0.706  1.00  0.00    -0.355 OA
HETATM    8  O3  UNL     1      -1.601  -0.130   1.291  1.00  0.00    -0.365 OA
HETATM    9  C8  UNL     1      -2.356   0.793   0.595  1.00  0.00     0.178 C 
HETATM   10  C10 UNL     1      -1.857   0.178  -0.686  1.00  0.00     0.186 C 
ENDROOT
BRANCH  10  11
HETATM   11  O5  UNL     1      -2.585  -0.926  -1.134  1.00  0.00    -0.390 OA
ATOM     12  H5  UNL     1      -3.298  -0.655  -1.700  1.00  0.00     0.210 HD
ENDBRANCH  10  11
BRANCH   9  13
HETATM   13  C9  UNL     1      -3.841   0.658   0.840  1.00  0.00     0.198 C 
BRANCH  13  14
HETATM   14  O4  UNL     1      -4.505   1.642   0.085  1.00  0.00    -0.398 OA
ATOM     15  H4  UNL     1      -5.439   1.557   0.239  1.00  0.00     0.209 HD
ENDBRANCH  13  14
ENDBRANCH   9  13
BRANCH   1  16
HETATM   16  O1  UNL     1       3.521  -0.140  -0.991  1.00  0.00    -0.363 OA
HETATM   17  C1  UNL     1       4.549   0.738  -0.644  1.00  0.00     0.205 C 
ENDBRANCH   1  16
TORSDOF 4
