REMARK  4 active torsions:
REMARK  status: ('A' for Active; 'I' for Inactive)
REMARK    1  A    between atoms: O1_2  and  C2_3 
REMARK    2  A    between atoms: C3_4  and  O2_5 
REMARK    3  A    between atoms: C6_10  and  N1_11 
REMARK    4  A    between atoms: C10_17  and  O4_18 
ROOT
HETATM    1  C2  UNL     1      -1.509  -0.154  -0.040  1.00  0.00     0.183 C 
HETATM    2  C3  UNL     1      -1.586   1.233   0.500  1.00  0.00     0.181 C 
HETATM    3  C4  UNL     1      -0.480   2.136   0.124  1.00  0.00     0.184 A 
HETATM    4  O3  UNL     1       0.632   2.032   1.075  1.00  0.00    -0.370 OA
HETATM    5  C5  UNL     1       0.766   1.625  -0.255  1.00  0.00     0.179 A 
HETATM    6  C6  UNL     1       0.947   0.202  -0.609  1.00  0.00     0.153 C 
HETATM    7  C10 UNL     1      -0.181  -0.718  -0.307  1.00  0.00     0.175 C 
ENDROOT
BRANCH   6   8
HETATM    8  N1  UNL     1       2.239  -0.344  -0.159  1.00  0.00    -0.342 N 
HETATM    9  C7  UNL     1       3.016   0.071   0.852  1.00  0.00     0.109 A 
HETATM   10  C8  UNL     1       4.141  -0.715   0.936  1.00  0.00     0.106 A 
HETATM   11  N2  UNL     1       4.039  -1.624  -0.049  1.00  0.00    -0.361 N 
HETATM   12  C9  UNL     1       2.890  -1.401  -0.712  1.00  0.00     0.183 A 
ATOM     13  H2  UNL     1       4.717  -2.357  -0.258  1.00  0.00     0.166 HD
ENDBRANCH   6   8
BRANCH   7  14
HETATM   14  O4  UNL     1      -0.302  -1.715  -1.287  1.00  0.00    -0.391 OA
ATOM     15  H4  UNL     1       0.558  -2.080  -1.460  1.00  0.00     0.210 HD
ENDBRANCH   7  14
BRANCH   1  16
HETATM   16  O1  UNL     1      -2.184  -0.980   0.863  1.00  0.00    -0.385 OA
HETATM   17  C1  UNL     1      -3.339  -1.524   0.342  1.00  0.00     0.202 C 
ENDBRANCH   1  16
BRANCH   2  18
HETATM   18  O2  UNL     1      -2.787   1.856   0.073  1.00  0.00    -0.390 OA
ATOM     19  H2  UNL     1      -2.836   2.740   0.417  1.00  0.00     0.210 HD
ENDBRANCH   2  18
TORSDOF 4
