REMARK  14 active torsions:
REMARK  status: ('A' for Active; 'I' for Inactive)
REMARK    1  A    between atoms: C3_4  and  N2_5 
REMARK    2  A    between atoms: N2_5  and  C4_7 
REMARK    3  A    between atoms: C4_7  and  O1_9 
REMARK    4  A    between atoms: C4_7  and  C6_11 
REMARK    5  A    between atoms: N3_13  and  C8_14 
REMARK    6  A    between atoms: C9_20  and  N6_21 
REMARK    7  A    between atoms: C10_24  and  O3_25 
REMARK    8  A    between atoms: C11_27  and  O4_28 
REMARK    9  A    between atoms: C12_30  and  C13_31 
REMARK   10  A    between atoms: C14_40  and  C15_41 
REMARK   11  A    between atoms: C16_45  and  C17_46 
REMARK   12  A    between atoms: C17_46  and  O6_47 
REMARK   13  A    between atoms: C17_46  and  C18_49 
REMARK   14  A    between atoms: C18_49  and  O7_50 
ROOT
HETATM    1  C1  UNL     1       2.374  -3.861   0.757  1.00  0.00     0.156 C 
HETATM    2  N1  UNL     1       1.743  -2.597   0.453  1.00  0.00    -0.355 N 
HETATM    3  C2  UNL     1       0.403  -2.354   0.401  1.00  0.00     0.121 A 
HETATM    4  C3  UNL     1       0.184  -1.025   0.078  1.00  0.00     0.062 A 
HETATM    5  C12 UNL     1       1.454  -0.498  -0.057  1.00  0.00     0.069 A 
HETATM    6  C14 UNL     1       2.409  -1.465   0.173  1.00  0.00     0.097 A 
ENDROOT
BRANCH   4   7
HETATM    7  N2  UNL     1      -1.036  -0.315  -0.081  1.00  0.00    -0.353 N 
ATOM      8  H2  UNL     1      -0.999   0.681  -0.299  1.00  0.00     0.163 HD
BRANCH   7   9
HETATM    9  C4  UNL     1      -2.341  -0.957   0.056  1.00  0.00     0.161 C 
HETATM   10  C5  UNL     1      -2.601  -2.010  -0.966  1.00  0.00     0.077 C 
BRANCH   9  11
HETATM   11  O1  UNL     1      -2.350  -1.582   1.315  1.00  0.00    -0.367 OA
ATOM     12  H1  UNL     1      -3.199  -2.000   1.404  1.00  0.00     0.213 HD
ENDBRANCH   9  11
BRANCH   9  13
HETATM   13  C6  UNL     1      -3.385   0.096   0.038  1.00  0.00     0.050 A 
HETATM   14  C7  UNL     1      -4.436   0.273  -0.828  1.00  0.00     0.116 A 
HETATM   15  N3  UNL     1      -5.157   1.375  -0.478  1.00  0.00    -0.281 N 
HETATM   16  C10 UNL     1      -4.583   1.916   0.608  1.00  0.00     0.183 A 
HETATM   17  C11 UNL     1      -3.492   1.138   0.936  1.00  0.00     0.130 A 
BRANCH  15  18
HETATM   18  C8  UNL     1      -6.308   1.830  -1.176  1.00  0.00     0.181 A 
HETATM   19  N4  UNL     1      -6.402   2.764  -2.143  1.00  0.00    -0.221 N 
HETATM   20  O2  UNL     1      -7.637   2.885  -2.519  1.00  0.00    -0.153 OA
ATOM     21  H4  UNL     1      -5.619   3.296  -2.522  1.00  0.00     0.198 HD
HETATM   22  N5  UNL     1      -8.392   2.071  -1.850  1.00  0.00    -0.222 N 
HETATM   23  C9  UNL     1      -7.603   1.396  -1.003  1.00  0.00     0.168 A 
ATOM     24  H5  UNL     1      -9.401   1.964  -1.950  1.00  0.00     0.198 HD
BRANCH  23  25
HETATM   25  N6  UNL     1      -8.033   0.490  -0.173  1.00  0.00    -0.381 N 
ATOM     26  H62 UNL     1      -7.432  -0.024   0.472  1.00  0.00     0.157 HD
ATOM     27  H61 UNL     1      -8.992   0.168  -0.045  1.00  0.00     0.157 HD
ENDBRANCH  23  25
ENDBRANCH  15  18
BRANCH  16  28
HETATM   28  O3  UNL     1      -5.015   3.070   1.293  1.00  0.00    -0.344 OA
ATOM     29  H3  UNL     1      -4.609   3.453   2.062  1.00  0.00     0.219 HD
ENDBRANCH  16  28
BRANCH  17  30
HETATM   30  O4  UNL     1      -2.654   1.400   2.015  1.00  0.00    -0.356 OA
ATOM     31  H4  UNL     1      -2.728   2.117   2.633  1.00  0.00     0.218 HD
ENDBRANCH  17  30
ENDBRANCH   9  13
ENDBRANCH   7   9
ENDBRANCH   4   7
BRANCH   5  32
HETATM   32  C13 UNL     1       1.734   0.895  -0.398  1.00  0.00     0.152 A 
HETATM   33  N7  UNL     1       1.880   1.398  -1.631  1.00  0.00    -0.268 N 
HETATM   34  N8  UNL     1       2.120   2.680  -1.527  1.00  0.00    -0.227 N 
ATOM     35  H7  UNL     1       1.815   0.871  -2.502  1.00  0.00     0.190 HD
HETATM   36  N9  UNL     1       2.125   2.979  -0.255  1.00  0.00    -0.227 N 
ATOM     37  H8  UNL     1       2.275   3.328  -2.299  1.00  0.00     0.210 HD
HETATM   38  N10 UNL     1       1.893   1.919   0.477  1.00  0.00    -0.268 N 
ATOM     39  H9  UNL     1       2.288   3.914   0.118  1.00  0.00     0.210 HD
ATOM     40  H10 UNL     1       1.842   1.873   1.495  1.00  0.00     0.190 HD
ENDBRANCH   5  32
BRANCH   6  41
HETATM   41  C15 UNL     1       3.857  -1.276   0.119  1.00  0.00     0.155 A 
HETATM   42  N11 UNL     1       4.792  -2.217   0.344  1.00  0.00    -0.241 N 
HETATM   43  O5  UNL     1       5.978  -1.673   0.205  1.00  0.00    -0.220 OA
ATOM     44  H11 UNL     1       4.609  -3.192   0.583  1.00  0.00     0.196 HD
HETATM   45  C16 UNL     1       5.874  -0.409  -0.104  1.00  0.00     0.179 A 
HETATM   46  N12 UNL     1       4.540  -0.152  -0.159  1.00  0.00    -0.319 N 
ATOM     47  H12 UNL     1       4.123   0.753  -0.377  1.00  0.00     0.169 HD
BRANCH  45  48
HETATM   48  C17 UNL     1       6.924   0.598  -0.356  1.00  0.00     0.218 C 
BRANCH  48  49
HETATM   49  O6  UNL     1       7.884   0.018  -1.186  1.00  0.00    -0.385 OA
ATOM     50  H6  UNL     1       8.560   0.666  -1.348  1.00  0.00     0.210 HD
ENDBRANCH  48  49
BRANCH  48  51
HETATM   51  C18 UNL     1       7.542   1.107   0.923  1.00  0.00     0.204 C 
BRANCH  51  52
HETATM   52  O7  UNL     1       8.153   0.120   1.662  1.00  0.00    -0.398 OA
ATOM     53  H7  UNL     1       8.542   0.440   2.467  1.00  0.00     0.209 HD
ENDBRANCH  51  52
ENDBRANCH  48  51
ENDBRANCH  45  48
ENDBRANCH   6  41
TORSDOF 14
