REMARK  14 active torsions:
REMARK  status: ('A' for Active; 'I' for Inactive)
REMARK    1  A    between atoms: O1_2  and  C2_3 
REMARK    2  A    between atoms: C6_14  and  C7_15 
REMARK       I    between atoms: C7_15  and  N6_17 
REMARK    3  A    between atoms: N6_17  and  C8_19 
REMARK    4  A    between atoms: C9_20  and  C10_21 
REMARK    5  A    between atoms: C10_21  and  O3_22 
REMARK    6  A    between atoms: C10_21  and  O4_24 
REMARK    7  A    between atoms: C11_29  and  C12_30 
REMARK    8  A    between atoms: C13_31  and  C14_32 
REMARK    9  A    between atoms: C14_32  and  O6_33 
REMARK   10  A    between atoms: C14_32  and  O7_35 
REMARK   11  A    between atoms: C15_38  and  C16_39 
REMARK   12  A    between atoms: C16_39  and  O9_40 
REMARK   13  A    between atoms: C16_39  and  O10_42 
REMARK   14  A    between atoms: C17_44  and  O11_45 
ROOT
HETATM    1  C8  UNL     1      -0.512  -1.133  -0.750  1.00  0.00     0.102 A 
HETATM    2  C9  UNL     1      -0.213  -2.470  -1.094  1.00  0.00     0.116 A 
HETATM    3  N7  UNL     1      -1.384  -3.078  -1.307  1.00  0.00    -0.258 N 
ATOM      4  H7  UNL     1      -1.497  -4.056  -1.573  1.00  0.00     0.195 HD
HETATM    5  O5  UNL     1      -2.338  -2.252  -1.128  1.00  0.00    -0.234 OA
HETATM    6  C11 UNL     1      -1.851  -1.029  -0.782  1.00  0.00     0.144 A 
ENDROOT
BRANCH   6   7
HETATM    7  C12 UNL     1      -2.723   0.091  -0.514  1.00  0.00     0.090 A 
HETATM    8  C13 UNL     1      -4.029  -0.136  -0.080  1.00  0.00     0.125 A 
HETATM    9  O8  UNL     1      -4.895   0.861   0.066  1.00  0.00    -0.305 OA
HETATM   10  C15 UNL     1      -4.646   2.117  -0.164  1.00  0.00     0.144 A 
HETATM   11  C17 UNL     1      -3.389   2.428  -0.591  1.00  0.00     0.152 A 
HETATM   12  C18 UNL     1      -2.426   1.404  -0.766  1.00  0.00     0.223 A 
HETATM   13  O12 UNL     1      -1.293   1.771  -1.168  1.00  0.00    -0.284 OA
BRANCH   8  14
HETATM   14  C14 UNL     1      -4.538  -1.496   0.256  1.00  0.00     0.313 C 
BRANCH  14  15
HETATM   15  O6  UNL     1      -5.312  -1.286   1.450  1.00  0.00    -0.365 OA
ATOM     16  H6  UNL     1      -5.636  -2.153   1.664  1.00  0.00     0.213 HD
ENDBRANCH  14  15
BRANCH  14  17
HETATM   17  O7  UNL     1      -5.396  -2.012  -0.677  1.00  0.00    -0.365 OA
ATOM     18  H7  UNL     1      -5.720  -2.879  -0.463  1.00  0.00     0.213 HD
ENDBRANCH  14  17
ENDBRANCH   8  14
BRANCH  10  19
HETATM   19  C16 UNL     1      -5.724   3.158   0.044  1.00  0.00     0.315 C 
BRANCH  19  20
HETATM   20  O9  UNL     1      -6.296   2.786   1.289  1.00  0.00    -0.365 OA
ATOM     21  H9  UNL     1      -6.973   3.440   1.420  1.00  0.00     0.213 HD
ENDBRANCH  19  20
BRANCH  19  22
HETATM   22  O10 UNL     1      -6.721   3.057  -0.898  1.00  0.00    -0.365 OA
ATOM     23  H10 UNL     1      -7.398   3.711  -0.767  1.00  0.00     0.213 HD
ENDBRANCH  19  22
ENDBRANCH  10  19
BRANCH  11  24
HETATM   24  O11 UNL     1      -3.023   3.732  -0.863  1.00  0.00    -0.355 OA
ATOM     25  H11 UNL     1      -2.147   3.949  -1.161  1.00  0.00     0.218 HD
ENDBRANCH  11  24
ENDBRANCH   6   7
BRANCH   1  26
HETATM   26  N6  UNL     1       0.518  -0.256  -0.420  1.00  0.00    -0.321 N 
HETATM   27  C7  UNL     1       0.961  -0.058   0.943  1.00  0.00     0.249 C 
HETATM   28  O2  UNL     1       0.359  -0.727   1.820  1.00  0.00    -0.271 OA
ATOM     29  H6  UNL     1       0.977   0.266  -1.167  1.00  0.00     0.169 HD
BRANCH  27  30
HETATM   30  C6  UNL     1       2.052   0.869   1.303  1.00  0.00     0.242 C 
HETATM   31  C3  UNL     1       3.278   0.600   0.548  1.00  0.00     0.088 A 
HETATM   32  N1  UNL     1       3.605   0.743  -0.744  1.00  0.00    -0.320 N 
HETATM   33  C4  UNL     1       4.384   0.100   1.190  1.00  0.00     0.148 A 
HETATM   34  C2  UNL     1       4.876   0.351  -0.946  1.00  0.00     0.227 A 
ATOM     35  H1  UNL     1       2.981   1.098  -1.469  1.00  0.00     0.169 HD
HETATM   36  N2  UNL     1       5.334  -0.039   0.253  1.00  0.00    -0.301 N 
HETATM   37  C5  UNL     1       6.666  -0.542   0.515  1.00  0.00     0.161 C 
HETATM   38  N3  UNL     1       4.288  -0.144   2.599  1.00  0.00    -0.271 N 
HETATM   39  N4  UNL     1       3.004  -0.277   3.131  1.00  0.00    -0.029 NA
ATOM     40  H3  UNL     1       5.119  -0.217   3.186  1.00  0.00     0.185 HD
HETATM   41  N5  UNL     1       2.242   0.830   2.729  1.00  0.00    -0.105 NA
BRANCH  34  42
HETATM   42  O1  UNL     1       5.504   0.379  -2.176  1.00  0.00    -0.327 OA
HETATM   43  C1  UNL     1       4.894   0.818  -3.357  1.00  0.00     0.213 C 
ENDBRANCH  34  42
ENDBRANCH  27  30
ENDBRANCH   1  26
BRANCH   2  44
HETATM   44  C10 UNL     1       1.098  -3.109  -1.208  1.00  0.00     0.309 C 
BRANCH  44  45
HETATM   45  O3  UNL     1       1.035  -4.358  -0.565  1.00  0.00    -0.366 OA
ATOM     46  H3  UNL     1       1.886  -4.773  -0.639  1.00  0.00     0.213 HD
ENDBRANCH  44  45
BRANCH  44  47
HETATM   47  O4  UNL     1       1.347  -3.336  -2.565  1.00  0.00    -0.366 OA
ATOM     48  H4  UNL     1       2.198  -3.751  -2.639  1.00  0.00     0.213 HD
ENDBRANCH  44  47
ENDBRANCH   2  44
TORSDOF 14
