REMARK  16 active torsions:
REMARK  status: ('A' for Active; 'I' for Inactive)
REMARK    1  A    between atoms: C2_2  and  O1_3 
REMARK    2  A    between atoms: C2_2  and  N1_5 
REMARK    3  A    between atoms: C2_2  and  C8_22 
REMARK    4  A    between atoms: N1_5  and  C3_8 
REMARK    5  A    between atoms: C3_8  and  C4_9 
REMARK    6  A    between atoms: C4_9  and  C5_10 
REMARK    7  A    between atoms: N3_13  and  C6_14 
REMARK    8  A    between atoms: C6_14  and  C7_15 
REMARK    9  A    between atoms: C7_15  and  N4_16 
REMARK   10  A    between atoms: C10_28  and  C11_29 
REMARK   11  A    between atoms: C11_29  and  O2_30 
REMARK   12  A    between atoms: C11_29  and  C12_32 
REMARK   13  A    between atoms: C12_32  and  O3_33 
REMARK   14  A    between atoms: C15_41  and  O4_42 
REMARK   15  A    between atoms: C18_47  and  O5_48 
REMARK   16  A    between atoms: C20_52  and  O7_53 
ROOT
HETATM    1  C8  UNL     1      -1.112   0.122  -0.864  1.00  0.00     0.123 C 
HETATM    2  N6  UNL     1      -1.997  -0.307  -1.718  1.00  0.00    -0.280 N 
ATOM      3  H6  UNL     1      -1.873  -1.301  -1.910  1.00  0.00     0.184 HD
HETATM    4  N7  UNL     1      -3.044   0.205  -2.427  1.00  0.00    -0.011 NA
HETATM    5  N8  UNL     1      -3.914   0.971  -1.642  1.00  0.00    -0.198 N 
HETATM    6  C9  UNL     1      -4.127   0.516  -0.399  1.00  0.00     0.113 A 
HETATM    7  C10 UNL     1      -3.965  -0.790   0.060  1.00  0.00     0.073 C 
HETATM    8  N9  UNL     1      -2.850  -1.055   0.945  1.00  0.00    -0.339 N 
ATOM      9  H9  UNL     1      -2.574  -1.993   1.235  1.00  0.00     0.167 HD
HETATM   10  C13 UNL     1      -2.182   0.119   1.366  1.00  0.00     0.143 C 
HETATM   11  N10 UNL     1      -2.481   0.878   2.431  1.00  0.00    -0.324 N 
ATOM     12  H10 UNL     1      -1.770   0.926   3.161  1.00  0.00     0.169 HD
HETATM   13  C14 UNL     1      -3.662   1.619   2.664  1.00  0.00     0.149 A 
HETATM   14  C15 UNL     1      -4.401   2.323   3.508  1.00  0.00     0.126 A 
HETATM   15  C16 UNL     1      -5.397   2.656   2.564  1.00  0.00     0.139 A 
HETATM   16  N11 UNL     1      -4.732   1.989   1.700  1.00  0.00    -0.298 N 
HETATM   17  C17 UNL     1      -4.682   1.662   0.357  1.00  0.00     0.110 A 
HETATM   18  C18 UNL     1      -4.801   2.718  -0.519  1.00  0.00     0.166 A 
HETATM   19  C19 UNL     1      -4.309   2.237  -1.741  1.00  0.00     0.301 A 
HETATM   20  O6  UNL     1      -4.274   2.960  -2.764  1.00  0.00    -0.263 OA
HETATM   21  C20 UNL     1      -1.253   0.521   0.494  1.00  0.00     0.139 C 
ENDROOT
BRANCH   1  22
HETATM   22  C2  UNL     1       0.376   0.229  -1.252  1.00  0.00     0.267 C 
HETATM   23  C1  UNL     1       0.609  -0.152  -2.676  1.00  0.00     0.086 C 
BRANCH  22  24
HETATM   24  O1  UNL     1       0.819   1.539  -1.090  1.00  0.00    -0.360 OA
ATOM     25  H1  UNL     1       0.671   1.782  -0.184  1.00  0.00     0.213 HD
ENDBRANCH  22  24
BRANCH  22  26
HETATM   26  N1  UNL     1       1.193  -0.613  -0.429  1.00  0.00    -0.037 N 
ATOM     27  H12 UNL     1       0.966  -0.472   0.555  1.00  0.00     0.281 HD
ATOM     28  H11 UNL     1       0.916  -1.589  -0.537  1.00  0.00     0.281 HD
BRANCH  26  29
HETATM   29  C3  UNL     1       2.593  -0.473  -0.637  1.00  0.00     0.244 C 
BRANCH  29  30
HETATM   30  C4  UNL     1       3.261  -1.487   0.301  1.00  0.00     0.107 C 
BRANCH  30  31
HETATM   31  C5  UNL     1       4.716  -1.418   0.152  1.00  0.00     0.114 A 
HETATM   32  N2  UNL     1       5.778  -2.055   0.677  1.00  0.00    -0.271 N 
HETATM   33  N3  UNL     1       6.600  -1.320  -0.046  1.00  0.00    -0.230 N 
ATOM     34  H2  UNL     1       5.899  -2.804   1.359  1.00  0.00     0.190 HD
HETATM   35  N5  UNL     1       5.557  -0.684  -0.570  1.00  0.00    -0.271 N 
ATOM     36  H5  UNL     1       5.446   0.066  -1.252  1.00  0.00     0.190 HD
BRANCH  33  37
HETATM   37  C6  UNL     1       8.033  -1.216  -0.229  1.00  0.00     0.196 C 
BRANCH  37  38
HETATM   38  C7  UNL     1       8.573  -0.221   0.773  1.00  0.00     0.253 C 
BRANCH  38  39
HETATM   39  N4  UNL     1      10.019  -0.114   0.586  1.00  0.00    -0.078 N 
ATOM     40  H43 UNL     1      10.489  -1.018   0.639  1.00  0.00     0.274 HD
ATOM     41  H42 UNL     1      10.274   0.119  -0.374  1.00  0.00     0.274 HD
ATOM     42  H41 UNL     1      10.383   0.557   1.262  1.00  0.00     0.274 HD
ENDBRANCH  38  39
ENDBRANCH  37  38
ENDBRANCH  33  37
ENDBRANCH  30  31
ENDBRANCH  29  30
ENDBRANCH  26  29
ENDBRANCH  22  26
ENDBRANCH   1  22
BRANCH  21  43
HETATM   43  O7  UNL     1      -0.318   1.443   0.977  1.00  0.00    -0.355 OA
ATOM     44  H7  UNL     1      -0.412   1.709   1.884  1.00  0.00     0.218 HD
ENDBRANCH  21  43
BRANCH   7  45
HETATM   45  C11 UNL     1      -4.789  -1.973  -0.164  1.00  0.00     0.193 C 
BRANCH  45  46
HETATM   46  O2  UNL     1      -4.712  -2.564  -1.406  1.00  0.00    -0.387 OA
ATOM     47  H2  UNL     1      -5.249  -3.334  -1.552  1.00  0.00     0.210 HD
ENDBRANCH  45  46
BRANCH  45  48
HETATM   48  C12 UNL     1      -4.263  -3.046   0.809  1.00  0.00     0.202 C 
BRANCH  48  49
HETATM   49  O3  UNL     1      -5.032  -4.177   0.747  1.00  0.00    -0.398 OA
ATOM     50  H3  UNL     1      -4.708  -4.838   1.347  1.00  0.00     0.209 HD
ENDBRANCH  48  49
ENDBRANCH  45  48
ENDBRANCH   7  45
BRANCH  18  51
HETATM   51  O5  UNL     1      -5.309   3.928  -0.145  1.00  0.00    -0.354 OA
ATOM     52  H5  UNL     1      -5.391   4.656  -0.749  1.00  0.00     0.218 HD
ENDBRANCH  18  51
BRANCH  14  53
HETATM   53  O4  UNL     1      -4.244   2.621   4.845  1.00  0.00    -0.356 OA
ATOM     54  H4  UNL     1      -4.774   3.126   5.450  1.00  0.00     0.218 HD
ENDBRANCH  14  53
TORSDOF 16
