REMARK  13 active torsions:
REMARK  status: ('A' for Active; 'I' for Inactive)
REMARK    1  A    between atoms: C3_9  and  C4_10 
REMARK       I    between atoms: C4_10  and  N3_12 
REMARK    2  A    between atoms: N3_12  and  C5_14 
REMARK    3  A    between atoms: C6_15  and  O2_16 
REMARK    4  A    between atoms: C7_18  and  C8_19 
REMARK    5  A    between atoms: C8_19  and  O3_20 
REMARK    6  A    between atoms: C8_19  and  O4_22 
REMARK    7  A    between atoms: N5_26  and  C9_27 
REMARK    8  A    between atoms: C9_27  and  C10_28 
REMARK    9  A    between atoms: C10_28  and  C11_29 
REMARK   10  A    between atoms: C10_28  and  N6_34 
REMARK   11  A    between atoms: C11_29  and  O5_30 
REMARK   12  A    between atoms: C11_29  and  O6_32 
REMARK   13  A    between atoms: C14_40  and  O9_41 
ROOT
HETATM    1  C5  UNL     1       1.714   1.177   0.117  1.00  0.00     0.141 A 
HETATM    2  C6  UNL     1       1.986   1.405  -1.215  1.00  0.00     0.127 A 
HETATM    3  C7  UNL     1       0.921   1.314  -2.097  1.00  0.00     0.116 A 
HETATM    4  N4  UNL     1      -0.301   1.014  -1.619  1.00  0.00    -0.292 N 
ATOM      5  H4  UNL     1      -1.071   0.952  -2.286  1.00  0.00     0.187 HD
HETATM    6  N5  UNL     1      -0.570   0.795  -0.347  1.00  0.00    -0.253 N 
HETATM    7  C15 UNL     1       0.442   0.876   0.534  1.00  0.00     0.291 A 
HETATM    8  O10 UNL     1       0.267   0.679   1.771  1.00  0.00    -0.264 OA
ENDROOT
BRANCH   6   9
HETATM    9  C9  UNL     1      -1.900   0.502   0.071  1.00  0.00     0.185 C 
BRANCH   9  10
HETATM   10  C10 UNL     1      -2.310  -0.906   0.162  1.00  0.00     0.192 C 
BRANCH  10  11
HETATM   11  C11 UNL     1      -2.247  -1.718  -1.099  1.00  0.00     0.280 C 
BRANCH  11  12
HETATM   12  O5  UNL     1      -1.021  -1.844  -1.682  1.00  0.00    -0.369 OA
ATOM     13  H5  UNL     1      -0.981  -2.358  -2.480  1.00  0.00     0.212 HD
ENDBRANCH  11  12
BRANCH  11  14
HETATM   14  O6  UNL     1      -2.729  -3.017  -0.809  1.00  0.00    -0.369 OA
ATOM     15  H6  UNL     1      -2.689  -3.531  -1.607  1.00  0.00     0.212 HD
ENDBRANCH  11  14
ENDBRANCH  10  11
BRANCH  10  16
HETATM   16  N6  UNL     1      -3.670  -0.996   0.647  1.00  0.00    -0.214 N 
HETATM   17  O7  UNL     1      -4.291  -2.138   0.874  1.00  0.00    -0.189 OA
HETATM   18  C12 UNL     1      -5.489  -1.964   1.300  1.00  0.00     0.334 A 
HETATM   19  O8  UNL     1      -6.323  -2.864   1.602  1.00  0.00    -0.256 OA
HETATM   20  C13 UNL     1      -5.713  -0.622   1.374  1.00  0.00     0.175 A 
HETATM   21  N7  UNL     1      -6.885   0.036   1.790  1.00  0.00    -0.091 NA
HETATM   22  C14 UNL     1      -4.519  -0.031   0.946  1.00  0.00     0.194 A 
BRANCH  22  23
HETATM   23  O9  UNL     1      -4.410   1.351   0.902  1.00  0.00    -0.343 OA
ATOM     24  H9  UNL     1      -5.021   2.046   1.117  1.00  0.00     0.219 HD
ENDBRANCH  22  23
ENDBRANCH  10  16
ENDBRANCH   9  10
ENDBRANCH   6   9
BRANCH   3  25
HETATM   25  C8  UNL     1       1.179   1.554  -3.538  1.00  0.00     0.309 C 
BRANCH  25  26
HETATM   26  O3  UNL     1       0.212   2.378  -4.107  1.00  0.00    -0.366 OA
ATOM     27  H3  UNL     1       0.377   2.532  -5.030  1.00  0.00     0.213 HD
ENDBRANCH  25  26
BRANCH  25  28
HETATM   28  O4  UNL     1       1.280   0.333  -4.200  1.00  0.00    -0.366 OA
ATOM     29  H4  UNL     1       1.445   0.487  -5.123  1.00  0.00     0.213 HD
ENDBRANCH  25  28
ENDBRANCH   3  25
BRANCH   1  30
HETATM   30  N3  UNL     1       2.826   1.273   1.027  1.00  0.00    -0.316 N 
HETATM   31  C4  UNL     1       3.560   0.130   1.283  1.00  0.00     0.261 C 
HETATM   32  O1  UNL     1       3.165  -0.918   0.671  1.00  0.00    -0.267 OA
ATOM     33  H3  UNL     1       3.065   2.160   1.470  1.00  0.00     0.169 HD
BRANCH  31  34
HETATM   34  C3  UNL     1       4.742  -0.007   2.182  1.00  0.00     0.097 A 
HETATM   35  C1  UNL     1       5.233   1.058   2.876  1.00  0.00     0.092 A 
HETATM   36  N1  UNL     1       4.758   2.296   2.852  1.00  0.00    -0.392 N 
HETATM   37  S1  UNL     1       6.599   0.746   3.871  1.00  0.00    -0.033 SA
ATOM     38  H12 UNL     1       5.126   3.093   3.371  1.00  0.00     0.156 HD
ATOM     39  H11 UNL     1       3.947   2.481   2.261  1.00  0.00     0.156 HD
HETATM   40  S2  UNL     1       6.708  -1.245   3.389  1.00  0.00    -0.035 SA
HETATM   41  C2  UNL     1       5.373  -1.218   2.338  1.00  0.00     0.112 A 
HETATM   42  N2  UNL     1       4.948  -2.444   1.650  1.00  0.00    -0.093 NA
ENDBRANCH  31  34
ENDBRANCH   1  30
BRANCH   2  43
HETATM   43  O2  UNL     1       3.278   1.716  -1.675  1.00  0.00    -0.356 OA
ATOM     44  H2  UNL     1       3.465   1.873  -2.593  1.00  0.00     0.218 HD
ENDBRANCH   2  43
TORSDOF 13
