REMARK  15 active torsions:
REMARK  status: ('A' for Active; 'I' for Inactive)
REMARK    1  A    between atoms: N1_1  and  C1_4 
REMARK    2  A    between atoms: C2_10  and  C3_11 
REMARK    3  A    between atoms: C3_11  and  C4_13 
REMARK    4  A    between atoms: C5_15  and  C6_16 
REMARK    5  A    between atoms: C6_16  and  O4_17 
REMARK    6  A    between atoms: C6_16  and  O5_19 
REMARK    7  A    between atoms: C6_16  and  N4_21 
REMARK    8  A    between atoms: N4_21  and  C7_23 
REMARK    9  A    between atoms: C12_31  and  C13_32 
REMARK   10  A    between atoms: C13_32  and  O9_33 
REMARK   11  A    between atoms: C14_35  and  O10_36 
REMARK   12  A    between atoms: C16_40  and  N5_41 
REMARK   13  A    between atoms: N5_41  and  C17_43 
REMARK   14  A    between atoms: C17_43  and  O12_44 
REMARK   15  A    between atoms: C19_49  and  O13_50 
ROOT
HETATM    1  N4  UNL     1       1.040   0.179  -0.803  1.00  0.00    -0.316 N 
ATOM      2  H4  UNL     1       0.920  -0.832  -0.858  1.00  0.00     0.167 HD
ENDROOT
BRANCH   1   3
HETATM    3  C6  UNL     1       2.337   0.722  -1.000  1.00  0.00     0.299 C 
BRANCH   3   4
HETATM    4  C5  UNL     1       3.320  -0.372  -1.270  1.00  0.00     0.141 A 
HETATM    5  O3  UNL     1       4.376  -0.606  -0.533  1.00  0.00    -0.300 OA
HETATM    6  C4  UNL     1       5.077  -1.622  -0.984  1.00  0.00     0.161 A 
HETATM    7  C19 UNL     1       4.422  -2.082  -2.100  1.00  0.00     0.106 A 
HETATM    8  C18 UNL     1       3.295  -1.291  -2.296  1.00  0.00     0.080 A 
BRANCH   6   9
HETATM    9  C3  UNL     1       6.289  -2.096  -0.358  1.00  0.00     0.240 C 
HETATM   10  O2  UNL     1       6.865  -3.104  -0.833  1.00  0.00    -0.283 OA
BRANCH   9  11
HETATM   11  C2  UNL     1       6.892  -1.468   0.808  1.00  0.00     0.154 A 
HETATM   12  C1  UNL     1       7.057  -0.137   1.117  1.00  0.00     0.154 A 
HETATM   13  N2  UNL     1       7.658  -0.077   2.325  1.00  0.00    -0.224 N 
HETATM   14  O1  UNL     1       7.854  -1.277   2.738  1.00  0.00    -0.155 OA
ATOM     15  H2  UNL     1       7.913   0.775   2.824  1.00  0.00     0.198 HD
HETATM   16  N3  UNL     1       7.421  -2.144   1.881  1.00  0.00    -0.234 N 
ATOM     17  H3  UNL     1       7.465  -3.158   1.984  1.00  0.00     0.197 HD
BRANCH  12  18
HETATM   18  N1  UNL     1       6.716   0.877   0.384  1.00  0.00    -0.382 N 
ATOM     19  H12 UNL     1       6.838   1.863   0.613  1.00  0.00     0.157 HD
ATOM     20  H11 UNL     1       6.262   0.832  -0.528  1.00  0.00     0.157 HD
ENDBRANCH  12  18
ENDBRANCH   9  11
ENDBRANCH   6   9
BRANCH   7  21
HETATM   21  O13 UNL     1       4.804  -3.139  -2.894  1.00  0.00    -0.358 OA
ATOM     22  H13 UNL     1       4.351  -3.457  -3.666  1.00  0.00     0.217 HD
ENDBRANCH   7  21
ENDBRANCH   3   4
BRANCH   3  23
HETATM   23  O4  UNL     1       2.752   1.402   0.144  1.00  0.00    -0.343 OA
ATOM     24  H4  UNL     1       2.127   2.097   0.316  1.00  0.00     0.215 HD
ENDBRANCH   3  23
BRANCH   3  25
HETATM   25  O5  UNL     1       2.345   1.534  -2.140  1.00  0.00    -0.343 OA
ATOM     26  H5  UNL     1       1.720   2.229  -1.968  1.00  0.00     0.215 HD
ENDBRANCH   3  25
ENDBRANCH   1   3
BRANCH   1  27
HETATM   27  C7  UNL     1      -0.111   0.994  -0.530  1.00  0.00     0.113 A 
HETATM   28  C8  UNL     1       0.038   2.364  -0.460  1.00  0.00     0.131 A 
HETATM   29  C9  UNL     1      -1.126   3.072  -0.185  1.00  0.00     0.293 A 
HETATM   30  O6  UNL     1      -1.008   4.324  -0.117  1.00  0.00    -0.260 OA
HETATM   31  O7  UNL     1      -2.225   2.429  -0.020  1.00  0.00    -0.255 OA
HETATM   32  C10 UNL     1      -2.446   1.153  -0.070  1.00  0.00     0.189 A 
HETATM   33  C11 UNL     1      -3.693   0.456   0.120  1.00  0.00     0.157 A 
HETATM   34  N6  UNL     1      -1.306   0.423  -0.341  1.00  0.00    -0.320 N 
HETATM   35  O8  UNL     1      -3.652  -0.870   0.064  1.00  0.00    -0.303 OA
HETATM   36  C16 UNL     1      -4.884   1.059   0.353  1.00  0.00     0.122 A 
HETATM   37  C12 UNL     1      -4.691  -1.617   0.222  1.00  0.00     0.114 A 
HETATM   38  C14 UNL     1      -5.930  -1.090   0.462  1.00  0.00     0.150 A 
HETATM   39  C15 UNL     1      -6.043   0.301   0.531  1.00  0.00     0.236 A 
HETATM   40  O11 UNL     1      -7.177   0.746   0.748  1.00  0.00    -0.283 OA
ATOM     41  H6  UNL     1      -1.378  -0.593  -0.399  1.00  0.00     0.169 HD
BRANCH  37  42
HETATM   42  C13 UNL     1      -4.566  -3.092   0.147  1.00  0.00     0.232 C 
BRANCH  42  43
HETATM   43  O9  UNL     1      -3.243  -3.424  -0.106  1.00  0.00    -0.394 OA
ATOM     44  H9  UNL     1      -3.163  -4.369  -0.154  1.00  0.00     0.209 HD
ENDBRANCH  42  43
ENDBRANCH  37  42
BRANCH  38  45
HETATM   45  O10 UNL     1      -7.039  -1.897   0.630  1.00  0.00    -0.355 OA
ATOM     46  H10 UNL     1      -7.900  -1.531   0.797  1.00  0.00     0.218 HD
ENDBRANCH  38  45
BRANCH  36  47
HETATM   47  N5  UNL     1      -5.032   2.470   0.372  1.00  0.00    -0.363 N 
ATOM     48  H5  UNL     1      -4.258   3.022   0.003  1.00  0.00     0.162 HD
BRANCH  47  49
HETATM   49  C17 UNL     1      -6.178   3.196   0.866  1.00  0.00     0.287 C 
BRANCH  49  50
HETATM   50  O12 UNL     1      -6.429   2.978   2.213  1.00  0.00    -0.382 OA
ATOM     51  H12 UNL     1      -7.183   3.456   2.538  1.00  0.00     0.211 HD
ENDBRANCH  49  50
ENDBRANCH  47  49
ENDBRANCH  36  47
ENDBRANCH   1  27
TORSDOF 15
