REMARK  18 active torsions:
REMARK  status: ('A' for Active; 'I' for Inactive)
REMARK    1  A    between atoms: O1_2  and  N1_3 
REMARK    2  A    between atoms: C2_4  and  C3_5 
REMARK    3  A    between atoms: C3_5  and  C4_6 
REMARK    4  A    between atoms: C4_6  and  O2_7 
REMARK    5  A    between atoms: C4_6  and  O3_9 
REMARK    6  A    between atoms: C5_11  and  O4_12 
REMARK    7  A    between atoms: N2_14  and  C6_15 
REMARK    8  A    between atoms: C6_15  and  O5_16 
REMARK    9  A    between atoms: C6_15  and  C7_18 
REMARK   10  A    between atoms: C7_18  and  O6_19 
REMARK   11  A    between atoms: O6_19  and  C8_20 
REMARK   12  A    between atoms: C8_20  and  N4_24 
REMARK   13  A    between atoms: N4_24  and  S1_26 
REMARK   14  A    between atoms: S1_26  and  N5_27 
REMARK   15  A    between atoms: C11_31  and  O8_32 
REMARK   16  A    between atoms: C12_34  and  O9_35 
REMARK   17  A    between atoms: C13_37  and  O10_38 
REMARK   18  A    between atoms: C14_40  and  O11_41 
ROOT
HETATM    1  C8  UNL     1       0.660   0.657   0.130  1.00  0.00     0.224 C 
HETATM    2  N3  UNL     1       0.275   1.834   0.568  1.00  0.00    -0.365 N 
ATOM      3  H31 UNL     1       0.802   2.619   0.185  1.00  0.00     0.159 HD
ATOM      4  H32 UNL     1      -0.492   1.907   1.236  1.00  0.00     0.159 HD
ENDROOT
BRANCH   1   5
HETATM    5  O6  UNL     1      -0.056  -0.408   0.650  1.00  0.00    -0.318 OA
BRANCH   5   6
HETATM    6  C7  UNL     1      -1.483  -0.301   0.850  1.00  0.00     0.233 C 
BRANCH   6   7
HETATM    7  C6  UNL     1      -2.097  -0.065  -0.499  1.00  0.00     0.256 C 
BRANCH   7   8
HETATM    8  N2  UNL     1      -3.507   0.111  -0.384  1.00  0.00    -0.246 N 
HETATM    9  C5  UNL     1      -4.362  -0.714   0.212  1.00  0.00     0.174 A 
HETATM   10  C2  UNL     1      -5.620  -0.162   0.075  1.00  0.00     0.101 A 
HETATM   11  N1  UNL     1      -5.458   0.982  -0.606  1.00  0.00    -0.170 N 
HETATM   12  C17 UNL     1      -4.180   1.182  -0.902  1.00  0.00     0.357 A 
HETATM   13  O13 UNL     1      -3.625   2.124  -1.522  1.00  0.00    -0.244 OA
BRANCH   9  14
HETATM   14  O4  UNL     1      -4.098  -1.914   0.862  1.00  0.00    -0.344 OA
ATOM     15  H4  UNL     1      -3.232  -2.294   0.956  1.00  0.00     0.219 HD
ENDBRANCH   9  14
BRANCH  10  16
HETATM   16  C3  UNL     1      -6.907  -0.705   0.569  1.00  0.00     0.124 C 
BRANCH  16  17
HETATM   17  C4  UNL     1      -7.352  -1.856  -0.338  1.00  0.00     0.259 C 
BRANCH  17  18
HETATM   18  O2  UNL     1      -7.505  -1.364  -1.633  1.00  0.00    -0.371 OA
ATOM     19  H2  UNL     1      -7.781  -2.078  -2.196  1.00  0.00     0.212 HD
ENDBRANCH  17  18
BRANCH  17  20
HETATM   20  O3  UNL     1      -8.597  -2.300   0.146  1.00  0.00    -0.371 OA
ATOM     21  H3  UNL     1      -8.873  -3.014  -0.417  1.00  0.00     0.212 HD
ENDBRANCH  17  20
ENDBRANCH  16  17
ENDBRANCH  10  16
BRANCH  11  22
HETATM   22  O1  UNL     1      -6.472   1.842  -0.955  1.00  0.00    -0.274 OA
HETATM   23  C1  UNL     1      -6.403   3.179  -0.474  1.00  0.00     0.238 C 
ENDBRANCH  11  22
ENDBRANCH   7   8
BRANCH   7  24
HETATM   24  O5  UNL     1      -1.846  -1.138  -1.368  1.00  0.00    -0.374 OA
ATOM     25  H5  UNL     1      -0.906  -1.255  -1.445  1.00  0.00     0.212 HD
ENDBRANCH   7  24
ENDBRANCH   6   7
ENDBRANCH   5   6
ENDBRANCH   1   5
BRANCH   1  26
HETATM   26  N4  UNL     1       1.724   0.556  -0.796  1.00  0.00    -0.278 N 
ATOM     27  H4  UNL     1       1.974   1.370  -1.357  1.00  0.00     0.179 HD
BRANCH  26  28
HETATM   28  S1  UNL     1       2.626  -0.938  -1.003  1.00  0.00     0.083 SA
BRANCH  28  29
HETATM   29  N5  UNL     1       4.324  -0.643  -0.589  1.00  0.00    -0.196 N 
HETATM   30  C9  UNL     1       4.821  -0.330   0.727  1.00  0.00     0.276 A 
HETATM   31  O7  UNL     1       4.061  -0.244   1.726  1.00  0.00    -0.266 OA
HETATM   32  C10 UNL     1       6.266  -0.152   0.648  1.00  0.00     0.088 A 
HETATM   33  C11 UNL     1       7.221   0.153   1.596  1.00  0.00     0.118 A 
HETATM   34  C15 UNL     1       6.682  -0.342  -0.662  1.00  0.00     0.088 A 
HETATM   35  C12 UNL     1       8.568   0.265   1.244  1.00  0.00     0.136 A 
HETATM   36  C13 UNL     1       8.972   0.075  -0.057  1.00  0.00     0.136 A 
HETATM   37  C14 UNL     1       8.022  -0.230  -1.011  1.00  0.00     0.118 A 
HETATM   38  C16 UNL     1       5.468  -0.647  -1.420  1.00  0.00     0.276 A 
HETATM   39  O12 UNL     1       5.448  -0.882  -2.655  1.00  0.00    -0.266 OA
BRANCH  33  40
HETATM   40  O8  UNL     1       6.848   0.349   2.902  1.00  0.00    -0.357 OA
ATOM     41  H8  UNL     1       7.506   0.559   3.555  1.00  0.00     0.217 HD
ENDBRANCH  33  40
BRANCH  35  42
HETATM   42  O9  UNL     1       9.525   0.574   2.228  1.00  0.00    -0.356 OA
ATOM     43  H9  UNL     1      10.441   0.650   1.989  1.00  0.00     0.218 HD
ENDBRANCH  35  42
BRANCH  36  44
HETATM   44  O10 UNL     1      10.327   0.194  -0.384  1.00  0.00    -0.356 OA
ATOM     45  H10 UNL     1      10.606   0.063  -1.283  1.00  0.00     0.218 HD
ENDBRANCH  36  44
BRANCH  37  46
HETATM   46  O11 UNL     1       8.409  -0.422  -2.304  1.00  0.00    -0.357 OA
ATOM     47  H11 UNL     1       7.755  -0.632  -2.961  1.00  0.00     0.217 HD
ENDBRANCH  37  46
ENDBRANCH  28  29
ENDBRANCH  26  28
ENDBRANCH   1  26
TORSDOF 18
