REMARK  7 active torsions:
REMARK  status: ('A' for Active; 'I' for Inactive)
REMARK    1  A    between atoms: C3_6  and  C4_7 
REMARK    2  A    between atoms: C4_7  and  C5_8 
REMARK    3  A    between atoms: C8_11  and  C9_12 
REMARK    4  A    between atoms: C10_13  and  C11_14 
REMARK    5  A    between atoms: C11_14  and  O2_15 
REMARK    6  A    between atoms: O2_15  and  C12_16 
REMARK    7  A    between atoms: C12_16  and  C13_17 
ROOT
HETATM    1  C5  UNL     1      -1.292   1.137  -0.901  1.00  0.00    -0.036 A 
HETATM    2  C6  UNL     1      -0.227   2.050  -0.754  1.00  0.00     0.010 A 
HETATM    3  C7  UNL     1       1.028   1.680  -0.362  1.00  0.00     0.023 A 
HETATM    4  C8  UNL     1       1.240   0.346  -0.102  1.00  0.00     0.045 A 
HETATM    5  C14 UNL     1       0.229  -0.577  -0.235  1.00  0.00     0.068 A 
HETATM    6  N2  UNL     1       0.422  -1.889  -0.008  1.00  0.00    -0.344 N 
ATOM      7  H2  UNL     1       1.342  -2.212   0.291  1.00  0.00     0.167 HD
HETATM    8  C15 UNL     1      -0.570  -2.786  -0.166  1.00  0.00     0.086 A 
HETATM    9  N3  UNL     1      -1.802  -2.454  -0.555  1.00  0.00    -0.303 N 
HETATM   10  C16 UNL     1      -2.030  -1.120  -0.794  1.00  0.00     0.262 A 
HETATM   11  O3  UNL     1      -3.171  -0.853  -1.162  1.00  0.00    -0.267 OA
HETATM   12  C17 UNL     1      -1.054  -0.187  -0.639  1.00  0.00     0.067 A 
HETATM   13  C18 UNL     1      -2.687  -3.604  -0.647  1.00  0.00     0.134 C 
HETATM   14  C19 UNL     1      -1.828  -4.796  -0.447  1.00  0.00     0.028 C 
HETATM   15  C20 UNL     1      -0.530  -4.261   0.054  1.00  0.00     0.078 C 
ENDROOT
BRANCH   1  16
HETATM   16  C4  UNL     1      -2.576   1.696  -1.217  1.00  0.00     0.077 C 
BRANCH  16  17
HETATM   17  C3  UNL     1      -3.383   2.189  -0.029  1.00  0.00    -0.035 A 
HETATM   18  C2  UNL     1      -3.849   1.482   1.164  1.00  0.00     0.159 A 
HETATM   19  N1  UNL     1      -4.561   2.404   1.999  1.00  0.00    -0.352 N 
HETATM   20  C1  UNL     1      -4.546   3.633   1.348  1.00  0.00     0.259 A 
ATOM     21  H1  UNL     1      -4.996   2.198   2.899  1.00  0.00     0.163 HD
HETATM   22  O1  UNL     1      -5.071   4.711   1.748  1.00  0.00    -0.267 OA
HETATM   23  C21 UNL     1      -3.814   3.454   0.115  1.00  0.00     0.082 A 
HETATM   24 BR2  UNL     1      -3.483   4.845  -1.191  1.00  0.00    -0.045 Br
ENDBRANCH  16  17
ENDBRANCH   1  16
BRANCH   4  25
HETATM   25  C9  UNL     1       2.564  -0.078   0.282  1.00  0.00    -0.062 C 
HETATM   26  C10 UNL     1       3.680  -0.429   0.573  1.00  0.00    -0.075 C 
BRANCH  26  27
HETATM   27  C11 UNL     1       5.060  -0.848   0.887  1.00  0.00     0.261 C 
BRANCH  27  28
HETATM   28  O2  UNL     1       5.753   0.168   1.543  1.00  0.00    -0.379 OA
BRANCH  28  29
HETATM   29  C12 UNL     1       5.818   1.323   0.805  1.00  0.00     0.179 C 
BRANCH  29  30
HETATM   30  C13 UNL     1       6.482   1.201  -0.527  1.00  0.00     0.111 C 
HETATM   31 BR1  UNL     1       6.465   2.942  -1.419  1.00  0.00    -0.094 Br
ENDBRANCH  29  30
ENDBRANCH  28  29
ENDBRANCH  27  28
ENDBRANCH  26  27
ENDBRANCH   4  25
TORSDOF 7
