REMARK  8 active torsions:
REMARK  status: ('A' for Active; 'I' for Inactive)
REMARK    1  A    between atoms: C2_2  and  C3_3 
REMARK    2  A    between atoms: C3_3  and  C4_4 
REMARK    3  A    between atoms: C4_4  and  C5_5 
REMARK    4  A    between atoms: C7_7  and  C8_8 
REMARK    5  A    between atoms: C10_12  and  O3_13 
REMARK    6  A    between atoms: C10_12  and  C11_15 
REMARK    7  A    between atoms: C16_20  and  O4_21 
REMARK    8  A    between atoms: C17_23  and  O5_24 
ROOT
HETATM    1  C8  UNL     1      -0.716  -1.077   2.075  1.00  0.00     0.233 C 
HETATM    2  O1  UNL     1      -0.122  -0.369   3.193  1.00  0.00    -0.227 OA
HETATM    3  O2  UNL     1      -0.336   0.916   2.941  1.00  0.00    -0.237 OA
HETATM    4  C9  UNL     1      -1.688   0.977   2.624  1.00  0.00     0.251 C 
HETATM    5  C10 UNL     1      -1.822  -0.199   1.696  1.00  0.00     0.121 C 
ENDROOT
BRANCH   1   6
HETATM    6  C7  UNL     1       0.362  -1.431   1.173  1.00  0.00     0.010 A 
HETATM    7  C6  UNL     1       1.354  -0.585   0.756  1.00  0.00     0.020 A 
HETATM    8  C5  UNL     1       2.472  -1.015   0.045  1.00  0.00    -0.051 A 
HETATM    9  C19 UNL     1       2.585  -2.368  -0.258  1.00  0.00    -0.053 A 
HETATM   10  C18 UNL     1       1.613  -3.235   0.147  1.00  0.00     0.044 A 
HETATM   11  C20 UNL     1       3.792  -2.880  -0.999  1.00  0.00     0.049 C 
HETATM   12  C17 UNL     1       0.507  -2.787   0.856  1.00  0.00     0.075 A 
BRANCH   8  13
HETATM   13  C4  UNL     1       3.604  -0.169  -0.367  1.00  0.00     0.039 C 
BRANCH  13  14
HETATM   14  C3  UNL     1       3.570   0.567  -1.631  1.00  0.00     0.004 C 
BRANCH  14  15
HETATM   15  C2  UNL     1       2.530   1.674  -1.620  1.00  0.00    -0.004 C 
HETATM   16  C1  UNL     1       2.806   2.725  -0.542  1.00  0.00     0.005 C 
ENDBRANCH  14  15
ENDBRANCH  13  14
ENDBRANCH   8  13
BRANCH  12  17
HETATM   17  O5  UNL     1      -0.458  -3.722   1.240  1.00  0.00    -0.360 OA
ATOM     18  H5  UNL     1      -0.360  -4.642   1.025  1.00  0.00     0.217 HD
ENDBRANCH  12  17
ENDBRANCH   1   6
BRANCH   5  19
HETATM   19  O3  UNL     1      -3.068  -0.812   2.153  1.00  0.00    -0.384 OA
ATOM     20  H3  UNL     1      -3.787  -0.242   1.907  1.00  0.00     0.210 HD
ENDBRANCH   5  19
BRANCH   5  21
HETATM   21  C11 UNL     1      -2.091   0.157   0.293  1.00  0.00     0.054 C 
HETATM   22  C12 UNL     1      -1.349   1.252  -0.359  1.00  0.00     0.010 C 
HETATM   23  C13 UNL     1      -2.223   2.451  -0.706  1.00  0.00     0.001 C 
HETATM   24  C14 UNL     1      -3.570   2.120  -1.239  1.00  0.00     0.002 C 
HETATM   25  C15 UNL     1      -3.813   0.655  -1.404  1.00  0.00     0.032 C 
HETATM   26  C16 UNL     1      -3.560   0.050  -0.013  1.00  0.00     0.125 C 
BRANCH  26  27
HETATM   27  O4  UNL     1      -4.000  -1.275  -0.041  1.00  0.00    -0.395 OA
ATOM     28  H4  UNL     1      -4.928  -1.343  -0.234  1.00  0.00     0.210 HD
ENDBRANCH  26  27
ENDBRANCH   5  21
TORSDOF 8
