REMARK  10 active torsions:
REMARK  status: ('A' for Active; 'I' for Inactive)
REMARK    1  A    between atoms: O1_2  and  N1_3 
REMARK    2  A    between atoms: C4_8  and  C5_9 
REMARK    3  A    between atoms: C5_9  and  O2_10 
REMARK    4  A    between atoms: O2_10  and  C6_11 
REMARK    5  A    between atoms: C6_11  and  C7_13 
REMARK    6  A    between atoms: C8_14  and  C9_15 
REMARK    7  A    between atoms: C11_17  and  O4_18 
REMARK    8  A    between atoms: N2_25  and  N3_27 
REMARK       I    between atoms: N3_27  and  C16_29 
REMARK    9  A    between atoms: C16_29  and  C17_31 
REMARK   10  A    between atoms: C19_36  and  N5_37 
ROOT
HETATM    1  N1  UNL     1      -1.400  -2.366  -0.644  1.00  0.00    -0.274 N 
ATOM      2  H1  UNL     1      -2.077  -1.806  -1.162  1.00  0.00     0.193 HD
HETATM    3  C2  UNL     1      -0.830  -1.873   0.390  1.00  0.00     0.029 C 
HETATM    4  C3  UNL     1       0.170  -2.712   1.147  1.00  0.00     0.130 C 
HETATM    5  S1  UNL     1       1.762  -1.820   0.901  1.00  0.00    -0.151 SA
HETATM    6  C4  UNL     1       1.320  -0.083   0.785  1.00  0.00     0.032 C 
HETATM    7  C13 UNL     1       1.106   0.272  -0.653  1.00  0.00     0.028 C 
HETATM    8  C14 UNL     1      -0.161   1.009  -0.934  1.00  0.00     0.056 C 
HETATM    9  C15 UNL     1      -1.355   0.433  -0.267  1.00  0.00     0.013 C 
HETATM   10  N2  UNL     1      -2.533   0.723  -0.659  1.00  0.00    -0.305 N 
ATOM     11  H2  UNL     1      -2.630   1.363  -1.447  1.00  0.00     0.186 HD
HETATM   12  C21 UNL     1      -1.119  -0.490   0.869  1.00  0.00     0.083 C 
HETATM   13  C22 UNL     1       0.064   0.112   1.618  1.00  0.00     0.039 C 
ENDROOT
BRANCH  10  14
HETATM   14  N3  UNL     1      -3.705   0.217  -0.075  1.00  0.00    -0.266 N 
HETATM   15  C16 UNL     1      -4.900   0.909  -0.293  1.00  0.00     0.278 C 
HETATM   16  O6  UNL     1      -4.810   1.973  -1.031  1.00  0.00    -0.266 OA
ATOM     17  H3  UNL     1      -3.685  -0.631   0.492  1.00  0.00     0.190 HD
BRANCH  15  18
HETATM   18  C17 UNL     1      -6.199   0.542   0.226  1.00  0.00     0.141 A 
HETATM   19  C18 UNL     1      -7.317   1.323  -0.122  1.00  0.00     0.140 A 
HETATM   20 CL1  UNL     1      -7.058   2.693  -1.168  1.00  0.00    -0.063 Cl
HETATM   21  N4  UNL     1      -8.550   1.045   0.324  1.00  0.00    -0.180 N 
HETATM   22  C19 UNL     1      -8.795   0.001   1.131  1.00  0.00     0.679 A 
ATOM     23  H4  UNL     1      -9.325   1.645   0.042  1.00  0.00     0.185 HD
HETATM   24  N6  UNL     1      -7.746  -0.752   1.470  1.00  0.00    -0.155 N 
HETATM   25  C20 UNL     1      -6.469  -0.515   1.047  1.00  0.00     0.278 A 
ATOM     26  H6  UNL     1      -7.908  -1.552   2.081  1.00  0.00     0.187 HD
HETATM   27  O7  UNL     1      -5.546  -1.282   1.422  1.00  0.00    -0.266 OA
BRANCH  22  28
HETATM   28  N5  UNL     1      -9.979  -0.267   1.558  1.00  0.00    -0.234 N 
ATOM     29  H52 UNL     1     -10.780   0.308   1.299  1.00  0.00     0.174 HD
ATOM     30  H51 UNL     1     -10.165  -1.060   2.171  1.00  0.00     0.174 HD
ENDBRANCH  22  28
ENDBRANCH  15  18
ENDBRANCH  10  14
BRANCH   6  31
HETATM   31  C5  UNL     1       2.378   0.783   1.403  1.00  0.00     0.199 C 
BRANCH  31  32
HETATM   32  O2  UNL     1       3.634   0.798   0.919  1.00  0.00    -0.317 OA
BRANCH  32  33
HETATM   33  C6  UNL     1       4.687  -0.026   0.796  1.00  0.00     0.282 C 
HETATM   34  O3  UNL     1       4.586  -1.192   1.244  1.00  0.00    -0.260 OA
BRANCH  33  35
HETATM   35  C7  UNL     1       5.962   0.367   0.158  1.00  0.00     0.085 C 
HETATM   36  C8  UNL     1       6.100   1.583  -0.318  1.00  0.00     0.043 C 
BRANCH  36  37
HETATM   37  C9  UNL     1       7.348   2.016  -0.959  1.00  0.00     0.077 A 
HETATM   38  C10 UNL     1       8.471   1.254  -1.141  1.00  0.00     0.075 A 
HETATM   39  C11 UNL     1       9.396   2.064  -1.785  1.00  0.00     0.090 A 
HETATM   40  C12 UNL     1       8.779   3.276  -1.959  1.00  0.00     0.179 A 
HETATM   41  O5  UNL     1       7.581   3.206  -1.461  1.00  0.00    -0.320 OA
BRANCH  39  42
HETATM   42  O4  UNL     1      10.689   1.670  -2.161  1.00  0.00    -0.359 OA
ATOM     43  H4  UNL     1      11.322   2.224  -2.602  1.00  0.00     0.217 HD
ENDBRANCH  39  42
ENDBRANCH  36  37
ENDBRANCH  33  35
ENDBRANCH  32  33
ENDBRANCH  31  32
ENDBRANCH   6  31
BRANCH   1  44
HETATM   44  O1  UNL     1      -1.114  -3.622  -1.057  1.00  0.00    -0.285 OA
HETATM   45  C1  UNL     1      -2.050  -4.411  -1.791  1.00  0.00     0.237 C 
ENDBRANCH   1  44
TORSDOF 10
