REMARK  12 active torsions:
REMARK  status: ('A' for Active; 'I' for Inactive)
REMARK    1  A    between atoms: C2_2  and  C3_7 
REMARK    2  A    between atoms: N1_3  and  O1_5 
REMARK    3  A    between atoms: C3_7  and  O2_8 
REMARK    4  A    between atoms: C3_7  and  C21_39 
REMARK    5  A    between atoms: O2_8  and  C4_9 
REMARK    6  A    between atoms: C4_9  and  C6_11 
REMARK    7  A    between atoms: C6_11  and  C7_12 
REMARK    8  A    between atoms: C8_13  and  O3_14 
REMARK    9  A    between atoms: C8_13  and  C9_16 
REMARK   10  A    between atoms: C13_22  and  C14_23 
REMARK   11  A    between atoms: N3_26  and  N4_28 
REMARK   12  A    between atoms: C23_42  and  N8_43 
ROOT
HETATM    1  C14 UNL     1       5.212  -2.301   1.936  1.00  0.00     0.141 C 
HETATM    2  C15 UNL     1       4.642  -3.281   2.909  1.00  0.00     0.120 C 
HETATM    3  N2  UNL     1       4.184  -4.026   3.656  1.00  0.00    -0.190 NA
HETATM    4  N3  UNL     1       6.380  -2.366   1.757  1.00  0.00    -0.288 N 
ATOM      5  H3  UNL     1       6.625  -3.134   2.382  1.00  0.00     0.188 HD
ENDROOT
BRANCH   1   6
HETATM    6  C13 UNL     1       4.236  -1.409   1.353  1.00  0.00     0.045 A 
HETATM    7  C12 UNL     1       4.567  -0.430   0.431  1.00  0.00     0.147 A 
HETATM    8  C11 UNL     1       3.586   0.387  -0.091  1.00  0.00     0.050 A 
HETATM    9  F1  UNL     1       5.812  -0.241   0.021  1.00  0.00    -0.204 F 
HETATM   10  S1  UNL     1       3.785   1.777  -1.197  1.00  0.00    -0.125 SA
HETATM   11  C19 UNL     1       2.362   0.184   0.325  1.00  0.00     0.011 A 
HETATM   12  C10 UNL     1       2.249   2.729  -1.064  1.00  0.00     0.093 C 
HETATM   13  C9  UNL     1       1.207   2.220  -0.090  1.00  0.00     0.079 C 
HETATM   14  C20 UNL     1       1.092   0.748  -0.068  1.00  0.00     0.130 C 
HETATM   15  N7  UNL     1       0.605  -0.081   0.984  1.00  0.00    -0.380 N 
HETATM   16  C18 UNL     1       1.897  -0.701   1.201  1.00  0.00     0.039 A 
ATOM     17  H7  UNL     1      -0.310  -0.195   1.421  1.00  0.00     0.160 HD
HETATM   18  C17 UNL     1       2.865  -1.521   1.726  1.00  0.00     0.047 A 
BRANCH  13  19
HETATM   19  C8  UNL     1      -0.079   2.846  -0.491  1.00  0.00     0.046 C 
HETATM   20  C7  UNL     1      -1.141   2.141  -0.774  1.00  0.00     0.008 C 
BRANCH  20  21
HETATM   21  C6  UNL     1      -2.414   2.742  -1.169  1.00  0.00     0.061 C 
BRANCH  21  22
HETATM   22  C4  UNL     1      -3.562   2.409  -0.239  1.00  0.00     0.122 C 
HETATM   23  C5  UNL     1      -3.298   2.938   1.155  1.00  0.00     0.040 C 
BRANCH  22  24
HETATM   24  O2  UNL     1      -3.813   1.071  -0.149  1.00  0.00    -0.369 OA
BRANCH  24  25
HETATM   25  C3  UNL     1      -5.088   0.694  -0.555  1.00  0.00     0.219 C 
BRANCH  25  26
HETATM   26  C2  UNL     1      -5.856   0.017   0.522  1.00  0.00     0.040 C 
HETATM   27  C1  UNL     1      -5.290  -1.192   1.166  1.00  0.00     0.068 C 
HETATM   28  N1  UNL     1      -7.000   0.441   0.922  1.00  0.00    -0.275 N 
ATOM     29  H1  UNL     1      -7.410   1.272   0.495  1.00  0.00     0.193 HD
BRANCH  28  30
HETATM   30  O1  UNL     1      -7.672  -0.215   1.917  1.00  0.00    -0.290 OA
ATOM     31  H1  UNL     1      -8.518   0.099   2.213  1.00  0.00     0.244 HD
ENDBRANCH  28  30
ENDBRANCH  25  26
BRANCH  25  32
HETATM   32  C21 UNL     1      -4.859  -0.265  -1.708  1.00  0.00     0.052 A 
HETATM   33  C22 UNL     1      -5.592  -0.170  -2.852  1.00  0.00     0.081 A 
HETATM   34  S2  UNL     1      -4.957  -1.441  -3.795  1.00  0.00    -0.064 SA
HETATM   35  C23 UNL     1      -3.802  -2.016  -2.687  1.00  0.00     0.142 A 
HETATM   36  N9  UNL     1      -3.948  -1.212  -1.636  1.00  0.00    -0.337 N 
ATOM     37  H9  UNL     1      -3.372  -1.326  -0.802  1.00  0.00     0.168 HD
BRANCH  35  38
HETATM   38  N8  UNL     1      -2.961  -3.018  -2.828  1.00  0.00    -0.380 N 
ATOM     39  H82 UNL     1      -2.849  -3.634  -3.633  1.00  0.00     0.158 HD
ATOM     40  H81 UNL     1      -2.268  -3.363  -2.163  1.00  0.00     0.158 HD
ENDBRANCH  35  38
ENDBRANCH  25  32
ENDBRANCH  24  25
ENDBRANCH  22  24
ENDBRANCH  21  22
ENDBRANCH  20  21
BRANCH  19  41
HETATM   41  O3  UNL     1      -0.167   4.231  -0.570  1.00  0.00    -0.365 OA
ATOM     42  H3  UNL     1       0.606   4.744  -0.364  1.00  0.00     0.217 HD
ENDBRANCH  19  41
ENDBRANCH  13  19
ENDBRANCH   1   6
BRANCH   4  43
HETATM   43  N4  UNL     1       7.527  -2.079   1.273  1.00  0.00    -0.275 N 
HETATM   44  C16 UNL     1       8.367  -2.889   0.716  1.00  0.00     0.215 C 
HETATM   45  N5  UNL     1       9.623  -2.476   0.206  1.00  0.00    -0.065 NA
HETATM   46  N6  UNL     1       7.981  -4.262   0.625  1.00  0.00    -0.065 NA
ATOM     47  H4  UNL     1       7.812  -1.101   1.333  1.00  0.00     0.189 HD
ENDBRANCH   4  43
TORSDOF 12
