REMARK  10 active torsions:
REMARK  status: ('A' for Active; 'I' for Inactive)
REMARK    1  A    between atoms: O1_2  and  C2_3 
REMARK    2  A    between atoms: C3_4  and  C4_5 
REMARK    3  A    between atoms: C4_5  and  C5_6 
REMARK    4  A    between atoms: C6_7  and  O2_8 
REMARK    5  A    between atoms: C14_30  and  C15_31 
REMARK    6  A    between atoms: N5_33  and  O5_35 
REMARK    7  A    between atoms: O5_35  and  C17_36 
REMARK    8  A    between atoms: C17_36  and  C18_37 
REMARK    9  A    between atoms: C18_37  and  N6_38 
REMARK   10  A    between atoms: C19_42  and  O6_43 
ROOT
HETATM    1  C2  UNL     1      -2.801  -1.337  -0.259  1.00  0.00     0.099 A 
HETATM    2  C3  UNL     1      -2.306  -1.007   0.954  1.00  0.00    -0.017 A 
HETATM    3  C9  UNL     1      -1.194  -0.190   1.011  1.00  0.00     0.026 A 
HETATM    4  C10 UNL     1      -0.531   0.362  -0.096  1.00  0.00     0.024 A 
HETATM    5  C11 UNL     1       0.490   1.353   0.040  1.00  0.00     0.044 C 
HETATM    6  N3  UNL     1      -0.163   2.683   0.075  1.00  0.00    -0.325 N 
ATOM      7  H3  UNL     1      -0.770   3.090  -0.637  1.00  0.00     0.174 HD
HETATM    8  S2  UNL     1       0.337   3.436   1.640  1.00  0.00     0.031 SA
HETATM    9  C12 UNL     1       2.145   3.081   1.636  1.00  0.00     0.252 C 
HETATM   10  O4  UNL     1       2.895   3.341   2.575  1.00  0.00    -0.277 OA
HETATM   11  C13 UNL     1       2.610   2.472   0.409  1.00  0.00     0.078 C 
HETATM   12  N4  UNL     1       3.713   2.925  -0.087  1.00  0.00    -0.398 N 
ATOM     13  H41 UNL     1       4.041   2.496  -0.952  1.00  0.00     0.156 HD
ATOM     14  H42 UNL     1       4.214   3.694   0.358  1.00  0.00     0.156 HD
HETATM   15  C14 UNL     1       1.855   1.313  -0.262  1.00  0.00     0.138 C 
HETATM   16  C19 UNL     1      -1.097   0.016  -1.344  1.00  0.00     0.104 A 
HETATM   17  C21 UNL     1      -2.205  -0.824  -1.439  1.00  0.00     0.102 A 
HETATM   18 CL1  UNL     1      -2.926  -1.293  -2.962  1.00  0.00    -0.078 Cl
ENDROOT
BRANCH  16  19
HETATM   19  O6  UNL     1      -0.668   0.451  -2.542  1.00  0.00    -0.353 OA
HETATM   20  C20 UNL     1       0.121  -0.078  -3.522  1.00  0.00     0.210 C 
ENDBRANCH  16  19
BRANCH   2  21
HETATM   21  C4  UNL     1      -3.184  -1.202   2.215  1.00  0.00     0.090 C 
BRANCH  21  22
HETATM   22  C5  UNL     1      -4.265  -0.137   1.899  1.00  0.00     0.065 A 
HETATM   23  C6  UNL     1      -5.466  -0.444   1.329  1.00  0.00     0.154 A 
HETATM   24  N1  UNL     1      -6.277   0.478   0.765  1.00  0.00    -0.313 N 
HETATM   25  C7  UNL     1      -5.922   1.772   0.763  1.00  0.00     0.180 A 
ATOM     26  H1  UNL     1      -7.159   0.190   0.341  1.00  0.00     0.170 HD
HETATM   27  S1  UNL     1      -6.846   2.911   0.030  1.00  0.00    -0.040 SA
HETATM   28  N2  UNL     1      -4.760   2.115   1.320  1.00  0.00    -0.299 N 
HETATM   29  C8  UNL     1      -3.907   1.201   1.896  1.00  0.00     0.258 A 
ATOM     30  H2  UNL     1      -4.491   3.099   1.319  1.00  0.00     0.171 HD
HETATM   31  O3  UNL     1      -2.868   1.654   2.393  1.00  0.00    -0.267 OA
BRANCH  23  32
HETATM   32  O2  UNL     1      -5.953  -1.759   1.315  1.00  0.00    -0.345 OA
ATOM     33  H2  UNL     1      -6.789  -1.973   0.918  1.00  0.00     0.219 HD
ENDBRANCH  23  32
ENDBRANCH  21  22
ENDBRANCH   2  21
BRANCH  15  34
HETATM   34  C15 UNL     1       2.780   0.199  -0.070  1.00  0.00     0.022 C 
HETATM   35  C16 UNL     1       2.960  -0.870  -1.080  1.00  0.00     0.066 C 
HETATM   36  N5  UNL     1       3.490   0.145   0.960  1.00  0.00    -0.274 N 
ATOM     37  H5  UNL     1       3.239   0.976   1.495  1.00  0.00     0.193 HD
BRANCH  36  38
HETATM   38  O5  UNL     1       4.383  -0.449   1.673  1.00  0.00    -0.279 OA
BRANCH  38  39
HETATM   39  C17 UNL     1       5.481  -1.157   0.980  1.00  0.00     0.228 C 
BRANCH  39  40
HETATM   40  C18 UNL     1       6.740  -0.423   1.453  1.00  0.00     0.258 C 
BRANCH  40  41
HETATM   41  N6  UNL     1       7.918  -0.879   0.873  1.00  0.00    -0.077 N 
ATOM     42  H63 UNL     1       8.018  -1.885   1.012  1.00  0.00     0.274 HD
ATOM     43  H62 UNL     1       7.849  -0.850  -0.144  1.00  0.00     0.274 HD
ATOM     44  H61 UNL     1       8.756  -0.390   1.188  1.00  0.00     0.274 HD
ENDBRANCH  40  41
ENDBRANCH  39  40
ENDBRANCH  38  39
ENDBRANCH  36  38
ENDBRANCH  15  34
BRANCH   1  45
HETATM   45  O1  UNL     1      -3.878  -2.196  -0.458  1.00  0.00    -0.354 OA
HETATM   46  C1  UNL     1      -3.494  -3.568  -0.573  1.00  0.00     0.210 C 
ENDBRANCH   1  45
TORSDOF 10
