REMARK  11 active torsions:
REMARK  status: ('A' for Active; 'I' for Inactive)
REMARK    1  A    between atoms: N1_1  and  C1_4 
REMARK    2  A    between atoms: C3_9  and  N4_10 
REMARK    3  A    between atoms: N5_13  and  N6_14 
REMARK    4  A    between atoms: N7_16  and  C6_18 
REMARK    5  A    between atoms: C7_19  and  O1_20 
REMARK    6  A    between atoms: O1_20  and  C8_21 
REMARK    7  A    between atoms: C8_21  and  C9_22 
REMARK    8  A    between atoms: C9_22  and  C10_23 
REMARK    9  A    between atoms: C10_23  and  S1_24 
REMARK   10  A    between atoms: C14_32  and  C15_33 
REMARK   11  A    between atoms: C19_40  and  N9_41 
ROOT
HETATM    1  N6  UNL     1       0.346  -0.417  -0.516  1.00  0.00    -0.244 N 
ATOM      2  H6  UNL     1       0.708   0.308   0.104  1.00  0.00     0.208 HD
HETATM    3  N7  UNL     1       0.956  -1.528  -0.540  1.00  0.00    -0.282 N 
ATOM      4  H7  UNL     1       0.609  -2.264  -1.154  1.00  0.00     0.188 HD
ENDROOT
BRANCH   1   5
HETATM    5  N5  UNL     1      -0.768  -0.117  -1.265  1.00  0.00    -0.310 N 
HETATM    6  C5  UNL     1      -1.210   1.261  -1.295  1.00  0.00     0.163 C 
HETATM    7  C4  UNL     1      -2.674   1.297  -1.597  1.00  0.00     0.144 C 
HETATM    8  N4  UNL     1      -3.324   0.162  -0.981  1.00  0.00    -0.372 N 
HETATM    9  C18 UNL     1      -2.937  -1.166  -1.433  1.00  0.00     0.144 C 
HETATM   10  C17 UNL     1      -1.523  -1.096  -2.023  1.00  0.00     0.163 C 
BRANCH   8  11
HETATM   11  C3  UNL     1      -4.304   0.368   0.018  1.00  0.00     0.117 A 
HETATM   12  C2  UNL     1      -4.012   0.438   1.354  1.00  0.00     0.162 A 
HETATM   13  N2  UNL     1      -5.021   0.644   2.254  1.00  0.00    -0.177 N 
HETATM   14  N3  UNL     1      -2.689   0.300   1.846  1.00  0.00    -0.080 NA
HETATM   15  C1  UNL     1      -6.304   0.780   1.854  1.00  0.00     0.678 A 
ATOM     16  H2  UNL     1      -4.800   0.696   3.248  1.00  0.00     0.185 HD
HETATM   17  N10 UNL     1      -6.605   0.713   0.546  1.00  0.00    -0.175 N 
HETATM   18  C19 UNL     1      -5.619   0.510  -0.359  1.00  0.00     0.145 A 
ATOM     19  H10 UNL     1      -7.572   0.815   0.237  1.00  0.00     0.186 HD
BRANCH  15  20
HETATM   20  N1  UNL     1      -7.248   0.977   2.735  1.00  0.00    -0.234 N 
ATOM     21  H12 UNL     1      -7.020   1.028   3.728  1.00  0.00     0.174 HD
ATOM     22  H11 UNL     1      -8.217   1.080   2.433  1.00  0.00     0.174 HD
ENDBRANCH  15  20
BRANCH  18  23
HETATM   23  N9  UNL     1      -5.939   0.452  -1.596  1.00  0.00    -0.383 N 
ATOM     24  H92 UNL     1      -5.196   0.299  -2.278  1.00  0.00     0.157 HD
ATOM     25  H91 UNL     1      -6.914   0.557  -1.876  1.00  0.00     0.157 HD
ENDBRANCH  18  23
ENDBRANCH   8  11
ENDBRANCH   1   5
BRANCH   3  26
HETATM   26  C6  UNL     1       2.100  -1.787   0.252  1.00  0.00     0.110 A 
HETATM   27  C7  UNL     1       2.925  -0.724   0.581  1.00  0.00     0.099 A 
HETATM   28  C11 UNL     1       4.060  -0.853   1.346  1.00  0.00     0.040 A 
HETATM   29  C12 UNL     1       4.362  -2.131   1.791  1.00  0.00     0.024 A 
HETATM   30  C13 UNL     1       3.539  -3.207   1.465  1.00  0.00     0.036 A 
HETATM   31  S2  UNL     1       3.537  -4.899   1.794  1.00  0.00    -0.073 SA
HETATM   32  C16 UNL     1       2.411  -3.076   0.707  1.00  0.00     0.081 A 
HETATM   33  C14 UNL     1       2.116  -5.316   0.951  1.00  0.00     0.066 A 
HETATM   34  N8  UNL     1       1.717  -4.165   0.468  1.00  0.00    -0.350 N 
ATOM     35  H8  UNL     1       0.867  -4.115  -0.094  1.00  0.00     0.166 HD
BRANCH  27  36
HETATM   36  O1  UNL     1       2.585   0.530   0.121  1.00  0.00    -0.349 OA
BRANCH  36  37
HETATM   37  C8  UNL     1       3.186   1.745   0.244  1.00  0.00     0.176 C 
BRANCH  37  38
HETATM   38  C9  UNL     1       4.519   1.940  -0.397  1.00  0.00     0.044 C 
BRANCH  38  39
HETATM   39  C10 UNL     1       5.155   3.270  -0.196  1.00  0.00     0.167 C 
BRANCH  39  40
HETATM   40  S1  UNL     1       4.289   4.661  -0.786  1.00  0.00     0.101 S 
HETATM   41  O2  UNL     1       4.061   4.625  -2.260  1.00  0.00    -0.595 OA
HETATM   42  O3  UNL     1       2.984   4.841  -0.036  1.00  0.00    -0.595 OA
HETATM   43  O4  UNL     1       5.273   6.019  -0.442  1.00  0.00    -0.595 OA
ENDBRANCH  39  40
ENDBRANCH  38  39
ENDBRANCH  37  38
ENDBRANCH  36  37
ENDBRANCH  27  36
BRANCH  33  44
HETATM   44  C15 UNL     1       1.411  -6.629   0.749  1.00  0.00     0.179 C 
HETATM   45 CL1  UNL     1       2.097  -7.339  -0.730  1.00  0.00    -0.123 Cl
ENDBRANCH  33  44
ENDBRANCH   3  26
TORSDOF 11
