REMARK  14 active torsions:
REMARK  status: ('A' for Active; 'I' for Inactive)
REMARK    1  A    between atoms: N1_1  and  C1_5 
REMARK    2  A    between atoms: C1_5  and  C2_6 
REMARK    3  A    between atoms: C2_6  and  C3_7 
REMARK    4  A    between atoms: C3_7  and  C4_8 
REMARK    5  A    between atoms: C4_8  and  C5_9 
REMARK    6  A    between atoms: C7_11  and  N2_12 
REMARK    7  A    between atoms: C8_14  and  C9_16 
REMARK    8  A    between atoms: C9_16  and  C10_17 
REMARK    9  A    between atoms: C16_25  and  C17_26 
REMARK   10  A    between atoms: C17_26  and  O3_27 
REMARK   11  A    between atoms: N4_29  and  O4_31 
REMARK   12  A    between atoms: C22_38  and  C23_39 
REMARK   13  A    between atoms: C24_42  and  O7_43 
REMARK   14  A    between atoms: N5_45  and  O8_46 
ROOT
HETATM    1  C5  UNL     1       0.588  -1.261  -0.132  1.00  0.00     0.174 C 
HETATM    2  C6  UNL     1       0.674   0.153  -0.739  1.00  0.00     0.087 C 
HETATM    3  C7  UNL     1       1.812   0.782  -0.636  1.00  0.00     0.123 C 
HETATM    4  O2  UNL     1      -0.382   0.712  -1.345  1.00  0.00    -0.352 OA
HETATM    5  C14 UNL     1      -1.309   0.358  -2.287  1.00  0.00     0.176 C 
HETATM    6  C15 UNL     1      -2.701   0.917  -2.116  1.00  0.00     0.039 C 
HETATM    7  C16 UNL     1      -2.906   1.815  -0.954  1.00  0.00     0.064 C 
HETATM    8  C18 UNL     1      -4.122   1.479  -0.087  1.00  0.00     0.013 C 
HETATM    9  C19 UNL     1      -3.864   1.643   1.364  1.00  0.00     0.011 C 
HETATM   10  C20 UNL     1      -4.287   0.611   2.318  1.00  0.00     0.074 C 
HETATM   11  S1  UNL     1      -4.260  -1.086   1.941  1.00  0.00    -0.168 SA
HETATM   12  C21 UNL     1      -3.257  -2.208   2.898  1.00  0.00     0.097 C 
HETATM   13  C22 UNL     1      -2.190  -2.924   2.008  1.00  0.00     0.172 C 
HETATM   14  C24 UNL     1      -1.734  -1.959   0.971  1.00  0.00     0.153 C 
HETATM   15  N5  UNL     1      -0.636  -1.220   0.697  1.00  0.00    -0.230 N 
ENDROOT
BRANCH   1  16
HETATM   16  C4  UNL     1       1.781  -1.468   0.769  1.00  0.00     0.035 C 
BRANCH  16  17
HETATM   17  C3  UNL     1       1.899  -2.812   1.401  1.00  0.00     0.004 C 
BRANCH  17  18
HETATM   18  C2  UNL     1       2.299  -3.958   0.581  1.00  0.00     0.027 C 
BRANCH  18  19
HETATM   19  C1  UNL     1       1.576  -4.434  -0.595  1.00  0.00     0.229 C 
BRANCH  19  20
HETATM   20  N1  UNL     1       0.223  -4.859  -0.423  1.00  0.00    -0.079 N 
ATOM     21  H13 UNL     1       0.187  -5.574   0.304  1.00  0.00     0.274 HD
ATOM     22  H12 UNL     1      -0.310  -4.109   0.016  1.00  0.00     0.274 HD
ATOM     23  H11 UNL     1      -0.282  -5.191  -1.244  1.00  0.00     0.274 HD
ENDBRANCH  19  20
ENDBRANCH  18  19
ENDBRANCH  17  18
ENDBRANCH  16  17
ENDBRANCH   1  16
BRANCH   3  24
HETATM   24  N2  UNL     1       2.025   2.104  -1.159  1.00  0.00    -0.355 N 
HETATM   25  C8  UNL     1       3.117   2.623  -1.503  1.00  0.00     0.099 C 
HETATM   26  N3  UNL     1       3.078   3.959  -1.997  1.00  0.00    -0.087 NA
ATOM     27  H2  UNL     1       1.195   2.688  -1.263  1.00  0.00     0.166 HD
BRANCH  25  28
HETATM   28  C9  UNL     1       4.455   1.960  -1.433  1.00  0.00     0.138 C 
BRANCH  28  29
HETATM   29  C10 UNL     1       5.348   2.673  -0.473  1.00  0.00     0.059 A 
HETATM   30  C11 UNL     1       6.206   3.692  -0.817  1.00  0.00     0.035 A 
HETATM   31  C12 UNL     1       6.847   4.076   0.363  1.00  0.00     0.027 A 
HETATM   32  C13 UNL     1       6.339   3.268   1.346  1.00  0.00     0.142 A 
HETATM   33  O1  UNL     1       5.457   2.456   0.803  1.00  0.00    -0.327 OA
ENDBRANCH  28  29
ENDBRANCH  25  28
ENDBRANCH   3  24
BRANCH  15  34
HETATM   34  O8  UNL     1      -0.576   0.056   1.351  1.00  0.00    -0.285 OA
ATOM     35  H8  UNL     1      -1.362   0.082   1.884  1.00  0.00     0.245 HD
ENDBRANCH  15  34
BRANCH  14  36
HETATM   36  O7  UNL     1      -2.724  -1.834   0.129  1.00  0.00    -0.347 OA
ATOM     37  H7  UNL     1      -2.433  -1.218  -0.533  1.00  0.00     0.219 HD
ENDBRANCH  14  36
BRANCH  13  38
HETATM   38  C23 UNL     1      -2.928  -4.030   1.380  1.00  0.00     0.185 C 
HETATM   39  O5  UNL     1      -3.109  -4.078   0.154  1.00  0.00    -0.647 OA
HETATM   40  O6  UNL     1      -3.439  -5.054   2.203  1.00  0.00    -0.647 OA
ENDBRANCH  13  38
BRANCH   7  41
HETATM   41  C17 UNL     1      -3.084   3.214  -1.378  1.00  0.00     0.139 C 
HETATM   42  N4  UNL     1      -2.643   3.697  -2.437  1.00  0.00    -0.251 N 
ATOM     43  H4  UNL     1      -2.887   4.684  -2.525  1.00  0.00     0.196 HD
BRANCH  41  44
HETATM   44  O3  UNL     1      -3.801   4.119  -0.543  1.00  0.00    -0.348 OA
ATOM     45  H3  UNL     1      -3.916   5.021  -0.817  1.00  0.00     0.219 HD
ENDBRANCH  41  44
BRANCH  42  46
HETATM   46  O4  UNL     1      -1.945   3.279  -3.478  1.00  0.00    -0.288 OA
ATOM     47  H4  UNL     1      -1.608   3.648  -4.286  1.00  0.00     0.244 HD
ENDBRANCH  42  46
ENDBRANCH   7  41
TORSDOF 14
