REMARK  14 active torsions:
REMARK  status: ('A' for Active; 'I' for Inactive)
REMARK    1  A    between atoms: O1_2  and  C2_3 
REMARK    2  A    between atoms: C2_3  and  C3_5 
REMARK    3  A    between atoms: C3_5  and  N1_6 
REMARK    4  A    between atoms: C3_5  and  C19_37 
REMARK    5  A    between atoms: N1_6  and  C4_7 
REMARK    6  A    between atoms: C4_7  and  C5_8 
REMARK    7  A    between atoms: C4_7  and  C13_28 
REMARK       I    between atoms: C5_8  and  N2_10 
REMARK    8  A    between atoms: N2_10  and  C6_12 
REMARK    9  A    between atoms: C6_12  and  C7_13 
REMARK   10  A    between atoms: C6_12  and  C10_25 
REMARK   11  A    between atoms: C8_16  and  N4_17 
REMARK   12  A    between atoms: C9_21  and  N5_22 
REMARK   13  A    between atoms: C16_31  and  O6_32 
REMARK   14  A    between atoms: C21_40  and  N6_41 
ROOT
HETATM    1  C4  UNL     1       1.008  -1.266   0.436  1.00  0.00     0.288 C 
ENDROOT
BRANCH   1   2
HETATM    2  N1  UNL     1       1.741  -0.163   0.316  1.00  0.00    -0.420 NA
BRANCH   2   3
HETATM    3  C3  UNL     1       2.482   0.795   0.479  1.00  0.00     0.203 C 
BRANCH   3   4
HETATM    4  C2  UNL     1       2.703   1.728  -0.645  1.00  0.00     0.325 C 
HETATM    5  O2  UNL     1       3.431   2.703  -0.566  1.00  0.00    -0.256 OA
BRANCH   4   6
HETATM    6  O1  UNL     1       2.042   1.473  -1.859  1.00  0.00    -0.321 OA
HETATM    7  C1  UNL     1       2.268   2.370  -2.919  1.00  0.00     0.213 C 
ENDBRANCH   4   6
ENDBRANCH   3   4
BRANCH   3   8
HETATM    8  C19 UNL     1       3.204   1.061   1.770  1.00  0.00     0.087 A 
HETATM    9  C20 UNL     1       4.019   2.133   1.947  1.00  0.00     0.086 A 
HETATM   10  S2  UNL     1       4.579   1.911   3.576  1.00  0.00    -0.064 SA
HETATM   11  C21 UNL     1       3.740   0.481   3.910  1.00  0.00     0.142 A 
HETATM   12  N7  UNL     1       3.079   0.235   2.787  1.00  0.00    -0.334 N 
ATOM     13  H7  UNL     1       2.479  -0.587   2.712  1.00  0.00     0.168 HD
BRANCH  11  14
HETATM   14  N6  UNL     1       3.721  -0.259   5.010  1.00  0.00    -0.380 N 
ATOM     15  H62 UNL     1       4.229  -0.070   5.874  1.00  0.00     0.158 HD
ATOM     16  H61 UNL     1       3.215  -1.121   5.211  1.00  0.00     0.158 HD
ENDBRANCH  11  14
ENDBRANCH   3   8
ENDBRANCH   2   3
ENDBRANCH   1   2
BRANCH   1  17
HETATM   17  C5  UNL     1      -0.507  -1.049   0.234  1.00  0.00     0.258 C 
HETATM   18  O3  UNL     1      -1.130  -2.108   0.310  1.00  0.00    -0.270 OA
HETATM   19  N2  UNL     1      -1.009   0.201   0.005  1.00  0.00    -0.348 N 
ATOM     20  H2  UNL     1      -0.299   0.933   0.008  1.00  0.00     0.163 HD
BRANCH  19  21
HETATM   21  C6  UNL     1      -2.351   0.694  -0.241  1.00  0.00     0.141 C 
BRANCH  21  22
HETATM   22  C7  UNL     1      -2.719   1.824   0.664  1.00  0.00     0.075 A 
HETATM   23  N3  UNL     1      -3.453   1.630   1.744  1.00  0.00    -0.336 N 
HETATM   24  C8  UNL     1      -3.686   2.652   2.554  1.00  0.00     0.144 A 
ATOM     25  H3  UNL     1      -3.835   0.707   1.952  1.00  0.00     0.168 HD
HETATM   26  S1  UNL     1      -2.869   3.942   1.818  1.00  0.00    -0.028 SA
HETATM   27  C9  UNL     1      -2.240   3.087   0.450  1.00  0.00     0.171 A 
BRANCH  24  28
HETATM   28  N4  UNL     1      -4.376   2.703   3.667  1.00  0.00    -0.380 N 
ATOM     29  H42 UNL     1      -4.868   1.927   4.110  1.00  0.00     0.158 HD
ATOM     30  H41 UNL     1      -4.555   3.490   4.291  1.00  0.00     0.158 HD
ENDBRANCH  24  28
BRANCH  27  31
HETATM   31  N5  UNL     1      -1.486   3.664  -0.613  1.00  0.00    -0.106 N 
HETATM   32  O4  UNL     1      -1.155   4.874  -0.534  1.00  0.00    -0.531 OA
HETATM   33  O5  UNL     1      -1.081   3.009  -1.733  1.00  0.00    -0.531 OA
ENDBRANCH  27  31
ENDBRANCH  21  22
BRANCH  21  34
HETATM   34  C10 UNL     1      -3.404  -0.422  -0.221  1.00  0.00     0.006 C 
HETATM   35  C11 UNL     1      -4.790   0.198  -0.377  1.00  0.00     0.012 C 
HETATM   36  C12 UNL     1      -3.253  -1.248  -1.521  1.00  0.00     0.012 C 
ENDBRANCH  21  34
ENDBRANCH  19  21
ENDBRANCH   1  17
BRANCH   1  37
HETATM   37  C13 UNL     1       1.390  -2.406  -0.491  1.00  0.00    -0.012 A 
HETATM   38  C14 UNL     1       1.600  -3.639   0.044  1.00  0.00     0.013 A 
HETATM   39  C15 UNL     1       1.945  -4.724  -0.766  1.00  0.00     0.039 A 
HETATM   40  C16 UNL     1       2.071  -4.544  -2.110  1.00  0.00     0.087 A 
HETATM   41  C17 UNL     1       1.861  -3.299  -2.674  1.00  0.00     0.067 A 
HETATM   42 CL1  UNL     1       1.999  -2.977  -4.377  1.00  0.00    -0.081 Cl
HETATM   43  C18 UNL     1       1.519  -2.232  -1.847  1.00  0.00     0.037 A 
BRANCH  40  44
HETATM   44  O6  UNL     1       2.415  -5.594  -2.974  1.00  0.00    -0.359 OA
ATOM     45  H6  UNL     1       2.503  -5.468  -3.912  1.00  0.00     0.217 HD
ENDBRANCH  40  44
ENDBRANCH   1  37
TORSDOF 14
