REMARK  5 active torsions:
REMARK  status: ('A' for Active; 'I' for Inactive)
REMARK    1  A    between atoms: C2_2  and  C3_3 
REMARK    2  A    between atoms: C3_3  and  C4_4 
REMARK    3  A    between atoms: C3_3  and  C11_11 
REMARK    4  A    between atoms: C4_4  and  C5_5 
REMARK    5  A    between atoms: C15_15  and  C16_16 
ROOT
HETATM    1  C11 UNL     1      -0.190  -1.588  -0.819  1.00  0.00    -0.050 A 
HETATM    2  C12 UNL     1       0.253  -2.283  -1.927  1.00  0.00     0.008 A 
HETATM    3  C13 UNL     1       1.445  -1.986  -2.557  1.00  0.00     0.002 A 
HETATM    4  C14 UNL     1       2.228  -0.967  -2.073  1.00  0.00     0.014 A 
HETATM    5  C15 UNL     1       1.829  -0.226  -0.949  1.00  0.00    -0.009 A 
HETATM    6  C21 UNL     1       0.635  -0.571  -0.371  1.00  0.00     0.021 A 
ENDROOT
BRANCH   1   7
HETATM    7  C3  UNL     1      -1.471  -1.923  -0.148  1.00  0.00     0.041 C 
BRANCH   7   8
HETATM    8  C2  UNL     1      -1.273  -2.237   1.312  1.00  0.00     0.009 C 
HETATM    9  C1  UNL     1      -0.070  -3.132   1.540  1.00  0.00     0.006 C 
ENDBRANCH   7   8
BRANCH   7  10
HETATM   10  C4  UNL     1      -2.614  -1.060  -0.462  1.00  0.00    -0.006 C 
BRANCH  10  11
HETATM   11  C5  UNL     1      -2.760   0.270   0.044  1.00  0.00    -0.039 A 
HETATM   12  C6  UNL     1      -2.246   1.312  -0.712  1.00  0.00     0.011 A 
HETATM   13  C7  UNL     1      -2.341   2.624  -0.303  1.00  0.00     0.001 A 
HETATM   14  C8  UNL     1      -2.956   2.952   0.887  1.00  0.00     0.000 A 
HETATM   15  C9  UNL     1      -3.460   1.913   1.626  1.00  0.00     0.001 A 
HETATM   16  C10 UNL     1      -3.374   0.605   1.233  1.00  0.00     0.011 A 
ENDBRANCH  10  11
ENDBRANCH   7  10
ENDBRANCH   1   7
BRANCH   5  17
HETATM   17  C16 UNL     1       2.693   0.852  -0.467  1.00  0.00     0.042 A 
HETATM   18  C17 UNL     1       2.376   1.620   0.620  1.00  0.00     0.030 A 
HETATM   19  C18 UNL     1       3.199   2.644   1.075  1.00  0.00     0.004 A 
HETATM   20  C19 UNL     1       4.376   2.895   0.410  1.00  0.00     0.017 A 
HETATM   21  C20 UNL     1       4.681   2.111  -0.685  1.00  0.00     0.088 A 
HETATM   22  N1  UNL     1       3.858   1.128  -1.096  1.00  0.00    -0.365 N 
ATOM     23  H1  UNL     1       4.122   0.572  -1.910  1.00  0.00     0.165 HD
ENDBRANCH   5  17
TORSDOF 5
