REMARK  11 active torsions:
REMARK  status: ('A' for Active; 'I' for Inactive)
REMARK    1  A    between atoms: O1_2  and  C2_3 
REMARK    2  A    between atoms: C2_3  and  C4_5 
REMARK       I    between atoms: C4_5  and  N1_7 
REMARK    3  A    between atoms: N1_7  and  C5_9 
REMARK    4  A    between atoms: C8_13  and  O4_14 
REMARK    5  A    between atoms: O4_14  and  C9_15 
REMARK    6  A    between atoms: C12_18  and  O5_19 
REMARK    7  A    between atoms: O5_19  and  C13_20 
REMARK    8  A    between atoms: C17_27  and  O6_28 
REMARK    9  A    between atoms: C18_30  and  N3_31 
REMARK   10  A    between atoms: C20_36  and  N4_37 
REMARK   11  A    between atoms: C21_41  and  O7_42 
ROOT
HETATM    1  C9  UNL     1      -0.670  -1.187   0.080  1.00  0.00     0.155 C 
HETATM    2  C10 UNL     1      -1.149   0.195  -0.304  1.00  0.00     0.036 C 
HETATM    3  C11 UNL     1      -0.916   0.551  -1.730  1.00  0.00     0.036 C 
HETATM    4  C12 UNL     1      -2.075   0.073  -2.603  1.00  0.00     0.154 C 
HETATM    5  C18 UNL     1      -1.847  -1.328  -3.089  1.00  0.00     0.214 C 
HETATM    6  C19 UNL     1      -0.895  -2.108  -2.267  1.00  0.00     0.070 C 
HETATM    7  C20 UNL     1      -1.087  -2.257  -0.837  1.00  0.00     0.214 C 
ENDROOT
BRANCH   1   8
HETATM    8  O4  UNL     1       0.720  -1.162   0.159  1.00  0.00    -0.351 OA
BRANCH   8   9
HETATM    9  C8  UNL     1       1.185  -1.298   1.463  1.00  0.00     0.291 C 
HETATM   10  O3  UNL     1       2.026  -2.357   1.543  1.00  0.00    -0.352 OA
HETATM   11  C6  UNL     1       3.076  -2.062   2.364  1.00  0.00     0.146 C 
HETATM   12  C5  UNL     1       3.155  -0.600   2.581  1.00  0.00     0.146 C 
HETATM   13  C7  UNL     1       2.890  -2.863   3.655  1.00  0.00     0.042 C 
HETATM   14  C21 UNL     1       1.908  -0.068   1.933  1.00  0.00     0.198 C 
BRANCH  12  15
HETATM   15  N1  UNL     1       4.294   0.008   1.906  1.00  0.00    -0.349 N 
HETATM   16  C4  UNL     1       5.107   0.972   2.545  1.00  0.00     0.246 C 
HETATM   17  O2  UNL     1       4.842   1.320   3.724  1.00  0.00    -0.271 OA
ATOM     18  H1  UNL     1       4.510  -0.269   0.948  1.00  0.00     0.163 HD
BRANCH  16  19
HETATM   19  C2  UNL     1       6.261   1.571   1.840  1.00  0.00     0.208 C 
HETATM   20  C3  UNL     1       7.256   0.457   1.550  1.00  0.00     0.049 C 
BRANCH  19  21
HETATM   21  O1  UNL     1       6.834   2.528   2.677  1.00  0.00    -0.382 OA
HETATM   22  C1  UNL     1       6.852   3.785   2.072  1.00  0.00     0.202 C 
ENDBRANCH  19  21
ENDBRANCH  16  19
ENDBRANCH  12  15
BRANCH  14  23
HETATM   23  O7  UNL     1       2.268   0.750   0.869  1.00  0.00    -0.388 OA
ATOM     24  H7  UNL     1       1.480   1.086   0.459  1.00  0.00     0.210 HD
ENDBRANCH  14  23
ENDBRANCH   8   9
ENDBRANCH   1   8
BRANCH   7  25
HETATM   25  N4  UNL     1      -2.506  -2.537  -0.544  1.00  0.00    -0.072 N 
ATOM     26  H43 UNL     1      -2.679  -2.757   0.437  1.00  0.00     0.274 HD
ATOM     27  H42 UNL     1      -3.099  -1.709  -0.596  1.00  0.00     0.274 HD
ATOM     28  H41 UNL     1      -2.795  -3.280  -1.180  1.00  0.00     0.274 HD
ENDBRANCH   7  25
BRANCH   4  29
HETATM   29  O5  UNL     1      -3.207   0.247  -1.835  1.00  0.00    -0.350 OA
BRANCH  29  30
HETATM   30  C13 UNL     1      -4.076   1.228  -2.251  1.00  0.00     0.350 C 
HETATM   31  N2  UNL     1      -4.092   2.377  -1.364  1.00  0.00    -0.046 N 
HETATM   32  C14 UNL     1      -4.912   1.950  -0.205  1.00  0.00     0.235 C 
ATOM     33  H22 UNL     1      -3.165   2.719  -1.112  1.00  0.00     0.280 HD
ATOM     34  H21 UNL     1      -4.416   3.237  -1.806  1.00  0.00     0.280 HD
HETATM   35  C15 UNL     1      -6.377   1.979  -0.631  1.00  0.00     0.030 C 
HETATM   36  C16 UNL     1      -6.423   1.903  -2.176  1.00  0.00     0.038 C 
HETATM   37  C17 UNL     1      -5.459   0.791  -2.531  1.00  0.00     0.174 C 
BRANCH  37  38
HETATM   38  O6  UNL     1      -5.860  -0.286  -1.694  1.00  0.00    -0.391 OA
ATOM     39  H6  UNL     1      -6.749  -0.567  -1.874  1.00  0.00     0.210 HD
ENDBRANCH  37  38
ENDBRANCH  29  30
ENDBRANCH   4  29
BRANCH   5  40
HETATM   40  N3  UNL     1      -3.066  -2.009  -3.443  1.00  0.00    -0.072 N 
ATOM     41  H33 UNL     1      -3.728  -1.997  -2.667  1.00  0.00     0.274 HD
ATOM     42  H32 UNL     1      -3.599  -1.470  -4.126  1.00  0.00     0.274 HD
ATOM     43  H31 UNL     1      -2.911  -2.961  -3.773  1.00  0.00     0.274 HD
ENDBRANCH   5  40
TORSDOF 11
