REMARK  9 active torsions:
REMARK  status: ('A' for Active; 'I' for Inactive)
REMARK       I    between atoms: C1_2  and  N2_4 
REMARK    1  A    between atoms: N2_4  and  C2_6 
REMARK    2  A    between atoms: C6_10  and  S1_11 
REMARK    3  A    between atoms: S1_11  and  C7_12 
REMARK    4  A    between atoms: C8_13  and  O2_14 
REMARK    5  A    between atoms: C9_16  and  N3_17 
REMARK    6  A    between atoms: C11_22  and  O3_23 
REMARK    7  A    between atoms: O3_23  and  S2_24 
REMARK    8  A    between atoms: C12_28  and  O7_29 
REMARK    9  A    between atoms: O7_29  and  S3_30 
ROOT
HETATM    1  C7  UNL     1      -0.542  -0.904  -0.342  1.00  0.00     0.111 C 
HETATM    2  C8  UNL     1      -0.385  -0.872  -1.807  1.00  0.00     0.165 C 
HETATM    3  C9  UNL     1      -1.576  -1.087  -2.643  1.00  0.00     0.215 C 
HETATM    4  C10 UNL     1      -2.904  -1.012  -1.964  1.00  0.00     0.071 C 
HETATM    5  C11 UNL     1      -2.774   0.079  -0.895  1.00  0.00     0.178 C 
HETATM    6  C12 UNL     1      -1.913  -0.599   0.182  1.00  0.00     0.192 C 
ENDROOT
BRANCH   1   7
HETATM    7  S1  UNL     1       0.643   0.220   0.455  1.00  0.00    -0.152 SA
BRANCH   7   8
HETATM    8  C6  UNL     1       2.318  -0.411   0.178  1.00  0.00     0.070 C 
HETATM    9  C2  UNL     1       3.364   0.459   0.807  1.00  0.00     0.099 C 
HETATM   10  C3  UNL     1       2.970   0.414   2.260  1.00  0.00     0.026 C 
HETATM   11  C4  UNL     1       2.704  -1.070   2.460  1.00  0.00     0.003 C 
HETATM   12  C5  UNL     1       2.446  -1.653   1.075  1.00  0.00     0.017 C 
BRANCH   9  13
HETATM   13  N2  UNL     1       3.475   1.780   0.261  1.00  0.00    -0.340 N 
HETATM   14  C1  UNL     1       4.651   2.327  -0.289  1.00  0.00     0.329 C 
HETATM   15  N1  UNL     1       4.659   3.640  -0.802  1.00  0.00    -0.040 NA
HETATM   16  O1  UNL     1       5.685   1.628  -0.314  1.00  0.00    -0.251 OA
ATOM     17  H2  UNL     1       2.641   2.367   0.272  1.00  0.00     0.164 HD
ENDBRANCH   9  13
ENDBRANCH   7   8
ENDBRANCH   1   7
BRANCH   2  18
HETATM   18  O2  UNL     1       0.593  -1.820  -2.183  1.00  0.00    -0.392 OA
ATOM     19  H2  UNL     1       0.694  -1.799  -3.127  1.00  0.00     0.210 HD
ENDBRANCH   2  18
BRANCH   6  20
HETATM   20  O7  UNL     1      -1.913   0.137   1.365  1.00  0.00    -0.248 OA
BRANCH  20  21
HETATM   21  S3  UNL     1      -2.705  -0.641   2.606  1.00  0.00     0.252 S 
HETATM   22  O8  UNL     1      -3.671  -1.665   2.128  1.00  0.00    -0.572 OA
HETATM   23  O9  UNL     1      -3.493   0.340   3.462  1.00  0.00    -0.572 OA
HETATM   24  O10 UNL     1      -1.571  -1.433   3.577  1.00  0.00    -0.572 OA
ENDBRANCH  20  21
ENDBRANCH   6  20
BRANCH   3  25
HETATM   25  N3  UNL     1      -1.539  -2.391  -3.331  1.00  0.00    -0.072 N 
ATOM     26  H33 UNL     1      -0.682  -2.500  -3.873  1.00  0.00     0.274 HD
ATOM     27  H32 UNL     1      -1.409  -3.156  -2.669  1.00  0.00     0.274 HD
ATOM     28  H31 UNL     1      -2.365  -2.540  -3.911  1.00  0.00     0.274 HD
ENDBRANCH   3  25
BRANCH   5  29
HETATM   29  O3  UNL     1      -4.010   0.345  -0.346  1.00  0.00    -0.249 OA
BRANCH  29  30
HETATM   30  S2  UNL     1      -4.393   1.968  -0.421  1.00  0.00     0.252 S 
HETATM   31  O4  UNL     1      -5.783   2.188   0.094  1.00  0.00    -0.572 OA
HETATM   32  O5  UNL     1      -4.255   2.511  -1.814  1.00  0.00    -0.572 OA
HETATM   33  O6  UNL     1      -3.346   2.874   0.557  1.00  0.00    -0.572 OA
ENDBRANCH  29  30
ENDBRANCH   5  29
TORSDOF 9
