REMARK  16 active torsions:
REMARK  status: ('A' for Active; 'I' for Inactive)
REMARK    1  A    between atoms: O1_2  and  C2_3 
REMARK    2  A    between atoms: C3_5  and  C4_6 
REMARK    3  A    between atoms: C4_6  and  O3_7 
REMARK    4  A    between atoms: C6_13  and  N2_14 
REMARK    5  A    between atoms: N2_14  and  C7_17 
REMARK    6  A    between atoms: C7_17  and  C8_18 
REMARK    7  A    between atoms: C7_17  and  C17_47 
REMARK    8  A    between atoms: N3_19  and  C9_21 
REMARK    9  A    between atoms: C9_21  and  C10_22 
REMARK   10  A    between atoms: N4_23  and  C11_25 
REMARK   11  A    between atoms: C11_25  and  C12_27 
REMARK   12  A    between atoms: C14_31  and  N7_32 
REMARK   13  A    between atoms: C15_37  and  N9_38 
REMARK   14  A    between atoms: N9_38  and  N10_40 
REMARK   15  A    between atoms: C17_47  and  C18_48 
REMARK   16  A    between atoms: C18_48  and  N12_49 
ROOT
HETATM    1  C8  UNL     1      -1.363   0.585  -0.055  1.00  0.00     0.093 C 
HETATM    2  N3  UNL     1      -0.509   0.177   0.790  1.00  0.00    -0.376 N 
ATOM      3  H3  UNL     1      -0.652   0.469   1.757  1.00  0.00     0.164 HD
ENDROOT
BRANCH   2   4
HETATM    4  C9  UNL     1       0.604  -0.627   0.543  1.00  0.00     0.104 C 
BRANCH   4   5
HETATM    5  C10 UNL     1       1.374  -0.302  -0.729  1.00  0.00     0.106 C 
HETATM    6  N4  UNL     1       1.847   0.976  -0.788  1.00  0.00    -0.351 N 
ATOM      7  H4  UNL     1       1.045   1.593  -0.916  1.00  0.00     0.166 HD
BRANCH   6   8
HETATM    8  C11 UNL     1       2.836   1.670  -0.749  1.00  0.00     0.150 C 
HETATM    9  N5  UNL     1       2.766   3.122  -0.876  1.00  0.00    -0.080 NA
BRANCH   8  10
HETATM   10  C12 UNL     1       4.199   1.156  -0.544  1.00  0.00     0.118 A 
HETATM   11  N6  UNL     1       4.645  -0.063  -0.354  1.00  0.00    -0.343 N 
HETATM   12  C13 UNL     1       5.916  -0.288  -0.192  1.00  0.00     0.112 A 
ATOM     13  H6  UNL     1       3.988  -0.843  -0.333  1.00  0.00     0.167 HD
HETATM   14  C14 UNL     1       6.538  -1.535   0.036  1.00  0.00     0.144 A 
HETATM   15  C16 UNL     1       6.762   0.782  -0.228  1.00  0.00     0.123 A 
HETATM   16  N8  UNL     1       7.855  -1.572   0.193  1.00  0.00    -0.173 N 
HETATM   17  C15 UNL     1       8.688  -0.534   0.159  1.00  0.00     0.699 A 
ATOM     18  H8  UNL     1       8.271  -2.489   0.356  1.00  0.00     0.186 HD
HETATM   19  N11 UNL     1       8.123   0.676  -0.059  1.00  0.00    -0.181 N 
ATOM     20  H11 UNL     1       8.707   1.511  -0.098  1.00  0.00     0.185 HD
HETATM   21  S1  UNL     1       5.671   2.077  -0.497  1.00  0.00    -0.048 SA
BRANCH  14  22
HETATM   22  N7  UNL     1       5.857  -2.627   0.095  1.00  0.00    -0.383 N 
ATOM     23  H72 UNL     1       4.845  -2.599  -0.026  1.00  0.00     0.157 HD
ATOM     24  H71 UNL     1       6.306  -3.528   0.260  1.00  0.00     0.157 HD
ENDBRANCH  14  22
BRANCH  17  25
HETATM   25  N9  UNL     1       9.965  -0.585   0.325  1.00  0.00    -0.138 N 
ATOM     26  H9  UNL     1      10.496   0.284   0.271  1.00  0.00     0.205 HD
BRANCH  25  27
HETATM   27  N10 UNL     1      10.661  -1.777   0.576  1.00  0.00    -0.331 N 
ATOM     28 2H10 UNL     1      10.114  -2.637   0.626  1.00  0.00     0.177 HD
ATOM     29 1H10 UNL     1      11.672  -1.817   0.707  1.00  0.00     0.177 HD
ENDBRANCH  25  27
ENDBRANCH  17  25
ENDBRANCH   8  10
ENDBRANCH   6   8
ENDBRANCH   4   5
ENDBRANCH   2   4
BRANCH   1  30
HETATM   30  C7  UNL     1      -2.515   1.444   0.303  1.00  0.00     0.226 C 
BRANCH  30  31
HETATM   31  N2  UNL     1      -3.673   0.763   0.783  1.00  0.00    -0.049 N 
ATOM     32  H22 UNL     1      -4.328   1.421   1.206  1.00  0.00     0.279 HD
ATOM     33  H21 UNL     1      -3.445   0.199   1.602  1.00  0.00     0.279 HD
BRANCH  31  34
HETATM   34  C6  UNL     1      -4.334  -0.039  -0.218  1.00  0.00     0.332 C 
HETATM   35  C2  UNL     1      -4.793  -1.330   0.356  1.00  0.00     0.301 C 
HETATM   36  O2  UNL     1      -5.498  -2.021  -0.665  1.00  0.00    -0.332 OA
HETATM   37  C3  UNL     1      -6.788  -1.486  -0.696  1.00  0.00     0.250 C 
HETATM   38  N1  UNL     1      -6.706  -0.050  -1.013  1.00  0.00    -0.331 N 
HETATM   39  C5  UNL     1      -5.549   0.701  -0.729  1.00  0.00     0.255 C 
ATOM     40  H1  UNL     1      -7.505   0.411  -1.448  1.00  0.00     0.165 HD
HETATM   41  O4  UNL     1      -5.523   1.958  -0.893  1.00  0.00    -0.271 OA
BRANCH  35  42
HETATM   42  O1  UNL     1      -3.839  -2.135   0.917  1.00  0.00    -0.363 OA
HETATM   43  C1  UNL     1      -4.140  -2.541   2.208  1.00  0.00     0.204 C 
ENDBRANCH  35  42
BRANCH  37  44
HETATM   44  C4  UNL     1      -7.587  -2.221  -1.740  1.00  0.00     0.217 C 
BRANCH  44  45
HETATM   45  O3  UNL     1      -7.655  -3.583  -1.418  1.00  0.00    -0.397 OA
ATOM     46  H3  UNL     1      -8.159  -4.047  -2.076  1.00  0.00     0.209 HD
ENDBRANCH  44  45
ENDBRANCH  37  44
ENDBRANCH  31  34
ENDBRANCH  30  31
BRANCH  30  47
HETATM   47  C17 UNL     1      -2.104   2.492   1.314  1.00  0.00     0.065 C 
BRANCH  47  48
HETATM   48  C18 UNL     1      -0.883   3.272   0.860  1.00  0.00     0.232 C 
BRANCH  48  49
HETATM   49  N12 UNL     1      -1.107   3.934  -0.410  1.00  0.00    -0.079 N 
ATOM     50 3H12 UNL     1      -1.412   3.273  -1.124  1.00  0.00     0.274 HD
ATOM     51 2H12 UNL     1      -1.936   4.528  -0.378  1.00  0.00     0.274 HD
ATOM     52 1H12 UNL     1      -0.287   4.458  -0.715  1.00  0.00     0.274 HD
ENDBRANCH  48  49
ENDBRANCH  47  48
ENDBRANCH  30  47
ENDBRANCH   1  30
TORSDOF 16
