REMARK  14 active torsions:
REMARK  status: ('A' for Active; 'I' for Inactive)
REMARK       I    between atoms: C1_4  and  N3_6 
REMARK    1  A    between atoms: N3_6  and  C2_7 
REMARK    2  A    between atoms: N5_11  and  C4_12 
REMARK    3  A    between atoms: C4_12  and  C5_13 
REMARK    4  A    between atoms: N6_15  and  C7_16 
REMARK    5  A    between atoms: C7_16  and  C8_17 
REMARK    6  A    between atoms: C8_17  and  O1_18 
REMARK    7  A    between atoms: O1_18  and  C9_19 
REMARK    8  A    between atoms: C9_19  and  C10_20 
REMARK    9  A    between atoms: C10_20  and  N7_21 
REMARK   10  A    between atoms: C10_20  and  C11_25 
REMARK   11  A    between atoms: C11_25  and  O2_26 
REMARK   12  A    between atoms: C11_25  and  C12_28 
REMARK       I    between atoms: C12_28  and  N8_30 
REMARK       I    between atoms: N8_30  and  C13_32 
REMARK   13  A    between atoms: C13_32  and  C14_34 
REMARK   14  A    between atoms: C17_40  and  N10_41 
ROOT
HETATM    1  C10 UNL     1       2.423   1.178   0.323  1.00  0.00     0.244 C 
ENDROOT
BRANCH   1   2
HETATM    2  C9  UNL     1       1.749   2.037   1.410  1.00  0.00     0.203 C 
BRANCH   2   3
HETATM    3  O1  UNL     1       0.520   1.931   1.568  1.00  0.00    -0.387 OA
BRANCH   3   4
HETATM    4  C8  UNL     1      -0.701   1.825   1.724  1.00  0.00     0.189 C 
BRANCH   4   5
HETATM    5  C7  UNL     1      -1.357   0.977   0.604  1.00  0.00     0.175 C 
BRANCH   5   6
HETATM    6  N6  UNL     1      -2.788   0.902   0.835  1.00  0.00    -0.285 N 
HETATM    7  C6  UNL     1      -3.539  -0.002   1.476  1.00  0.00     0.140 A 
HETATM    8  C5  UNL     1      -4.848   0.396   1.459  1.00  0.00     0.064 A 
HETATM    9  N13 UNL     1      -4.862   1.581   0.781  1.00  0.00    -0.287 N 
HETATM   10  N12 UNL     1      -3.634   1.857   0.423  1.00  0.00    -0.241 N 
ATOM     11  H13 UNL     1      -5.685   2.151   0.587  1.00  0.00     0.188 HD
ATOM     12  H12 UNL     1      -3.357   2.688  -0.100  1.00  0.00     0.208 HD
BRANCH   8  13
HETATM   13  C4  UNL     1      -6.083  -0.259   1.990  1.00  0.00     0.210 C 
BRANCH  13  14
HETATM   14  N5  UNL     1      -6.962  -0.566   0.823  1.00  0.00    -0.279 N 
HETATM   15  C3  UNL     1      -7.001  -1.675   0.086  1.00  0.00     0.204 A 
HETATM   16  N4  UNL     1      -7.920  -1.539  -0.866  1.00  0.00    -0.310 N 
HETATM   17  C2  UNL     1      -8.491  -0.309  -0.740  1.00  0.00     0.278 A 
ATOM     18  H4  UNL     1      -8.157  -2.237  -1.571  1.00  0.00     0.170 HD
HETATM   19  N14 UNL     1      -7.851   0.264   0.342  1.00  0.00    -0.256 N 
ATOM     20  H14 UNL     1      -8.043   1.195   0.711  1.00  0.00     0.191 HD
BRANCH  17  21
HETATM   21  N3  UNL     1      -9.349   0.156  -1.424  1.00  0.00    -0.337 NA
HETATM   22  C1  UNL     1     -10.285   0.636  -2.184  1.00  0.00     0.264 C 
HETATM   23  N1  UNL     1     -10.625   1.917  -2.174  1.00  0.00    -0.362 N 
HETATM   24  N2  UNL     1     -11.034  -0.209  -3.106  1.00  0.00    -0.049 NA
ATOM     25  H12 UNL     1     -11.361   2.294  -2.771  1.00  0.00     0.159 HD
ATOM     26  H11 UNL     1     -10.101   2.508  -1.529  1.00  0.00     0.159 HD
ENDBRANCH  17  21
ENDBRANCH  13  14
ENDBRANCH   8  13
ENDBRANCH   5   6
ENDBRANCH   4   5
ENDBRANCH   3   4
ENDBRANCH   2   3
ENDBRANCH   1   2
BRANCH   1  27
HETATM   27  N7  UNL     1       2.293  -0.206   0.597  1.00  0.00    -0.070 N 
ATOM     28  H73 UNL     1       2.646  -0.437   1.526  1.00  0.00     0.274 HD
ATOM     29  H72 UNL     1       1.316  -0.470   0.728  1.00  0.00     0.274 HD
ATOM     30  H71 UNL     1       2.739  -0.775  -0.123  1.00  0.00     0.274 HD
ENDBRANCH   1  27
BRANCH   1  31
HETATM   31  C11 UNL     1       3.858   1.578   0.209  1.00  0.00     0.242 C 
BRANCH  31  32
HETATM   32  O2  UNL     1       4.482   1.328   1.447  1.00  0.00    -0.384 OA
ATOM     33  H2  UNL     1       5.394   1.582   1.375  1.00  0.00     0.210 HD
ENDBRANCH  31  32
BRANCH  31  34
HETATM   34  C12 UNL     1       4.544   0.749  -0.813  1.00  0.00     0.255 C 
HETATM   35  O3  UNL     1       4.059   0.618  -1.953  1.00  0.00    -0.270 OA
HETATM   36  N8  UNL     1       5.756   0.106  -0.491  1.00  0.00    -0.290 N 
HETATM   37  C13 UNL     1       6.394  -0.710  -1.459  1.00  0.00     0.275 C 
ATOM     38  H8  UNL     1       6.172   0.227   0.433  1.00  0.00     0.172 HD
HETATM   39  O4  UNL     1       5.840  -0.832  -2.596  1.00  0.00    -0.266 OA
BRANCH  37  40
HETATM   40  C14 UNL     1       7.642  -1.406  -1.202  1.00  0.00     0.122 A 
HETATM   41  C15 UNL     1       8.210  -2.253  -2.156  1.00  0.00     0.110 A 
HETATM   42  C16 UNL     1       9.388  -2.877  -1.853  1.00  0.00     0.261 A 
HETATM   43  O5  UNL     1       9.902  -3.645  -2.721  1.00  0.00    -0.268 OA
HETATM   44  N9  UNL     1      10.050  -2.727  -0.675  1.00  0.00    -0.156 N 
HETATM   45  C17 UNL     1       9.476  -1.902   0.226  1.00  0.00     0.679 A 
ATOM     46  H9  UNL     1      10.928  -3.209  -0.483  1.00  0.00     0.187 HD
HETATM   47  N11 UNL     1       8.319  -1.280  -0.051  1.00  0.00    -0.186 N 
ATOM     48  H11 UNL     1       7.927  -0.668   0.665  1.00  0.00     0.184 HD
BRANCH  45  49
HETATM   49  N10 UNL     1      10.094  -1.739   1.370  1.00  0.00    -0.234 N 
ATOM     50 2H10 UNL     1      10.973  -2.212   1.580  1.00  0.00     0.174 HD
ATOM     51 1H10 UNL     1       9.660  -1.116   2.051  1.00  0.00     0.174 HD
ENDBRANCH  45  49
ENDBRANCH  37  40
ENDBRANCH  31  34
ENDBRANCH   1  31
TORSDOF 14
