REMARK  16 active torsions:
REMARK  status: ('A' for Active; 'I' for Inactive)
REMARK    1  A    between atoms: C2_2  and  C3_3 
REMARK    2  A    between atoms: C3_3  and  C4_4 
REMARK    3  A    between atoms: C4_4  and  N1_5 
REMARK    4  A    between atoms: N1_5  and  C5_8 
REMARK    5  A    between atoms: C5_8  and  C6_9 
REMARK    6  A    between atoms: C6_9  and  N2_10 
REMARK       I    between atoms: N2_10  and  C7_12 
REMARK    7  A    between atoms: C7_12  and  C8_14 
REMARK    8  A    between atoms: C8_14  and  O2_15 
REMARK    9  A    between atoms: O2_15  and  C9_16 
REMARK   10  A    between atoms: C10_17  and  O3_18 
REMARK   11  A    between atoms: C11_20  and  C12_21 
REMARK   12  A    between atoms: C12_21  and  N3_22 
REMARK   13  A    between atoms: C13_27  and  N4_28 
REMARK   14  A    between atoms: N5_33  and  N6_34 
REMARK   15  A    between atoms: C17_38  and  N7_39 
REMARK   16  A    between atoms: C18_44  and  N9_45 
ROOT
HETATM    1  C9  UNL     1      -1.937  -0.557  -2.419  1.00  0.00     0.234 C 
HETATM    2  C10 UNL     1      -2.778  -0.619  -3.726  1.00  0.00     0.186 C 
HETATM    3  C11 UNL     1      -4.014   0.102  -3.261  1.00  0.00     0.187 C 
HETATM    4  O4  UNL     1      -4.164  -0.105  -1.916  1.00  0.00    -0.327 OA
HETATM    5  C13 UNL     1      -3.064  -0.843  -1.488  1.00  0.00     0.162 C 
ENDROOT
BRANCH   5   6
HETATM    6  N4  UNL     1      -2.869  -1.002  -0.126  1.00  0.00    -0.237 N 
HETATM    7  C14 UNL     1      -2.801  -2.258   0.433  1.00  0.00     0.325 A 
HETATM    8  O5  UNL     1      -2.894  -3.253  -0.351  1.00  0.00    -0.261 OA
HETATM    9  C15 UNL     1      -2.642  -2.475   1.776  1.00  0.00     0.335 A 
HETATM   10  O6  UNL     1      -2.590  -3.653   2.213  1.00  0.00    -0.260 OA
HETATM   11  N5  UNL     1      -2.542  -1.428   2.625  1.00  0.00    -0.215 N 
HETATM   12  C16 UNL     1      -2.603  -0.189   2.114  1.00  0.00     0.148 A 
HETATM   13  C17 UNL     1      -2.493   0.881   2.951  1.00  0.00     0.147 A 
HETATM   14  C19 UNL     1      -2.764   0.006   0.747  1.00  0.00     0.165 A 
HETATM   15  N8  UNL     1      -2.535   2.137   2.487  1.00  0.00    -0.175 N 
HETATM   16  C18 UNL     1      -2.688   2.322   1.173  1.00  0.00     0.679 A 
ATOM     17  H8  UNL     1      -2.452   2.932   3.121  1.00  0.00     0.186 HD
HETATM   18  N10 UNL     1      -2.802   1.286   0.310  1.00  0.00    -0.174 N 
ATOM     19  H10 UNL     1      -2.918   1.473  -0.686  1.00  0.00     0.186 HD
BRANCH  11  20
HETATM   20  N6  UNL     1      -2.382  -1.666   3.992  1.00  0.00    -0.335 N 
ATOM     21  H62 UNL     1      -2.336  -2.608   4.380  1.00  0.00     0.177 HD
ATOM     22  H61 UNL     1      -2.307  -0.876   4.633  1.00  0.00     0.177 HD
ENDBRANCH  11  20
BRANCH  13  23
HETATM   23  N7  UNL     1      -2.347   0.670   4.212  1.00  0.00    -0.383 N 
ATOM     24  H72 UNL     1      -2.315  -0.286   4.565  1.00  0.00     0.157 HD
ATOM     25  H71 UNL     1      -2.265   1.471   4.838  1.00  0.00     0.157 HD
ENDBRANCH  13  23
BRANCH  16  26
HETATM   26  N9  UNL     1      -2.733   3.521   0.700  1.00  0.00    -0.234 N 
ATOM     27  H92 UNL     1      -2.647   4.302   1.351  1.00  0.00     0.174 HD
ATOM     28  H91 UNL     1      -2.850   3.662  -0.303  1.00  0.00     0.174 HD
ENDBRANCH  16  26
ENDBRANCH   5   6
BRANCH   1  29
HETATM   29  O2  UNL     1      -1.024  -1.546  -2.380  1.00  0.00    -0.341 OA
BRANCH  29  30
HETATM   30  C8  UNL     1       0.285  -1.374  -2.481  1.00  0.00     0.209 C 
BRANCH  30  31
HETATM   31  C7  UNL     1       1.044  -0.587  -1.531  1.00  0.00     0.263 C 
HETATM   32  N2  UNL     1       2.440  -0.446  -1.763  1.00  0.00    -0.354 N 
ATOM     33  H2  UNL     1       2.895  -0.877  -2.568  1.00  0.00     0.162 HD
HETATM   34  O1  UNL     1       0.530  -0.044  -0.544  1.00  0.00    -0.267 OA
BRANCH  32  35
HETATM   35  C6  UNL     1       3.194   0.349  -0.789  1.00  0.00     0.150 C 
BRANCH  35  36
HETATM   36  C5  UNL     1       4.646   0.463  -1.115  1.00  0.00     0.251 C 
BRANCH  36  37
HETATM   37  N1  UNL     1       5.297   1.259  -0.104  1.00  0.00    -0.074 N 
ATOM     38  H12 UNL     1       4.844   2.168  -0.014  1.00  0.00     0.277 HD
ATOM     39  H11 UNL     1       6.219   1.559  -0.420  1.00  0.00     0.277 HD
BRANCH  37  40
HETATM   40  C4  UNL     1       5.385   0.605   1.178  1.00  0.00     0.232 C 
BRANCH  40  41
HETATM   41  C3  UNL     1       6.045   1.544   2.177  1.00  0.00     0.027 C 
BRANCH  41  42
HETATM   42  C2  UNL     1       6.166   0.895   3.537  1.00  0.00    -0.003 C 
HETATM   43  C1  UNL     1       6.993  -0.342   3.524  1.00  0.00     0.005 C 
ENDBRANCH  41  42
ENDBRANCH  40  41
ENDBRANCH  37  40
ENDBRANCH  36  37
ENDBRANCH  35  36
ENDBRANCH  32  35
ENDBRANCH  30  31
ENDBRANCH  29  30
ENDBRANCH   1  29
BRANCH   2  44
HETATM   44  O3  UNL     1      -3.106  -1.912  -4.043  1.00  0.00    -0.390 OA
ATOM     45  H3  UNL     1      -3.620  -1.950  -4.841  1.00  0.00     0.210 HD
ENDBRANCH   2  44
BRANCH   3  46
HETATM   46  C12 UNL     1      -5.233  -0.237  -4.071  1.00  0.00     0.264 C 
BRANCH  46  47
HETATM   47  N3  UNL     1      -6.312   0.607  -3.597  1.00  0.00    -0.077 N 
ATOM     48  H33 UNL     1      -6.467   0.530  -2.592  1.00  0.00     0.274 HD
ATOM     49  H32 UNL     1      -6.081   1.600  -3.619  1.00  0.00     0.274 HD
ATOM     50  H31 UNL     1      -7.140   0.377  -4.147  1.00  0.00     0.274 HD
ENDBRANCH  46  47
ENDBRANCH   3  46
TORSDOF 16
