REMARK  1 active torsions:
REMARK  status: ('A' for Active; 'I' for Inactive)
REMARK    1  A    between atoms: O1_2  and  C2_3 
ROOT
HETATM    1  C2  UNL     1       0.623  -0.318   0.243  1.00  0.00     0.123 C 
HETATM    2  C3  UNL     1      -0.213  -1.117  -0.723  1.00  0.00     0.051 C 
HETATM    3  C4  UNL     1      -1.375  -0.321  -1.257  1.00  0.00     0.116 C 
HETATM    4  N1  UNL     1      -2.008   0.510  -0.309  1.00  0.00    -0.421 N 
ATOM      5  H1  UNL     1      -2.686   1.217  -0.594  1.00  0.00     0.153 HD
HETATM    6  C5  UNL     1      -1.667   0.325   1.054  1.00  0.00     0.116 C 
HETATM    7  C6  UNL     1      -0.202   0.278   1.355  1.00  0.00     0.051 C 
ENDROOT
BRANCH   1   8
HETATM    8  O1  UNL     1       1.279   0.674  -0.455  1.00  0.00    -0.391 OA
HETATM    9  C1  UNL     1       2.667   0.537  -0.400  1.00  0.00     0.202 C 
ENDBRANCH   1   8
TORSDOF 1
