REMARK  1 active torsions:
REMARK  status: ('A' for Active; 'I' for Inactive)
REMARK    1  A    between atoms: C2_2  and  C5_5 
ROOT
HETATM    1  C5  UNL     1       0.745  -0.524  -0.268  1.00  0.00     0.130 A 
HETATM    2  C6  UNL     1       1.806   0.197   0.474  1.00  0.00     0.059 A 
HETATM    3  C7  UNL     1       2.166   0.814  -0.861  1.00  0.00     0.170 A 
HETATM    4  O1  UNL     1       1.114   0.133  -1.445  1.00  0.00    -0.385 OA
ENDROOT
BRANCH   1   5
HETATM    5  C2  UNL     1      -0.676  -0.262   0.120  1.00  0.00    -0.025 C 
HETATM    6  C1  UNL     1      -1.012  -0.589   1.524  1.00  0.00     0.017 C 
HETATM    7  C3  UNL     1      -1.579  -1.073  -0.793  1.00  0.00     0.017 C 
HETATM    8  C4  UNL     1      -0.972   1.199  -0.145  1.00  0.00     0.017 C 
ENDBRANCH   1   5
TORSDOF 1
