REMARK  6 active torsions:
REMARK  status: ('A' for Active; 'I' for Inactive)
REMARK    1  A    between atoms: O1_2  and  C2_3 
REMARK    2  A    between atoms: C3_6  and  N2_7 
REMARK    3  A    between atoms: N2_7  and  N3_9 
REMARK       I    between atoms: N3_9  and  C4_11 
REMARK    4  A    between atoms: C4_11  and  C5_13 
REMARK       I    between atoms: C5_13  and  N4_15 
REMARK    5  A    between atoms: N4_15  and  N5_16 
REMARK    6  A    between atoms: C6_21  and  N7_22 
ROOT
HETATM    1  C2  UNL     1      -2.570   0.827   1.926  1.00  0.00     0.252 A 
HETATM    2  N1  UNL     1      -1.496   1.316   1.317  1.00  0.00    -0.152 N 
ATOM      3  H1  UNL     1      -1.211   2.276   1.509  1.00  0.00     0.188 HD
HETATM    4  C3  UNL     1      -0.770   0.575   0.449  1.00  0.00     0.714 A 
HETATM    5  N6  UNL     1      -1.128  -0.689   0.190  1.00  0.00    -0.021 N 
ATOM      6  H6  UNL     1      -0.593  -1.261  -0.464  1.00  0.00     0.203 HD
HETATM    7  C6  UNL     1      -2.231  -1.193   0.826  1.00  0.00     0.693 A 
HETATM    8  N8  UNL     1      -2.944  -0.447   1.682  1.00  0.00    -0.154 N 
ATOM      9  H8  UNL     1      -3.763  -0.839   2.146  1.00  0.00     0.188 HD
ENDROOT
BRANCH   4  10
HETATM   10  N2  UNL     1       0.323   1.046  -0.122  1.00  0.00    -0.128 N 
ATOM     11  H2  UNL     1       0.670   1.982   0.090  1.00  0.00     0.205 HD
BRANCH  10  12
HETATM   12  N3  UNL     1       1.016   0.178  -1.067  1.00  0.00    -0.246 N 
HETATM   13  C4  UNL     1       2.449   0.097  -1.007  1.00  0.00     0.344 C 
HETATM   14  O2  UNL     1       3.357   0.412  -0.471  1.00  0.00    -0.259 OA
ATOM     15  H3  UNL     1       0.493  -0.361  -1.757  1.00  0.00     0.191 HD
BRANCH  13  16
HETATM   16  C5  UNL     1       2.844  -0.872  -2.309  1.00  0.00     0.404 C 
HETATM   17  O3  UNL     1       1.831  -1.119  -2.905  1.00  0.00    -0.244 OA
HETATM   18  N4  UNL     1       4.138  -1.082  -2.323  1.00  0.00    -0.284 NA
BRANCH  18  19
HETATM   19  N5  UNL     1       5.446  -1.294  -2.337  1.00  0.00    -0.276 N 
ATOM     20  H52 UNL     1       4.441  -1.120  -2.320  1.00  0.00     0.191 HD
ATOM     21  H51 UNL     1       6.453  -1.457  -2.348  1.00  0.00     0.191 HD
ENDBRANCH  18  19
ENDBRANCH  13  16
ENDBRANCH  10  12
ENDBRANCH   4  10
BRANCH   1  22
HETATM   22  O1  UNL     1      -3.385   1.517   2.811  1.00  0.00    -0.326 OA
HETATM   23  C1  UNL     1      -3.235   2.850   3.201  1.00  0.00     0.213 C 
ENDBRANCH   1  22
BRANCH   7  24
HETATM   24  N7  UNL     1      -2.551  -2.437   0.532  1.00  0.00    -0.234 N 
ATOM     25  H72 UNL     1      -2.009  -3.005  -0.119  1.00  0.00     0.174 HD
ATOM     26  H71 UNL     1      -3.373  -2.812   1.006  1.00  0.00     0.174 HD
ENDBRANCH   7  24
TORSDOF 6
