REMARK  3 active torsions:
REMARK  status: ('A' for Active; 'I' for Inactive)
REMARK    1  A    between atoms: C2_5  and  C3_6 
REMARK       I    between atoms: C3_6  and  N3_8 
REMARK    2  A    between atoms: N3_8  and  N4_10 
REMARK    3  A    between atoms: N4_10  and  C4_12 
ROOT
HETATM    1  C3  UNL     1      -0.042  -0.176  -0.593  1.00  0.00     0.307 C 
HETATM    2  O1  UNL     1       0.493  -1.194  -1.121  1.00  0.00    -0.262 OA
HETATM    3  N3  UNL     1       0.762   0.930  -0.268  1.00  0.00    -0.249 N 
ATOM      4  H3  UNL     1       0.342   1.756   0.158  1.00  0.00     0.191 HD
ENDROOT
BRANCH   3   5
HETATM    5  N4  UNL     1       2.132   0.901  -0.526  1.00  0.00    -0.127 N 
ATOM      6  H4  UNL     1       2.520   1.523  -1.235  1.00  0.00     0.206 HD
BRANCH   5   7
HETATM    7  C4  UNL     1       2.925   0.098   0.118  1.00  0.00     0.725 A 
HETATM    8  N5  UNL     1       2.549  -0.769   1.071  1.00  0.00    -0.112 N 
HETATM    9  N6  UNL     1       3.656  -1.391   1.468  1.00  0.00     0.009 NA
ATOM     10  H5  UNL     1       1.603  -0.921   1.421  1.00  0.00     0.203 HD
HETATM   11  N7  UNL     1       4.705  -0.946   0.797  1.00  0.00    -0.211 N 
HETATM   12  N8  UNL     1       4.246  -0.028  -0.033  1.00  0.00    -0.117 N 
ATOM     13  H7  UNL     1       5.673  -1.251   0.900  1.00  0.00     0.206 HD
ATOM     14  H8  UNL     1       4.815   0.505  -0.691  1.00  0.00     0.207 HD
ENDBRANCH   5   7
ENDBRANCH   3   5
BRANCH   1  15
HETATM   15  C2  UNL     1      -1.490  -0.147  -0.320  1.00  0.00     0.208 A 
HETATM   16  N2  UNL     1      -2.555  -0.953  -0.471  1.00  0.00    -0.263 N 
HETATM   17  N1  UNL     1      -3.378  -0.062   0.055  1.00  0.00    -0.235 N 
ATOM     18  H2  UNL     1      -2.680  -1.893  -0.847  1.00  0.00     0.190 HD
HETATM   19  C1  UNL     1      -4.804   0.039   0.354  1.00  0.00     0.200 C 
HETATM   20  N9  UNL     1      -2.349   0.739   0.210  1.00  0.00    -0.263 N 
ATOM     21  H9  UNL     1      -2.242   1.680   0.590  1.00  0.00     0.190 HD
ENDBRANCH   1  15
TORSDOF 3
