REMARK  4 active torsions:
REMARK  status: ('A' for Active; 'I' for Inactive)
REMARK    1  A    between atoms: N2_5  and  O1_6 
REMARK    2  A    between atoms: C3_8  and  C4_9 
REMARK       I    between atoms: C4_9  and  N3_11 
REMARK    3  A    between atoms: N3_11  and  N4_13 
REMARK    4  A    between atoms: C5_16  and  N5_17 
ROOT
HETATM    1  C1  UNL     1      -3.735   0.691   0.461  1.00  0.00     0.091 C 
HETATM    2  C2  UNL     1      -2.263   0.465   0.195  1.00  0.00     0.095 A 
HETATM    3  N1  UNL     1      -1.458   1.462  -0.156  1.00  0.00    -0.263 N 
ATOM      4  H1  UNL     1      -1.860   2.395  -0.243  1.00  0.00     0.191 HD
HETATM    5  N2  UNL     1      -0.175   1.317  -0.398  1.00  0.00    -0.153 N 
HETATM    6  C3  UNL     1       0.376   0.072  -0.285  1.00  0.00     0.193 A 
HETATM    7  C5  UNL     1      -0.430  -0.995   0.080  1.00  0.00     0.137 A 
HETATM    8  N6  UNL     1      -1.761  -0.750   0.312  1.00  0.00    -0.330 N 
ATOM      9  H6  UNL     1      -2.373  -1.521   0.580  1.00  0.00     0.168 HD
ENDROOT
BRANCH   6  10
HETATM   10  C4  UNL     1       1.796  -0.130  -0.498  1.00  0.00     0.294 C 
HETATM   11  O2  UNL     1       2.205  -1.225  -0.953  1.00  0.00    -0.264 OA
HETATM   12  N3  UNL     1       2.754   0.858  -0.211  1.00  0.00    -0.271 N 
ATOM     13  H3  UNL     1       2.459   1.758   0.167  1.00  0.00     0.189 HD
BRANCH  12  14
HETATM   14  N4  UNL     1       4.143   0.605  -0.448  1.00  0.00    -0.342 N 
ATOM     15  H42 UNL     1       4.422  -0.300  -0.827  1.00  0.00     0.176 HD
ATOM     16  H41 UNL     1       4.838   1.322  -0.240  1.00  0.00     0.176 HD
ENDBRANCH  12  14
ENDBRANCH   6  10
BRANCH   5  17
HETATM   17  O1  UNL     1       0.617   2.356  -0.788  1.00  0.00    -0.267 OA
ATOM     18  H1  UNL     1       1.545   2.251  -0.963  1.00  0.00     0.247 HD
ENDBRANCH   5  17
BRANCH   7  19
HETATM   19  N5  UNL     1      -0.045  -2.194   0.254  1.00  0.00    -0.383 N 
ATOM     20  H52 UNL     1       0.944  -2.376   0.082  1.00  0.00     0.157 HD
ATOM     21  H51 UNL     1      -0.638  -2.979   0.523  1.00  0.00     0.157 HD
ENDBRANCH   7  19
TORSDOF 4
