REMARK  11 active torsions:
REMARK  status: ('A' for Active; 'I' for Inactive)
REMARK    1  A    between atoms: C2_2  and  C3_3 
REMARK    2  A    between atoms: C2_2  and  C21_27 
REMARK    3  A    between atoms: C3_3  and  C4_4 
REMARK    4  A    between atoms: C4_4  and  C5_5 
REMARK    5  A    between atoms: C5_5  and  C6_6 
REMARK    6  A    between atoms: C8_8  and  O1_9 
REMARK    7  A    between atoms: C16_18  and  O2_19 
REMARK    8  A    between atoms: C18_22  and  O3_23 
REMARK    9  A    between atoms: C21_27  and  C22_28 
REMARK   10  A    between atoms: C22_28  and  C23_29 
REMARK   11  A    between atoms: C23_29  and  O4_31 
ROOT
HETATM    1  C23 UNL     1       6.906   1.698  -0.130  1.00  0.00     0.142 C 
HETATM    2  C24 UNL     1       8.374   1.368  -0.080  1.00  0.00     0.062 C 
HETATM    3  C25 UNL     1       6.586   2.241  -1.452  1.00  0.00     0.097 C 
HETATM    4  N1  UNL     1       6.349   2.680  -2.495  1.00  0.00    -0.194 NA
ENDROOT
BRANCH   1   5
HETATM    5  C22 UNL     1       6.068   0.442   0.071  1.00  0.00     0.053 C 
BRANCH   5   6
HETATM    6  C21 UNL     1       4.622   0.809   0.015  1.00  0.00     0.008 C 
BRANCH   6   7
HETATM    7  C2  UNL     1       3.669  -0.327   0.199  1.00  0.00    -0.019 C 
HETATM    8  C1  UNL     1       3.864  -1.368  -0.872  1.00  0.00     0.010 C 
BRANCH   7   9
HETATM    9  C3  UNL     1       2.267   0.231   0.153  1.00  0.00     0.004 C 
BRANCH   9  10
HETATM   10  C4  UNL     1       1.231  -0.861   0.373  1.00  0.00     0.005 C 
BRANCH  10  11
HETATM   11  C5  UNL     1      -0.149  -0.203   0.310  1.00  0.00     0.035 C 
BRANCH  11  12
HETATM   12  C6  UNL     1      -1.265  -1.142   0.527  1.00  0.00    -0.070 C 
HETATM   13  C7  UNL     1      -0.880  -2.399   0.759  1.00  0.00     0.008 C 
HETATM   14  C8  UNL     1      -1.887  -3.491   0.999  1.00  0.00     0.141 C 
HETATM   15  C9  UNL     1      -2.800  -3.285  -0.221  1.00  0.00     0.041 C 
HETATM   16  C10 UNL     1      -3.513  -1.983   0.039  1.00  0.00     0.004 C 
HETATM   17  C11 UNL     1      -4.337  -1.735  -1.200  1.00  0.00     0.006 C 
HETATM   18  C19 UNL     1      -2.696  -0.852   0.543  1.00  0.00     0.014 C 
HETATM   19  C12 UNL     1      -5.224  -0.579  -0.941  1.00  0.00     0.008 C 
HETATM   20  C13 UNL     1      -4.566   0.590  -0.367  1.00  0.00     0.021 C 
HETATM   21  C14 UNL     1      -4.694   1.798  -1.306  1.00  0.00     0.010 C 
HETATM   22  C18 UNL     1      -3.081   0.473  -0.055  1.00  0.00     0.075 C 
HETATM   23  C15 UNL     1      -4.075   3.038  -0.789  1.00  0.00     0.032 C 
HETATM   24  C16 UNL     1      -2.775   2.884  -0.084  1.00  0.00     0.121 C 
HETATM   25  C17 UNL     1      -2.874   1.664   0.847  1.00  0.00     0.071 C 
HETATM   26  C20 UNL     1      -3.041  -0.753   2.047  1.00  0.00     0.023 C 
BRANCH  14  27
HETATM   27  O1  UNL     1      -1.324  -4.750   0.939  1.00  0.00    -0.392 OA
ATOM     28  H1  UNL     1      -1.960  -5.439   1.091  1.00  0.00     0.210 HD
ENDBRANCH  14  27
BRANCH  24  29
HETATM   29  O2  UNL     1      -1.657   2.889  -0.866  1.00  0.00    -0.395 OA
ATOM     30  H2  UNL     1      -0.826   2.791  -0.416  1.00  0.00     0.210 HD
ENDBRANCH  24  29
BRANCH  22  31
HETATM   31  O3  UNL     1      -2.477   0.708  -1.305  1.00  0.00    -0.388 OA
ATOM     32  H3  UNL     1      -1.550   0.635  -1.110  1.00  0.00     0.210 HD
ENDBRANCH  22  31
ENDBRANCH  11  12
ENDBRANCH  10  11
ENDBRANCH   9  10
ENDBRANCH   7   9
ENDBRANCH   6   7
ENDBRANCH   5   6
ENDBRANCH   1   5
BRANCH   1  33
HETATM   33  O4  UNL     1       6.541   2.602   0.866  1.00  0.00    -0.376 OA
ATOM     34  H4  UNL     1       7.064   3.385   0.741  1.00  0.00     0.211 HD
ENDBRANCH   1  33
TORSDOF 11
