REMARK  2 active torsions:
REMARK  status: ('A' for Active; 'I' for Inactive)
REMARK    1  A    between atoms: O1_1  and  C1_3 
REMARK    2  A    between atoms: C4_6  and  C5_8 
ROOT
HETATM    1  C1  UNL     1      -1.859   0.186  -0.030  1.00  0.00     0.118 C 
HETATM    2  C2  UNL     1      -1.276  -0.832   0.887  1.00  0.00     0.033 C 
HETATM    3  C3  UNL     1       0.151  -1.189   0.610  1.00  0.00     0.033 C 
HETATM    4  C4  UNL     1       1.010  -0.063   0.149  1.00  0.00     0.116 C 
HETATM    5  S1  UNL     1       1.655   0.839   1.586  1.00  0.00    -0.077 SA
HETATM    6  C6  UNL     1       0.320   0.924  -0.747  1.00  0.00     0.033 C 
HETATM    7  C7  UNL     1      -1.007   0.391  -1.269  1.00  0.00     0.033 C 
ENDROOT
BRANCH   4   8
HETATM    8  C5  UNL     1       2.204  -0.615  -0.620  1.00  0.00     0.405 C 
HETATM    9  F1  UNL     1       2.971  -1.455   0.169  1.00  0.00    -0.169 F 
HETATM   10  F2  UNL     1       3.042   0.405  -1.035  1.00  0.00    -0.169 F 
HETATM   11  F3  UNL     1       1.808  -1.339  -1.724  1.00  0.00    -0.169 F 
ENDBRANCH   4   8
BRANCH   1  12
HETATM   12  O1  UNL     1      -2.024   1.419   0.626  1.00  0.00    -0.396 OA
ATOM     13  H1  UNL     1      -2.396   2.068   0.041  1.00  0.00     0.210 HD
ENDBRANCH   1  12
TORSDOF 2
