REMARK  2 active torsions:
REMARK  status: ('A' for Active; 'I' for Inactive)
REMARK    1  A    between atoms: C6_6  and  O1_7 
REMARK    2  A    between atoms: O1_7  and  O2_8 
ROOT
HETATM    1  C1  UNL     1      -1.112   1.582  -0.305  1.00  0.00     0.018 C 
HETATM    2  C2  UNL     1      -1.193   0.142   0.014  1.00  0.00    -0.012 C 
HETATM    3  C3  UNL     1      -2.617  -0.296   0.256  1.00  0.00     0.018 C 
HETATM    4  C4  UNL     1      -0.273  -0.376   1.099  1.00  0.00     0.074 C 
HETATM    5  C5  UNL     1       1.088   0.269   1.043  1.00  0.00     0.068 C 
HETATM    6  C6  UNL     1       1.644   0.319  -0.340  1.00  0.00     0.255 C 
HETATM    7  N1  UNL     1       0.770  -0.156  -1.361  1.00  0.00    -0.384 N 
ATOM      8  H1  UNL     1       0.987  -0.044  -2.351  1.00  0.00     0.156 HD
HETATM    9  C7  UNL     1      -0.414  -0.791  -0.923  1.00  0.00     0.160 C 
HETATM   10  C8  UNL     1      -0.223  -1.679   0.288  1.00  0.00     0.268 C 
HETATM   11  F1  UNL     1       0.951  -2.356   0.361  1.00  0.00    -0.204 F 
HETATM   12  F2  UNL     1      -1.276  -2.526   0.521  1.00  0.00    -0.204 F 
ENDROOT
BRANCH   6  13
HETATM   13  O1  UNL     1       2.874  -0.326  -0.465  1.00  0.00    -0.217 OA
BRANCH  13  14
HETATM   14  O2  UNL     1       3.851   0.455  -0.778  1.00  0.00    -0.248 OA
ATOM     15  H2  UNL     1       4.689   0.016  -0.863  1.00  0.00     0.253 HD
ENDBRANCH  13  14
ENDBRANCH   6  13
TORSDOF 2
