REMARK  1 active torsions:
REMARK  status: ('A' for Active; 'I' for Inactive)
REMARK    1  A    between atoms: C2_2  and  C3_5 
ROOT
HETATM    1  C3  UNL     1      -0.479  -0.172   0.070  1.00  0.00     0.038 C 
HETATM    2  C4  UNL     1      -0.932  -1.608   0.351  1.00  0.00     0.023 C 
HETATM    3  C5  UNL     1       0.665  -0.249  -0.883  1.00  0.00     0.024 C 
HETATM    4  C6  UNL     1       1.911  -0.661  -0.100  1.00  0.00     0.074 C 
HETATM    5  C7  UNL     1       2.216   0.518   0.782  1.00  0.00     0.088 C 
HETATM    6  N1  UNL     1       3.536   0.996   0.880  1.00  0.00    -0.088 NA
HETATM    7  N2  UNL     1       1.224   1.023   1.403  1.00  0.00    -0.381 N 
ATOM      8  H2  UNL     1       1.410   1.824   2.006  1.00  0.00     0.160 HD
HETATM    9  C8  UNL     1      -0.140   0.558   1.325  1.00  0.00     0.135 C 
ENDROOT
BRANCH   1  10
HETATM   10  C2  UNL     1      -1.686   0.517  -0.562  1.00  0.00     0.248 C 
HETATM   11  C1  UNL     1      -2.849   0.499   0.367  1.00  0.00     0.091 C 
HETATM   12  F1  UNL     1      -1.340   1.822  -0.816  1.00  0.00    -0.206 F 
HETATM   13  F2  UNL     1      -2.006  -0.087  -1.742  1.00  0.00    -0.206 F 
ENDBRANCH   1  10
TORSDOF 1
