REMARK  10 active torsions:
REMARK  status: ('A' for Active; 'I' for Inactive)
REMARK    1  A    between atoms: C2_2  and  C3_3 
REMARK    2  A    between atoms: C3_3  and  C4_4 
REMARK    3  A    between atoms: C4_4  and  O1_5 
REMARK    4  A    between atoms: C5_8  and  C6_9 
REMARK    5  A    between atoms: C7_10  and  C8_11 
REMARK    6  A    between atoms: C8_11  and  O3_12 
REMARK    7  A    between atoms: C8_11  and  C9_14 
REMARK    8  A    between atoms: C9_14  and  C10_15 
REMARK    9  A    between atoms: C10_15  and  C11_16 
REMARK   10  A    between atoms: C18_23  and  O4_24 
ROOT
HETATM    1  C8  UNL     1       0.733  -0.430   0.488  1.00  0.00     0.140 C 
ENDROOT
BRANCH   1   2
HETATM    2  C7  UNL     1      -0.425  -0.866  -0.321  1.00  0.00     0.003 C 
HETATM    3  C6  UNL     1      -1.584  -1.097   0.277  1.00  0.00     0.004 C 
BRANCH   3   4
HETATM    4  C5  UNL     1      -2.792  -1.544  -0.520  1.00  0.00     0.151 C 
HETATM    5  O2  UNL     1      -3.388  -0.477  -1.130  1.00  0.00    -0.345 OA
HETATM    6  C4  UNL     1      -4.223   0.283  -0.333  1.00  0.00     0.165 C 
HETATM    7  C23 UNL     1      -5.365  -0.582   0.138  1.00  0.00     0.044 C 
HETATM    8  C22 UNL     1      -4.886  -1.806   0.875  1.00  0.00     0.016 C 
HETATM    9  C24 UNL     1      -6.206  -1.073  -1.022  1.00  0.00     0.015 C 
HETATM   10  C20 UNL     1      -3.670  -2.429   0.293  1.00  0.00     0.015 C 
HETATM   11  C21 UNL     1      -2.895  -3.115   1.427  1.00  0.00     0.012 C 
BRANCH   6  12
HETATM   12  C3  UNL     1      -4.766   1.402  -1.193  1.00  0.00     0.068 C 
BRANCH  12  13
HETATM   13  C2  UNL     1      -5.755   2.280  -0.487  1.00  0.00     0.001 C 
HETATM   14  C1  UNL     1      -5.206   2.977   0.726  1.00  0.00     0.005 C 
ENDBRANCH  12  13
ENDBRANCH   6  12
BRANCH   6  15
HETATM   15  O1  UNL     1      -3.596   0.850   0.747  1.00  0.00    -0.365 OA
ATOM     16  H1  UNL     1      -3.255   0.147   1.287  1.00  0.00     0.213 HD
ENDBRANCH   6  15
ENDBRANCH   3   4
ENDBRANCH   1   2
BRANCH   1  17
HETATM   17  O3  UNL     1       0.418   0.788   1.080  1.00  0.00    -0.392 OA
ATOM     18  H3  UNL     1       1.162   1.068   1.600  1.00  0.00     0.210 HD
ENDBRANCH   1  17
BRANCH   1  19
HETATM   19  C9  UNL     1       1.966  -0.295  -0.413  1.00  0.00     0.037 C 
BRANCH  19  20
HETATM   20  C10 UNL     1       3.138   0.147   0.411  1.00  0.00     0.027 C 
BRANCH  20  21
HETATM   21  C11 UNL     1       4.406   0.316  -0.368  1.00  0.00     0.064 C 
HETATM   22  C12 UNL     1       4.294   1.341  -1.467  1.00  0.00     0.024 C 
HETATM   23  C13 UNL     1       4.380   2.758  -1.030  1.00  0.00     0.005 C 
HETATM   24  C14 UNL     1       4.779   2.969   0.385  1.00  0.00     0.027 C 
HETATM   25  C15 UNL     1       5.638   1.924   0.944  1.00  0.00    -0.023 C 
HETATM   26  C16 UNL     1       5.474   0.657   0.596  1.00  0.00    -0.062 C 
HETATM   27  C17 UNL     1       6.369  -0.358   1.198  1.00  0.00     0.088 C 
HETATM   28  C18 UNL     1       6.655  -1.536   0.328  1.00  0.00     0.224 C 
HETATM   29  N1  UNL     1       5.501  -1.968  -0.429  1.00  0.00    -0.334 N 
HETATM   30  C19 UNL     1       4.676  -0.996  -1.042  1.00  0.00     0.232 C 
ATOM     31  H1  UNL     1       5.285  -2.961  -0.520  1.00  0.00     0.165 HD
HETATM   32  O5  UNL     1       4.148  -1.224  -2.181  1.00  0.00    -0.272 OA
BRANCH  28  33
HETATM   33  O4  UNL     1       7.072  -2.588   1.133  1.00  0.00    -0.377 OA
ATOM     34  H4  UNL     1       7.254  -3.338   0.579  1.00  0.00     0.212 HD
ENDBRANCH  28  33
ENDBRANCH  20  21
ENDBRANCH  19  20
ENDBRANCH   1  19
TORSDOF 10
