REMARK  11 active torsions:
REMARK  status: ('A' for Active; 'I' for Inactive)
REMARK    1  A    between atoms: C4_4  and  O1_5 
REMARK    2  A    between atoms: C6_8  and  O2_9 
REMARK    3  A    between atoms: C12_16  and  C13_17 
REMARK    4  A    between atoms: C13_17  and  C14_18 
REMARK    5  A    between atoms: C14_18  and  C15_19 
REMARK    6  A    between atoms: C15_19  and  C16_20 
REMARK    7  A    between atoms: C16_20  and  C17_21 
REMARK    8  A    between atoms: C17_21  and  C18_22 
REMARK    9  A    between atoms: C18_22  and  C20_24 
REMARK   10  A    between atoms: C24_29  and  O4_30 
REMARK   11  A    between atoms: C25_32  and  O5_33 
ROOT
HETATM    1  C1  UNL     1      -6.601  -0.942  -1.889  1.00  0.00     0.017 C 
HETATM    2  C2  UNL     1      -5.673  -0.746  -0.975  1.00  0.00    -0.052 C 
HETATM    3  C3  UNL     1      -5.714  -1.270   0.410  1.00  0.00     0.068 C 
HETATM    4  C4  UNL     1      -4.237  -1.632   0.622  1.00  0.00     0.132 C 
HETATM    5  C5  UNL     1      -3.502  -0.471  -0.019  1.00  0.00     0.088 C 
HETATM    6  C6  UNL     1      -4.413   0.019  -1.115  1.00  0.00     0.090 C 
HETATM    7  C7  UNL     1      -4.737   1.479  -1.037  1.00  0.00     0.048 C 
HETATM    8  C8  UNL     1      -3.509   2.309  -0.729  1.00  0.00    -0.009 C 
HETATM    9  C9  UNL     1      -3.969   3.744  -0.583  1.00  0.00     0.010 C 
HETATM   10  C10 UNL     1      -2.799   1.879   0.492  1.00  0.00     0.025 C 
HETATM   11  C11 UNL     1      -1.413   1.251   0.316  1.00  0.00     0.015 C 
HETATM   12  C12 UNL     1      -1.761   0.449   1.528  1.00  0.00     0.021 C 
HETATM   13  C25 UNL     1      -3.218   0.538   1.030  1.00  0.00     0.074 C 
ENDROOT
BRANCH  12  14
HETATM   14  C13 UNL     1      -1.248  -0.898   1.758  1.00  0.00     0.007 C 
BRANCH  14  15
HETATM   15  C14 UNL     1       0.231  -1.001   1.854  1.00  0.00     0.000 C 
BRANCH  15  16
HETATM   16  C15 UNL     1       1.046  -0.620   0.678  1.00  0.00     0.000 C 
BRANCH  16  17
HETATM   17  C16 UNL     1       2.534  -0.867   1.042  1.00  0.00     0.001 C 
BRANCH  17  18
HETATM   18  C17 UNL     1       3.415  -0.497  -0.118  1.00  0.00     0.011 C 
BRANCH  18  19
HETATM   19  C18 UNL     1       4.853  -0.775   0.335  1.00  0.00     0.042 C 
HETATM   20  C19 UNL     1       5.206   0.045   1.542  1.00  0.00     0.017 C 
BRANCH  19  21
HETATM   21  C20 UNL     1       5.804  -0.429  -0.763  1.00  0.00     0.090 A 
HETATM   22  O3  UNL     1       5.509   0.097  -1.922  1.00  0.00    -0.323 OA
HETATM   23  C21 UNL     1       6.591   0.263  -2.632  1.00  0.00     0.151 A 
HETATM   24  C22 UNL     1       7.683  -0.175  -1.912  1.00  0.00    -0.004 A 
HETATM   25  C23 UNL     1       9.094  -0.160  -2.357  1.00  0.00     0.053 C 
HETATM   26  C24 UNL     1       7.160  -0.622  -0.700  1.00  0.00     0.103 A 
BRANCH  26  27
HETATM   27  O4  UNL     1       7.957  -1.137   0.288  1.00  0.00    -0.358 OA
ATOM     28  H4  UNL     1       8.897  -1.271   0.332  1.00  0.00     0.217 HD
ENDBRANCH  26  27
ENDBRANCH  19  21
ENDBRANCH  18  19
ENDBRANCH  17  18
ENDBRANCH  16  17
ENDBRANCH  15  16
ENDBRANCH  14  15
ENDBRANCH  12  14
BRANCH  13  29
HETATM   29  O5  UNL     1      -4.149   0.680   2.049  1.00  0.00    -0.388 OA
ATOM     30  H5  UNL     1      -3.967   1.326   2.721  1.00  0.00     0.210 HD
ENDBRANCH  13  29
BRANCH   4  31
HETATM   31  O1  UNL     1      -4.035  -2.819  -0.080  1.00  0.00    -0.395 OA
ATOM     32  H1  UNL     1      -3.121  -3.043   0.051  1.00  0.00     0.210 HD
ENDBRANCH   4  31
BRANCH   6  33
HETATM   33  O2  UNL     1      -3.898  -0.281  -2.399  1.00  0.00    -0.385 OA
ATOM     34  H2  UNL     1      -3.090   0.210  -2.489  1.00  0.00     0.211 HD
ENDBRANCH   6  33
TORSDOF 11
