REMARK  12 active torsions:
REMARK  status: ('A' for Active; 'I' for Inactive)
REMARK    1  A    between atoms: C2_2  and  C3_3 
REMARK    2  A    between atoms: C3_3  and  C4_4 
REMARK    3  A    between atoms: C4_4  and  C5_5 
REMARK    4  A    between atoms: C5_5  and  C6_6 
REMARK    5  A    between atoms: C6_6  and  C7_7 
REMARK    6  A    between atoms: C7_7  and  C8_8 
REMARK    7  A    between atoms: C8_8  and  O1_9 
REMARK    8  A    between atoms: C8_8  and  O2_11 
REMARK    9  A    between atoms: O2_11  and  C9_12 
REMARK   10  A    between atoms: C10_13  and  O3_14 
REMARK   11  A    between atoms: C16_21  and  O4_22 
REMARK   12  A    between atoms: C19_27  and  O5_28 
ROOT
HETATM    1  C9  UNL     1      -0.158   0.099  -0.863  1.00  0.00     0.161 C 
HETATM    2  C10 UNL     1      -1.004   0.257  -2.082  1.00  0.00     0.148 C 
HETATM    3  C11 UNL     1      -2.469   0.096  -1.901  1.00  0.00     0.044 C 
HETATM    4  C12 UNL     1      -2.895   0.749  -0.615  1.00  0.00    -0.027 C 
HETATM    5  C13 UNL     1      -2.525   2.191  -0.549  1.00  0.00     0.016 C 
HETATM    6  C14 UNL     1      -2.302  -0.090   0.482  1.00  0.00     0.007 C 
HETATM    7  C15 UNL     1      -2.689   0.526   1.802  1.00  0.00     0.041 C 
HETATM    8  C16 UNL     1      -4.090   0.953   1.940  1.00  0.00     0.159 C 
HETATM    9  C17 UNL     1      -4.991   0.761   0.792  1.00  0.00     0.139 C 
HETATM   10  F1  UNL     1      -5.960   1.779   0.810  1.00  0.00    -0.239 F 
HETATM   11  C18 UNL     1      -5.816  -0.518   1.012  1.00  0.00     0.078 C 
HETATM   12  C19 UNL     1      -6.284  -0.757  -0.430  1.00  0.00     0.122 C 
HETATM   13  C20 UNL     1      -4.932  -0.638  -1.150  1.00  0.00     0.045 C 
HETATM   14  C21 UNL     1      -4.403   0.650  -0.547  1.00  0.00     0.005 C 
HETATM   15  C22 UNL     1      -4.944   1.770  -1.447  1.00  0.00     0.019 C 
HETATM   16  C23 UNL     1      -0.839  -0.304   0.382  1.00  0.00    -0.015 C 
HETATM   17  C24 UNL     1      -0.604  -1.809   0.626  1.00  0.00     0.018 C 
HETATM   18  C25 UNL     1      -0.090   0.347   1.558  1.00  0.00     0.018 C 
ENDROOT
BRANCH   1  19
HETATM   19  O2  UNL     1       0.828  -0.823  -1.157  1.00  0.00    -0.353 OA
BRANCH  19  20
HETATM   20  C8  UNL     1       2.093  -0.439  -1.232  1.00  0.00     0.257 C 
BRANCH  20  21
HETATM   21  C7  UNL     1       3.145  -1.113  -0.454  1.00  0.00     0.060 C 
BRANCH  21  22
HETATM   22  C6  UNL     1       4.458  -0.371  -0.681  1.00  0.00     0.005 C 
BRANCH  22  23
HETATM   23  C5  UNL     1       5.599  -0.982   0.069  1.00  0.00     0.000 C 
BRANCH  23  24
HETATM   24  C4  UNL     1       6.835  -0.162  -0.235  1.00  0.00     0.000 C 
BRANCH  24  25
HETATM   25  C3  UNL     1       8.064  -0.677   0.463  1.00  0.00    -0.000 C 
BRANCH  25  26
HETATM   26  C2  UNL     1       7.932  -0.679   1.956  1.00  0.00    -0.005 C 
HETATM   27  C1  UNL     1       7.684   0.673   2.539  1.00  0.00     0.005 C 
ENDBRANCH  25  26
ENDBRANCH  24  25
ENDBRANCH  23  24
ENDBRANCH  22  23
ENDBRANCH  21  22
ENDBRANCH  20  21
BRANCH  20  28
HETATM   28  O1  UNL     1       2.493  -0.499  -2.593  1.00  0.00    -0.371 OA
ATOM     29  H1  UNL     1       1.814  -0.064  -3.095  1.00  0.00     0.212 HD
ENDBRANCH  20  28
ENDBRANCH  19  20
ENDBRANCH   1  19
BRANCH   2  30
HETATM   30  O3  UNL     1      -0.814   1.506  -2.721  1.00  0.00    -0.393 OA
ATOM     31  H3  UNL     1      -1.353   1.607  -3.497  1.00  0.00     0.210 HD
ENDBRANCH   2  30
BRANCH   8  32
HETATM   32  O4  UNL     1      -4.717   0.352   3.064  1.00  0.00    -0.392 OA
ATOM     33  H4  UNL     1      -5.622   0.628   3.153  1.00  0.00     0.210 HD
ENDBRANCH   8  32
BRANCH  12  34
HETATM   34  O5  UNL     1      -6.836  -2.014  -0.579  1.00  0.00    -0.395 OA
ATOM     35  H5  UNL     1      -7.126  -2.162  -1.472  1.00  0.00     0.210 HD
ENDBRANCH  12  34
TORSDOF 12
