REMARK  11 active torsions:
REMARK  status: ('A' for Active; 'I' for Inactive)
REMARK    1  A    between atoms: C2_2  and  O1_3 
REMARK    2  A    between atoms: C10_13  and  N1_14 
REMARK       I    between atoms: N1_14  and  C11_16 
REMARK    3  A    between atoms: C11_16  and  C12_18 
REMARK    4  A    between atoms: C12_18  and  C13_19 
REMARK    5  A    between atoms: C12_18  and  C22_29 
REMARK    6  A    between atoms: C13_19  and  C14_20 
REMARK    7  A    between atoms: C14_20  and  C15_21 
REMARK    8  A    between atoms: C15_21  and  C16_22 
REMARK    9  A    between atoms: C22_29  and  C23_30 
REMARK   10  A    between atoms: C23_30  and  O3_31 
REMARK   11  A    between atoms: N2_33  and  O4_35 
ROOT
HETATM    1  C12 UNL     1       1.778   2.230  -1.034  1.00  0.00     0.085 C 
ENDROOT
BRANCH   1   2
HETATM    2  C11 UNL     1       0.460   1.629  -1.144  1.00  0.00     0.222 C 
HETATM    3  N1  UNL     1       0.163   0.360  -0.531  1.00  0.00    -0.352 N 
ATOM      4  H1  UNL     1       0.893  -0.117  -0.002  1.00  0.00     0.163 HD
HETATM    5  O2  UNL     1      -0.416   2.261  -1.798  1.00  0.00    -0.273 OA
BRANCH   3   6
HETATM    6  C10 UNL     1      -1.150  -0.264  -0.644  1.00  0.00     0.129 C 
HETATM    7  C2  UNL     1      -0.985  -1.740  -0.873  1.00  0.00     0.122 C 
HETATM    8  C1  UNL     1       0.476  -2.051  -1.299  1.00  0.00     0.060 C 
HETATM    9  S1  UNL     1      -1.265  -2.775   0.541  1.00  0.00    -0.130 SA
HETATM   10  C3  UNL     1      -2.872  -3.155   1.097  1.00  0.00     0.077 C 
HETATM   11  C4  UNL     1      -4.016  -3.069   0.137  1.00  0.00     0.010 C 
HETATM   12  C5  UNL     1      -4.832  -1.797   0.338  1.00  0.00     0.001 C 
HETATM   13  C6  UNL     1      -4.893  -0.956  -0.900  1.00  0.00     0.000 C 
HETATM   14  C7  UNL     1      -4.173   0.311  -0.915  1.00  0.00     0.000 C 
HETATM   15  C8  UNL     1      -3.338   0.727   0.205  1.00  0.00     0.002 C 
HETATM   16  C9  UNL     1      -2.020   0.153   0.493  1.00  0.00     0.029 C 
BRANCH   7  17
HETATM   17  O1  UNL     1      -1.682  -2.200  -2.009  1.00  0.00    -0.378 OA
ATOM     18  H1  UNL     1      -2.576  -2.010  -1.748  1.00  0.00     0.211 HD
ENDBRANCH   7  17
ENDBRANCH   3   6
ENDBRANCH   1   2
BRANCH   1  19
HETATM   19  C13 UNL     1       2.560   1.787   0.189  1.00  0.00     0.015 C 
BRANCH  19  20
HETATM   20  C14 UNL     1       1.864   2.111   1.476  1.00  0.00     0.005 C 
BRANCH  20  21
HETATM   21  C15 UNL     1       2.644   1.675   2.692  1.00  0.00     0.038 C 
BRANCH  21  22
HETATM   22  C16 UNL     1       2.938   0.242   2.757  1.00  0.00    -0.058 A 
HETATM   23  C17 UNL     1       4.142  -0.194   2.211  1.00  0.00     0.010 A 
HETATM   24  C18 UNL     1       4.519  -1.532   2.206  1.00  0.00     0.043 A 
HETATM   25  C19 UNL     1       3.703  -2.476   2.746  1.00  0.00     0.116 A 
HETATM   26  F1  UNL     1       4.017  -3.797   2.771  1.00  0.00    -0.206 F 
HETATM   27  C20 UNL     1       2.490  -2.068   3.301  1.00  0.00     0.043 A 
HETATM   28  C21 UNL     1       2.127  -0.721   3.298  1.00  0.00     0.010 A 
ENDBRANCH  21  22
ENDBRANCH  20  21
ENDBRANCH  19  20
ENDBRANCH   1  19
BRANCH   1  29
HETATM   29  C22 UNL     1       2.635   2.146  -2.264  1.00  0.00     0.100 C 
BRANCH  29  30
HETATM   30  C23 UNL     1       2.016   2.828  -3.407  1.00  0.00     0.136 C 
HETATM   31  N2  UNL     1       2.408   4.030  -3.769  1.00  0.00    -0.251 N 
ATOM     32  H2  UNL     1       1.979   4.505  -4.563  1.00  0.00     0.196 HD
BRANCH  30  33
HETATM   33  O3  UNL     1       0.995   2.304  -4.195  1.00  0.00    -0.348 OA
ATOM     34  H3  UNL     1       0.594   2.745  -4.935  1.00  0.00     0.219 HD
ENDBRANCH  30  33
BRANCH  31  35
HETATM   35  O4  UNL     1       3.404   4.622  -3.052  1.00  0.00    -0.288 OA
ATOM     36  H4  UNL     1       3.687   5.490  -3.313  1.00  0.00     0.244 HD
ENDBRANCH  31  35
ENDBRANCH  29  30
ENDBRANCH   1  29
TORSDOF 11
