REMARK  7 active torsions:
REMARK  status: ('A' for Active; 'I' for Inactive)
REMARK    1  A    between atoms: C11_15  and  C12_16 
REMARK    2  A    between atoms: C12_16  and  C13_17 
REMARK    3  A    between atoms: C13_17  and  C14_18 
REMARK    4  A    between atoms: C14_18  and  C15_19 
REMARK    5  A    between atoms: C15_19  and  C16_20 
REMARK    6  A    between atoms: C16_20  and  C17_21 
REMARK    7  A    between atoms: C17_21  and  N3_22 
REMARK       I    between atoms: N3_22  and  C18_24 
ROOT
HETATM    1  C1  UNL     1      -4.399  -2.621  -2.007  1.00  0.00     0.157 C 
HETATM    2  N1  UNL     1      -4.129  -1.576  -1.064  1.00  0.00    -0.342 N 
HETATM    3  C2  UNL     1      -5.135  -1.078  -0.215  1.00  0.00     0.062 A 
HETATM    4  C3  UNL     1      -6.425  -1.607  -0.294  1.00  0.00     0.033 A 
HETATM    5  C4  UNL     1      -7.404  -1.126   0.523  1.00  0.00     0.021 A 
HETATM    6  C5  UNL     1      -7.089  -0.131   1.399  1.00  0.00     0.013 A 
HETATM    7 BR1  UNL     1      -8.464   0.534   2.535  1.00  0.00    -0.051 Br
HETATM    8  C6  UNL     1      -5.816   0.385   1.470  1.00  0.00     0.051 A 
HETATM    9  C7  UNL     1      -4.804  -0.094   0.645  1.00  0.00     0.063 A 
HETATM   10  N2  UNL     1      -3.476   0.458   0.728  1.00  0.00    -0.346 N 
HETATM   11  C8  UNL     1      -3.316   1.496   1.720  1.00  0.00     0.156 C 
HETATM   12  C9  UNL     1      -2.421  -0.028  -0.127  1.00  0.00     0.094 A 
HETATM   13  C10 UNL     1      -2.818  -1.030  -0.982  1.00  0.00     0.106 A 
HETATM   14  S1  UNL     1      -1.383  -1.392  -1.851  1.00  0.00    -0.072 SA
HETATM   15  C11 UNL     1      -0.333  -0.273  -1.111  1.00  0.00     0.011 A 
HETATM   16  C19 UNL     1      -1.126   0.352  -0.208  1.00  0.00     0.089 A 
HETATM   17  N6  UNL     1      -0.498   1.392   0.591  1.00  0.00    -0.099 NA
ENDROOT
BRANCH  15  18
HETATM   18  C12 UNL     1       1.092  -0.150  -1.489  1.00  0.00     0.048 C 
BRANCH  18  19
HETATM   19  C13 UNL     1       1.910   0.804  -0.719  1.00  0.00     0.005 C 
BRANCH  19  20
HETATM   20  C14 UNL     1       3.325   0.817  -1.251  1.00  0.00     0.000 C 
BRANCH  20  21
HETATM   21  C15 UNL     1       3.967  -0.517  -1.147  1.00  0.00     0.002 C 
BRANCH  21  22
HETATM   22  C16 UNL     1       3.993  -0.966   0.304  1.00  0.00     0.020 C 
BRANCH  22  23
HETATM   23  C17 UNL     1       4.759   0.006   1.137  1.00  0.00     0.122 C 
BRANCH  23  24
HETATM   24  N3  UNL     1       6.120   0.127   0.693  1.00  0.00    -0.365 N 
HETATM   25  C18 UNL     1       6.995   1.020   1.381  1.00  0.00     0.181 C 
HETATM   26  N4  UNL     1       8.019   0.508   1.981  1.00  0.00    -0.374 N 
HETATM   27  N5  UNL     1       6.799   2.419   1.437  1.00  0.00    -0.064 NA
ATOM     28  H42 UNL     1       8.160  -0.501   1.941  1.00  0.00     0.158 HD
ATOM     29  H41 UNL     1       8.644   1.146   2.473  1.00  0.00     0.158 HD
ATOM     30  H3  UNL     1       6.456  -0.417  -0.102  1.00  0.00     0.162 HD
ENDBRANCH  23  24
ENDBRANCH  22  23
ENDBRANCH  21  22
ENDBRANCH  20  21
ENDBRANCH  19  20
ENDBRANCH  18  19
ENDBRANCH  15  18
TORSDOF 7
