REMARK  11 active torsions:
REMARK  status: ('A' for Active; 'I' for Inactive)
REMARK    1  A    between atoms: N1_2  and  C2_4 
REMARK    2  A    between atoms: C3_9  and  C4_10 
REMARK    3  A    between atoms: C4_10  and  O1_11 
REMARK    4  A    between atoms: C4_10  and  C5_13 
REMARK    5  A    between atoms: C5_13  and  N4_14 
REMARK    6  A    between atoms: N4_14  and  C6_16 
REMARK    7  A    between atoms: N5_18  and  C8_19 
REMARK    8  A    between atoms: C9_22  and  N7_23 
REMARK    9  A    between atoms: C12_40  and  C13_41 
REMARK   10  A    between atoms: C13_41  and  O2_42 
REMARK   11  A    between atoms: C13_41  and  O3_44 
ROOT
HETATM    1  C6  UNL     1       0.089  -0.096  -0.956  1.00  0.00     0.075 A 
HETATM    2  C7  UNL     1       0.794  -0.966  -0.147  1.00  0.00     0.166 A 
HETATM    3  N5  UNL     1       1.986  -0.417   0.143  1.00  0.00    -0.092 N 
HETATM    4  N14 UNL     1       2.051   0.762  -0.453  1.00  0.00    -0.277 N 
ATOM      5  H14 UNL     1       2.846   1.400  -0.404  1.00  0.00     0.188 HD
HETATM    6  C12 UNL     1       0.898   1.000  -1.144  1.00  0.00     0.108 A 
ENDROOT
BRANCH   3   7
HETATM    7  C8  UNL     1       3.017  -0.994   0.954  1.00  0.00     0.755 A 
HETATM    8  N6  UNL     1       2.923  -2.266   1.374  1.00  0.00    -0.018 N 
HETATM    9  C9  UNL     1       3.865  -2.853   2.138  1.00  0.00     0.705 A 
ATOM     10  H6  UNL     1       2.104  -2.811   1.103  1.00  0.00     0.203 HD
HETATM   11  N8  UNL     1       4.926  -2.095   2.468  1.00  0.00    -0.019 N 
HETATM   12  C10 UNL     1       5.080  -0.818   2.081  1.00  0.00     0.737 A 
ATOM     13  H8  UNL     1       5.655  -2.514   3.045  1.00  0.00     0.203 HD
HETATM   14  N9  UNL     1       6.163  -0.100   2.440  1.00  0.00    -0.159 N 
HETATM   15  N13 UNL     1       4.099  -0.285   1.315  1.00  0.00     0.108 N 
HETATM   16  C11 UNL     1       6.271   1.175   2.026  1.00  0.00     0.222 A 
ATOM     17  H9  UNL     1       6.891  -0.519   3.018  1.00  0.00     0.187 HD
HETATM   18  N10 UNL     1       7.415   1.972   2.390  1.00  0.00    -0.061 NA
HETATM   19  N11 UNL     1       5.288   1.693   1.265  1.00  0.00    -0.257 N 
HETATM   20  N12 UNL     1       4.231   0.974   0.921  1.00  0.00    -0.204 N 
ATOM     21  H11 UNL     1       5.359   2.660   0.947  1.00  0.00     0.191 HD
ATOM     22  H12 UNL     1       3.505   1.396   0.342  1.00  0.00     0.210 HD
BRANCH   9  23
HETATM   23  N7  UNL     1       3.794  -4.072   2.552  1.00  0.00    -0.234 N 
ATOM     24  H72 UNL     1       2.989  -4.647   2.302  1.00  0.00     0.174 HD
ATOM     25  H71 UNL     1       4.507  -4.516   3.130  1.00  0.00     0.174 HD
ENDBRANCH   9  23
ENDBRANCH   3   7
BRANCH   1  26
HETATM   26  N4  UNL     1      -1.209  -0.258  -1.504  1.00  0.00    -0.384 N 
ATOM     27  H4  UNL     1      -1.593   0.485  -2.088  1.00  0.00     0.159 HD
BRANCH  26  28
HETATM   28  C5  UNL     1      -2.012  -1.446  -1.263  1.00  0.00     0.159 C 
BRANCH  28  29
HETATM   29  C4  UNL     1      -3.324  -1.312  -1.976  1.00  0.00     0.205 C 
BRANCH  29  30
HETATM   30  C3  UNL     1      -4.025  -0.083  -1.510  1.00  0.00     0.143 A 
HETATM   31  N3  UNL     1      -4.120   1.086  -2.120  1.00  0.00    -0.272 N 
HETATM   32  N2  UNL     1      -4.825   1.912  -1.377  1.00  0.00    -0.131 N 
ATOM     33  H3  UNL     1      -3.710   1.313  -3.026  1.00  0.00     0.189 HD
HETATM   34  C2  UNL     1      -5.177   1.239  -0.277  1.00  0.00     0.693 A 
ATOM     35  H2  UNL     1      -5.058   2.880  -1.598  1.00  0.00     0.205 HD
HETATM   36  N15 UNL     1      -4.685  -0.006  -0.346  1.00  0.00    -0.175 N 
ATOM     37  H15 UNL     1      -4.791  -0.746   0.348  1.00  0.00     0.185 HD
BRANCH  34  38
HETATM   38  N1  UNL     1      -5.877   1.745   0.671  1.00  0.00    -0.229 N 
HETATM   39  C1  UNL     1      -6.249   0.997   1.858  1.00  0.00     0.165 C 
ATOM     40  H1  UNL     1      -6.185   2.714   0.587  1.00  0.00     0.177 HD
ENDBRANCH  34  38
ENDBRANCH  29  30
BRANCH  29  41
HETATM   41  O1  UNL     1      -4.125  -2.424  -1.776  1.00  0.00    -0.386 OA
ATOM     42  H1  UNL     1      -3.678  -3.208  -2.073  1.00  0.00     0.210 HD
ENDBRANCH  29  41
ENDBRANCH  28  29
ENDBRANCH  26  28
ENDBRANCH   1  26
BRANCH   6  43
HETATM   43  C13 UNL     1       0.623   2.229  -1.933  1.00  0.00     0.309 C 
BRANCH  43  44
HETATM   44  O2  UNL     1       1.732   2.577  -2.720  1.00  0.00    -0.366 OA
ATOM     45  H2  UNL     1       1.556   3.363  -3.224  1.00  0.00     0.213 HD
ENDBRANCH  43  44
BRANCH  43  46
HETATM   46  O3  UNL     1       0.354   3.323  -1.114  1.00  0.00    -0.366 OA
ATOM     47  H3  UNL     1       0.178   4.109  -1.618  1.00  0.00     0.213 HD
ENDBRANCH  43  46
ENDBRANCH   6  43
TORSDOF 11
