REMARK  13 active torsions:
REMARK  status: ('A' for Active; 'I' for Inactive)
REMARK    1  A    between atoms: C2_2  and  C3_3 
REMARK    2  A    between atoms: C3_3  and  C4_4 
REMARK    3  A    between atoms: C4_4  and  N1_5 
REMARK    4  A    between atoms: C7_9  and  C8_10 
REMARK    5  A    between atoms: C8_10  and  C9_11 
REMARK    6  A    between atoms: N2_12  and  C11_14 
REMARK    7  A    between atoms: C11_14  and  C12_15 
REMARK    8  A    between atoms: C12_15  and  C13_16 
REMARK    9  A    between atoms: C13_16  and  N3_17 
REMARK   10  A    between atoms: N4_20  and  C16_21 
REMARK   11  A    between atoms: C16_21  and  O2_25 
REMARK   12  A    between atoms: O2_25  and  C17_26 
REMARK   13  A    between atoms: C23_32  and  N6_33 
ROOT
HETATM    1  N1  UNL     1      -5.652   1.880  -0.066  1.00  0.00    -0.237 N 
HETATM    2  C5  UNL     1      -4.300   1.557   0.074  1.00  0.00     0.268 C 
HETATM    3  O1  UNL     1      -3.475   2.546   0.145  1.00  0.00    -0.266 OA
HETATM    4  C6  UNL     1      -3.729   0.170   0.148  1.00  0.00     0.041 C 
HETATM    5  C7  UNL     1      -2.427   0.074   0.313  1.00  0.00    -0.004 C 
HETATM    6  C21 UNL     1      -4.646  -0.954   0.072  1.00  0.00     0.005 A 
HETATM    7  C22 UNL     1      -4.165  -2.262  -0.090  1.00  0.00     0.043 A 
HETATM    8  C23 UNL     1      -4.954  -3.368  -0.332  1.00  0.00     0.030 A 
HETATM    9  C26 UNL     1      -6.318  -3.217  -0.430  1.00  0.00     0.031 A 
HETATM   10  C27 UNL     1      -6.850  -1.962  -0.282  1.00  0.00     0.028 A 
HETATM   11  C28 UNL     1      -6.019  -0.866  -0.034  1.00  0.00     0.091 A 
HETATM   12  S1  UNL     1      -6.803   0.682   0.255  1.00  0.00     0.268 S 
HETATM   13  O3  UNL     1      -7.288   0.701   1.685  1.00  0.00    -0.200 OA
HETATM   14  O4  UNL     1      -8.032   0.803  -0.604  1.00  0.00    -0.200 OA
ENDROOT
BRANCH   5  15
HETATM   15  C8  UNL     1      -1.441  -0.953   0.454  1.00  0.00     0.072 C 
BRANCH  15  16
HETATM   16  C9  UNL     1      -0.109  -0.536   1.108  1.00  0.00     0.061 C 
HETATM   17  N2  UNL     1       0.659   0.322   0.380  1.00  0.00    -0.397 N 
HETATM   18  C10 UNL     1       0.474   1.650   0.084  1.00  0.00     0.148 C 
BRANCH  17  19
HETATM   19  C11 UNL     1       1.829  -0.277  -0.264  1.00  0.00     0.123 C 
BRANCH  19  20
HETATM   20  C12 UNL     1       2.870  -0.715   0.744  1.00  0.00     0.050 C 
BRANCH  20  21
HETATM   21  C13 UNL     1       4.013  -1.340   0.001  1.00  0.00     0.274 C 
BRANCH  21  22
HETATM   22  N3  UNL     1       4.646  -0.482  -0.939  1.00  0.00     0.091 N 
HETATM   23  C14 UNL     1       5.676  -1.186  -1.703  1.00  0.00     0.292 C 
HETATM   24  C15 UNL     1       6.838  -1.559  -0.808  1.00  0.00     0.156 C 
HETATM   25  N4  UNL     1       7.317  -0.337  -0.191  1.00  0.00    -0.344 N 
HETATM   26  C19 UNL     1       6.490   0.765   0.156  1.00  0.00     0.156 C 
HETATM   27  C20 UNL     1       5.121   0.774  -0.455  1.00  0.00     0.292 C 
BRANCH  25  28
HETATM   28  C16 UNL     1       8.714  -0.259   0.072  1.00  0.00     0.214 C 
HETATM   29  N5  UNL     1       9.192  -0.746   1.191  1.00  0.00    -0.365 N 
ATOM     30  H52 UNL     1       8.519  -1.165   1.833  1.00  0.00     0.159 HD
ATOM     31  H51 UNL     1      10.193  -0.690   1.379  1.00  0.00     0.159 HD
BRANCH  28  32
HETATM   32  O2  UNL     1       9.618   0.303  -0.790  1.00  0.00    -0.323 OA
BRANCH  32  33
HETATM   33  C17 UNL     1      10.821   0.877  -0.357  1.00  0.00     0.174 C 
HETATM   34  C18 UNL     1      10.532   2.021   0.570  1.00  0.00     0.034 C 
ENDBRANCH  32  33
ENDBRANCH  28  32
ENDBRANCH  25  28
ENDBRANCH  21  22
ENDBRANCH  20  21
ENDBRANCH  19  20
ENDBRANCH  17  19
ENDBRANCH  15  16
ENDBRANCH   5  15
BRANCH   1  35
HETATM   35  C4  UNL     1      -6.103   3.190  -0.474  1.00  0.00     0.145 C 
BRANCH  35  36
HETATM   36  C3  UNL     1      -6.282   4.153   0.683  1.00  0.00     0.021 C 
BRANCH  36  37
HETATM   37  C2  UNL     1      -6.765   5.470   0.056  1.00  0.00    -0.003 C 
HETATM   38  C1  UNL     1      -8.081   5.198  -0.665  1.00  0.00     0.005 C 
ENDBRANCH  36  37
ENDBRANCH  35  36
ENDBRANCH   1  35
BRANCH   8  39
HETATM   39  N6  UNL     1      -4.325  -4.640  -0.479  1.00  0.00    -0.390 N 
HETATM   40  C24 UNL     1      -5.118  -5.832  -0.698  1.00  0.00     0.149 C 
HETATM   41  C25 UNL     1      -2.886  -4.764  -0.413  1.00  0.00     0.149 C 
ENDBRANCH   8  39
TORSDOF 13
