REMARK  3 active torsions:
REMARK  status: ('A' for Active; 'I' for Inactive)
REMARK    1  A    between atoms: N1_1  and  C1_5 
REMARK    2  A    between atoms: C1_5  and  C2_6 
REMARK    3  A    between atoms: C2_6  and  N2_7 
ROOT
HETATM    1  C2  UNL     1       0.065   0.369   0.195  1.00  0.00     0.147 C 
HETATM    2  C3  UNL     1      -0.946   0.857  -0.819  1.00  0.00     0.040 C 
HETATM    3  C4  UNL     1      -1.685  -0.478  -0.665  1.00  0.00     0.005 C 
HETATM    4  C5  UNL     1      -0.948  -0.617   0.664  1.00  0.00     0.040 C 
ENDROOT
BRANCH   1   5
HETATM    5  C1  UNL     1       1.277  -0.164  -0.505  1.00  0.00     0.268 C 
BRANCH   5   6
HETATM    6  N1  UNL     1       2.238  -0.773   0.368  1.00  0.00    -0.077 N 
ATOM      7  H13 UNL     1       2.509  -0.126   1.108  1.00  0.00     0.274 HD
ATOM      8  H12 UNL     1       1.799  -1.503   0.929  1.00  0.00     0.274 HD
ATOM      9  H11 UNL     1       3.063  -1.136  -0.109  1.00  0.00     0.274 HD
ENDBRANCH   5   6
ENDBRANCH   1   5
BRANCH   1  10
HETATM   10  N2  UNL     1       0.344   1.393   1.188  1.00  0.00    -0.069 N 
ATOM     11  H23 UNL     1       1.025   1.053   1.867  1.00  0.00     0.275 HD
ATOM     12  H22 UNL     1       0.878   2.156   0.771  1.00  0.00     0.275 HD
ATOM     13  H21 UNL     1      -0.481   1.756   1.665  1.00  0.00     0.275 HD
ENDBRANCH   1  10
TORSDOF 3
