REMARK  9 active torsions:
REMARK  status: ('A' for Active; 'I' for Inactive)
REMARK    1  A    between atoms: N1_1  and  C1_5 
REMARK    2  A    between atoms: C1_5  and  C2_6 
REMARK    3  A    between atoms: C2_6  and  C3_7 
REMARK       I    between atoms: C3_7  and  N2_9 
REMARK    4  A    between atoms: C5_11  and  O2_12 
REMARK    5  A    between atoms: C6_14  and  O3_15 
REMARK    6  A    between atoms: C7_17  and  O4_18 
REMARK    7  A    between atoms: O4_18  and  N3_19 
REMARK    8  A    between atoms: N3_19  and  C8_21 
REMARK    9  A    between atoms: C9_26  and  O5_27 
ROOT
HETATM    1  C3  UNL     1       3.095   0.273   0.929  1.00  0.00     0.238 C 
HETATM    2  O1  UNL     1       4.085  -0.273   1.531  1.00  0.00    -0.272 OA
HETATM    3  N2  UNL     1       2.062  -0.529   0.367  1.00  0.00    -0.246 N 
HETATM    4  C4  UNL     1       2.229  -1.939   0.532  1.00  0.00     0.183 C 
HETATM    5  C5  UNL     1       0.986  -2.646   1.013  1.00  0.00     0.170 C 
HETATM    6  C6  UNL     1      -0.126  -2.627  -0.009  1.00  0.00     0.197 C 
HETATM    7  C7  UNL     1      -0.699  -1.244  -0.192  1.00  0.00     0.293 C 
HETATM    8  N7  UNL     1       0.214  -0.506  -1.038  1.00  0.00    -0.088 NA
HETATM    9  N8  UNL     1       1.068   0.229  -0.247  1.00  0.00    -0.024 NA
ENDROOT
BRANCH   7  10
HETATM   10  O4  UNL     1      -1.986  -1.356  -0.720  1.00  0.00    -0.252 OA
BRANCH  10  11
HETATM   11  N3  UNL     1      -3.073  -0.877  -0.040  1.00  0.00    -0.243 N 
ATOM     12  H3  UNL     1      -3.333  -1.243   0.876  1.00  0.00     0.196 HD
BRANCH  11  13
HETATM   13  C8  UNL     1      -3.766   0.075  -0.620  1.00  0.00     0.209 A 
HETATM   14  N4  UNL     1      -3.434   0.558  -1.813  1.00  0.00    -0.277 N 
HETATM   15  N5  UNL     1      -4.139   1.515  -2.383  1.00  0.00    -0.263 N 
ATOM     16  H4  UNL     1      -2.619   0.181  -2.296  1.00  0.00     0.189 HD
HETATM   17  C9  UNL     1      -5.222   2.061  -1.814  1.00  0.00     0.239 A 
ATOM     18  H5  UNL     1      -3.847   1.855  -3.299  1.00  0.00     0.190 HD
HETATM   19  N6  UNL     1      -5.571   1.578  -0.598  1.00  0.00    -0.285 N 
HETATM   20  C10 UNL     1      -4.881   0.606   0.017  1.00  0.00     0.295 A 
ATOM     21  H6  UNL     1      -6.390   1.968  -0.132  1.00  0.00     0.172 HD
HETATM   22  O6  UNL     1      -5.219   0.173   1.141  1.00  0.00    -0.264 OA
BRANCH  17  23
HETATM   23  O5  UNL     1      -5.904   3.053  -2.471  1.00  0.00    -0.331 OA
ATOM     24  H5  UNL     1      -6.672   3.440  -2.068  1.00  0.00     0.221 HD
ENDBRANCH  17  23
ENDBRANCH  11  13
ENDBRANCH  10  11
ENDBRANCH   7  10
BRANCH   6  25
HETATM   25  O3  UNL     1       0.355  -3.110  -1.202  1.00  0.00    -0.389 OA
ATOM     26  H3  UNL     1      -0.344  -3.098  -1.845  1.00  0.00     0.210 HD
ENDBRANCH   6  25
BRANCH   5  27
HETATM   27  O2  UNL     1       0.570  -2.171   2.250  1.00  0.00    -0.391 OA
ATOM     28  H2  UNL     1      -0.213  -2.616   2.553  1.00  0.00     0.210 HD
ENDBRANCH   5  27
BRANCH   1  29
HETATM   29  C2  UNL     1       3.078   1.756   0.847  1.00  0.00     0.131 C 
BRANCH  29  30
HETATM   30  C1  UNL     1       4.283   2.344   1.521  1.00  0.00     0.239 C 
BRANCH  30  31
HETATM   31  N1  UNL     1       5.460   1.819   0.829  1.00  0.00    -0.079 N 
ATOM     32  H13 UNL     1       5.480   0.800   0.790  1.00  0.00     0.274 HD
ATOM     33  H12 UNL     1       5.442   1.988  -0.177  1.00  0.00     0.274 HD
ATOM     34  H11 UNL     1       6.279   2.219   1.287  1.00  0.00     0.274 HD
ENDBRANCH  30  31
ENDBRANCH  29  30
ENDBRANCH   1  29
TORSDOF 9
