REMARK  9 active torsions:
REMARK  status: ('A' for Active; 'I' for Inactive)
REMARK    1  A    between atoms: N1_1  and  C1_5 
REMARK    2  A    between atoms: C1_5  and  C2_6 
REMARK    3  A    between atoms: C1_5  and  C3_9 
REMARK    4  A    between atoms: C3_9  and  O3_10 
REMARK    5  A    between atoms: C4_12  and  O4_13 
REMARK    6  A    between atoms: C5_15  and  N2_16 
REMARK    7  A    between atoms: C10_26  and  C11_27 
REMARK    8  A    between atoms: C11_27  and  O8_28 
REMARK    9  A    between atoms: N4_30  and  N5_31 
ROOT
HETATM    1  C3  UNL     1      -1.365  -0.587  -0.191  1.00  0.00     0.218 C 
HETATM    2  C4  UNL     1       0.082  -0.962   0.032  1.00  0.00     0.227 C 
HETATM    3  C5  UNL     1       0.887   0.305  -0.253  1.00  0.00     0.268 C 
HETATM    4  O7  UNL     1       0.585   1.168   0.785  1.00  0.00    -0.335 OA
HETATM    5  C10 UNL     1      -0.726   1.554   0.785  1.00  0.00     0.267 C 
HETATM    6  N4  UNL     1      -1.654   0.765   0.073  1.00  0.00    -0.263 N 
ENDROOT
BRANCH   1   7
HETATM    7  C1  UNL     1      -2.179  -1.429   0.801  1.00  0.00     0.342 C 
BRANCH   7   8
HETATM    8  N1  UNL     1      -1.835  -2.849   0.631  1.00  0.00    -0.060 N 
ATOM      9  H13 UNL     1      -2.375  -3.452   1.252  1.00  0.00     0.275 HD
ATOM     10  H12 UNL     1      -2.166  -3.220  -0.259  1.00  0.00     0.275 HD
ATOM     11  H11 UNL     1      -0.830  -2.977   0.750  1.00  0.00     0.275 HD
ENDBRANCH   7   8
BRANCH   7  12
HETATM   12  C2  UNL     1      -3.621  -1.246   0.630  1.00  0.00     0.209 C 
HETATM   13  O1  UNL     1      -4.110  -0.097   0.738  1.00  0.00    -0.646 OA
HETATM   14  O2  UNL     1      -4.488  -2.287   0.352  1.00  0.00    -0.646 OA
ENDBRANCH   7  12
ENDBRANCH   1   7
BRANCH   1  15
HETATM   15  O3  UNL     1      -1.658  -0.981  -1.505  1.00  0.00    -0.365 OA
ATOM     16  H3  UNL     1      -1.154  -0.460  -2.119  1.00  0.00     0.212 HD
ENDBRANCH   1  15
BRANCH   2  17
HETATM   17  O4  UNL     1       0.519  -1.921  -0.872  1.00  0.00    -0.386 OA
ATOM     18  H4  UNL     1       1.429  -2.157  -0.732  1.00  0.00     0.210 HD
ENDBRANCH   2  17
BRANCH   6  19
HETATM   19  N5  UNL     1      -2.184   1.457  -0.988  1.00  0.00    -0.342 N 
ATOM     20  H52 UNL     1      -2.855   0.887  -1.503  1.00  0.00     0.176 HD
ATOM     21  H51 UNL     1      -2.393   2.437  -0.797  1.00  0.00     0.176 HD
ENDBRANCH   6  19
BRANCH   3  22
HETATM   22  N2  UNL     1       2.299   0.018  -0.343  1.00  0.00    -0.279 N 
HETATM   23  C6  UNL     1       2.986   0.119  -1.508  1.00  0.00     0.104 A 
HETATM   24  C7  UNL     1       4.334  -0.154  -1.602  1.00  0.00     0.092 A 
HETATM   25  C8  UNL     1       5.011  -0.546  -0.461  1.00  0.00     0.250 A 
HETATM   26  O5  UNL     1       6.242  -0.810  -0.478  1.00  0.00    -0.268 OA
HETATM   27  N3  UNL     1       4.299  -0.637   0.682  1.00  0.00    -0.275 N 
HETATM   28  C9  UNL     1       2.983  -0.365   0.749  1.00  0.00     0.331 A 
ATOM     29  H3  UNL     1       4.781  -0.925   1.534  1.00  0.00     0.173 HD
HETATM   30  O6  UNL     1       2.390  -0.475   1.858  1.00  0.00    -0.246 OA
ENDBRANCH   3  22
BRANCH   5  31
HETATM   31  C11 UNL     1      -0.874   3.051   0.463  1.00  0.00     0.219 C 
BRANCH  31  32
HETATM   32  O8  UNL     1       0.085   3.750   1.215  1.00  0.00    -0.397 OA
ATOM     33  H8  UNL     1      -0.006   4.674   1.016  1.00  0.00     0.209 HD
ENDBRANCH  31  32
ENDBRANCH   5  31
TORSDOF 9
