REMARK  16 active torsions:
REMARK  status: ('A' for Active; 'I' for Inactive)
REMARK    1  A    between atoms: C4_4  and  N1_5 
REMARK    2  A    between atoms: N1_5  and  C5_7 
REMARK    3  A    between atoms: C6_8  and  N2_9 
REMARK    4  A    between atoms: N2_9  and  C7_11 
REMARK    5  A    between atoms: C7_11  and  C8_12 
REMARK    6  A    between atoms: C8_12  and  C9_13 
REMARK    7  A    between atoms: C9_13  and  N3_14 
REMARK    8  A    between atoms: N3_14  and  C10_17 
REMARK    9  A    between atoms: C10_17  and  C11_18 
REMARK   10  A    between atoms: C11_18  and  C12_19 
REMARK   11  A    between atoms: C12_19  and  C13_20 
REMARK   12  A    between atoms: C13_20  and  N4_21 
REMARK   13  A    between atoms: N4_21  and  C14_24 
REMARK   14  A    between atoms: C14_24  and  C15_25 
REMARK   15  A    between atoms: C15_25  and  N5_26 
REMARK   16  A    between atoms: N5_26  and  C16_28 
ROOT
HETATM    1  N3  UNL     1       0.089  -0.587  -0.615  1.00  0.00    -0.075 N 
ATOM      2  H31 UNL     1       1.011  -0.886  -0.932  1.00  0.00     0.277 HD
ATOM      3  H32 UNL     1      -0.363  -0.463  -1.521  1.00  0.00     0.277 HD
ENDROOT
BRANCH   1   4
HETATM    4  C9  UNL     1       0.167   0.667   0.105  1.00  0.00     0.234 C 
BRANCH   4   5
HETATM    5  C8  UNL     1       1.387   1.465  -0.452  1.00  0.00     0.047 C 
BRANCH   5   6
HETATM    6  C7  UNL     1       2.506   0.432  -0.327  1.00  0.00     0.120 C 
BRANCH   6   7
HETATM    7  N2  UNL     1       3.745   1.015  -0.695  1.00  0.00    -0.398 N 
ATOM      8  H2  UNL     1       3.984   1.994  -0.538  1.00  0.00     0.158 HD
BRANCH   7   9
HETATM    9  C6  UNL     1       4.605   0.083  -1.302  1.00  0.00     0.100 C 
HETATM   10  C5  UNL     1       5.160  -1.082  -0.666  1.00  0.00     0.104 C 
BRANCH  10  11
HETATM   11  N1  UNL     1       6.016  -1.098   0.447  1.00  0.00    -0.371 N 
ATOM     12  H1  UNL     1       5.750  -1.523   1.335  1.00  0.00     0.164 HD
BRANCH  11  13
HETATM   13  C4  UNL     1       7.284  -0.477   0.245  1.00  0.00    -0.014 C 
HETATM   14  C3  UNL     1       7.359   0.978   0.574  1.00  0.00     0.052 C 
HETATM   15  C2  UNL     1       8.540   1.587  -0.157  1.00  0.00     0.006 C 
HETATM   16  C1  UNL     1       9.783   0.863   0.235  1.00  0.00     0.001 C 
HETATM   17  C22 UNL     1       9.723  -0.624   0.058  1.00  0.00     0.006 C 
HETATM   18  C21 UNL     1       8.483  -1.222   0.708  1.00  0.00     0.052 C 
ENDBRANCH  11  13
ENDBRANCH  10  11
ENDBRANCH   7   9
ENDBRANCH   6   7
ENDBRANCH   5   6
ENDBRANCH   4   5
ENDBRANCH   1   4
BRANCH   1  19
HETATM   19  C10 UNL     1      -0.544  -1.601   0.133  1.00  0.00     0.232 C 
BRANCH  19  20
HETATM   20  C11 UNL     1      -1.995  -1.559   0.301  1.00  0.00     0.029 C 
BRANCH  20  21
HETATM   21  C12 UNL     1      -2.533  -0.251   0.771  1.00  0.00     0.029 C 
BRANCH  21  22
HETATM   22  C13 UNL     1      -4.022  -0.389   1.095  1.00  0.00     0.232 C 
BRANCH  22  23
HETATM   23  N4  UNL     1      -4.573   0.901   1.408  1.00  0.00    -0.074 N 
ATOM     24  H42 UNL     1      -5.470   0.820   1.887  1.00  0.00     0.277 HD
ATOM     25  H41 UNL     1      -4.044   1.366   2.146  1.00  0.00     0.277 HD
BRANCH  23  26
HETATM   26  C14 UNL     1      -4.677   1.745   0.199  1.00  0.00     0.251 C 
BRANCH  26  27
HETATM   27  C15 UNL     1      -5.737   1.087  -0.706  1.00  0.00     0.141 C 
BRANCH  27  28
HETATM   28  N5  UNL     1      -6.934   1.042   0.037  1.00  0.00    -0.415 N 
ATOM     29  H5  UNL     1      -7.081   1.608   0.873  1.00  0.00     0.153 HD
BRANCH  28  30
HETATM   30  C16 UNL     1      -7.909   0.162  -0.456  1.00  0.00     0.076 C 
HETATM   31  C17 UNL     1      -9.318   0.644  -0.514  1.00  0.00     0.024 C 
HETATM   32  C18 UNL     1     -10.167  -0.613  -0.415  1.00  0.00     0.002 C 
HETATM   33  C19 UNL     1      -9.258  -1.729   0.012  1.00  0.00     0.002 C 
HETATM   34  C20 UNL     1      -8.013  -1.051   0.505  1.00  0.00     0.024 C 
ENDBRANCH  28  30
ENDBRANCH  27  28
ENDBRANCH  26  27
ENDBRANCH  23  26
ENDBRANCH  22  23
ENDBRANCH  21  22
ENDBRANCH  20  21
ENDBRANCH  19  20
ENDBRANCH   1  19
TORSDOF 16
