REMARK  16 active torsions:
REMARK  status: ('A' for Active; 'I' for Inactive)
REMARK    1  A    between atoms: C2_2  and  C3_3 
REMARK    2  A    between atoms: C3_3  and  C4_4 
REMARK    3  A    between atoms: C4_4  and  O1_5 
REMARK    4  A    between atoms: O1_5  and  C5_6 
REMARK    5  A    between atoms: C5_6  and  C6_7 
REMARK    6  A    between atoms: C6_7  and  C7_8 
REMARK    7  A    between atoms: C7_8  and  N1_9 
REMARK    8  A    between atoms: N1_9  and  C8_12 
REMARK    9  A    between atoms: C8_12  and  C9_13 
REMARK   10  A    between atoms: C9_13  and  N2_14 
REMARK   11  A    between atoms: N2_14  and  C10_17 
REMARK   12  A    between atoms: C10_17  and  C11_18 
REMARK   13  A    between atoms: C16_23  and  N3_24 
REMARK   14  A    between atoms: N3_24  and  C17_26 
REMARK   15  A    between atoms: C17_26  and  C18_27 
REMARK   16  A    between atoms: C18_27  and  N4_28 
REMARK       I    between atoms: N4_28  and  C19_30 
ROOT
HETATM    1  C10 UNL     1       1.596  -0.277   2.091  1.00  0.00     0.270 C 
ENDROOT
BRANCH   1   2
HETATM    2  N2  UNL     1       0.214  -0.650   1.955  1.00  0.00    -0.070 N 
ATOM      3  H22 UNL     1       0.108  -1.661   2.032  1.00  0.00     0.277 HD
ATOM      4  H21 UNL     1      -0.099  -0.516   0.994  1.00  0.00     0.277 HD
BRANCH   2   5
HETATM    5  C9  UNL     1      -0.663   0.016   2.864  1.00  0.00     0.260 C 
BRANCH   5   6
HETATM    6  C8  UNL     1      -2.080  -0.492   2.558  1.00  0.00     0.259 C 
BRANCH   6   7
HETATM    7  N1  UNL     1      -2.370  -0.151   1.187  1.00  0.00    -0.073 N 
ATOM      8  H12 UNL     1      -1.649  -0.522   0.568  1.00  0.00     0.277 HD
ATOM      9  H11 UNL     1      -2.235   0.848   1.033  1.00  0.00     0.277 HD
BRANCH   7  10
HETATM   10  C7  UNL     1      -3.668  -0.554   0.739  1.00  0.00     0.234 C 
BRANCH  10  11
HETATM   11  C6  UNL     1      -4.772   0.223   1.419  1.00  0.00     0.054 C 
BRANCH  11  12
HETATM   12  C5  UNL     1      -6.090  -0.269   0.876  1.00  0.00     0.169 C 
BRANCH  12  13
HETATM   13  O1  UNL     1      -6.167  -0.079  -0.485  1.00  0.00    -0.391 OA
BRANCH  13  14
HETATM   14  C4  UNL     1      -6.060   1.220  -0.908  1.00  0.00     0.171 C 
BRANCH  14  15
HETATM   15  C3  UNL     1      -6.164   1.267  -2.406  1.00  0.00     0.052 C 
BRANCH  15  16
HETATM   16  C2  UNL     1      -7.428   0.766  -2.946  1.00  0.00    -0.035 C 
HETATM   17  C1  UNL     1      -8.471   0.324  -2.280  1.00  0.00     0.007 C 
ENDBRANCH  15  16
ENDBRANCH  14  15
ENDBRANCH  13  14
ENDBRANCH  12  13
ENDBRANCH  11  12
ENDBRANCH  10  11
ENDBRANCH   7  10
ENDBRANCH   6   7
ENDBRANCH   5   6
ENDBRANCH   2   5
ENDBRANCH   1   2
BRANCH   1  18
HETATM   18  C11 UNL     1       2.369  -1.071   1.069  1.00  0.00    -0.030 A 
HETATM   19  C12 UNL     1       2.043  -2.394   0.865  1.00  0.00     0.015 A 
HETATM   20  C13 UNL     1       2.727  -3.150  -0.059  1.00  0.00    -0.059 A 
HETATM   21  C14 UNL     1       2.354  -4.587  -0.260  1.00  0.00     0.048 C 
HETATM   22  C15 UNL     1       3.736  -2.552  -0.769  1.00  0.00     0.036 A 
HETATM   23  C16 UNL     1       4.098  -1.230  -0.599  1.00  0.00     0.029 A 
HETATM   24  C20 UNL     1       3.378  -0.523   0.340  1.00  0.00     0.038 A 
BRANCH  23  25
HETATM   25  N3  UNL     1       5.152  -0.639  -1.356  1.00  0.00    -0.388 N 
ATOM     26  H3  UNL     1       5.680  -1.174  -2.045  1.00  0.00     0.159 HD
BRANCH  25  27
HETATM   27  C17 UNL     1       5.441   0.778  -1.095  1.00  0.00     0.139 C 
BRANCH  27  28
HETATM   28  C18 UNL     1       6.569   1.167  -1.999  1.00  0.00     0.143 C 
BRANCH  28  29
HETATM   29  N4  UNL     1       6.916   2.548  -1.815  1.00  0.00    -0.344 N 
HETATM   30  C19 UNL     1       7.370   3.051  -0.574  1.00  0.00     0.328 C 
HETATM   31  N5  UNL     1       7.707   4.440  -0.413  1.00  0.00    -0.040 NA
HETATM   32  O2  UNL     1       7.504   2.337   0.446  1.00  0.00    -0.251 OA
ATOM     33  H4  UNL     1       6.832   3.187  -2.605  1.00  0.00     0.163 HD
ENDBRANCH  28  29
ENDBRANCH  27  28
ENDBRANCH  25  27
ENDBRANCH  23  25
ENDBRANCH   1  18
TORSDOF 16
