REMARK  17 active torsions:
REMARK  status: ('A' for Active; 'I' for Inactive)
REMARK    1  A    between atoms: C4_4  and  C5_5 
REMARK    2  A    between atoms: C5_5  and  N1_6 
REMARK    3  A    between atoms: N1_6  and  C6_9 
REMARK    4  A    between atoms: C6_9  and  C7_10 
REMARK    5  A    between atoms: C7_10  and  C8_11 
REMARK    6  A    between atoms: C8_11  and  C9_12 
REMARK    7  A    between atoms: C9_12  and  N2_13 
REMARK    8  A    between atoms: N2_13  and  C10_15 
REMARK    9  A    between atoms: C10_15  and  C11_16 
REMARK   10  A    between atoms: C11_16  and  C12_17 
REMARK   11  A    between atoms: C12_17  and  C13_18 
REMARK   12  A    between atoms: C13_18  and  N3_19 
REMARK   13  A    between atoms: N3_19  and  C14_21 
REMARK   14  A    between atoms: C14_21  and  C15_22 
REMARK   15  A    between atoms: C15_22  and  N4_23 
REMARK   16  A    between atoms: N4_23  and  C16_26 
REMARK   17  A    between atoms: C16_26  and  C17_27 
ROOT
HETATM    1  C11 UNL     1      -0.334   0.937   0.296  1.00  0.00     0.021 C 
ENDROOT
BRANCH   1   2
HETATM    2  C10 UNL     1       0.499   1.198  -0.921  1.00  0.00     0.113 C 
BRANCH   2   3
HETATM    3  N2  UNL     1       1.724   0.474  -0.875  1.00  0.00    -0.421 N 
ATOM      4  H2  UNL     1       2.620   0.944  -0.744  1.00  0.00     0.153 HD
BRANCH   3   5
HETATM    5  C9  UNL     1       1.636  -0.944  -1.022  1.00  0.00     0.113 C 
BRANCH   5   6
HETATM    6  C8  UNL     1       3.082  -1.460  -0.846  1.00  0.00     0.021 C 
BRANCH   6   7
HETATM    7  C7  UNL     1       3.482  -1.055   0.559  1.00  0.00     0.029 C 
BRANCH   7   8
HETATM    8  C6  UNL     1       4.871  -1.446   0.928  1.00  0.00     0.232 C 
BRANCH   8   9
HETATM    9  N1  UNL     1       5.896  -0.839   0.104  1.00  0.00    -0.071 N 
ATOM     10  H12 UNL     1       5.833   0.179   0.083  1.00  0.00     0.277 HD
ATOM     11  H11 UNL     1       5.751  -1.006  -0.892  1.00  0.00     0.277 HD
BRANCH   9  12
HETATM   12  C5  UNL     1       7.181  -1.309   0.568  1.00  0.00     0.270 C 
BRANCH  12  13
HETATM   13  C4  UNL     1       8.303  -0.700  -0.160  1.00  0.00    -0.033 A 
HETATM   14  C3  UNL     1       9.059   0.266   0.463  1.00  0.00     0.009 A 
HETATM   15  C2  UNL     1      10.131   0.883  -0.186  1.00  0.00     0.001 A 
HETATM   16  C1  UNL     1      10.408   0.489  -1.476  1.00  0.00     0.000 A 
HETATM   17  C23 UNL     1       9.665  -0.471  -2.110  1.00  0.00     0.001 A 
HETATM   18  C22 UNL     1       8.601  -1.073  -1.443  1.00  0.00     0.009 A 
ENDBRANCH  12  13
ENDBRANCH   9  12
ENDBRANCH   8   9
ENDBRANCH   7   8
ENDBRANCH   6   7
ENDBRANCH   5   6
ENDBRANCH   3   5
ENDBRANCH   2   3
ENDBRANCH   1   2
BRANCH   1  19
HETATM   19  C12 UNL     1      -1.659   1.709   0.272  1.00  0.00     0.021 C 
BRANCH  19  20
HETATM   20  C13 UNL     1      -2.353   1.388   1.562  1.00  0.00     0.113 C 
BRANCH  20  21
HETATM   21  N3  UNL     1      -3.615   2.003   1.764  1.00  0.00    -0.420 N 
ATOM     22  H3  UNL     1      -3.750   2.732   2.464  1.00  0.00     0.153 HD
BRANCH  21  23
HETATM   23  C14 UNL     1      -4.692   1.546   0.932  1.00  0.00     0.141 C 
BRANCH  23  24
HETATM   24  C15 UNL     1      -5.083   0.127   1.269  1.00  0.00     0.251 C 
BRANCH  24  25
HETATM   25  N4  UNL     1      -6.171  -0.372   0.476  1.00  0.00    -0.070 N 
ATOM     26  H42 UNL     1      -5.981  -0.313  -0.524  1.00  0.00     0.277 HD
ATOM     27  H41 UNL     1      -6.268  -1.385   0.544  1.00  0.00     0.277 HD
BRANCH  25  28
HETATM   28  C16 UNL     1      -7.386   0.324   0.848  1.00  0.00     0.272 C 
BRANCH  28  29
HETATM   29  C17 UNL     1      -8.548  -0.216   0.060  1.00  0.00    -0.017 A 
HETATM   30  C18 UNL     1      -9.812   0.239   0.348  1.00  0.00     0.011 A 
HETATM   31  C19 UNL     1     -10.860  -0.259  -0.367  1.00  0.00     0.018 A 
HETATM   32  C20 UNL     1     -10.635  -1.194  -1.350  1.00  0.00     0.087 A 
HETATM   33  N5  UNL     1      -9.412  -1.634  -1.629  1.00  0.00    -0.375 N 
HETATM   34  C21 UNL     1      -8.378  -1.143  -0.924  1.00  0.00     0.096 A 
ATOM     35  H5  UNL     1      -9.262  -2.328  -2.361  1.00  0.00     0.164 HD
ENDBRANCH  28  29
ENDBRANCH  25  28
ENDBRANCH  24  25
ENDBRANCH  23  24
ENDBRANCH  21  23
ENDBRANCH  20  21
ENDBRANCH  19  20
ENDBRANCH   1  19
TORSDOF 17
