REMARK  18 active torsions:
REMARK  status: ('A' for Active; 'I' for Inactive)
REMARK       I    between atoms: C1_4  and  N3_6 
REMARK    1  A    between atoms: N3_6  and  C2_8 
REMARK    2  A    between atoms: N4_11  and  C5_12 
REMARK    3  A    between atoms: C5_12  and  C6_13 
REMARK    4  A    between atoms: C5_12  and  C18_30 
REMARK    5  A    between atoms: C6_13  and  C7_14 
REMARK       I    between atoms: C7_14  and  N5_16 
REMARK    6  A    between atoms: N5_16  and  C8_18 
REMARK    7  A    between atoms: C11_21  and  O2_22 
REMARK       I    between atoms: C18_30  and  N6_32 
REMARK    8  A    between atoms: N6_32  and  C19_34 
REMARK    9  A    between atoms: C19_34  and  C20_35 
REMARK   10  A    between atoms: C19_34  and  C21_38 
REMARK   11  A    between atoms: C20_35  and  O4_36 
REMARK       I    between atoms: C21_38  and  N7_40 
REMARK       I    between atoms: N7_40  and  C22_42 
REMARK   12  A    between atoms: C22_42  and  C23_44 
REMARK       I    between atoms: C23_44  and  N8_46 
REMARK   13  A    between atoms: N8_46  and  S1_48 
REMARK   14  A    between atoms: S1_48  and  N9_49 
REMARK   15  A    between atoms: S1_48  and  O8_52 
REMARK   16  A    between atoms: S1_48  and  O9_54 
REMARK   17  A    between atoms: S1_48  and  N10_56 
REMARK   18  A    between atoms: N10_56  and  N11_58 
ROOT
HETATM    1  C18 UNL     1      -0.413   0.060  -1.293  1.00  0.00     0.242 C 
HETATM    2  O3  UNL     1      -0.604   1.265  -1.040  1.00  0.00    -0.271 OA
HETATM    3  N6  UNL     1       0.901  -0.366  -1.630  1.00  0.00    -0.344 N 
ATOM      4  H6  UNL     1       1.051  -1.354  -1.836  1.00  0.00     0.163 HD
ENDROOT
BRANCH   1   5
HETATM    5  C5  UNL     1      -1.554  -0.882  -1.235  1.00  0.00     0.189 C 
BRANCH   5   6
HETATM    6  N4  UNL     1      -1.403  -1.849  -0.173  1.00  0.00    -0.350 N 
HETATM    7  C4  UNL     1      -0.405  -1.798   0.725  1.00  0.00     0.094 A 
HETATM    8  C3  UNL     1      -0.553  -2.862   1.588  1.00  0.00     0.048 A 
HETATM    9  C2  UNL     1      -1.663  -3.578   1.212  1.00  0.00     0.051 A 
HETATM   10  C24 UNL     1      -2.170  -2.907   0.098  1.00  0.00     0.121 A 
BRANCH   9  11
HETATM   11  N3  UNL     1      -2.210  -4.757   1.809  1.00  0.00    -0.330 N 
HETATM   12  C1  UNL     1      -3.365  -5.381   1.273  1.00  0.00     0.186 C 
HETATM   13  N1  UNL     1      -4.492  -4.769   1.329  1.00  0.00    -0.373 N 
HETATM   14  N2  UNL     1      -3.298  -6.658   0.681  1.00  0.00    -0.064 NA
ATOM     15  H12 UNL     1      -5.323  -5.218   0.943  1.00  0.00     0.158 HD
ATOM     16  H11 UNL     1      -4.540  -3.845   1.758  1.00  0.00     0.158 HD
ATOM     17  H3  UNL     1      -1.762  -5.156   2.634  1.00  0.00     0.168 HD
ENDBRANCH   9  11
ENDBRANCH   5   6
BRANCH   5  18
HETATM   18  C6  UNL     1      -2.896  -0.272  -1.358  1.00  0.00     0.138 C 
BRANCH  18  19
HETATM   19  C7  UNL     1      -3.355   0.469  -0.134  1.00  0.00     0.224 C 
HETATM   20  O1  UNL     1      -2.653   0.547   0.875  1.00  0.00    -0.273 OA
HETATM   21  N5  UNL     1      -4.627   1.070  -0.194  1.00  0.00    -0.326 N 
ATOM     22  H5  UNL     1      -5.118   0.944  -1.079  1.00  0.00     0.169 HD
BRANCH  21  23
HETATM   23  C8  UNL     1      -5.322   1.808   0.759  1.00  0.00     0.046 A 
HETATM   24  C9  UNL     1      -4.858   2.019   2.043  1.00  0.00     0.033 A 
HETATM   25  C10 UNL     1      -5.567   2.737   2.969  1.00  0.00     0.039 A 
HETATM   26  C11 UNL     1      -6.776   3.286   2.675  1.00  0.00     0.076 A 
HETATM   27  C12 UNL     1      -7.258   3.085   1.390  1.00  0.00     0.009 A 
HETATM   28  C13 UNL     1      -8.502   3.666   1.123  1.00  0.00     0.015 A 
HETATM   29  C17 UNL     1      -6.565   2.364   0.434  1.00  0.00     0.004 A 
HETATM   30  C14 UNL     1      -9.020   3.496  -0.139  1.00  0.00     0.001 A 
HETATM   31  C15 UNL     1      -8.369   2.793  -1.112  1.00  0.00     0.001 A 
HETATM   32  C16 UNL     1      -7.135   2.228  -0.813  1.00  0.00     0.014 A 
BRANCH  26  33
HETATM   33  O2  UNL     1      -7.521   4.022   3.597  1.00  0.00    -0.360 OA
ATOM     34  H2  UNL     1      -8.366   4.406   3.392  1.00  0.00     0.217 HD
ENDBRANCH  26  33
ENDBRANCH  21  23
ENDBRANCH  18  19
ENDBRANCH   5  18
ENDBRANCH   1   5
BRANCH   3  35
HETATM   35  C19 UNL     1       2.048   0.538  -1.696  1.00  0.00     0.200 C 
BRANCH  35  36
HETATM   36  C20 UNL     1       2.378   0.783  -3.180  1.00  0.00     0.199 C 
BRANCH  36  37
HETATM   37  O4  UNL     1       3.454   1.650  -3.229  1.00  0.00    -0.398 OA
ATOM     38  H4  UNL     1       3.658   1.801  -4.145  1.00  0.00     0.209 HD
ENDBRANCH  36  37
ENDBRANCH  35  36
BRANCH  35  39
HETATM   39  C21 UNL     1       3.181  -0.003  -0.947  1.00  0.00     0.249 C 
HETATM   40  O5  UNL     1       3.046  -1.158  -0.399  1.00  0.00    -0.271 OA
HETATM   41  N7  UNL     1       4.431   0.615  -0.759  1.00  0.00    -0.287 N 
HETATM   42  C22 UNL     1       5.487  -0.014  -0.059  1.00  0.00     0.317 C 
ATOM     43  H7  UNL     1       4.581   1.549  -1.141  1.00  0.00     0.172 HD
HETATM   44  O6  UNL     1       5.278  -1.151   0.431  1.00  0.00    -0.262 OA
BRANCH  42  45
HETATM   45  C23 UNL     1       6.794   0.614   0.104  1.00  0.00     0.323 C 
HETATM   46  O7  UNL     1       6.970   1.767  -0.370  1.00  0.00    -0.261 OA
HETATM   47  N8  UNL     1       7.823  -0.052   0.766  1.00  0.00    -0.248 N 
ATOM     48  H8  UNL     1       7.666  -0.986   1.145  1.00  0.00     0.182 HD
BRANCH  47  49
HETATM   49  S1  UNL     1       9.526   0.784   0.964  1.00  0.00     0.136 SA
BRANCH  49  50
HETATM   50  N9  UNL     1      10.889  -0.383   1.579  1.00  0.00    -0.330 N 
ATOM     51  H92 UNL     1      10.711  -1.367   1.781  1.00  0.00     0.169 HD
ATOM     52  H91 UNL     1      11.800   0.064   1.685  1.00  0.00     0.169 HD
ENDBRANCH  49  50
BRANCH  49  53
HETATM   53  O8  UNL     1       9.773   2.453   0.687  1.00  0.00    -0.292 OA
ATOM     54  H8  UNL     1      10.621   2.869   0.786  1.00  0.00     0.232 HD
ENDBRANCH  49  53
BRANCH  49  55
HETATM   55  O9  UNL     1       9.191   1.071   2.504  1.00  0.00    -0.292 OA
ATOM     56  H9  UNL     1      10.039   1.487   2.603  1.00  0.00     0.232 HD
ENDBRANCH  49  55
BRANCH  49  57
HETATM   57  N10 UNL     1       9.966   0.451  -0.713  1.00  0.00    -0.237 N 
ATOM     58  H10 UNL     1       9.304   0.016  -1.356  1.00  0.00     0.199 HD
BRANCH  57  59
HETATM   59  N11 UNL     1      11.279   0.812  -1.138  1.00  0.00    -0.336 N 
ATOM     60 2H11 UNL     1      11.929   1.247  -0.483  1.00  0.00     0.177 HD
ATOM     61 1H11 UNL     1      11.533   0.620  -2.107  1.00  0.00     0.177 HD
ENDBRANCH  57  59
ENDBRANCH  49  57
ENDBRANCH  47  49
ENDBRANCH  42  45
ENDBRANCH  35  39
ENDBRANCH   3  35
TORSDOF 18
