REMARK  16 active torsions:
REMARK  status: ('A' for Active; 'I' for Inactive)
REMARK    1  A    between atoms: N1_1  and  C1_4 
REMARK    2  A    between atoms: C5_15  and  N5_16 
REMARK    3  A    between atoms: N5_16  and  C6_17 
REMARK    4  A    between atoms: C8_22  and  N7_23 
REMARK    5  A    between atoms: N7_23  and  C9_25 
REMARK    6  A    between atoms: C11_27  and  C12_28 
REMARK       I    between atoms: C12_28  and  N8_30 
REMARK    7  A    between atoms: N8_30  and  C13_32 
REMARK    8  A    between atoms: C18_37  and  C19_38 
REMARK       I    between atoms: C19_38  and  N9_40 
REMARK    9  A    between atoms: N9_40  and  C20_42 
REMARK   10  A    between atoms: C20_42  and  C21_43 
REMARK   11  A    between atoms: C20_42  and  C24_48 
REMARK   12  A    between atoms: C21_43  and  C22_44 
REMARK   13  A    between atoms: C22_44  and  C23_45 
REMARK   14  A    between atoms: C24_48  and  N10_49 
REMARK   15  A    between atoms: C25_51  and  N11_52 
REMARK   16  A    between atoms: N11_52  and  N12_54 
ROOT
HETATM    1  C9  UNL     1      -2.916  -0.386   1.204  1.00  0.00     0.107 A 
HETATM    2  C10 UNL     1      -2.317  -0.460  -0.020  1.00  0.00     0.083 A 
HETATM    3  C11 UNL     1      -0.956  -0.780  -0.153  1.00  0.00     0.108 A 
HETATM    4  N13 UNL     1      -0.248  -1.013   0.947  1.00  0.00    -0.304 N 
ATOM      5  H13 UNL     1       0.742  -1.250   0.888  1.00  0.00     0.171 HD
HETATM    6  C26 UNL     1      -0.876  -0.928   2.163  1.00  0.00     0.326 A 
HETATM    7  O6  UNL     1      -0.192  -1.150   3.206  1.00  0.00    -0.247 OA
HETATM    8  N14 UNL     1      -2.169  -0.624   2.296  1.00  0.00    -0.295 N 
ATOM      9  H14 UNL     1      -2.589  -0.572   3.224  1.00  0.00     0.172 HD
ENDROOT
BRANCH   3  10
HETATM   10  C12 UNL     1      -0.405  -0.881  -1.510  1.00  0.00     0.273 C 
HETATM   11  O2  UNL     1      -1.173  -0.667  -2.461  1.00  0.00    -0.266 OA
HETATM   12  N8  UNL     1       0.925  -1.207  -1.692  1.00  0.00    -0.321 N 
ATOM     13  H8  UNL     1       1.450  -1.333  -0.826  1.00  0.00     0.169 HD
BRANCH  12  14
HETATM   14  C13 UNL     1       1.691  -1.398  -2.875  1.00  0.00     0.050 A 
HETATM   15  C14 UNL     1       1.033  -1.814  -4.002  1.00  0.00     0.030 A 
HETATM   16  C15 UNL     1       1.694  -2.214  -5.163  1.00  0.00     0.002 A 
HETATM   17  C16 UNL     1       3.057  -2.165  -5.116  1.00  0.00     0.001 A 
HETATM   18  C17 UNL     1       3.767  -1.754  -4.016  1.00  0.00     0.019 A 
HETATM   19  C18 UNL     1       3.064  -1.358  -2.867  1.00  0.00     0.058 A 
BRANCH  19  20
HETATM   20  C19 UNL     1       3.807  -0.767  -1.781  1.00  0.00     0.254 C 
HETATM   21  O3  UNL     1       3.229  -0.150  -0.867  1.00  0.00    -0.268 OA
HETATM   22  N9  UNL     1       5.238  -0.830  -1.648  1.00  0.00    -0.351 N 
ATOM     23  H9  UNL     1       5.799  -1.333  -2.335  1.00  0.00     0.163 HD
BRANCH  22  24
HETATM   24  C20 UNL     1       5.889  -0.151  -0.493  1.00  0.00     0.103 C 
BRANCH  24  25
HETATM   25  C21 UNL     1       5.815  -1.029   0.701  1.00  0.00     0.037 C 
BRANCH  25  26
HETATM   26  C22 UNL     1       6.346  -0.560   2.001  1.00  0.00     0.115 C 
BRANCH  26  27
HETATM   27  C23 UNL     1       7.745  -0.262   2.171  1.00  0.00     0.172 C 
HETATM   28  O4  UNL     1       8.157   0.918   2.465  1.00  0.00    -0.648 OA
HETATM   29  O5  UNL     1       8.699  -1.269   2.017  1.00  0.00    -0.648 OA
ENDBRANCH  26  27
ENDBRANCH  25  26
ENDBRANCH  24  25
BRANCH  24  30
HETATM   30  C24 UNL     1       7.215   0.353  -0.921  1.00  0.00     0.145 C 
BRANCH  30  31
HETATM   31  N10 UNL     1       8.078  -0.763  -1.393  1.00  0.00    -0.383 N 
HETATM   32  C25 UNL     1       9.351  -0.562  -1.469  1.00  0.00     0.192 C 
ATOM     33  H10 UNL     1       7.674  -1.664  -1.650  1.00  0.00     0.160 HD
BRANCH  32  34
HETATM   34  N11 UNL     1      10.219  -1.574  -1.902  1.00  0.00    -0.303 N 
ATOM     35  H11 UNL     1       9.871  -2.528  -1.997  1.00  0.00     0.187 HD
BRANCH  34  36
HETATM   36  N12 UNL     1      11.542  -1.296  -2.202  1.00  0.00    -0.344 N 
ATOM     37 2H12 UNL     1      11.873  -0.337  -2.101  1.00  0.00     0.176 HD
ATOM     38 1H12 UNL     1      12.174  -2.032  -2.517  1.00  0.00     0.176 HD
ENDBRANCH  34  36
ENDBRANCH  32  34
ENDBRANCH  30  31
ENDBRANCH  24  30
ENDBRANCH  22  24
ENDBRANCH  19  20
ENDBRANCH  12  14
ENDBRANCH   3  10
BRANCH   1  39
HETATM   39  N7  UNL     1      -4.320  -0.082   1.326  1.00  0.00    -0.365 N 
ATOM     40  H7  UNL     1      -4.887   0.138   0.507  1.00  0.00     0.161 HD
BRANCH  39  41
HETATM   41  C8  UNL     1      -4.897  -0.100   2.659  1.00  0.00     0.172 C 
HETATM   42  C6  UNL     1      -6.401   0.137   2.644  1.00  0.00     0.387 C 
HETATM   43  N6  UNL     1      -6.542  -1.352   2.555  1.00  0.00    -0.039 N 
HETATM   44  C7  UNL     1      -5.249  -1.466   3.151  1.00  0.00     0.266 C 
ATOM     45  H62 UNL     1      -7.348  -1.825   2.963  1.00  0.00     0.281 HD
ATOM     46  H61 UNL     1      -6.748  -1.804   1.664  1.00  0.00     0.281 HD
BRANCH  42  47
HETATM   47  N5  UNL     1      -6.972   0.731   1.597  1.00  0.00    -0.392 NA
BRANCH  47  48
HETATM   48  C5  UNL     1      -7.551   1.427   0.840  1.00  0.00     0.206 A 
HETATM   49  N4  UNL     1      -7.616   1.137  -0.522  1.00  0.00    -0.326 N 
HETATM   50  C4  UNL     1      -8.250   1.893  -1.394  1.00  0.00     0.183 A 
ATOM     51  H4  UNL     1      -7.148   0.296  -0.860  1.00  0.00     0.169 HD
HETATM   52  N3  UNL     1      -8.889   3.014  -1.036  1.00  0.00    -0.346 N 
HETATM   53  C3  UNL     1      -8.897   3.396   0.248  1.00  0.00     0.135 A 
ATOM     54  H3  UNL     1      -9.369   3.576  -1.739  1.00  0.00     0.167 HD
HETATM   55  C2  UNL     1      -9.547   4.563   0.604  1.00  0.00     0.288 A 
HETATM   56  C27 UNL     1      -8.250   2.630   1.168  1.00  0.00     0.139 A 
HETATM   57  N2  UNL     1      -9.511   4.904   1.904  1.00  0.00    -0.154 N 
HETATM   58  O1  UNL     1     -10.159   5.310  -0.185  1.00  0.00    -0.265 OA
HETATM   59  C1  UNL     1      -8.872   4.148   2.809  1.00  0.00     0.679 A 
ATOM     60  H2  UNL     1      -9.980   5.757   2.209  1.00  0.00     0.187 HD
HETATM   61  N15 UNL     1      -8.225   2.990   2.466  1.00  0.00    -0.185 N 
ATOM     62  H15 UNL     1      -7.744   2.424   3.165  1.00  0.00     0.184 HD
BRANCH  59  63
HETATM   63  N1  UNL     1      -8.836   4.480   4.072  1.00  0.00    -0.234 N 
ATOM     64  H12 UNL     1      -9.318   5.342   4.327  1.00  0.00     0.174 HD
ATOM     65  H11 UNL     1      -8.350   3.905   4.760  1.00  0.00     0.174 HD
ENDBRANCH  59  63
ENDBRANCH  47  48
ENDBRANCH  42  47
ENDBRANCH  39  41
ENDBRANCH   1  39
TORSDOF 16
