REMARK  5 active torsions:
REMARK  status: ('A' for Active; 'I' for Inactive)
REMARK    1  A    between atoms: C5_5  and  O1_6 
REMARK    2  A    between atoms: O1_6  and  C6_7 
REMARK    3  A    between atoms: C6_7  and  C7_9 
REMARK    4  A    between atoms: C7_9  and  C8_10 
REMARK    5  A    between atoms: C7_9  and  C14_16 
ROOT
HETATM    1  C6  UNL     1      -0.531  -0.490  -0.874  1.00  0.00     0.269 C 
HETATM    2  O2  UNL     1       0.059  -1.064  -1.844  1.00  0.00    -0.264 OA
ENDROOT
BRANCH   1   3
HETATM    3  O1  UNL     1       0.244   0.289  -0.025  1.00  0.00    -0.287 OA
BRANCH   3   4
HETATM    4  C5  UNL     1       1.608   0.417  -0.254  1.00  0.00     0.331 C 
HETATM    5  C4  UNL     1       2.439  -0.048   0.904  1.00  0.00     0.073 C 
HETATM    6  C2  UNL     1       3.893  -0.030   0.594  1.00  0.00    -0.011 C 
HETATM    7  C1  UNL     1       4.643   0.034   1.931  1.00  0.00     0.018 C 
HETATM    8  C3  UNL     1       4.289  -1.377  -0.018  1.00  0.00     0.018 C 
HETATM    9  C19 UNL     1       4.355   1.115  -0.229  1.00  0.00     0.203 C 
HETATM   10  C18 UNL     1       3.334   1.712  -1.126  1.00  0.00     0.273 C 
HETATM   11  F1  UNL     1       5.406   0.658  -1.037  1.00  0.00    -0.247 F 
HETATM   12  N1  UNL     1       2.011   1.799  -0.539  1.00  0.00    -0.046 N 
ATOM     13  H12 UNL     1       1.341   2.309  -1.116  1.00  0.00     0.280 HD
ATOM     14  H11 UNL     1       1.965   2.413   0.274  1.00  0.00     0.280 HD
ENDBRANCH   3   4
ENDBRANCH   1   3
BRANCH   1  15
HETATM   15  C7  UNL     1      -1.979  -0.677  -0.702  1.00  0.00     0.123 C 
BRANCH  15  16
HETATM   16  C8  UNL     1      -2.730   0.615  -0.769  1.00  0.00    -0.044 A 
HETATM   17  C9  UNL     1      -2.423   1.574   0.173  1.00  0.00     0.008 A 
HETATM   18  C10 UNL     1      -3.113   2.784   0.123  1.00  0.00     0.001 A 
HETATM   19  C11 UNL     1      -4.072   3.005  -0.844  1.00  0.00     0.000 A 
HETATM   20  C12 UNL     1      -4.362   2.041  -1.770  1.00  0.00     0.001 A 
HETATM   21  C13 UNL     1      -3.687   0.845  -1.728  1.00  0.00     0.008 A 
ENDBRANCH  15  16
BRANCH  15  22
HETATM   22  C14 UNL     1      -2.290  -1.391   0.619  1.00  0.00     0.014 C 
HETATM   23  C15 UNL     1      -3.786  -1.524   0.684  1.00  0.00     0.017 C 
HETATM   24  C16 UNL     1      -4.112  -2.423   1.852  1.00  0.00     0.074 C 
HETATM   25  S1  UNL     1      -2.780  -3.678   1.694  1.00  0.00    -0.169 SA
HETATM   26  C17 UNL     1      -1.716  -2.784   0.490  1.00  0.00     0.079 C 
ENDBRANCH  15  22
ENDBRANCH   1  15
TORSDOF 5
