REMARK  4 active torsions:
REMARK  status: ('A' for Active; 'I' for Inactive)
REMARK    1  A    between atoms: C4_4  and  C6_6 
REMARK    2  A    between atoms: C9_11  and  S2_12 
REMARK    3  A    between atoms: S2_12  and  N1_15 
REMARK    4  A    between atoms: N1_15  and  C10_17 
ROOT
HETATM    1  C6  UNL     1      -1.646   1.006  -1.366  1.00  0.00     0.002 A 
HETATM    2  C7  UNL     1      -2.004   2.345  -1.470  1.00  0.00     0.065 A 
HETATM    3  S1  UNL     1      -0.808   3.019  -2.450  1.00  0.00    -0.087 SA
HETATM    4  C8  UNL     1       0.131   1.633  -2.727  1.00  0.00     0.098 A 
HETATM    5 CL1  UNL     1       1.605   1.481  -3.713  1.00  0.00    -0.075 Cl
HETATM    6  C9  UNL     1      -0.519   0.639  -2.031  1.00  0.00     0.119 A 
ENDROOT
BRANCH   6   7
HETATM    7  S2  UNL     1       0.121  -1.036  -2.053  1.00  0.00     0.262 S 
HETATM    8  O1  UNL     1       1.288  -1.089  -3.059  1.00  0.00    -0.200 OA
HETATM    9  O2  UNL     1      -0.903  -2.032  -2.451  1.00  0.00    -0.200 OA
BRANCH   7  10
HETATM   10  N1  UNL     1       0.833  -1.424  -0.551  1.00  0.00    -0.310 N 
ATOM     11  H1  UNL     1       0.500  -2.175   0.053  1.00  0.00     0.172 HD
BRANCH  10  12
HETATM   12  C10 UNL     1       1.937  -0.591  -0.232  1.00  0.00     0.097 C 
HETATM   13  C11 UNL     1       1.765   0.146   1.086  1.00  0.00     0.052 C 
HETATM   14  C12 UNL     1       3.031   0.146   1.910  1.00  0.00     0.169 C 
HETATM   15  O3  UNL     1       4.163   0.329   1.124  1.00  0.00    -0.391 OA
HETATM   16  C13 UNL     1       4.384  -0.757   0.281  1.00  0.00     0.169 C 
HETATM   17  C14 UNL     1       3.135  -1.520  -0.016  1.00  0.00     0.052 C 
ENDBRANCH  10  12
ENDBRANCH   7  10
ENDBRANCH   6   7
BRANCH   1  18
HETATM   18  C4  UNL     1      -2.524   0.181  -0.479  1.00  0.00    -0.048 C 
HETATM   19  C2  UNL     1      -2.661   0.503   0.787  1.00  0.00    -0.081 C 
HETATM   20  C1  UNL     1      -3.587  -0.243   1.657  1.00  0.00     0.043 C 
HETATM   21  C3  UNL     1      -1.880   1.620   1.349  1.00  0.00     0.043 C 
HETATM   22  C5  UNL     1      -3.325  -0.944  -0.982  1.00  0.00     0.049 C 
ENDBRANCH   1  18
TORSDOF 4
