REMARK  4 active torsions:
REMARK  status: ('A' for Active; 'I' for Inactive)
REMARK    1  A    between atoms: C4_5  and  S1_6 
REMARK    2  A    between atoms: S1_6  and  C5_7 
REMARK    3  A    between atoms: C7_12  and  C8_13 
REMARK    4  A    between atoms: C11_16  and  N3_17 
ROOT
HETATM    1  C5  UNL     1       1.273  -0.622  -0.992  1.00  0.00     0.075 C 
HETATM    2  C6  UNL     1       1.204   0.783  -1.530  1.00  0.00     0.248 C 
HETATM    3  N2  UNL     1      -0.038   1.276  -0.897  1.00  0.00    -0.066 N 
ATOM      4  H21 UNL     1      -0.285   2.248  -1.081  1.00  0.00     0.278 HD
ATOM      5  H22 UNL     1      -0.013   1.398   0.115  1.00  0.00     0.278 HD
HETATM    6  C7  UNL     1      -0.959   0.268  -1.404  1.00  0.00     0.220 C 
HETATM    7  C18 UNL     1      -0.215  -1.013  -1.027  1.00  0.00     0.055 C 
ENDROOT
BRANCH   6   8
HETATM    8  C8  UNL     1      -2.293   0.327  -0.818  1.00  0.00    -0.025 A 
HETATM    9  C9  UNL     1      -2.925   1.529  -0.634  1.00  0.00     0.012 A 
HETATM   10  C10 UNL     1      -4.208   1.575  -0.076  1.00  0.00     0.034 A 
HETATM   11  C11 UNL     1      -4.864   0.422   0.300  1.00  0.00     0.077 A 
HETATM   12  C16 UNL     1      -4.211  -0.776   0.106  1.00  0.00     0.144 A 
HETATM   13  F1  UNL     1      -4.802  -1.948   0.452  1.00  0.00    -0.204 F 
HETATM   14  C17 UNL     1      -2.934  -0.828  -0.449  1.00  0.00     0.054 A 
BRANCH  11  15
HETATM   15  N3  UNL     1      -6.164   0.393   0.872  1.00  0.00    -0.330 N 
HETATM   16  C12 UNL     1      -6.467  -0.026   2.113  1.00  0.00     0.097 A 
HETATM   17  C13 UNL     1      -7.830   0.079   2.343  1.00  0.00     0.019 A 
HETATM   18  C14 UNL     1      -8.365   0.585   1.184  1.00  0.00     0.019 A 
HETATM   19  C15 UNL     1      -7.317   0.766   0.302  1.00  0.00     0.097 A 
ENDBRANCH  11  15
ENDBRANCH   6   8
BRANCH   1  20
HETATM   20  S1  UNL     1       1.822  -0.789   0.681  1.00  0.00    -0.158 SA
BRANCH  20  21
HETATM   21  C4  UNL     1       3.552  -0.400   0.999  1.00  0.00     0.050 C 
HETATM   22  C3  UNL     1       4.452  -1.369   0.287  1.00  0.00     0.034 C 
HETATM   23  C2  UNL     1       5.147  -0.776  -0.904  1.00  0.00     0.117 C 
HETATM   24  N1  UNL     1       5.816   0.413  -0.507  1.00  0.00    -0.417 N 
HETATM   25  C1  UNL     1       6.972   0.239   0.302  1.00  0.00     0.143 C 
HETATM   26  C20 UNL     1       4.907   1.422  -0.101  1.00  0.00     0.117 C 
HETATM   27  C19 UNL     1       3.900   1.021   0.928  1.00  0.00     0.034 C 
ENDBRANCH  20  21
ENDBRANCH   1  20
TORSDOF 4
