REMARK  8 active torsions:
REMARK  status: ('A' for Active; 'I' for Inactive)
REMARK    1  A    between atoms: C2_3  and  C3_4 
REMARK    2  A    between atoms: C3_4  and  N2_5 
REMARK    3  A    between atoms: N2_5  and  C4_8 
REMARK    4  A    between atoms: C4_8  and  C5_9 
REMARK    5  A    between atoms: C5_9  and  N3_10 
REMARK    6  A    between atoms: N3_10  and  C6_11 
REMARK    7  A    between atoms: N3_10  and  C10_15 
REMARK    8  A    between atoms: C6_11  and  C7_12 
ROOT
HETATM    1  N1  UNL     1       4.340   0.402  -2.761  1.00  0.00    -0.197 NA
HETATM    2  C1  UNL     1       4.124  -0.365  -1.907  1.00  0.00     0.060 C 
HETATM    3  C2  UNL     1       3.858  -1.336  -0.857  1.00  0.00     0.151 C 
ENDROOT
BRANCH   3   4
HETATM    4  C3  UNL     1       3.253  -0.641   0.327  1.00  0.00     0.246 C 
BRANCH   4   5
HETATM    5  N2  UNL     1       2.023  -0.007  -0.038  1.00  0.00    -0.073 N 
ATOM      6  H22 UNL     1       2.157   0.620  -0.831  1.00  0.00     0.277 HD
ATOM      7  H21 UNL     1       1.380  -0.675  -0.462  1.00  0.00     0.277 HD
BRANCH   5   8
HETATM    8  C4  UNL     1       1.394   0.687   1.073  1.00  0.00     0.262 C 
BRANCH   8   9
HETATM    9  C5  UNL     1       0.119   1.323   0.660  1.00  0.00     0.300 C 
BRANCH   9  10
HETATM   10  N3  UNL     1      -0.903   0.431   0.149  1.00  0.00     0.095 N 
BRANCH  10  11
HETATM   11  C6  UNL     1      -1.359  -0.381   1.174  1.00  0.00     0.277 C 
BRANCH  11  12
HETATM   12  C7  UNL     1      -2.294  -1.485   1.080  1.00  0.00     0.014 A 
HETATM   13  C8  UNL     1      -2.057  -2.707   0.243  1.00  0.00     0.007 A 
HETATM   14  C9  UNL     1      -3.277  -1.866   0.090  1.00  0.00     0.007 A 
ENDBRANCH  11  12
ENDBRANCH  10  11
BRANCH  10  15
HETATM   15  C10 UNL     1      -1.836   1.276  -0.539  1.00  0.00     0.223 A 
HETATM   16  C11 UNL     1      -1.373   2.061  -1.739  1.00  0.00     0.038 A 
HETATM   17  C12 UNL     1      -1.770   2.762  -0.521  1.00  0.00     0.038 A 
ENDBRANCH  10  15
ENDBRANCH   9  10
ENDBRANCH   8   9
ENDBRANCH   5   8
ENDBRANCH   4   5
ENDBRANCH   3   4
TORSDOF 8
