REMARK  8 active torsions:
REMARK  status: ('A' for Active; 'I' for Inactive)
REMARK    1  A    between atoms: C2_2  and  C3_3 
REMARK    2  A    between atoms: C3_3  and  C4_4 
REMARK    3  A    between atoms: C4_4  and  C5_5 
REMARK    4  A    between atoms: C6_7  and  C7_8 
REMARK    5  A    between atoms: C7_8  and  N1_9 
REMARK    6  A    between atoms: N1_9  and  C8_12 
REMARK    7  A    between atoms: C8_12  and  C9_13 
REMARK    8  A    between atoms: N2_14  and  C10_16 
ROOT
HETATM    1  N1  UNL     1       1.220   0.032  -0.621  1.00  0.00    -0.068 N 
ATOM      2  H11 UNL     1       1.805   0.774  -1.006  1.00  0.00     0.277 HD
ATOM      3  H12 UNL     1       0.865  -0.366  -1.491  1.00  0.00     0.277 HD
ENDROOT
BRANCH   1   4
HETATM    4  C7  UNL     1       0.160   0.571   0.167  1.00  0.00     0.267 C 
BRANCH   4   5
HETATM    5  C6  UNL     1      -0.941  -0.431   0.469  1.00  0.00     0.176 A 
HETATM    6  C5  UNL     1      -2.202  -0.181  -0.170  1.00  0.00     0.153 A 
HETATM    7  O1  UNL     1      -1.978   0.144   1.263  1.00  0.00    -0.374 OA
BRANCH   6   8
HETATM    8  C4  UNL     1      -3.351  -1.145  -0.266  1.00  0.00     0.038 C 
BRANCH   8   9
HETATM    9  C3  UNL     1      -4.553  -0.431   0.352  1.00  0.00     0.029 C 
BRANCH   9  10
HETATM   10  C2  UNL     1      -4.878   0.834  -0.365  1.00  0.00    -0.037 C 
HETATM   11  C1  UNL     1      -6.046   1.052  -0.950  1.00  0.00     0.007 C 
ENDBRANCH   9  10
ENDBRANCH   8   9
ENDBRANCH   6   8
ENDBRANCH   4   5
ENDBRANCH   1   4
BRANCH   1  12
HETATM   12  C8  UNL     1       2.015  -0.933   0.107  1.00  0.00     0.276 C 
BRANCH  12  13
HETATM   13  C9  UNL     1       3.061  -1.455  -0.799  1.00  0.00     0.083 C 
HETATM   14  N2  UNL     1       4.094  -0.799  -1.076  1.00  0.00    -0.396 N 
ATOM     15  H2  UNL     1       4.777  -1.217  -1.708  1.00  0.00     0.159 HD
BRANCH  14  16
HETATM   16  C10 UNL     1       4.359   0.480  -0.561  1.00  0.00     0.081 A 
HETATM   17  C11 UNL     1       5.688   1.090  -0.848  1.00  0.00     0.027 A 
HETATM   18  C12 UNL     1       5.404   0.562   0.539  1.00  0.00     0.027 A 
ENDBRANCH  14  16
ENDBRANCH  12  13
ENDBRANCH   1  12
TORSDOF 8
