REMARK  7 active torsions:
REMARK  status: ('A' for Active; 'I' for Inactive)
REMARK    1  A    between atoms: O1_2  and  C2_3 
REMARK    2  A    between atoms: C2_3  and  C3_4 
REMARK    3  A    between atoms: C2_3  and  O2_16 
REMARK    4  A    between atoms: C3_4  and  N1_5 
REMARK    5  A    between atoms: N1_5  and  C4_8 
REMARK    6  A    between atoms: C4_8  and  C5_9 
REMARK    7  A    between atoms: C5_9  and  C6_10 
ROOT
HETATM    1  N1  UNL     1       0.781   0.013   0.030  1.00  0.00    -0.070 N 
ATOM      2  H11 UNL     1       1.026   1.000  -0.045  1.00  0.00     0.277 HD
ATOM      3  H12 UNL     1       0.949  -0.124   1.027  1.00  0.00     0.277 HD
ENDROOT
BRANCH   1   4
HETATM    4  C3  UNL     1       1.669  -0.799  -0.758  1.00  0.00     0.292 C 
BRANCH   4   5
HETATM    5  C2  UNL     1       3.087  -0.476  -0.316  1.00  0.00     0.283 C 
BRANCH   5   6
HETATM    6  O1  UNL     1       4.041  -1.186  -0.993  1.00  0.00    -0.364 OA
HETATM    7  C1  UNL     1       4.866  -1.952  -0.189  1.00  0.00     0.204 C 
ENDBRANCH   5   6
BRANCH   5   8
HETATM    8  O2  UNL     1       3.343   0.882  -0.501  1.00  0.00    -0.364 OA
HETATM    9  C12 UNL     1       3.669   1.515   0.698  1.00  0.00     0.204 C 
ENDBRANCH   5   8
ENDBRANCH   4   5
ENDBRANCH   1   4
BRANCH   1  10
HETATM   10  C4  UNL     1      -0.614  -0.202  -0.296  1.00  0.00     0.237 C 
BRANCH  10  11
HETATM   11  C5  UNL     1      -1.457   0.695   0.584  1.00  0.00     0.066 C 
BRANCH  11  12
HETATM   12  C6  UNL     1      -2.898   0.527   0.304  1.00  0.00    -0.057 A 
HETATM   13  C7  UNL     1      -3.689  -0.397   0.960  1.00  0.00     0.007 A 
HETATM   14  C8  UNL     1      -5.030  -0.514   0.660  1.00  0.00     0.001 A 
HETATM   15  C9  UNL     1      -5.580   0.295  -0.298  1.00  0.00     0.000 A 
HETATM   16  C10 UNL     1      -4.833   1.232  -0.981  1.00  0.00     0.001 A 
HETATM   17  C11 UNL     1      -3.486   1.323  -0.654  1.00  0.00     0.007 A 
ENDBRANCH  11  12
ENDBRANCH  10  11
ENDBRANCH   1  10
TORSDOF 7
