REMARK  11 active torsions:
REMARK  status: ('A' for Active; 'I' for Inactive)
REMARK    1  A    between atoms: O1_2  and  C2_3 
REMARK    2  A    between atoms: C2_3  and  O2_4 
REMARK    3  A    between atoms: O2_4  and  C3_5 
REMARK    4  A    between atoms: C3_5  and  C5_7 
REMARK    5  A    between atoms: C3_5  and  C6_10 
REMARK    6  A    between atoms: C6_10  and  C7_11 
REMARK    7  A    between atoms: C6_10  and  N2_16 
REMARK    8  A    between atoms: C7_11  and  C8_12 
REMARK    9  A    between atoms: C8_12  and  N1_13 
REMARK   10  A    between atoms: N2_16  and  C9_18 
REMARK   11  A    between atoms: C9_18  and  C10_19 
ROOT
HETATM    1  C6  UNL     1      -0.779  -0.697  -0.570  1.00  0.00     0.150 C 
ENDROOT
BRANCH   1   2
HETATM    2  C3  UNL     1      -1.585  -0.461   0.649  1.00  0.00     0.171 C 
HETATM    3  C4  UNL     1      -0.995  -1.193   1.854  1.00  0.00     0.061 C 
BRANCH   2   4
HETATM    4  O2  UNL     1      -1.597   0.906   0.864  1.00  0.00    -0.343 OA
BRANCH   4   5
HETATM    5  C2  UNL     1      -2.241   1.386   1.951  1.00  0.00     0.339 C 
BRANCH   5   6
HETATM    6  O1  UNL     1      -2.088   2.802   1.923  1.00  0.00    -0.372 OA
HETATM    7  C1  UNL     1      -2.753   3.300   3.043  1.00  0.00     0.204 C 
ENDBRANCH   5   6
ENDBRANCH   4   5
ENDBRANCH   2   4
BRANCH   2   8
HETATM    8  C5  UNL     1      -2.932  -1.075   0.506  1.00  0.00     0.211 C 
HETATM    9  O3  UNL     1      -2.893  -2.351   0.332  1.00  0.00    -0.646 OA
HETATM   10  O4  UNL     1      -4.142  -0.464   0.543  1.00  0.00    -0.646 OA
ENDBRANCH   2   8
ENDBRANCH   1   2
BRANCH   1  11
HETATM   11  C7  UNL     1      -1.483  -0.144  -1.807  1.00  0.00     0.018 C 
BRANCH  11  12
HETATM   12  C8  UNL     1      -2.734  -0.632  -2.253  1.00  0.00     0.078 C 
BRANCH  12  13
HETATM   13  N1  UNL     1      -2.823  -1.715  -2.994  1.00  0.00    -0.408 N 
ATOM     14  H12 UNL     1      -1.962  -2.202  -3.244  1.00  0.00     0.155 HD
ATOM     15  H11 UNL     1      -3.725  -2.067  -3.316  1.00  0.00     0.155 HD
ENDBRANCH  12  13
ENDBRANCH  11  12
ENDBRANCH   1  11
BRANCH   1  16
HETATM   16  N2  UNL     1       0.576  -0.285  -0.633  1.00  0.00    -0.384 N 
ATOM     17  H2  UNL     1       0.843   0.453  -1.284  1.00  0.00     0.159 HD
BRANCH  16  18
HETATM   18  C9  UNL     1       1.536  -0.858   0.163  1.00  0.00     0.132 C 
BRANCH  18  19
HETATM   19  C10 UNL     1       2.930  -0.386  -0.152  1.00  0.00     0.122 A 
HETATM   20  N3  UNL     1       3.695   0.147   0.799  1.00  0.00    -0.351 N 
HETATM   21  C11 UNL     1       4.962   0.584   0.513  1.00  0.00     0.091 A 
ATOM     22  H3  UNL     1       3.334   0.231   1.749  1.00  0.00     0.166 HD
HETATM   23  C12 UNL     1       5.454   0.475  -0.764  1.00  0.00     0.034 A 
HETATM   24  C13 UNL     1       4.641  -0.083  -1.733  1.00  0.00     0.093 A 
HETATM   25  N4  UNL     1       3.378  -0.506  -1.398  1.00  0.00    -0.346 N 
HETATM   26  C14 UNL     1       2.534  -1.082  -2.395  1.00  0.00     0.157 C 
ENDBRANCH  18  19
ENDBRANCH  16  18
ENDBRANCH   1  16
TORSDOF 11
