REMARK  12 active torsions:
REMARK  status: ('A' for Active; 'I' for Inactive)
REMARK    1  A    between atoms: C2_2  and  C3_3 
REMARK    2  A    between atoms: C3_3  and  N1_4 
REMARK    3  A    between atoms: C4_6  and  C5_7 
REMARK    4  A    between atoms: C6_8  and  C7_9 
REMARK    5  A    between atoms: C7_9  and  C8_10 
REMARK    6  A    between atoms: C7_9  and  C11_14 
REMARK    7  A    between atoms: C8_10  and  O1_11 
REMARK    8  A    between atoms: O1_11  and  C9_12 
REMARK    9  A    between atoms: C11_14  and  N2_15 
REMARK   10  A    between atoms: C14_18  and  C15_19 
REMARK   11  A    between atoms: C15_19  and  O2_20 
REMARK   12  A    between atoms: C16_23  and  O4_24 
ROOT
HETATM    1  C7  UNL     1       0.223   1.371   0.657  1.00  0.00    -0.038 C 
ENDROOT
BRANCH   1   2
HETATM    2  C6  UNL     1       1.098   0.243   0.968  1.00  0.00     0.008 C 
HETATM    3  C5  UNL     1       1.412  -0.841   0.362  1.00  0.00     0.017 C 
BRANCH   3   4
HETATM    4  C4  UNL     1       2.363  -1.803   0.987  1.00  0.00     0.083 C 
HETATM    5  N1  UNL     1       2.698  -2.900   0.405  1.00  0.00    -0.395 N 
ATOM      6  H1  UNL     1       2.313  -3.136  -0.510  1.00  0.00     0.159 HD
BRANCH   5   7
HETATM    7  C3  UNL     1       3.619  -3.789   1.056  1.00  0.00     0.145 C 
BRANCH   7   8
HETATM    8  C2  UNL     1       5.031  -3.521   0.597  1.00  0.00    -0.018 C 
HETATM    9  C1  UNL     1       5.304  -2.582  -0.286  1.00  0.00     0.008 C 
ENDBRANCH   7   8
ENDBRANCH   5   7
ENDBRANCH   3   4
ENDBRANCH   1   2
BRANCH   1  10
HETATM   10  C8  UNL     1       0.976   2.664   0.986  1.00  0.00     0.203 C 
BRANCH  10  11
HETATM   11  O1  UNL     1       0.390   3.811   0.733  1.00  0.00    -0.387 OA
BRANCH  11  12
HETATM   12  C9  UNL     1       0.278   4.385  -0.482  1.00  0.00     0.163 C 
HETATM   13  C10 UNL     1      -0.535   5.695  -0.386  1.00  0.00     0.033 C 
ENDBRANCH  11  12
ENDBRANCH  10  11
ENDBRANCH   1  10
BRANCH   1  14
HETATM   14  C11 UNL     1      -0.586   1.414  -0.548  1.00  0.00     0.163 C 
BRANCH  14  15
HETATM   15  N2  UNL     1      -1.564   0.315  -0.666  1.00  0.00    -0.339 N 
HETATM   16  C12 UNL     1      -1.535  -0.614  -1.717  1.00  0.00     0.089 C 
HETATM   17  C13 UNL     1      -2.121  -1.773  -1.494  1.00  0.00     0.024 C 
HETATM   18  C14 UNL     1      -2.771  -2.084  -0.219  1.00  0.00     0.174 C 
HETATM   19  O3  UNL     1      -2.901  -1.084   0.681  1.00  0.00    -0.333 OA
HETATM   20  C16 UNL     1      -2.662   0.189   0.274  1.00  0.00     0.371 C 
BRANCH  18  21
HETATM   21  C15 UNL     1      -4.067  -2.804  -0.536  1.00  0.00     0.200 C 
BRANCH  21  22
HETATM   22  O2  UNL     1      -5.035  -1.986  -1.061  1.00  0.00    -0.398 OA
ATOM     23  H2  UNL     1      -5.847  -2.437  -1.260  1.00  0.00     0.209 HD
ENDBRANCH  21  22
ENDBRANCH  18  21
BRANCH  20  24
HETATM   24  O4  UNL     1      -3.813   0.811  -0.269  1.00  0.00    -0.354 OA
ATOM     25  H4  UNL     1      -4.532   0.728   0.346  1.00  0.00     0.214 HD
ENDBRANCH  20  24
ENDBRANCH  14  15
ENDBRANCH   1  14
TORSDOF 12
