REMARK  16 active torsions:
REMARK  status: ('A' for Active; 'I' for Inactive)
REMARK    1  A    between atoms: C2_2  and  C3_3 
REMARK    2  A    between atoms: C3_3  and  C4_4 
REMARK    3  A    between atoms: C4_4  and  C5_5 
REMARK    4  A    between atoms: C5_5  and  C6_6 
REMARK    5  A    between atoms: C6_6  and  C7_7 
REMARK    6  A    between atoms: C7_7  and  C8_8 
REMARK    7  A    between atoms: C8_8  and  C9_9 
REMARK    8  A    between atoms: C8_8  and  C16_27 
REMARK    9  A    between atoms: C10_10  and  O1_11 
REMARK   10  A    between atoms: C10_10  and  N1_13 
REMARK   11  A    between atoms: N1_13  and  C11_15 
REMARK   12  A    between atoms: C11_15  and  C12_16 
REMARK   13  A    between atoms: C12_16  and  O2_17 
REMARK   14  A    between atoms: C12_16  and  C13_19 
REMARK   15  A    between atoms: C13_19  and  N2_20 
REMARK   16  A    between atoms: C16_27  and  O3_28 
ROOT
HETATM    1  C9  UNL     1       0.780  -2.207  -0.129  1.00  0.00     0.060 C 
HETATM    2  C10 UNL     1       1.868  -1.289  -0.023  1.00  0.00     0.135 C 
ENDROOT
BRANCH   2   3
HETATM    3  O1  UNL     1       3.067  -1.749  -0.332  1.00  0.00    -0.346 OA
ATOM      4  H1  UNL     1       3.791  -1.138  -0.261  1.00  0.00     0.219 HD
ENDBRANCH   2   3
BRANCH   2   5
HETATM    5  N1  UNL     1       1.891   0.047   0.359  1.00  0.00    -0.368 N 
ATOM      6  H1  UNL     1       1.032   0.522   0.637  1.00  0.00     0.161 HD
BRANCH   5   7
HETATM    7  C11 UNL     1       3.195   0.776   0.356  1.00  0.00     0.155 C 
BRANCH   7   8
HETATM    8  C12 UNL     1       3.687   0.865  -1.031  1.00  0.00     0.155 C 
BRANCH   8   9
HETATM    9  O2  UNL     1       2.656   1.496  -1.812  1.00  0.00    -0.392 OA
ATOM     10  H2  UNL     1       2.973   1.553  -2.706  1.00  0.00     0.210 HD
ENDBRANCH   8   9
BRANCH   8  11
HETATM   11  C13 UNL     1       4.899   1.785  -1.105  1.00  0.00     0.183 C 
BRANCH  11  12
HETATM   12  N2  UNL     1       6.003   1.256  -0.364  1.00  0.00    -0.285 N 
HETATM   13  C14 UNL     1       6.246   1.130   1.029  1.00  0.00     0.130 A 
HETATM   14  C15 UNL     1       7.413   0.554   1.204  1.00  0.00     0.127 A 
HETATM   15  N3  UNL     1       7.935   0.304  -0.081  1.00  0.00    -0.296 N 
HETATM   16  N4  UNL     1       7.164   0.688  -0.982  1.00  0.00    -0.241 N 
ATOM     17  H3  UNL     1       8.837  -0.139  -0.253  1.00  0.00     0.187 HD
ATOM     18  H4  UNL     1       7.331   0.611  -1.985  1.00  0.00     0.208 HD
ENDBRANCH  11  12
ENDBRANCH   8  11
ENDBRANCH   7   8
ENDBRANCH   5   7
ENDBRANCH   2   5
BRANCH   1  19
HETATM   19  C8  UNL     1      -0.472  -2.166   0.075  1.00  0.00    -0.052 C 
BRANCH  19  20
HETATM   20  C7  UNL     1      -1.303  -1.035   0.551  1.00  0.00     0.040 C 
BRANCH  20  21
HETATM   21  C6  UNL     1      -2.359  -0.589  -0.437  1.00  0.00     0.031 C 
BRANCH  21  22
HETATM   22  C5  UNL     1      -3.056   0.551   0.193  1.00  0.00    -0.030 C 
BRANCH  22  23
HETATM   23  C4  UNL     1      -4.344   0.499   0.427  1.00  0.00    -0.031 C 
BRANCH  23  24
HETATM   24  C3  UNL     1      -5.064   1.648   1.064  1.00  0.00     0.026 C 
BRANCH  24  25
HETATM   25  C2  UNL     1      -6.129   2.101   0.063  1.00  0.00    -0.001 C 
HETATM   26  C1  UNL     1      -6.861   3.266   0.699  1.00  0.00     0.005 C 
ENDBRANCH  24  25
ENDBRANCH  23  24
ENDBRANCH  22  23
ENDBRANCH  21  22
ENDBRANCH  20  21
ENDBRANCH  19  20
BRANCH  19  27
HETATM   27  C16 UNL     1      -1.345  -3.375  -0.246  1.00  0.00     0.201 C 
BRANCH  27  28
HETATM   28  O3  UNL     1      -0.748  -4.450  -0.772  1.00  0.00    -0.392 OA
HETATM   29  C17 UNL     1      -0.426  -4.304  -2.107  1.00  0.00     0.201 C 
ENDBRANCH  27  28
ENDBRANCH  19  27
ENDBRANCH   1  19
TORSDOF 16
