REMARK  9 active torsions:
REMARK  status: ('A' for Active; 'I' for Inactive)
REMARK    1  A    between atoms: C2_2  and  N1_3 
REMARK    2  A    between atoms: N1_3  and  C3_4 
REMARK    3  A    between atoms: N1_3  and  C5_6 
REMARK    4  A    between atoms: C5_6  and  C6_7 
REMARK    5  A    between atoms: C6_7  and  N2_8 
REMARK    6  A    between atoms: N2_8  and  C7_10 
REMARK    7  A    between atoms: C7_10  and  C8_11 
REMARK    8  A    between atoms: C7_10  and  C11_15 
REMARK    9  A    between atoms: C8_11  and  C9_12 
ROOT
HETATM    1  C9  UNL     1      -2.537   1.401  -2.253  1.00  0.00     0.126 C 
HETATM    2  C10 UNL     1      -1.316   2.160  -2.245  1.00  0.00     0.059 C 
HETATM    3  N3  UNL     1      -0.346   2.802  -2.265  1.00  0.00    -0.197 NA
ENDROOT
BRANCH   1   4
HETATM    4  C8  UNL     1      -2.408   0.091  -1.553  1.00  0.00     0.039 C 
BRANCH   4   5
HETATM    5  C7  UNL     1      -2.055   0.108  -0.123  1.00  0.00     0.082 C 
BRANCH   5   6
HETATM    6  N2  UNL     1      -0.821   0.636   0.300  1.00  0.00    -0.412 N 
ATOM      7  H2  UNL     1      -0.771   1.474   0.879  1.00  0.00     0.153 HD
BRANCH   6   8
HETATM    8  C6  UNL     1       0.374  -0.062  -0.123  1.00  0.00     0.159 C 
BRANCH   8   9
HETATM    9  C5  UNL     1       1.543   0.699   0.451  1.00  0.00     0.087 C 
BRANCH   9  10
HETATM   10  N1  UNL     1       2.811   0.176   0.153  1.00  0.00    -0.353 N 
BRANCH  10  11
HETATM   11  C2  UNL     1       3.206  -1.052   0.696  1.00  0.00     0.064 C 
HETATM   12  C1  UNL     1       3.921  -1.862  -0.377  1.00  0.00     0.055 C 
ENDBRANCH  10  11
BRANCH  10  13
HETATM   13  C3  UNL     1       3.775   1.127  -0.201  1.00  0.00     0.064 C 
HETATM   14  C4  UNL     1       4.548   1.766   0.896  1.00  0.00     0.055 C 
ENDBRANCH  10  13
ENDBRANCH   9  10
ENDBRANCH   8   9
ENDBRANCH   6   8
ENDBRANCH   5   6
BRANCH   5  15
HETATM   15  C11 UNL     1      -2.311  -1.221   0.572  1.00  0.00     0.012 A 
HETATM   16  C12 UNL     1      -3.537  -1.998   0.313  1.00  0.00     0.011 A 
HETATM   17  C13 UNL     1      -3.368  -1.298   1.659  1.00  0.00    -0.012 A 
HETATM   18  C14 UNL     1      -4.317  -0.129   1.837  1.00  0.00     0.010 C 
ENDBRANCH   5  15
ENDBRANCH   4   5
ENDBRANCH   1   4
TORSDOF 9
