REMARK  11 active torsions:
REMARK  status: ('A' for Active; 'I' for Inactive)
REMARK    1  A    between atoms: C2_2  and  C3_4 
REMARK    2  A    between atoms: C3_4  and  S1_6 
REMARK    3  A    between atoms: C3_4  and  C10_20 
REMARK    4  A    between atoms: S1_6  and  C4_7 
REMARK    5  A    between atoms: C5_12  and  C6_13 
REMARK    6  A    between atoms: C10_20  and  C11_24 
REMARK    7  A    between atoms: C11_24  and  S2_36 
REMARK    8  A    between atoms: N5_25  and  N6_27 
REMARK    9  A    between atoms: N6_27  and  C12_29 
REMARK   10  A    between atoms: S2_36  and  C15_37 
REMARK   11  A    between atoms: C17_45  and  C19_47 
ROOT
HETATM    1  C11 UNL     1       0.231  -0.401  -1.139  1.00  0.00     0.116 C 
HETATM    2  N5  UNL     1      -0.425  -0.983  -2.016  1.00  0.00    -0.289 N 
ATOM      3  H5  UNL     1       0.147  -1.186  -2.836  1.00  0.00     0.188 HD
ENDROOT
BRANCH   1   4
HETATM    4  C10 UNL     1       1.682  -0.159  -1.515  1.00  0.00     0.081 C 
HETATM    5  N4  UNL     1       2.030  -0.585  -2.672  1.00  0.00    -0.397 N 
ATOM      6  H42 UNL     1       3.005  -0.422  -2.925  1.00  0.00     0.156 HD
ATOM      7  H41 UNL     1       1.383  -1.055  -3.305  1.00  0.00     0.156 HD
BRANCH   4   8
HETATM    8  C3  UNL     1       2.615   0.518  -0.603  1.00  0.00     0.196 C 
HETATM    9 CL1  UNL     1       2.868  -0.418   0.903  1.00  0.00    -0.091 Cl
BRANCH   8  10
HETATM   10  C2  UNL     1       2.201   1.892  -0.279  1.00  0.00     0.163 C 
HETATM   11  C1  UNL     1       2.010   2.947  -1.309  1.00  0.00     0.094 C 
HETATM   12  O1  UNL     1       1.995   2.219   0.877  1.00  0.00    -0.295 OA
ENDBRANCH   8  10
BRANCH   8  13
HETATM   13  S1  UNL     1       4.228   0.608  -1.434  1.00  0.00    -0.052 SA
BRANCH  13  14
HETATM   14  C4  UNL     1       5.477   1.204  -0.301  1.00  0.00     0.163 A 
HETATM   15  N1  UNL     1       5.340   1.557   0.987  1.00  0.00    -0.278 N 
HETATM   16  N2  UNL     1       6.528   1.946   1.467  1.00  0.00    -0.281 N 
ATOM     17  H1  UNL     1       4.468   1.533   1.516  1.00  0.00     0.189 HD
HETATM   18  C5  UNL     1       7.449   1.852   0.506  1.00  0.00     0.156 A 
ATOM     19  H2  UNL     1       6.702   2.265   2.420  1.00  0.00     0.188 HD
HETATM   20  N3  UNL     1       6.783   1.394  -0.572  1.00  0.00    -0.318 N 
ATOM     21  H3  UNL     1       7.213   1.214  -1.479  1.00  0.00     0.169 HD
BRANCH  18  22
HETATM   22  C6  UNL     1       8.873   2.161   0.564  1.00  0.00     0.120 A 
HETATM   23  C7  UNL     1       9.801   2.044  -0.456  1.00  0.00     0.043 A 
HETATM   24  C8  UNL     1      11.025   2.444   0.045  1.00  0.00     0.027 A 
HETATM   25  C9  UNL     1      10.775   2.787   1.356  1.00  0.00     0.142 A 
HETATM   26  O2  UNL     1       9.502   2.606   1.617  1.00  0.00    -0.319 OA
ENDBRANCH  18  22
ENDBRANCH  13  14
ENDBRANCH   8  13
ENDBRANCH   4   8
ENDBRANCH   1   4
BRANCH   1  27
HETATM   27  S2  UNL     1      -0.261   0.113   0.478  1.00  0.00    -0.056 SA
BRANCH  27  28
HETATM   28  C15 UNL     1      -1.951   0.539   0.722  1.00  0.00     0.050 C 
HETATM   29  N9  UNL     1      -2.764   0.675  -0.206  1.00  0.00    -0.363 N 
HETATM   30  C16 UNL     1      -4.127   1.012  -0.170  1.00  0.00     0.226 C 
ATOM     31  H9  UNL     1      -2.383   0.518  -1.139  1.00  0.00     0.162 HD
HETATM   32  N10 UNL     1      -4.949   0.374  -1.137  1.00  0.00    -0.312 N 
HETATM   33  C20 UNL     1      -4.692   0.739   1.205  1.00  0.00     0.169 C 
HETATM   34  N11 UNL     1      -5.815  -0.421  -0.865  1.00  0.00    -0.295 N 
ATOM     35  H10 UNL     1      -4.798   0.601  -2.120  1.00  0.00     0.182 HD
HETATM   36  C17 UNL     1      -6.127  -0.828   0.454  1.00  0.00     0.234 C 
ATOM     37  H11 UNL     1      -6.354  -0.824  -1.631  1.00  0.00     0.183 HD
HETATM   38  C18 UNL     1      -6.330  -2.359   0.374  1.00  0.00     0.085 C 
HETATM   39  O5  UNL     1      -5.097  -0.572   1.337  1.00  0.00    -0.341 OA
HETATM   40  C21 UNL     1      -3.760   1.203   2.302  1.00  0.00     0.042 C 
HETATM   41  C22 UNL     1      -2.353   0.768   2.159  1.00  0.00     0.067 C 
BRANCH  36  42
HETATM   42  C19 UNL     1      -7.443  -0.307   0.935  1.00  0.00     0.232 C 
HETATM   43  O3  UNL     1      -7.567   0.239   2.048  1.00  0.00    -0.644 OA
HETATM   44  O4  UNL     1      -8.566  -0.428   0.129  1.00  0.00    -0.644 OA
ENDBRANCH  36  42
ENDBRANCH  27  28
ENDBRANCH   1  27
BRANCH   2  45
HETATM   45  N6  UNL     1      -1.672  -1.414  -2.177  1.00  0.00    -0.271 N 
ATOM     46  H6  UNL     1      -2.374  -0.834  -2.637  1.00  0.00     0.190 HD
BRANCH  45  47
HETATM   47  C12 UNL     1      -2.004  -2.740  -1.676  1.00  0.00     0.190 A 
HETATM   48  N7  UNL     1      -1.730  -3.828  -2.317  1.00  0.00    -0.360 N 
HETATM   49  C13 UNL     1      -2.172  -4.980  -1.582  1.00  0.00     0.142 A 
ATOM     50  H7  UNL     1      -1.263  -3.864  -3.223  1.00  0.00     0.162 HD
HETATM   51  C14 UNL     1      -2.740  -4.445  -0.296  1.00  0.00     0.142 A 
HETATM   52  N8  UNL     1      -2.648  -3.006  -0.451  1.00  0.00    -0.360 N 
ATOM     53  H8  UNL     1      -2.989  -2.309   0.211  1.00  0.00     0.162 HD
ENDBRANCH  45  47
ENDBRANCH   2  45
TORSDOF 11
