REMARK  11 active torsions:
REMARK  status: ('A' for Active; 'I' for Inactive)
REMARK    1  A    between atoms: O1_2  and  C2_3 
REMARK    2  A    between atoms: C2_3  and  C3_5 
REMARK    3  A    between atoms: C3_5  and  N1_7 
REMARK    4  A    between atoms: N1_7  and  N2_8 
REMARK    5  A    between atoms: N1_7  and  C12_23 
REMARK       I    between atoms: N2_8  and  C5_10 
REMARK    6  A    between atoms: C5_10  and  C6_12 
REMARK    7  A    between atoms: C8_14  and  O4_15 
REMARK    8  A    between atoms: C9_17  and  O5_18 
REMARK    9  A    between atoms: C13_28  and  C14_29 
REMARK   10  A    between atoms: C15_34  and  S2_35 
REMARK   11  A    between atoms: S2_35  and  C16_36 
ROOT
HETATM    1  C12 UNL     1      -1.338  -0.752  -0.696  1.00  0.00     0.183 A 
HETATM    2  N3  UNL     1      -0.821  -1.374   0.358  1.00  0.00    -0.277 N 
ATOM      3  H3  UNL     1      -1.435  -1.822   1.038  1.00  0.00     0.189 HD
HETATM    4  N4  UNL     1       0.431  -1.410   0.518  1.00  0.00    -0.289 N 
ATOM      5  H4  UNL     1       0.828  -1.888   1.327  1.00  0.00     0.188 HD
HETATM    6  C13 UNL     1       1.231  -0.826  -0.366  1.00  0.00     0.138 A 
HETATM    7  S3  UNL     1       0.079  -0.200  -1.478  1.00  0.00    -0.028 SA
ENDROOT
BRANCH   1   8
HETATM    8  N1  UNL     1      -2.731  -0.640  -1.026  1.00  0.00    -0.253 N 
BRANCH   8   9
HETATM    9  C3  UNL     1      -3.243  -1.329  -2.210  1.00  0.00     0.206 C 
HETATM   10  C4  UNL     1      -2.065  -1.865  -3.037  1.00  0.00     0.045 C 
BRANCH   9  11
HETATM   11  C2  UNL     1      -3.918  -0.351  -3.094  1.00  0.00     0.283 C 
HETATM   12  O2  UNL     1      -3.968   0.846  -2.752  1.00  0.00    -0.263 OA
BRANCH  11  13
HETATM   13  O1  UNL     1      -4.483  -0.755  -4.273  1.00  0.00    -0.325 OA
HETATM   14  C1  UNL     1      -5.133   0.142  -5.130  1.00  0.00     0.213 C 
ENDBRANCH  11  13
ENDBRANCH   9  11
ENDBRANCH   8   9
BRANCH   8  15
HETATM   15  N2  UNL     1      -3.619   0.082  -0.255  1.00  0.00    -0.261 N 
HETATM   16  C5  UNL     1      -4.810  -0.445   0.298  1.00  0.00     0.270 C 
HETATM   17  O3  UNL     1      -5.073  -1.665   0.065  1.00  0.00    -0.266 OA
ATOM     18  H2  UNL     1      -3.402   1.062  -0.071  1.00  0.00     0.190 HD
BRANCH  16  19
HETATM   19  C6  UNL     1      -5.730   0.350   1.113  1.00  0.00     0.037 A 
HETATM   20  C7  UNL     1      -5.437   1.612   1.565  1.00  0.00     0.056 A 
HETATM   21  C8  UNL     1      -6.365   2.321   2.337  1.00  0.00     0.101 A 
HETATM   22  C9  UNL     1      -7.583   1.762   2.653  1.00  0.00     0.116 A 
HETATM   23  C10 UNL     1      -7.885   0.486   2.200  1.00  0.00     0.048 A 
HETATM   24  S1  UNL     1      -9.466  -0.272   2.594  1.00  0.00    -0.050 SA
HETATM   25  C11 UNL     1      -6.956  -0.193   1.441  1.00  0.00     0.039 A 
BRANCH  21  26
HETATM   26  O4  UNL     1      -6.044   3.583   2.775  1.00  0.00    -0.358 OA
ATOM     27  H4  UNL     1      -6.674   4.064   3.299  1.00  0.00     0.217 HD
ENDBRANCH  21  26
BRANCH  22  28
HETATM   28  O5  UNL     1      -8.543   2.394   3.404  1.00  0.00    -0.357 OA
ATOM     29  H5  UNL     1      -9.383   2.008   3.622  1.00  0.00     0.218 HD
ENDBRANCH  22  28
ENDBRANCH  16  19
ENDBRANCH   8  15
ENDBRANCH   1   8
BRANCH   6  30
HETATM   30  C14 UNL     1       2.698  -0.738  -0.389  1.00  0.00     0.158 A 
HETATM   31  N5  UNL     1       3.386  -0.137  -1.371  1.00  0.00    -0.281 N 
HETATM   32  N6  UNL     1       4.701  -0.246  -1.109  1.00  0.00    -0.278 N 
ATOM     33  H5  UNL     1       2.979   0.327  -2.183  1.00  0.00     0.188 HD
HETATM   34  C15 UNL     1       4.853  -0.918   0.045  1.00  0.00     0.165 A 
ATOM     35  H6  UNL     1       5.456   0.120  -1.689  1.00  0.00     0.189 HD
HETATM   36  N8  UNL     1       3.610  -1.209   0.467  1.00  0.00    -0.318 N 
ATOM     37  H8  UNL     1       3.393  -1.719   1.323  1.00  0.00     0.169 HD
BRANCH  34  38
HETATM   38  S2  UNL     1       6.408  -1.335   0.863  1.00  0.00    -0.064 SA
BRANCH  38  39
HETATM   39  C16 UNL     1       7.766  -0.790  -0.127  1.00  0.00     0.068 C 
HETATM   40  C17 UNL     1       8.703  -0.040   0.417  1.00  0.00     0.049 C 
HETATM   41  C18 UNL     1       9.864   0.449  -0.352  1.00  0.00     0.257 C 
HETATM   42  C20 UNL     1       8.841   0.462   1.792  1.00  0.00     0.147 C 
HETATM   43  O6  UNL     1      10.172   0.072  -1.509  1.00  0.00    -0.267 OA
HETATM   44  N7  UNL     1      10.539   1.403   0.460  1.00  0.00    -0.292 N 
HETATM   45  C19 UNL     1       9.860   1.538   1.699  1.00  0.00     0.252 C 
ATOM     46  H7  UNL     1      11.382   1.912   0.193  1.00  0.00     0.172 HD
HETATM   47  O7  UNL     1      10.038   2.393   2.605  1.00  0.00    -0.271 OA
HETATM   48  C21 UNL     1       9.308  -0.678   2.685  1.00  0.00     0.049 C 
HETATM   49 CL1  UNL     1       7.356   1.161   2.445  1.00  0.00    -0.104 Cl
ENDBRANCH  38  39
ENDBRANCH  34  38
ENDBRANCH   6  30
TORSDOF 11
