REMARK  4 active torsions:
REMARK  status: ('A' for Active; 'I' for Inactive)
REMARK    1  A    between atoms: C2_2  and  C3_3 
REMARK       I    between atoms: C3_3  and  N1_5 
REMARK    2  A    between atoms: N1_5  and  C5_7 
REMARK    3  A    between atoms: C9_14  and  O4_15 
REMARK    4  A    between atoms: C9_14  and  C10_17 
ROOT
HETATM    1  C5  UNL     1      -0.206  -0.655  -0.278  1.00  0.00     0.140 C 
HETATM    2  C6  UNL     1      -0.145  -1.822   0.719  1.00  0.00     0.130 C 
HETATM    3  C7  UNL     1       0.637  -2.969   0.173  1.00  0.00     0.028 C 
HETATM    4  S1  UNL     1      -1.904  -2.207   0.787  1.00  0.00     0.153 S 
HETATM    5  O2  UNL     1      -2.386  -2.372   2.183  1.00  0.00    -0.227 OA
HETATM    6  O3  UNL     1      -2.202  -3.396  -0.073  1.00  0.00    -0.227 OA
HETATM    7  C8  UNL     1      -2.511  -0.697   0.088  1.00  0.00     0.181 C 
HETATM    8  C9  UNL     1      -1.243   0.223   0.248  1.00  0.00     0.095 C 
ENDROOT
BRANCH   1   9
HETATM    9  N1  UNL     1       1.067  -0.211  -0.667  1.00  0.00    -0.347 N 
HETATM   10  C3  UNL     1       2.104   0.388   0.060  1.00  0.00     0.219 C 
HETATM   11  O1  UNL     1       3.142   0.728  -0.577  1.00  0.00    -0.273 OA
HETATM   12  C4  UNL     1       1.393  -0.391  -2.119  1.00  0.00     0.153 C 
BRANCH  10  13
HETATM   13  C2  UNL     1       2.132   0.669   1.505  1.00  0.00     0.098 C 
HETATM   14  C1  UNL     1       3.497   1.280   1.899  1.00  0.00     0.014 C 
ENDBRANCH  10  13
ENDBRANCH   1   9
BRANCH   8  15
HETATM   15  O4  UNL     1      -1.154   0.347   1.647  1.00  0.00    -0.386 OA
ATOM     16  H4  UNL     1      -1.830   0.919   1.990  1.00  0.00     0.210 HD
ENDBRANCH   8  15
BRANCH   8  17
HETATM   17  C10 UNL     1      -1.597   1.488  -0.405  1.00  0.00     0.015 C 
HETATM   18  C11 UNL     1      -0.531   2.536  -0.541  1.00  0.00     0.012 C 
HETATM   19  C12 UNL     1      -2.321   1.309  -1.737  1.00  0.00     0.012 C 
ENDBRANCH   8  17
TORSDOF 4
