REMARK  3 active torsions:
REMARK  status: ('A' for Active; 'I' for Inactive)
REMARK       I    between atoms: C1_2  and  N1_3 
REMARK    1  A    between atoms: C1_2  and  C7_14 
REMARK    2  A    between atoms: N1_3  and  C2_5 
REMARK    3  A    between atoms: C2_5  and  C3_6 
ROOT
HETATM    1  O1  UNL     1       1.246  -0.925   2.361  1.00  0.00    -0.273 OA
HETATM    2  C1  UNL     1       1.022  -0.479   1.207  1.00  0.00     0.221 C 
HETATM    3  N1  UNL     1      -0.318  -0.196   0.846  1.00  0.00    -0.359 N 
ATOM      4  H1  UNL     1      -0.510   0.165  -0.088  1.00  0.00     0.162 HD
ENDROOT
BRANCH   3   5
HETATM    5  C2  UNL     1      -1.405  -0.398   1.741  1.00  0.00     0.144 C 
BRANCH   5   6
HETATM    6  C3  UNL     1      -2.745  -0.045   1.190  1.00  0.00     0.150 C 
HETATM    7  C4  UNL     1      -3.098  -0.858  -0.050  1.00  0.00     0.189 C 
HETATM    8  O2  UNL     1      -4.411  -0.735  -0.401  1.00  0.00    -0.389 OA
HETATM    9  C5  UNL     1      -4.888   0.516  -0.619  1.00  0.00     0.182 C 
HETATM   10  C6  UNL     1      -3.870   1.593  -0.804  1.00  0.00     0.167 C 
HETATM   11  S1  UNL     1      -2.904   1.645   0.718  1.00  0.00     0.154 S 
HETATM   12  O3  UNL     1      -3.729   2.421   1.702  1.00  0.00    -0.227 OA
HETATM   13  O4  UNL     1      -1.624   2.310   0.397  1.00  0.00    -0.227 OA
ENDBRANCH   5   6
ENDBRANCH   3   5
BRANCH   2  14
HETATM   14  C7  UNL     1       2.169  -0.277   0.292  1.00  0.00     0.078 C 
HETATM   15  C8  UNL     1       3.479  -0.651   0.913  1.00  0.00     0.014 C 
HETATM   16  C9  UNL     1       4.587  -0.099   0.044  1.00  0.00     0.001 C 
HETATM   17  C10 UNL     1       4.096   0.366  -1.292  1.00  0.00     0.000 C 
HETATM   18  C11 UNL     1       3.124  -0.586  -1.932  1.00  0.00     0.001 C 
HETATM   19  C12 UNL     1       2.024  -1.027  -0.998  1.00  0.00     0.014 C 
ENDBRANCH   2  14
TORSDOF 3
