REMARK  3 active torsions:
REMARK  status: ('A' for Active; 'I' for Inactive)
REMARK    1  A    between atoms: C2_2  and  N1_3 
REMARK    2  A    between atoms: C9_13  and  C10_14 
REMARK    3  A    between atoms: C10_14  and  N3_15 
ROOT
HETATM    1  N1  UNL     1      -2.541  -0.920   0.226  1.00  0.00    -0.412 N 
HETATM    2  C3  UNL     1      -1.756  -0.226   1.181  1.00  0.00     0.123 C 
HETATM    3  C4  UNL     1      -0.872   0.849   0.653  1.00  0.00     0.035 C 
HETATM    4  C5  UNL     1      -1.671   2.085   0.400  1.00  0.00     0.239 C 
HETATM    5  N2  UNL     1      -1.769   2.413  -1.001  1.00  0.00    -0.074 N 
ATOM      6  H21 UNL     1      -0.904   2.840  -1.332  1.00  0.00     0.277 HD
ATOM      7  H22 UNL     1      -2.410   3.193  -1.144  1.00  0.00     0.277 HD
HETATM    8  C6  UNL     1      -2.137   1.288  -1.839  1.00  0.00     0.239 C 
HETATM    9  C7  UNL     1      -1.273   0.083  -1.625  1.00  0.00     0.035 C 
HETATM   10  C8  UNL     1      -1.980  -1.091  -1.063  1.00  0.00     0.123 C 
HETATM   11  C9  UNL     1      -0.175   0.502  -0.648  1.00  0.00     0.028 C 
ENDROOT
BRANCH  11  12
HETATM   12  C10 UNL     1       0.869  -0.535  -0.482  1.00  0.00     0.278 C 
BRANCH  12  13
HETATM   13  N3  UNL     1       1.906  -0.103   0.443  1.00  0.00     0.090 N 
HETATM   14  C11 UNL     1       2.801  -1.230   0.736  1.00  0.00     0.274 C 
HETATM   15  C12 UNL     1       4.084  -0.734   1.300  1.00  0.00     0.056 C 
HETATM   16  C13 UNL     1       5.201  -0.614   0.284  1.00  0.00     0.169 C 
HETATM   17  O1  UNL     1       5.021   0.554  -0.426  1.00  0.00    -0.389 OA
HETATM   18  C14 UNL     1       3.766   0.490  -1.034  1.00  0.00     0.198 C 
HETATM   19  C15 UNL     1       2.692   0.995  -0.105  1.00  0.00     0.298 C 
ENDBRANCH  12  13
ENDBRANCH  11  12
BRANCH   1  20
HETATM   20  C2  UNL     1      -3.945  -0.724   0.266  1.00  0.00     0.112 C 
HETATM   21  C1  UNL     1      -4.605  -1.321   1.503  1.00  0.00     0.026 C 
ENDBRANCH   1  20
TORSDOF 3
