REMARK  8 active torsions:
REMARK  status: ('A' for Active; 'I' for Inactive)
REMARK    1  A    between atoms: C2_3  and  N2_4 
REMARK    2  A    between atoms: C2_3  and  O1_8 
REMARK    3  A    between atoms: O1_8  and  C3_9 
REMARK    4  A    between atoms: C3_9  and  C4_11 
REMARK    5  A    between atoms: C4_11  and  C5_12 
REMARK    6  A    between atoms: C4_11  and  C7_18 
REMARK       I    between atoms: C5_12  and  N3_14 
REMARK    7  A    between atoms: N3_14  and  C6_16 
REMARK    8  A    between atoms: C8_19  and  O5_20 
ROOT
HETATM    1  N1  UNL     1      -5.443  -0.830   1.211  1.00  0.00    -0.193 NA
HETATM    2  C1  UNL     1      -4.581  -0.817   0.461  1.00  0.00     0.121 C 
HETATM    3  C2  UNL     1      -3.481  -0.778  -0.508  1.00  0.00     0.434 C 
ENDROOT
BRANCH   3   4
HETATM    4  N2  UNL     1      -3.434  -1.958  -1.326  1.00  0.00    -0.039 N 
ATOM      5  H23 UNL     1      -3.392  -2.801  -0.754  1.00  0.00     0.278 HD
ATOM      6  H22 UNL     1      -4.328  -2.121  -1.790  1.00  0.00     0.278 HD
ATOM      7  H21 UNL     1      -2.669  -1.931  -2.000  1.00  0.00     0.278 HD
ENDBRANCH   3   4
BRANCH   3   8
HETATM    8  O1  UNL     1      -2.226  -0.624   0.171  1.00  0.00    -0.270 OA
BRANCH   8   9
HETATM    9  C3  UNL     1      -1.418   0.512  -0.043  1.00  0.00     0.304 C 
HETATM   10  O2  UNL     1      -1.896   1.334  -0.861  1.00  0.00    -0.259 OA
BRANCH   9  11
HETATM   11  C4  UNL     1      -0.132   0.721   0.630  1.00  0.00     0.139 C 
BRANCH  11  12
HETATM   12  C5  UNL     1       0.299   2.120   0.579  1.00  0.00     0.266 C 
HETATM   13  O3  UNL     1      -0.606   2.954   0.193  1.00  0.00    -0.267 OA
HETATM   14  N3  UNL     1       1.559   2.648   0.897  1.00  0.00    -0.300 N 
ATOM     15  H3  UNL     1       2.313   2.032   1.201  1.00  0.00     0.171 HD
BRANCH  14  16
HETATM   16  C6  UNL     1       1.778   4.068   0.791  1.00  0.00     0.355 C 
HETATM   17  O4  UNL     1       2.856   4.616   1.051  1.00  0.00    -0.283 OA
ENDBRANCH  14  16
ENDBRANCH  11  12
BRANCH  11  18
HETATM   18  C7  UNL     1       0.898  -0.297   0.449  1.00  0.00     0.121 A 
HETATM   19  C8  UNL     1       0.924  -1.094  -0.592  1.00  0.00     0.172 A 
HETATM   20  N4  UNL     1       1.915  -2.106  -0.795  1.00  0.00    -0.311 N 
HETATM   21  C9  UNL     1       2.956  -2.316   0.144  1.00  0.00     0.192 A 
ATOM     22  H4  UNL     1       1.872  -2.688  -1.632  1.00  0.00     0.170 HD
HETATM   23  S1  UNL     1       4.101  -3.461  -0.058  1.00  0.00    -0.039 SA
HETATM   24  N5  UNL     1       2.944  -1.459   1.287  1.00  0.00    -0.276 N 
HETATM   25  N6  UNL     1       1.948  -0.494   1.417  1.00  0.00    -0.293 N 
ATOM     26  H5  UNL     1       3.662  -1.553   2.005  1.00  0.00     0.189 HD
ATOM     27  H6  UNL     1       1.962   0.106   2.242  1.00  0.00     0.187 HD
BRANCH  19  28
HETATM   28  O5  UNL     1      -0.037  -0.988  -1.566  1.00  0.00    -0.344 OA
ATOM     29  H5  UNL     1      -0.018  -1.565  -2.320  1.00  0.00     0.219 HD
ENDBRANCH  19  28
ENDBRANCH  11  18
ENDBRANCH   9  11
ENDBRANCH   8   9
ENDBRANCH   3   8
TORSDOF 8
