REMARK  9 active torsions:
REMARK  status: ('A' for Active; 'I' for Inactive)
REMARK    1  A    between atoms: N1_1  and  C1_4 
REMARK    2  A    between atoms: C2_7  and  C3_8 
REMARK    3  A    between atoms: C3_8  and  N3_9 
REMARK    4  A    between atoms: N3_9  and  C4_11 
REMARK    5  A    between atoms: C4_11  and  O1_12 
REMARK    6  A    between atoms: C4_11  and  C5_14 
REMARK    7  A    between atoms: C5_14  and  N4_15 
REMARK    8  A    between atoms: C8_23  and  N7_24 
REMARK    9  A    between atoms: C10_30  and  C11_31 
ROOT
HETATM    1  N3  UNL     1       0.174   0.619  -1.244  1.00  0.00    -0.389 N 
ATOM      2  H3  UNL     1       0.369  -0.376  -1.350  1.00  0.00     0.156 HD
ENDROOT
BRANCH   1   3
HETATM    3  C3  UNL     1       0.913   1.450  -0.347  1.00  0.00     0.193 C 
BRANCH   3   4
HETATM    4  C2  UNL     1       1.920   0.577   0.337  1.00  0.00     0.100 A 
HETATM    5  N2  UNL     1       3.134   0.355  -0.190  1.00  0.00    -0.330 N 
HETATM    6  C1  UNL     1       4.067  -0.438   0.422  1.00  0.00     0.115 A 
ATOM      7  H2  UNL     1       3.370   0.794  -1.080  1.00  0.00     0.168 HD
HETATM    8  C10 UNL     1       3.781  -1.045   1.621  1.00  0.00     0.060 A 
HETATM    9  C9  UNL     1       2.513  -0.803   2.152  1.00  0.00     0.107 A 
HETATM   10  N8  UNL     1       1.631  -0.013   1.510  1.00  0.00    -0.353 N 
ATOM     11  H8  UNL     1       0.714   0.143   1.928  1.00  0.00     0.166 HD
BRANCH   6  12
HETATM   12  N1  UNL     1       5.200  -0.602  -0.138  1.00  0.00    -0.385 N 
ATOM     13  H12 UNL     1       5.412  -0.151  -1.028  1.00  0.00     0.157 HD
ATOM     14  H11 UNL     1       5.895  -1.193   0.318  1.00  0.00     0.157 HD
ENDBRANCH   6  12
BRANCH   8  15
HETATM   15  C11 UNL     1       4.728  -1.903   2.329  1.00  0.00     0.275 C 
HETATM   16  O3  UNL     1       4.450  -2.452   3.424  1.00  0.00    -0.301 OA
ENDBRANCH   8  15
ENDBRANCH   3   4
ENDBRANCH   1   3
BRANCH   1  17
HETATM   17  C4  UNL     1      -0.861   1.279  -1.985  1.00  0.00     0.234 C 
BRANCH  17  18
HETATM   18  O1  UNL     1      -1.397   0.437  -2.936  1.00  0.00    -0.375 OA
ATOM     19  H1  UNL     1      -2.083   0.874  -3.427  1.00  0.00     0.212 HD
ENDBRANCH  17  18
BRANCH  17  20
HETATM   20  C5  UNL     1      -1.951   1.792  -1.085  1.00  0.00     0.221 C 
BRANCH  20  21
HETATM   21  N4  UNL     1      -2.627   0.754  -0.332  1.00  0.00    -0.120 N 
HETATM   22  N5  UNL     1      -2.189   0.329   0.826  1.00  0.00    -0.290 N 
HETATM   23  C6  UNL     1      -2.834  -0.637   1.483  1.00  0.00     0.182 A 
ATOM     24  H5  UNL     1      -1.347   0.740   1.230  1.00  0.00     0.187 HD
HETATM   25  C7  UNL     1      -3.978  -1.212   0.962  1.00  0.00     0.276 A 
HETATM   26  O2  UNL     1      -4.620  -2.123   1.542  1.00  0.00    -0.266 OA
HETATM   27  N6  UNL     1      -4.409  -0.765  -0.220  1.00  0.00    -0.154 N 
HETATM   28  C8  UNL     1      -3.748   0.209  -0.870  1.00  0.00     0.695 A 
ATOM     29  H6  UNL     1      -5.250  -1.167  -0.635  1.00  0.00     0.187 HD
BRANCH  28  30
HETATM   30  N7  UNL     1      -4.190   0.649  -2.022  1.00  0.00    -0.233 N 
ATOM     31  H72 UNL     1      -3.689   1.388  -2.515  1.00  0.00     0.174 HD
ATOM     32  H71 UNL     1      -5.032   0.240  -2.426  1.00  0.00     0.174 HD
ENDBRANCH  28  30
ENDBRANCH  20  21
ENDBRANCH  17  20
ENDBRANCH   1  17
TORSDOF 9
