REMARK  8 active torsions:
REMARK  status: ('A' for Active; 'I' for Inactive)
REMARK    1  A    between atoms: N1_1  and  N2_4 
REMARK    2  A    between atoms: N2_4  and  N3_6 
REMARK    3  A    between atoms: N3_6  and  N4_7 
REMARK       I    between atoms: N4_7  and  C1_9 
REMARK       I    between atoms: C1_9  and  N5_11 
REMARK    4  A    between atoms: N5_11  and  C2_13 
REMARK    5  A    between atoms: C2_13  and  C3_14 
REMARK    6  A    between atoms: N6_17  and  C6_18 
REMARK    7  A    between atoms: C6_18  and  C7_19 
REMARK       I    between atoms: C7_19  and  N7_21 
REMARK    8  A    between atoms: N7_21  and  N8_23 
REMARK       I    between atoms: N8_23  and  C8_25 
ROOT
HETATM    1  C3  UNL     1      -0.682  -0.319   0.407  1.00  0.00     0.045 A 
HETATM    2  C4  UNL     1      -0.374   0.846  -0.315  1.00  0.00     0.047 A 
HETATM    3  C5  UNL     1       0.857   1.299   0.089  1.00  0.00     0.112 A 
HETATM    4  N6  UNL     1       1.282   0.443   1.021  1.00  0.00    -0.294 N 
HETATM    5  N10 UNL     1       0.371  -0.518   1.209  1.00  0.00    -0.301 N 
ATOM      6  H10 UNL     1       0.465  -1.291   1.868  1.00  0.00     0.187 HD
ENDROOT
BRANCH   1   7
HETATM    7  C2  UNL     1      -1.957  -1.107   0.245  1.00  0.00     0.183 C 
BRANCH   7   8
HETATM    8  N5  UNL     1      -3.072  -0.203   0.142  1.00  0.00    -0.335 N 
HETATM    9  C1  UNL     1      -4.388  -0.364   0.566  1.00  0.00     0.347 C 
HETATM   10  N4  UNL     1      -5.333   0.704   0.349  1.00  0.00    -0.163 N 
HETATM   11  O1  UNL     1      -4.820  -1.410   1.142  1.00  0.00    -0.245 OA
ATOM     12  H4  UNL     1      -4.993   1.556  -0.098  1.00  0.00     0.209 HD
ATOM     13  H5  UNL     1      -2.867   0.689  -0.309  1.00  0.00     0.164 HD
BRANCH  10  14
HETATM   14  N3  UNL     1      -6.569   0.656   0.679  1.00  0.00    -0.217 NA
BRANCH  14  15
HETATM   15  N2  UNL     1      -7.689   0.360   0.740  1.00  0.00    -0.162 N 
ATOM     16  H2  UNL     1      -8.284   0.864   1.398  1.00  0.00     0.225 HD
BRANCH  15  17
HETATM   17  N1  UNL     1      -8.280  -0.662  -0.046  1.00  0.00    -0.319 N 
ATOM     18  H12 UNL     1      -7.671  -1.156  -0.698  1.00  0.00     0.179 HD
ATOM     19  H11 UNL     1      -9.265  -0.922   0.008  1.00  0.00     0.179 HD
ENDBRANCH  15  17
ENDBRANCH  14  15
ENDBRANCH  10  14
ENDBRANCH   7   8
ENDBRANCH   1   7
BRANCH   4  20
HETATM   20  C6  UNL     1       2.556   0.594   1.712  1.00  0.00     0.252 C 
BRANCH  20  21
HETATM   21  C7  UNL     1       3.676  -0.053   1.033  1.00  0.00     0.255 C 
HETATM   22  O2  UNL     1       3.922  -1.266   1.397  1.00  0.00    -0.270 OA
HETATM   23  N7  UNL     1       4.501   0.506   0.043  1.00  0.00    -0.265 N 
ATOM     24  H7  UNL     1       4.321   1.463  -0.259  1.00  0.00     0.190 HD
BRANCH  23  25
HETATM   25  N8  UNL     1       5.556  -0.193  -0.544  1.00  0.00    -0.251 N 
HETATM   26  C8  UNL     1       5.965   0.048  -1.874  1.00  0.00     0.347 C 
HETATM   27  N9  UNL     1       7.036  -0.671  -2.459  1.00  0.00    -0.038 NA
HETATM   28  O3  UNL     1       5.356   0.926  -2.542  1.00  0.00    -0.249 OA
ATOM     29  H8  UNL     1       6.047  -0.900   0.004  1.00  0.00     0.191 HD
ENDBRANCH  23  25
ENDBRANCH  20  21
ENDBRANCH   4  20
TORSDOF 8
