REMARK  11 active torsions:
REMARK  status: ('A' for Active; 'I' for Inactive)
REMARK    1  A    between atoms: C4_5  and  O2_6 
REMARK    2  A    between atoms: O2_6  and  C5_7 
REMARK    3  A    between atoms: C5_7  and  C6_8 
REMARK    4  A    between atoms: C6_8  and  C20_24 
REMARK    5  A    between atoms: C7_9  and  C8_10 
REMARK    6  A    between atoms: C8_10  and  C9_11 
REMARK    7  A    between atoms: C9_11  and  C10_12 
REMARK    8  A    between atoms: C10_12  and  O3_13 
REMARK    9  A    between atoms: C20_24  and  O4_25 
REMARK   10  A    between atoms: C21_27  and  O5_28 
REMARK   11  A    between atoms: C22_30  and  O6_31 
ROOT
HETATM    1  C6  UNL     1      -1.778  -1.654  -0.862  1.00  0.00    -0.037 C 
HETATM    2  C7  UNL     1      -0.850  -2.015  -0.014  1.00  0.00    -0.020 C 
ENDROOT
BRANCH   1   3
HETATM    3  C5  UNL     1      -3.204  -2.112  -0.630  1.00  0.00     0.204 C 
BRANCH   3   4
HETATM    4  O2  UNL     1      -4.157  -1.233  -0.455  1.00  0.00    -0.377 OA
BRANCH   4   5
HETATM    5  C4  UNL     1      -4.658  -0.325  -1.270  1.00  0.00     0.176 C 
HETATM    6  C3  UNL     1      -6.182  -0.445  -1.462  1.00  0.00     0.203 C 
HETATM    7  O1  UNL     1      -6.785  -0.638  -0.246  1.00  0.00    -0.381 OA
HETATM    8  C2  UNL     1      -6.599   0.408   0.641  1.00  0.00     0.148 C 
HETATM    9  C1  UNL     1      -6.206  -0.143   1.975  1.00  0.00     0.042 C 
HETATM   10  C22 UNL     1      -5.718   1.493   0.130  1.00  0.00     0.178 C 
HETATM   11  C21 UNL     1      -4.499   1.059  -0.606  1.00  0.00     0.180 C 
BRANCH  10  12
HETATM   12  O6  UNL     1      -6.460   2.466  -0.580  1.00  0.00    -0.390 OA
ATOM     13  H6  UNL     1      -5.898   3.159  -0.906  1.00  0.00     0.210 HD
ENDBRANCH  10  12
BRANCH  11  14
HETATM   14  O5  UNL     1      -4.238   2.004  -1.616  1.00  0.00    -0.390 OA
ATOM     15  H5  UNL     1      -4.140   2.856  -1.207  1.00  0.00     0.210 HD
ENDBRANCH  11  14
ENDBRANCH   4   5
ENDBRANCH   3   4
ENDBRANCH   1   3
BRANCH   1  16
HETATM   16  C20 UNL     1      -1.492  -0.857  -2.067  1.00  0.00     0.200 C 
BRANCH  16  17
HETATM   17  O4  UNL     1      -1.893  -1.618  -3.205  1.00  0.00    -0.397 OA
ATOM     18  H4  UNL     1      -1.709  -1.104  -3.982  1.00  0.00     0.209 HD
ENDBRANCH  16  17
ENDBRANCH   1  16
BRANCH   2  19
HETATM   19  C8  UNL     1       0.563  -1.686  -0.054  1.00  0.00     0.030 C 
BRANCH  19  20
HETATM   20  C9  UNL     1       1.022  -0.916   1.140  1.00  0.00     0.041 C 
BRANCH  20  21
HETATM   21  C10 UNL     1       2.483  -0.550   1.099  1.00  0.00     0.058 C 
HETATM   22  C11 UNL     1       2.899   0.042   2.427  1.00  0.00     0.038 C 
HETATM   23  C12 UNL     1       3.999   1.019   2.433  1.00  0.00     0.003 C 
HETATM   24  C13 UNL     1       5.358   0.438   2.119  1.00  0.00     0.000 C 
HETATM   25  C14 UNL     1       6.061   1.249   1.028  1.00  0.00     0.000 C 
HETATM   26  C15 UNL     1       6.520   0.403  -0.115  1.00  0.00     0.000 C 
HETATM   27  C16 UNL     1       6.025   0.818  -1.458  1.00  0.00     0.000 C 
HETATM   28  C17 UNL     1       4.552   0.910  -1.622  1.00  0.00     0.000 C 
HETATM   29  C18 UNL     1       3.798  -0.272  -1.042  1.00  0.00     0.003 C 
HETATM   30  C19 UNL     1       2.780   0.293  -0.072  1.00  0.00     0.038 C 
BRANCH  21  31
HETATM   31  O3  UNL     1       3.202  -1.741   1.004  1.00  0.00    -0.390 OA
ATOM     32  H3  UNL     1       4.123  -1.510   0.978  1.00  0.00     0.210 HD
ENDBRANCH  21  31
ENDBRANCH  20  21
ENDBRANCH  19  20
ENDBRANCH   2  19
TORSDOF 11
