REMARK  11 active torsions:
REMARK  status: ('A' for Active; 'I' for Inactive)
REMARK    1  A    between atoms: C2_2  and  O1_4 
REMARK    2  A    between atoms: C2_2  and  C4_6 
REMARK    3  A    between atoms: C4_6  and  C5_7 
REMARK    4  A    between atoms: C5_7  and  C6_8 
REMARK    5  A    between atoms: C6_8  and  O2_9 
REMARK    6  A    between atoms: C6_8  and  C7_11 
REMARK    7  A    between atoms: C7_11  and  C8_12 
REMARK    8  A    between atoms: C10_14  and  C12_16 
REMARK    9  A    between atoms: C12_16  and  O3_17 
REMARK   10  A    between atoms: C15_21  and  O4_22 
REMARK   11  A    between atoms: C16_24  and  C18_26 
ROOT
HETATM    1  C8  UNL     1      -1.143  -0.616   0.418  1.00  0.00    -0.022 C 
HETATM    2  C9  UNL     1      -1.184  -0.982   1.879  1.00  0.00     0.017 C 
HETATM    3  C10 UNL     1      -1.587  -1.888  -0.247  1.00  0.00    -0.015 C 
HETATM    4  C11 UNL     1      -2.850  -2.481   0.370  1.00  0.00     0.018 C 
HETATM    5  C13 UNL     1      -2.010  -1.621  -1.710  1.00  0.00     0.014 C 
HETATM    6  C14 UNL     1      -3.277  -0.909  -1.667  1.00  0.00     0.033 C 
HETATM    7  C15 UNL     1      -3.066   0.381  -0.962  1.00  0.00     0.127 C 
HETATM    8  C16 UNL     1      -2.241   0.460   0.256  1.00  0.00    -0.005 C 
HETATM    9  C17 UNL     1      -3.140   0.555   1.466  1.00  0.00     0.019 C 
ENDROOT
BRANCH   1  10
HETATM   10  C7  UNL     1       0.182  -0.106   0.049  1.00  0.00     0.042 C 
BRANCH  10  11
HETATM   11  C6  UNL     1       1.488  -0.719   0.160  1.00  0.00     0.119 C 
BRANCH  11  12
HETATM   12  C5  UNL     1       2.506   0.384  -0.367  1.00  0.00     0.034 C 
BRANCH  12  13
HETATM   13  C4  UNL     1       3.882  -0.009   0.011  1.00  0.00     0.039 C 
BRANCH  13  14
HETATM   14  C2  UNL     1       4.935   0.976  -0.443  1.00  0.00     0.051 C 
HETATM   15  C1  UNL     1       4.948   1.142  -1.945  1.00  0.00     0.045 C 
HETATM   16  C3  UNL     1       6.279   0.408  -0.003  1.00  0.00     0.045 C 
BRANCH  14  17
HETATM   17  O1  UNL     1       4.768   2.191   0.209  1.00  0.00    -0.391 OA
ATOM     18  H1  UNL     1       4.760   2.087   1.153  1.00  0.00     0.210 HD
ENDBRANCH  14  17
ENDBRANCH  13  14
ENDBRANCH  12  13
ENDBRANCH  11  12
BRANCH  11  19
HETATM   19  O2  UNL     1       1.953  -1.782  -0.495  1.00  0.00    -0.396 OA
ATOM     20  H2  UNL     1       1.345  -2.441  -0.180  1.00  0.00     0.210 HD
ENDBRANCH  11  19
ENDBRANCH  10  11
ENDBRANCH   1  10
BRANCH   3  21
HETATM   21  C12 UNL     1      -0.782  -3.094  -0.357  1.00  0.00     0.173 C 
BRANCH  21  22
HETATM   22  O3  UNL     1      -0.342  -3.746   0.783  1.00  0.00    -0.400 OA
ATOM     23  H3  UNL     1       0.184  -4.534   0.711  1.00  0.00     0.209 HD
ENDBRANCH  21  22
ENDBRANCH   3  21
BRANCH   8  24
HETATM   24  C18 UNL     1      -1.721   1.917   0.243  1.00  0.00     0.014 C 
HETATM   25  C19 UNL     1      -2.793   2.878  -0.205  1.00  0.00     0.088 C 
HETATM   26  S1  UNL     1      -2.940   4.218   1.017  1.00  0.00    -0.092 SA
HETATM   27  C20 UNL     1      -2.089   3.320   2.268  1.00  0.00     0.186 C 
HETATM   28  O5  UNL     1      -2.276   3.437   3.446  1.00  0.00    -0.285 OA
HETATM   29  C21 UNL     1      -1.175   2.475   1.468  1.00  0.00     0.097 C 
ENDBRANCH   8  24
BRANCH   7  30
HETATM   30  O4  UNL     1      -2.551   1.214  -2.004  1.00  0.00    -0.395 OA
ATOM     31  H4  UNL     1      -2.416   2.039  -1.553  1.00  0.00     0.210 HD
ENDBRANCH   7  30
TORSDOF 11
