REMARK  8 active torsions:
REMARK  status: ('A' for Active; 'I' for Inactive)
REMARK    1  A    between atoms: O1_2  and  C2_3 
REMARK    2  A    between atoms: C8_9  and  O2_10 
REMARK    3  A    between atoms: C9_12  and  C10_13 
REMARK    4  A    between atoms: C12_15  and  C13_16 
REMARK    5  A    between atoms: C13_16  and  N1_17 
REMARK    6  A    between atoms: N1_17  and  C14_20 
REMARK    7  A    between atoms: C14_20  and  C15_21 
REMARK    8  A    between atoms: C15_21  and  N2_22 
ROOT
HETATM    1  C10 UNL     1      -2.686   1.200   0.406  1.00  0.00     0.067 A 
HETATM    2  C11 UNL     1      -1.567   0.944  -0.365  1.00  0.00     0.058 A 
HETATM    3  C12 UNL     1      -0.327   1.524  -0.075  1.00  0.00     0.054 A 
HETATM    4  N3  UNL     1      -0.239   2.347   0.980  1.00  0.00    -0.194 N 
ATOM      5  H3  UNL     1       0.655   2.782   1.210  1.00  0.00     0.184 HD
HETATM    6  C22 UNL     1      -1.307   2.600   1.727  1.00  0.00     0.676 A 
HETATM    7  N4  UNL     1      -1.242   3.388   2.744  1.00  0.00    -0.234 N 
ATOM      8  H41 UNL     1      -2.063   3.582   3.318  1.00  0.00     0.174 HD
ATOM      9  H42 UNL     1      -0.337   3.810   2.952  1.00  0.00     0.174 HD
HETATM   10  N5  UNL     1      -2.520   2.034   1.448  1.00  0.00    -0.191 N 
ATOM     11  H5  UNL     1      -3.319   2.250   2.045  1.00  0.00     0.184 HD
ENDROOT
BRANCH   3  12
HETATM   12  C13 UNL     1       0.858   1.246  -0.899  1.00  0.00     0.289 C 
BRANCH  12  13
HETATM   13  N1  UNL     1       1.608   0.091  -0.400  1.00  0.00    -0.068 N 
ATOM     14  H12 UNL     1       1.872   0.178   0.581  1.00  0.00     0.277 HD
ATOM     15  H11 UNL     1       1.037  -0.749  -0.306  1.00  0.00     0.277 HD
BRANCH  13  16
HETATM   16  C14 UNL     1       2.743  -0.087  -1.283  1.00  0.00     0.262 C 
BRANCH  16  17
HETATM   17  C15 UNL     1       3.604  -1.244  -0.884  1.00  0.00     0.299 C 
BRANCH  17  18
HETATM   18  N2  UNL     1       4.168  -1.162   0.427  1.00  0.00     0.090 N 
HETATM   19  C16 UNL     1       4.961  -2.322   0.684  1.00  0.00     0.273 C 
HETATM   20  C17 UNL     1       6.289  -1.992   1.356  1.00  0.00     0.034 C 
HETATM   21  C18 UNL     1       7.063  -1.134   0.395  1.00  0.00    -0.015 C 
HETATM   22  C19 UNL     1       8.325  -0.665   1.093  1.00  0.00     0.010 C 
HETATM   23  C20 UNL     1       6.200   0.010  -0.055  1.00  0.00     0.034 C 
HETATM   24  C21 UNL     1       4.868   0.060   0.685  1.00  0.00     0.273 C 
ENDBRANCH  17  18
ENDBRANCH  16  17
ENDBRANCH  13  16
ENDBRANCH  12  13
ENDBRANCH   3  12
BRANCH   1  25
HETATM   25  C9  UNL     1      -3.998   0.661   0.038  1.00  0.00     0.058 A 
HETATM   26  C2  UNL     1      -5.144   1.371   0.332  1.00  0.00     0.084 A 
HETATM   27  C3  UNL     1      -6.384   0.797   0.052  1.00  0.00     0.045 A 
HETATM   28  C4  UNL     1      -6.456  -0.463  -0.512  1.00  0.00    -0.051 A 
HETATM   29  C5  UNL     1      -7.777  -1.038  -0.795  1.00  0.00     0.049 C 
HETATM   30  C6  UNL     1      -5.348  -1.179  -0.810  1.00  0.00    -0.022 A 
HETATM   31  C7  UNL     1      -5.415  -2.504  -1.403  1.00  0.00     0.052 C 
HETATM   32  C8  UNL     1      -4.102  -0.616  -0.533  1.00  0.00     0.087 A 
BRANCH  26  33
HETATM   33  O1  UNL     1      -5.112   2.635   0.889  1.00  0.00    -0.355 OA
HETATM   34  C1  UNL     1      -6.319   3.308   1.165  1.00  0.00     0.210 C 
ENDBRANCH  26  33
BRANCH  32  35
HETATM   35  O2  UNL     1      -2.979  -1.350  -0.832  1.00  0.00    -0.359 OA
ATOM     36  H2  UNL     1      -2.131  -0.967  -0.643  1.00  0.00     0.217 HD
ENDBRANCH  32  35
ENDBRANCH   1  25
TORSDOF 8
