REMARK  9 active torsions:
REMARK  status: ('A' for Active; 'I' for Inactive)
REMARK    1  A    between atoms: O1_2  and  C2_3 
REMARK    2  A    between atoms: C4_5  and  C5_6 
REMARK    3  A    between atoms: C5_6  and  C6_7 
REMARK    4  A    between atoms: C8_11  and  N2_12 
REMARK    5  A    between atoms: C9_17  and  N4_18 
REMARK    6  A    between atoms: C10_21  and  O2_22 
REMARK    7  A    between atoms: O2_22  and  C11_23 
REMARK    8  A    between atoms: C17_29  and  O3_30 
REMARK    9  A    between atoms: C19_32  and  O4_33 
ROOT
HETATM    1  C2  UNL     1      -1.970   0.167   2.057  1.00  0.00     0.105 A 
HETATM    2  C3  UNL     1      -1.839  -0.231   0.730  1.00  0.00     0.050 A 
HETATM    3  C4  UNL     1      -0.691  -0.048   0.002  1.00  0.00    -0.015 A 
HETATM    4  C10 UNL     1       0.447   0.566   0.568  1.00  0.00     0.112 A 
HETATM    5  C17 UNL     1       0.312   0.952   1.871  1.00  0.00     0.138 A 
HETATM    6  C19 UNL     1      -0.869   0.762   2.611  1.00  0.00     0.138 A 
ENDROOT
BRANCH   3   7
HETATM    7  C5  UNL     1      -0.626  -0.507  -1.388  1.00  0.00     0.085 C 
BRANCH   7   8
HETATM    8  C6  UNL     1      -1.981  -0.909  -1.837  1.00  0.00     0.006 A 
HETATM    9  C7  UNL     1      -2.276  -2.274  -1.907  1.00  0.00     0.117 A 
HETATM   10  N1  UNL     1      -3.492  -2.675  -2.311  1.00  0.00    -0.202 N 
HETATM   11  C8  UNL     1      -4.446  -1.788  -2.656  1.00  0.00     0.677 A 
ATOM     12  H1  UNL     1      -3.698  -3.673  -2.358  1.00  0.00     0.183 HD
HETATM   13  N3  UNL     1      -4.159  -0.476  -2.588  1.00  0.00    -0.177 N 
HETATM   14  C9  UNL     1      -2.967  -0.008  -2.193  1.00  0.00     0.122 A 
ATOM     15  H3  UNL     1      -4.882   0.194  -2.849  1.00  0.00     0.185 HD
BRANCH  11  16
HETATM   16  N2  UNL     1      -5.630  -2.149  -3.051  1.00  0.00    -0.234 N 
ATOM     17  H22 UNL     1      -5.848  -3.144  -3.103  1.00  0.00     0.174 HD
ATOM     18  H21 UNL     1      -6.352  -1.478  -3.312  1.00  0.00     0.174 HD
ENDBRANCH  11  16
BRANCH  14  19
HETATM   19  N4  UNL     1      -2.678   1.235  -2.124  1.00  0.00    -0.385 N 
ATOM     20  H42 UNL     1      -1.771   1.591  -1.823  1.00  0.00     0.157 HD
ATOM     21  H41 UNL     1      -3.406   1.900  -2.387  1.00  0.00     0.157 HD
ENDBRANCH  14  19
ENDBRANCH   7   8
ENDBRANCH   3   7
BRANCH   4  22
HETATM   22  O2  UNL     1       1.583   0.766  -0.120  1.00  0.00    -0.342 OA
BRANCH  22  23
HETATM   23  C11 UNL     1       2.755   0.159  -0.381  1.00  0.00     0.129 C 
HETATM   24  C12 UNL     1       2.832  -0.066  -1.912  1.00  0.00     0.032 C 
HETATM   25  C13 UNL     1       4.150   0.346  -2.483  1.00  0.00     0.002 C 
HETATM   26  C14 UNL     1       5.284  -0.260  -1.730  1.00  0.00     0.000 C 
HETATM   27  C15 UNL     1       5.247   0.203  -0.304  1.00  0.00     0.002 C 
HETATM   28  C16 UNL     1       3.971   1.024  -0.033  1.00  0.00     0.032 C 
ENDBRANCH  22  23
ENDBRANCH   4  22
BRANCH   1  29
HETATM   29  O1  UNL     1      -3.133  -0.018   2.782  1.00  0.00    -0.353 OA
HETATM   30  C1  UNL     1      -4.254  -0.630   2.174  1.00  0.00     0.210 C 
ENDBRANCH   1  29
BRANCH   5  31
HETATM   31  O3  UNL     1       1.365   1.563   2.554  1.00  0.00    -0.351 OA
HETATM   32  C18 UNL     1       2.123   0.648   3.368  1.00  0.00     0.210 C 
ENDBRANCH   5  31
BRANCH   6  33
HETATM   33  O4  UNL     1      -0.944   1.181   3.942  1.00  0.00    -0.351 OA
HETATM   34  C20 UNL     1      -1.402   2.504   4.206  1.00  0.00     0.210 C 
ENDBRANCH   6  33
TORSDOF 9
