REMARK  7 active torsions:
REMARK  status: ('A' for Active; 'I' for Inactive)
REMARK    1  A    between atoms: N1_2  and  C2_5 
REMARK    2  A    between atoms: C5_8  and  C6_9 
REMARK    3  A    between atoms: C6_9  and  N2_10 
REMARK    4  A    between atoms: N2_10  and  C7_12 
REMARK    5  A    between atoms: C9_14  and  C10_15 
REMARK    6  A    between atoms: C15_24  and  N5_25 
REMARK    7  A    between atoms: C18_28  and  N6_29 
ROOT
HETATM    1  C7  UNL     1      -0.638  -0.466  -0.137  1.00  0.00     0.033 A 
HETATM    2  C8  UNL     1      -1.372  -1.560  -0.633  1.00  0.00     0.059 A 
HETATM    3  C9  UNL     1      -2.731  -1.557  -0.646  1.00  0.00     0.048 A 
HETATM    4  N4  UNL     1      -3.328  -0.444  -0.155  1.00  0.00    -0.342 N 
ATOM      5  H4  UNL     1      -4.348  -0.413  -0.152  1.00  0.00     0.167 HD
HETATM    6  C15 UNL     1      -2.668   0.621   0.328  1.00  0.00     0.105 A 
HETATM    7  C20 UNL     1      -1.277   0.638   0.349  1.00  0.00     0.077 A 
ENDROOT
BRANCH   1   8
HETATM    8  N2  UNL     1       0.781  -0.481  -0.130  1.00  0.00    -0.389 N 
ATOM      9  H2  UNL     1       1.266  -1.304  -0.486  1.00  0.00     0.159 HD
BRANCH   8  10
HETATM   10  C6  UNL     1       1.564   0.631   0.365  1.00  0.00     0.124 C 
BRANCH  10  11
HETATM   11  C5  UNL     1       3.013   0.278   0.227  1.00  0.00     0.003 C 
HETATM   12  C4  UNL     1       3.919   1.371   0.714  1.00  0.00     0.008 C 
HETATM   13  C3  UNL     1       5.304   0.977   1.007  1.00  0.00     0.033 C 
HETATM   14  C2  UNL     1       5.738  -0.386   0.646  1.00  0.00     0.185 C 
HETATM   15  C22 UNL     1       4.664  -1.425   0.558  1.00  0.00     0.033 C 
HETATM   16  C21 UNL     1       3.339  -0.925   1.128  1.00  0.00     0.008 C 
BRANCH  14  17
HETATM   17  N1  UNL     1       6.479  -0.407  -0.608  1.00  0.00    -0.075 N 
HETATM   18  C1  UNL     1       7.697   0.352  -0.549  1.00  0.00     0.267 C 
ATOM     19  H12 UNL     1       5.893  -0.097  -1.383  1.00  0.00     0.277 HD
ATOM     20  H11 UNL     1       6.660  -1.365  -0.909  1.00  0.00     0.277 HD
ENDBRANCH  14  17
ENDBRANCH  10  11
ENDBRANCH   8  10
ENDBRANCH   1   8
BRANCH   3  21
HETATM   21  C10 UNL     1      -3.582  -2.651  -1.119  1.00  0.00     0.013 A 
HETATM   22  C11 UNL     1      -4.976  -2.660  -0.914  1.00  0.00     0.101 A 
HETATM   23  N3  UNL     1      -5.493  -3.755  -1.462  1.00  0.00    -0.374 N 
HETATM   24  C12 UNL     1      -4.497  -4.448  -2.010  1.00  0.00     0.095 A 
ATOM     25  H3  UNL     1      -6.479  -4.018  -1.463  1.00  0.00     0.164 HD
HETATM   26  C13 UNL     1      -3.285  -3.782  -1.812  1.00  0.00    -0.033 A 
HETATM   27  C14 UNL     1      -1.962  -4.241  -2.297  1.00  0.00     0.050 C 
ENDBRANCH   3  21
BRANCH   6  28
HETATM   28  N5  UNL     1      -3.348   1.761   0.829  1.00  0.00    -0.365 N 
HETATM   29  C16 UNL     1      -2.752   2.943   1.385  1.00  0.00     0.126 C 
HETATM   30  C17 UNL     1      -3.883   3.917   1.633  1.00  0.00     0.054 C 
HETATM   31  C18 UNL     1      -4.975   3.392   0.752  1.00  0.00     0.203 C 
HETATM   32  C19 UNL     1      -4.791   1.893   0.847  1.00  0.00     0.157 C 
BRANCH  31  33
HETATM   33  N6  UNL     1      -4.704   3.785  -0.610  1.00  0.00    -0.073 N 
ATOM     34  H63 UNL     1      -4.576   4.792  -0.707  1.00  0.00     0.274 HD
ATOM     35  H62 UNL     1      -3.778   3.494  -0.922  1.00  0.00     0.274 HD
ATOM     36  H61 UNL     1      -5.448   3.428  -1.210  1.00  0.00     0.274 HD
ENDBRANCH  31  33
ENDBRANCH   6  28
TORSDOF 7
