REMARK  2 active torsions:
REMARK  status: ('A' for Active; 'I' for Inactive)
REMARK    1  A    between atoms: O1_1  and  C1_3 
REMARK    2  A    between atoms: C1_3  and  C2_5 
ROOT
HETATM    1  C2  UNL     1       0.749   0.261  -0.457  1.00  0.00     0.054 C 
HETATM    2  C3  UNL     1       0.482  -1.062   0.275  1.00  0.00     0.012 C 
HETATM    3  C4  UNL     1      -0.872  -1.524  -0.248  1.00  0.00     0.001 C 
HETATM    4  C5  UNL     1      -1.783  -0.359  -0.464  1.00  0.00     0.000 C 
HETATM    5  C6  UNL     1      -1.474   0.821   0.421  1.00  0.00     0.001 C 
HETATM    6  C7  UNL     1      -0.061   1.305   0.297  1.00  0.00     0.012 C 
ENDROOT
BRANCH   1   7
HETATM    7  C1  UNL     1       2.196   0.561  -0.395  1.00  0.00     0.114 C 
HETATM    8  S1  UNL     1       3.079   0.713  -1.741  1.00  0.00    -0.058 SA
BRANCH   7   9
HETATM    9  O1  UNL     1       2.779   0.709   0.846  1.00  0.00    -0.354 OA
ATOM     10  H1  UNL     1       2.260   0.620   1.637  1.00  0.00     0.218 HD
ENDBRANCH   7   9
ENDBRANCH   1   7
TORSDOF 2
