REMARK  2 active torsions:
REMARK  status: ('A' for Active; 'I' for Inactive)
REMARK    1  A    between atoms: O1_2  and  C2_3 
REMARK    2  A    between atoms: C9_10  and  N1_11 
ROOT
HETATM    1  C2  UNL     1       1.158   0.022  -0.472  1.00  0.00     0.151 C 
HETATM    2  C3  UNL     1       0.473  -1.165  -1.095  1.00  0.00     0.034 C 
HETATM    3  C4  UNL     1      -0.436  -1.814  -0.081  1.00  0.00     0.002 C 
HETATM    4  C5  UNL     1      -1.880  -1.626  -0.385  1.00  0.00     0.000 C 
HETATM    5  C6  UNL     1      -2.319  -0.173  -0.312  1.00  0.00     0.000 C 
HETATM    6  C7  UNL     1      -1.820   0.543   0.885  1.00  0.00     0.002 C 
HETATM    7  C8  UNL     1      -0.543   1.246   0.807  1.00  0.00     0.035 C 
HETATM    8  C9  UNL     1       0.212   1.220  -0.466  1.00  0.00     0.212 C 
ENDROOT
BRANCH   8   9
HETATM    9  N1  UNL     1       1.101   2.396  -0.522  1.00  0.00    -0.073 N 
ATOM     10  H13 UNL     1       1.806   2.419   0.215  1.00  0.00     0.274 HD
ATOM     11  H12 UNL     1       1.754   2.386  -1.305  1.00  0.00     0.274 HD
ATOM     12  H11 UNL     1       0.469   3.197  -0.518  1.00  0.00     0.274 HD
ENDBRANCH   8   9
BRANCH   1  13
HETATM   13  O1  UNL     1       1.623  -0.291   0.780  1.00  0.00    -0.389 OA
HETATM   14  C1  UNL     1       3.010  -0.230   0.857  1.00  0.00     0.202 C 
ENDBRANCH   1  13
TORSDOF 2
