REMARK  2 active torsions:
REMARK  status: ('A' for Active; 'I' for Inactive)
REMARK    1  A    between atoms: O1_2  and  N1_3 
REMARK    2  A    between atoms: N1_3  and  C2_4 
ROOT
HETATM    1  C2  UNL     1       0.403   0.149  -0.372  1.00  0.00     0.061 C 
HETATM    2  C3  UNL     1      -0.211   1.531  -0.186  1.00  0.00     0.034 C 
HETATM    3  C4  UNL     1      -1.664   1.139   0.018  1.00  0.00    -0.012 C 
HETATM    4  C5  UNL     1      -1.857   0.241   1.195  1.00  0.00     0.009 C 
HETATM    5  C6  UNL     1      -0.953  -0.940   1.170  1.00  0.00    -0.012 C 
HETATM    6  C7  UNL     1      -1.141  -1.700  -0.150  1.00  0.00     0.011 C 
HETATM    7  C8  UNL     1      -0.635  -0.621  -1.119  1.00  0.00     0.013 C 
HETATM    8  C9  UNL     1      -1.847   0.315  -1.265  1.00  0.00     0.011 C 
HETATM    9  C10 UNL     1       0.510  -0.519   1.006  1.00  0.00     0.034 C 
ENDROOT
BRANCH   1  10
HETATM   10  N1  UNL     1       1.692   0.170  -0.953  1.00  0.00    -0.091 NA
BRANCH  10  11
HETATM   11  O1  UNL     1       2.516   0.883  -0.148  1.00  0.00    -0.291 OA
HETATM   12  C1  UNL     1       3.552   0.100   0.360  1.00  0.00     0.231 C 
ENDBRANCH  10  11
ENDBRANCH   1  10
TORSDOF 2
