REMARK  1 active torsions:
REMARK  status: ('A' for Active; 'I' for Inactive)
REMARK    1  A    between atoms: C2_2  and  C3_3 
ROOT
HETATM    1  C3  UNL     1       1.225  -0.212   0.594  1.00  0.00     0.247 C 
HETATM    2  N1  UNL     1       0.290   0.441   1.433  1.00  0.00    -0.057 N 
ATOM      3  H11 UNL     1       0.652   1.342   1.746  1.00  0.00     0.279 HD
ATOM      4  H12 UNL     1       0.218  -0.034   2.333  1.00  0.00     0.279 HD
HETATM    5  C4  UNL     1      -0.969   0.589   0.848  1.00  0.00     0.201 C 
HETATM    6  C5  UNL     1      -1.094   1.846  -0.001  1.00  0.00     0.041 C 
HETATM    7  C6  UNL     1      -1.336  -0.613   0.056  1.00  0.00     0.031 C 
HETATM    8  C7  UNL     1      -2.458  -0.441  -0.883  1.00  0.00     0.029 C 
HETATM    9  C8  UNL     1      -1.495  -1.822   0.939  1.00  0.00     0.029 C 
HETATM   10  S1  UNL     1       0.268  -0.846  -0.819  1.00  0.00    -0.125 SA
ENDROOT
BRANCH   1  11
HETATM   11  C2  UNL     1       2.373   0.651   0.144  1.00  0.00     0.039 C 
HETATM   12  C1  UNL     1       3.251  -0.242  -0.742  1.00  0.00     0.008 C 
ENDBRANCH   1  11
TORSDOF 1
