REMARK  8 active torsions:
REMARK  status: ('A' for Active; 'I' for Inactive)
REMARK    1  A    between atoms: N1_1  and  N2_4 
REMARK    2  A    between atoms: N2_4  and  N3_5 
REMARK    3  A    between atoms: N3_5  and  N4_7 
REMARK    4  A    between atoms: N4_7  and  C1_9 
REMARK    5  A    between atoms: C2_11  and  C3_12 
REMARK    6  A    between atoms: C3_12  and  O1_13 
REMARK    7  A    between atoms: C3_12  and  O2_15 
REMARK    8  A    between atoms: C6_19  and  O3_20 
ROOT
HETATM    1  C1  UNL     1       1.980  -0.371  -0.393  1.00  0.00     0.126 A 
HETATM    2  S1  UNL     1       0.967   0.819  -1.043  1.00  0.00    -0.067 SA
HETATM    3  C2  UNL     1      -0.678   0.694  -0.527  1.00  0.00     0.054 A 
HETATM    4  C4  UNL     1      -0.903  -0.341   0.319  1.00  0.00     0.052 A 
HETATM    5  C5  UNL     1       0.023  -1.247   0.774  1.00  0.00     0.091 A 
HETATM    6  C6  UNL     1       1.367  -1.271   0.451  1.00  0.00     0.118 A 
HETATM    7  C7  UNL     1      -0.660  -2.208   1.660  1.00  0.00     0.303 A 
HETATM    8  O4  UNL     1      -0.174  -3.190   2.281  1.00  0.00    -0.259 OA
HETATM    9  O5  UNL     1      -1.990  -1.877   1.732  1.00  0.00    -0.257 OA
HETATM   10  C8  UNL     1      -2.177  -0.753   0.933  1.00  0.00     0.158 A 
HETATM   11  N5  UNL     1      -3.338  -0.224   0.812  1.00  0.00    -0.379 N 
ATOM     12  H51 UNL     1      -4.220  -0.509   1.237  1.00  0.00     0.158 HD
ATOM     13  H52 UNL     1      -3.475   0.600   0.226  1.00  0.00     0.158 HD
ENDROOT
BRANCH   1  14
HETATM   14  N4  UNL     1       3.249  -0.440  -0.664  1.00  0.00    -0.265 N 
ATOM     15  H4  UNL     1       3.845  -1.164  -0.263  1.00  0.00     0.190 HD
BRANCH  14  16
HETATM   16  N3  UNL     1       3.753   0.531  -1.534  1.00  0.00    -0.155 N 
ATOM     17  H3  UNL     1       3.692   0.369  -2.539  1.00  0.00     0.225 HD
BRANCH  16  18
HETATM   18  N2  UNL     1       4.271   1.582  -1.130  1.00  0.00    -0.228 NA
BRANCH  18  19
HETATM   19  N1  UNL     1       4.799   2.494  -0.498  1.00  0.00    -0.259 N 
ATOM     20  H12 UNL     1       4.815   1.923   0.347  1.00  0.00     0.193 HD
ATOM     21  H11 UNL     1       5.225   3.359  -0.166  1.00  0.00     0.193 HD
ENDBRANCH  18  19
ENDBRANCH  16  18
ENDBRANCH  14  16
ENDBRANCH   1  14
BRANCH   6  22
HETATM   22  O3  UNL     1       2.217  -2.260   0.989  1.00  0.00    -0.357 OA
ATOM     23  H3  UNL     1       1.794  -2.881   1.571  1.00  0.00     0.218 HD
ENDBRANCH   6  22
BRANCH   3  24
HETATM   24  C3  UNL     1      -1.631   1.707  -1.006  1.00  0.00     0.296 C 
BRANCH  24  25
HETATM   25  O1  UNL     1      -2.408   2.311  -0.040  1.00  0.00    -0.367 OA
ATOM     26  H1  UNL     1      -3.023   2.965  -0.349  1.00  0.00     0.213 HD
ENDBRANCH  24  25
BRANCH  24  27
HETATM   27  O2  UNL     1      -2.410   1.201  -2.061  1.00  0.00    -0.367 OA
ATOM     28  H2  UNL     1      -3.025   1.855  -2.370  1.00  0.00     0.213 HD
ENDBRANCH  24  27
ENDBRANCH   3  24
TORSDOF 8
