REMARK  2 active torsions:
REMARK  status: ('A' for Active; 'I' for Inactive)
REMARK    1  A    between atoms: S1_2  and  C2_3 
REMARK    2  A    between atoms: C3_4  and  S2_5 
ROOT
HETATM    1  C2  UNL     1       1.603  -0.177  -0.053  1.00  0.00     0.082 C 
HETATM    2  C3  UNL     1       0.646   0.696  -0.069  1.00  0.00     0.191 C 
HETATM    3  N1  UNL     1      -0.521   0.406   0.635  1.00  0.00    -0.222 N 
HETATM    4  N2  UNL     1      -1.440   1.377   1.147  1.00  0.00    -0.003 NA
HETATM    5  N3  UNL     1      -2.739   0.977   0.842  1.00  0.00    -0.012 NA
HETATM    6  N4  UNL     1      -2.793   0.337  -0.377  1.00  0.00    -0.296 N 
ATOM      7  H4  UNL     1      -2.839   0.849  -1.258  1.00  0.00     0.179 HD
HETATM    8  C4  UNL     1      -2.780  -1.089  -0.325  1.00  0.00     0.372 C 
HETATM    9  N5  UNL     1      -1.381  -1.524  -0.366  1.00  0.00    -0.027 N 
ATOM     10  H51 UNL     1      -0.894  -1.248  -1.219  1.00  0.00     0.282 HD
ATOM     11  H52 UNL     1      -1.271  -2.531  -0.482  1.00  0.00     0.282 HD
HETATM   12  C5  UNL     1      -0.772  -1.014   0.834  1.00  0.00     0.375 C 
HETATM   13  S3  UNL     1       0.988  -1.546   0.941  1.00  0.00    -0.065 SA
ENDROOT
BRANCH   2  14
HETATM   14  S2  UNL     1       0.848   2.217  -0.962  1.00  0.00     0.157 S 
HETATM   15  O1  UNL     1       1.775   2.038  -2.130  1.00  0.00    -0.590 OA
HETATM   16  O2  UNL     1      -0.435   2.749  -1.475  1.00  0.00    -0.590 OA
HETATM   17  O3  UNL     1       1.535   3.298   0.156  1.00  0.00    -0.590 OA
ENDBRANCH   2  14
BRANCH   1  18
HETATM   18  S1  UNL     1       3.218  -0.148  -0.816  1.00  0.00    -0.124 SA
HETATM   19  C1  UNL     1       4.069  -1.674  -0.420  1.00  0.00     0.096 C 
ENDBRANCH   1  18
TORSDOF 2
