REMARK  7 active torsions:
REMARK  status: ('A' for Active; 'I' for Inactive)
REMARK    1  A    between atoms: O1_2  and  C2_3 
REMARK    2  A    between atoms: C6_10  and  N2_11 
REMARK    3  A    between atoms: C9_18  and  O3_19 
REMARK    4  A    between atoms: O3_19  and  C10_20 
REMARK    5  A    between atoms: C11_21  and  N4_22 
REMARK    6  A    between atoms: C13_26  and  N5_27 
REMARK    7  A    between atoms: C15_31  and  N6_32 
ROOT
HETATM    1  C2  UNL     1      -1.470   1.781   0.252  1.00  0.00     0.103 A 
HETATM    2  C3  UNL     1      -2.730   1.189   0.352  1.00  0.00     0.059 A 
HETATM    3  C4  UNL     1      -2.911  -0.177   0.286  1.00  0.00     0.062 A 
HETATM    4  C5  UNL     1      -4.145  -0.768   0.384  1.00  0.00     0.272 A 
HETATM    5  O2  UNL     1      -5.168  -0.079   0.540  1.00  0.00    -0.267 OA
HETATM    6  N1  UNL     1      -4.225  -2.113   0.308  1.00  0.00    -0.156 N 
ATOM      7  H1  UNL     1      -5.139  -2.559   0.380  1.00  0.00     0.187 HD
HETATM    8  C6  UNL     1      -3.137  -2.880   0.141  1.00  0.00     0.679 A 
HETATM    9  N3  UNL     1      -1.939  -2.306   0.045  1.00  0.00    -0.191 N 
ATOM     10  H3  UNL     1      -1.115  -2.893  -0.083  1.00  0.00     0.184 HD
HETATM   11  C7  UNL     1      -1.788  -0.960   0.113  1.00  0.00     0.067 A 
HETATM   12  C8  UNL     1      -0.541  -0.382   0.013  1.00  0.00     0.071 A 
HETATM   13  C9  UNL     1      -0.351   0.971   0.077  1.00  0.00     0.111 A 
ENDROOT
BRANCH  13  14
HETATM   14  O3  UNL     1       0.898   1.572  -0.022  1.00  0.00    -0.303 OA
BRANCH  14  15
HETATM   15  C10 UNL     1       2.016   0.752  -0.196  1.00  0.00     0.142 A 
HETATM   16  C11 UNL     1       2.698   0.276   0.922  1.00  0.00     0.141 A 
HETATM   17  C12 UNL     1       3.817  -0.544   0.775  1.00  0.00     0.075 A 
HETATM   18  C13 UNL     1       4.278  -0.904  -0.471  1.00  0.00     0.107 A 
HETATM   19  C14 UNL     1       3.588  -0.421  -1.565  1.00  0.00     0.075 A 
HETATM   20  C15 UNL     1       2.472   0.396  -1.455  1.00  0.00     0.141 A 
BRANCH  16  21
HETATM   21  N4  UNL     1       2.271   0.614   2.235  1.00  0.00    -0.113 N 
HETATM   22  O4  UNL     1       1.723   1.698   2.511  1.00  0.00    -0.532 OA
HETATM   23  O5  UNL     1       2.475  -0.303   3.236  1.00  0.00    -0.532 OA
ENDBRANCH  16  21
BRANCH  18  24
HETATM   24  N5  UNL     1       5.415  -1.736  -0.619  1.00  0.00    -0.116 N 
HETATM   25  O6  UNL     1       5.997  -2.145   0.393  1.00  0.00    -0.532 OA
HETATM   26  O7  UNL     1       5.902  -2.111  -1.842  1.00  0.00    -0.532 OA
ENDBRANCH  18  24
BRANCH  20  27
HETATM   27  N6  UNL     1       1.781   0.877  -2.587  1.00  0.00    -0.113 N 
HETATM   28  O8  UNL     1       1.794   0.242  -3.645  1.00  0.00    -0.532 OA
HETATM   29  O9  UNL     1       1.094   2.052  -2.513  1.00  0.00    -0.532 OA
ENDBRANCH  20  27
ENDBRANCH  14  15
ENDBRANCH  13  14
BRANCH   1  30
HETATM   30  O1  UNL     1      -1.293   3.145   0.319  1.00  0.00    -0.353 OA
HETATM   31  C1  UNL     1      -2.281   4.115   0.491  1.00  0.00     0.210 C 
ENDBRANCH   1  30
BRANCH   8  32
HETATM   32  N2  UNL     1      -3.207  -4.151   0.068  1.00  0.00    -0.234 N 
ATOM     33  H22 UNL     1      -4.124  -4.591   0.142  1.00  0.00     0.174 HD
ATOM     34  H21 UNL     1      -2.380  -4.734  -0.059  1.00  0.00     0.174 HD
ENDBRANCH   8  32
TORSDOF 7
