REMARK  9 active torsions:
REMARK  status: ('A' for Active; 'I' for Inactive)
REMARK    1  A    between atoms: O1_2  and  C2_3 
REMARK    2  A    between atoms: C2_3  and  C3_5 
REMARK    3  A    between atoms: C4_7  and  N1_8 
REMARK    4  A    between atoms: N1_8  and  C5_10 
REMARK    5  A    between atoms: C5_10  and  C7_13 
REMARK    6  A    between atoms: C8_16  and  N4_17 
REMARK    7  A    between atoms: C9_22  and  O3_23 
REMARK    8  A    between atoms: C13_27  and  C14_28 
REMARK    9  A    between atoms: C14_28  and  O5_30 
ROOT
HETATM    1  C5  UNL     1       1.091   1.354   0.213  1.00  0.00     0.241 C 
HETATM    2  C6  UNL     1       1.241   2.040  -1.103  1.00  0.00     0.091 C 
HETATM    3  N2  UNL     1       1.357   2.582  -2.100  1.00  0.00    -0.195 NA
ENDROOT
BRANCH   1   4
HETATM    4  N1  UNL     1       0.159   0.316   0.212  1.00  0.00    -0.362 N 
ATOM      5  H1  UNL     1       0.613  -0.557   0.480  1.00  0.00     0.162 HD
BRANCH   4   6
HETATM    6  C4  UNL     1      -1.197   0.089  -0.038  1.00  0.00     0.089 A 
HETATM    7  S1  UNL     1      -1.714  -1.579  -0.226  1.00  0.00    -0.065 SA
HETATM    8  C3  UNL     1      -3.369  -1.339  -0.524  1.00  0.00     0.089 A 
HETATM    9  C16 UNL     1      -3.486   0.006  -0.471  1.00  0.00    -0.020 A 
HETATM   10  C13 UNL     1      -2.357   0.747  -0.214  1.00  0.00     0.080 A 
HETATM   11  C17 UNL     1      -4.851   0.659  -0.734  1.00  0.00     0.051 C 
BRANCH   8  12
HETATM   12  C2  UNL     1      -4.347  -2.426  -0.758  1.00  0.00     0.300 C 
HETATM   13  O2  UNL     1      -5.547  -2.284  -0.969  1.00  0.00    -0.259 OA
BRANCH  12  14
HETATM   14  O1  UNL     1      -3.880  -3.757  -0.740  1.00  0.00    -0.322 OA
HETATM   15  C1  UNL     1      -4.764  -4.836  -0.956  1.00  0.00     0.213 C 
ENDBRANCH  12  14
ENDBRANCH   8  12
BRANCH  10  16
HETATM   16  C14 UNL     1      -2.468   2.210   0.032  1.00  0.00     0.296 C 
HETATM   17  O4  UNL     1      -3.559   2.798  -0.184  1.00  0.00    -0.259 OA
BRANCH  16  18
HETATM   18  O5  UNL     1      -1.478   3.009   0.493  1.00  0.00    -0.322 OA
HETATM   19  C15 UNL     1      -1.556   4.377   0.741  1.00  0.00     0.213 C 
ENDBRANCH  16  18
ENDBRANCH  10  16
ENDBRANCH   4   6
ENDBRANCH   1   4
BRANCH   1  20
HETATM   20  C7  UNL     1       2.476   0.860   0.578  1.00  0.00     0.073 A 
HETATM   21  N3  UNL     1       3.170   1.471   1.594  1.00  0.00    -0.192 N 
HETATM   22  C8  UNL     1       4.385   1.032   1.971  1.00  0.00     0.678 A 
ATOM     23  H3  UNL     1       2.757   2.272   2.071  1.00  0.00     0.184 HD
HETATM   24  N5  UNL     1       4.925  -0.019   1.346  1.00  0.00    -0.170 N 
HETATM   25  C9  UNL     1       4.261  -0.631   0.349  1.00  0.00     0.165 A 
ATOM     26  H5  UNL     1       5.845  -0.359   1.626  1.00  0.00     0.186 HD
HETATM   27  C11 UNL     1       2.991  -0.204  -0.077  1.00  0.00     0.016 A 
HETATM   28  C12 UNL     1       2.412  -0.919  -1.185  1.00  0.00     0.055 C 
BRANCH  22  29
HETATM   29  N4  UNL     1       5.031   1.594   2.911  1.00  0.00    -0.234 N 
ATOM     30  H42 UNL     1       4.619   2.396   3.388  1.00  0.00     0.174 HD
ATOM     31  H41 UNL     1       5.952   1.261   3.197  1.00  0.00     0.174 HD
ENDBRANCH  22  29
BRANCH  25  32
HETATM   32  O3  UNL     1       4.847  -1.727  -0.288  1.00  0.00    -0.340 OA
HETATM   33  C10 UNL     1       6.107  -2.203   0.087  1.00  0.00     0.211 C 
ENDBRANCH  25  32
ENDBRANCH   1  20
TORSDOF 9
