REMARK  9 active torsions:
REMARK  status: ('A' for Active; 'I' for Inactive)
REMARK    1  A    between atoms: O1_2  and  C2_3 
REMARK    2  A    between atoms: C2_3  and  C3_5 
REMARK    3  A    between atoms: C5_7  and  N1_8 
REMARK    4  A    between atoms: C6_11  and  N2_12 
REMARK    5  A    between atoms: N2_12  and  N3_14 
REMARK    6  A    between atoms: C7_16  and  C8_17 
REMARK    7  A    between atoms: C10_19  and  O5_20 
REMARK    8  A    between atoms: C12_22  and  O6_23 
REMARK    9  A    between atoms: C13_25  and  N4_26 
ROOT
HETATM    1  N2  UNL     1      -0.174  -0.979  -0.129  1.00  0.00    -0.284 N 
ATOM      2  H2  UNL     1       0.291  -1.786   0.286  1.00  0.00     0.188 HD
ENDROOT
BRANCH   1   3
HETATM    3  C6  UNL     1      -1.456  -0.775   0.069  1.00  0.00     0.153 A 
HETATM    4  C5  UNL     1      -2.160  -1.660   0.837  1.00  0.00     0.149 A 
HETATM    5  C4  UNL     1      -3.517  -1.440   1.048  1.00  0.00     0.059 A 
HETATM    6  C3  UNL     1      -4.121  -0.319   0.467  1.00  0.00     0.064 A 
HETATM    7  C15 UNL     1      -3.377   0.541  -0.295  1.00  0.00     0.023 A 
HETATM    8  N5  UNL     1      -2.048   0.308  -0.490  1.00  0.00    -0.342 N 
HETATM    9  C16 UNL     1      -4.018   1.731  -0.911  1.00  0.00     0.069 C 
ATOM     10  H5  UNL     1      -1.497   0.951  -1.059  1.00  0.00     0.167 HD
BRANCH   4  11
HETATM   11  N1  UNL     1      -1.502  -2.786   1.394  1.00  0.00    -0.112 N 
HETATM   12  O3  UNL     1      -2.168  -3.843   1.625  1.00  0.00    -0.532 OA
HETATM   13  O4  UNL     1      -0.182  -2.855   1.719  1.00  0.00    -0.532 OA
ENDBRANCH   4  11
BRANCH   6  14
HETATM   14  C2  UNL     1      -5.549  -0.135   0.719  1.00  0.00     0.294 C 
HETATM   15  O2  UNL     1      -6.201  -0.955   1.434  1.00  0.00    -0.259 OA
BRANCH  14  16
HETATM   16  O1  UNL     1      -6.282   0.916   0.211  1.00  0.00    -0.322 OA
HETATM   17  C1  UNL     1      -7.647   1.139   0.419  1.00  0.00     0.213 C 
ENDBRANCH  14  16
ENDBRANCH   6  14
ENDBRANCH   1   3
BRANCH   1  18
HETATM   18  N3  UNL     1       0.506  -0.123  -0.874  1.00  0.00    -0.309 N 
HETATM   19  C7  UNL     1       1.566   0.392  -1.163  1.00  0.00     0.118 C 
ATOM     20  H3  UNL     1      -0.182   0.303  -1.495  1.00  0.00     0.186 HD
BRANCH  19  21
HETATM   21  C8  UNL     1       2.851   0.100  -0.541  1.00  0.00    -0.014 A 
HETATM   22  C9  UNL     1       4.000   0.756  -0.971  1.00  0.00     0.052 A 
HETATM   23  C10 UNL     1       5.191   0.480  -0.387  1.00  0.00     0.104 A 
HETATM   24  C12 UNL     1       5.260  -0.440   0.620  1.00  0.00     0.132 A 
HETATM   25  C13 UNL     1       4.165  -1.105   1.072  1.00  0.00     0.139 A 
HETATM   26  C14 UNL     1       2.927  -0.826   0.475  1.00  0.00     0.052 A 
BRANCH  23  27
HETATM   27  O5  UNL     1       6.356   1.096  -0.770  1.00  0.00    -0.353 OA
HETATM   28  C11 UNL     1       6.437   2.067  -1.797  1.00  0.00     0.210 C 
ENDBRANCH  23  27
BRANCH  24  29
HETATM   29  O6  UNL     1       6.481  -0.733   1.229  1.00  0.00    -0.356 OA
ATOM     30  H6  UNL     1       6.529  -1.373   1.929  1.00  0.00     0.218 HD
ENDBRANCH  24  29
BRANCH  25  31
HETATM   31  N4  UNL     1       4.197  -2.071   2.119  1.00  0.00    -0.113 N 
HETATM   32  O7  UNL     1       5.023  -1.956   3.033  1.00  0.00    -0.532 OA
HETATM   33  O8  UNL     1       3.314  -3.125   2.112  1.00  0.00    -0.532 OA
ENDBRANCH  25  31
ENDBRANCH  19  21
ENDBRANCH   1  18
TORSDOF 9
