REMARK  8 active torsions:
REMARK  status: ('A' for Active; 'I' for Inactive)
REMARK    1  A    between atoms: O1_2  and  C2_3 
REMARK    2  A    between atoms: C2_3  and  C3_4 
REMARK    3  A    between atoms: C3_4  and  N1_5 
REMARK    4  A    between atoms: N1_5  and  N2_6 
REMARK       I    between atoms: N1_5  and  C6_11 
REMARK       I    between atoms: N2_6  and  C4_8 
REMARK       I    between atoms: C6_11  and  N4_15 
REMARK    5  A    between atoms: N4_15  and  C7_17 
REMARK    6  A    between atoms: C7_17  and  C9_19 
REMARK    7  A    between atoms: N7_23  and  C10_24 
REMARK    8  A    between atoms: C10_24  and  C11_25 
ROOT
HETATM    1  C11 UNL     1       5.527   1.479   1.461  1.00  0.00     0.033 A 
HETATM    2  S1  UNL     1       6.274   1.269   2.985  1.00  0.00    -0.053 SA
HETATM    3  S2  UNL     1       7.939   0.278   2.222  1.00  0.00    -0.039 SA
HETATM    4  C12 UNL     1       7.401   0.365   0.602  1.00  0.00     0.100 A 
HETATM    5  S3  UNL     1       8.391  -0.317  -0.570  1.00  0.00    -0.070 SA
HETATM    6  C13 UNL     1       6.206   0.981   0.392  1.00  0.00     0.088 A 
HETATM    7  C14 UNL     1       5.707   1.108  -1.003  1.00  0.00     0.103 C 
HETATM    8  N8  UNL     1       5.331   1.227  -2.113  1.00  0.00    -0.191 NA
ENDROOT
BRANCH   1   9
HETATM    9  C10 UNL     1       4.175   2.168   1.345  1.00  0.00     0.215 C 
BRANCH   9  10
HETATM   10  N7  UNL     1       3.097   1.225   1.217  1.00  0.00    -0.212 N 
HETATM   11  N6  UNL     1       2.417   0.673   2.231  1.00  0.00    -0.003 NA
HETATM   12  N5  UNL     1       1.478  -0.142   1.775  1.00  0.00    -0.269 N 
HETATM   13  C9  UNL     1       1.540  -0.128   0.448  1.00  0.00     0.133 A 
ATOM     14  H5  UNL     1       0.825  -0.683   2.341  1.00  0.00     0.185 HD
HETATM   15  N9  UNL     1       2.545   0.722   0.140  1.00  0.00    -0.271 N 
ATOM     16  H9  UNL     1       2.837   0.944  -0.812  1.00  0.00     0.190 HD
BRANCH  13  17
HETATM   17  C7  UNL     1       0.684  -0.885  -0.538  1.00  0.00     0.165 C 
HETATM   18  C8  UNL     1       0.860  -0.162  -1.877  1.00  0.00     0.041 C 
BRANCH  17  19
HETATM   19  N4  UNL     1      -0.710  -0.811  -0.154  1.00  0.00    -0.214 N 
HETATM   20  C6  UNL     1      -1.682  -1.340  -1.045  1.00  0.00     0.689 C 
HETATM   21  N1  UNL     1      -3.005  -0.866  -1.182  1.00  0.00    -0.120 N 
HETATM   22  N3  UNL     1      -1.378  -2.352  -1.824  1.00  0.00    -0.233 N 
ATOM     23  H32 UNL     1      -2.076  -2.732  -2.464  1.00  0.00     0.174 HD
ATOM     24  H31 UNL     1      -0.422  -2.694  -1.725  1.00  0.00     0.174 HD
ATOM     25  H4  UNL     1      -0.987  -0.390   0.733  1.00  0.00     0.178 HD
BRANCH  21  26
HETATM   26  C3  UNL     1      -3.272   0.495  -1.547  1.00  0.00     0.194 C 
BRANCH  26  27
HETATM   27  C2  UNL     1      -2.909   1.512  -0.508  1.00  0.00     0.189 C 
BRANCH  27  28
HETATM   28  O1  UNL     1      -3.649   1.220   0.643  1.00  0.00    -0.394 OA
HETATM   29  C1  UNL     1      -3.336   2.156   1.654  1.00  0.00     0.201 C 
ENDBRANCH  27  28
ENDBRANCH  26  27
ENDBRANCH  21  26
BRANCH  21  30
HETATM   30  N2  UNL     1      -4.062  -1.742  -0.962  1.00  0.00    -0.254 N 
HETATM   31  C4  UNL     1      -4.125  -2.533   0.192  1.00  0.00     0.232 C 
HETATM   32  C5  UNL     1      -5.251  -3.488   0.459  1.00  0.00     0.119 C 
HETATM   33  O2  UNL     1      -3.190  -2.434   1.042  1.00  0.00    -0.272 OA
ATOM     34  H2  UNL     1      -4.807  -1.810  -1.655  1.00  0.00     0.190 HD
ENDBRANCH  21  30
ENDBRANCH  17  19
ENDBRANCH  13  17
ENDBRANCH   9  10
ENDBRANCH   1   9
TORSDOF 8
