REMARK  9 active torsions:
REMARK  status: ('A' for Active; 'I' for Inactive)
REMARK    1  A    between atoms: O1_2  and  N1_3 
REMARK    2  A    between atoms: C2_5  and  C4_7 
REMARK    3  A    between atoms: C4_7  and  S1_8 
REMARK    4  A    between atoms: S1_8  and  O4_11 
REMARK    5  A    between atoms: O4_11  and  C5_12 
REMARK    6  A    between atoms: C6_13  and  O5_14 
REMARK    7  A    between atoms: C8_16  and  O6_17 
REMARK    8  A    between atoms: O6_17  and  C9_18 
REMARK    9  A    between atoms: C11_21  and  O8_22 
ROOT
HETATM    1  C5  UNL     1      -0.317  -0.500   0.201  1.00  0.00     0.160 A 
HETATM    2  C6  UNL     1      -0.702   0.656   0.870  1.00  0.00     0.143 A 
HETATM    3  C8  UNL     1      -1.973   0.851   1.330  1.00  0.00     0.149 A 
HETATM    4  C11 UNL     1      -2.921  -0.138   1.125  1.00  0.00     0.119 A 
HETATM    5  C12 UNL     1      -2.586  -1.318   0.458  1.00  0.00     0.084 A 
HETATM    6  C13 UNL     1      -1.301  -1.479   0.012  1.00  0.00     0.133 A 
HETATM    7  O9  UNL     1      -0.964  -2.666  -0.653  1.00  0.00    -0.274 OA
HETATM    8  C14 UNL     1      -1.866  -3.685  -0.879  1.00  0.00     0.275 C 
HETATM    9  O10 UNL     1      -1.674  -4.523  -1.766  1.00  0.00    -0.264 OA
HETATM   10  C15 UNL     1      -3.088  -3.751  -0.021  1.00  0.00     0.157 C 
HETATM   11  C16 UNL     1      -2.769  -4.326   1.341  1.00  0.00     0.029 C 
HETATM   12  C17 UNL     1      -3.572  -2.352   0.203  1.00  0.00     0.178 C 
HETATM   13  O11 UNL     1      -4.777  -2.107   0.165  1.00  0.00    -0.291 OA
ENDROOT
BRANCH   1  14
HETATM   14  O4  UNL     1       0.921  -0.750  -0.276  1.00  0.00    -0.227 OA
BRANCH  14  15
HETATM   15  S1  UNL     1       1.983  -0.725  -1.309  1.00  0.00     0.275 S 
HETATM   16  O2  UNL     1       2.957  -1.824  -0.833  1.00  0.00    -0.198 OA
HETATM   17  O3  UNL     1       0.583  -0.559  -2.723  1.00  0.00    -0.198 OA
BRANCH  15  18
HETATM   18  C4  UNL     1       3.129   0.224  -2.366  1.00  0.00     0.225 C 
BRANCH  18  19
HETATM   19  C2  UNL     1       4.349   0.745  -1.694  1.00  0.00     0.022 C 
HETATM   20  N1  UNL     1       4.456   0.879  -0.439  1.00  0.00    -0.275 N 
ATOM     21  H1  UNL     1       5.337   1.263  -0.098  1.00  0.00     0.193 HD
HETATM   22  C3  UNL     1       5.532   1.171  -2.518  1.00  0.00     0.066 C 
BRANCH  20  23
HETATM   23  O1  UNL     1       3.538   0.572   0.493  1.00  0.00    -0.285 OA
HETATM   24  C1  UNL     1       3.819   0.472   1.867  1.00  0.00     0.237 C 
ENDBRANCH  20  23
ENDBRANCH  18  19
ENDBRANCH  15  18
ENDBRANCH  14  15
ENDBRANCH   1  14
BRANCH   2  25
HETATM   25  O5  UNL     1       0.325   1.598   1.030  1.00  0.00    -0.350 OA
HETATM   26  C7  UNL     1       0.509   2.553   0.026  1.00  0.00     0.210 C 
ENDBRANCH   2  25
BRANCH   3  27
HETATM   27  O6  UNL     1      -2.308   2.010   1.986  1.00  0.00    -0.273 OA
BRANCH  27  28
HETATM   28  C9  UNL     1      -2.875   3.093   1.363  1.00  0.00     0.260 C 
HETATM   29  C10 UNL     1      -3.233   4.352   2.093  1.00  0.00     0.126 C 
HETATM   30  O7  UNL     1      -3.097   3.004   0.125  1.00  0.00    -0.265 OA
ENDBRANCH  27  28
ENDBRANCH   3  27
BRANCH   4  31
HETATM   31  O8  UNL     1      -4.165   0.100   1.601  1.00  0.00    -0.357 OA
ATOM     32  H8  UNL     1      -4.815  -0.578   1.460  1.00  0.00     0.218 HD
ENDBRANCH   4  31
TORSDOF 9
