REMARK  12 active torsions:
REMARK  status: ('A' for Active; 'I' for Inactive)
REMARK    1  A    between atoms: C2_2  and  O1_3 
REMARK    2  A    between atoms: O1_3  and  C3_4 
REMARK    3  A    between atoms: C3_4  and  O3_6 
REMARK    4  A    between atoms: O3_6  and  N1_7 
REMARK    5  A    between atoms: C4_9  and  N2_10 
REMARK    6  A    between atoms: C4_9  and  C16_28 
REMARK    7  A    between atoms: N2_10  and  C5_12 
REMARK    8  A    between atoms: C6_14  and  C7_15 
REMARK    9  A    between atoms: C12_22  and  C13_23 
REMARK   10  A    between atoms: C13_23  and  O7_25 
REMARK   11  A    between atoms: O7_25  and  C14_26 
REMARK   12  A    between atoms: C17_34  and  N5_35 
ROOT
HETATM    1  N1  UNL     1       2.689   0.868   0.580  1.00  0.00    -0.237 N 
ATOM      2  H1  UNL     1       2.107   0.688   1.398  1.00  0.00     0.197 HD
HETATM    3  C4  UNL     1       2.209   1.651  -0.287  1.00  0.00     0.159 C 
ENDROOT
BRANCH   3   4
HETATM    4  N2  UNL     1       0.908   2.216  -0.054  1.00  0.00    -0.333 N 
ATOM      5  H2  UNL     1       0.815   3.202   0.189  1.00  0.00     0.168 HD
BRANCH   4   6
HETATM    6  C5  UNL     1      -0.254   1.393  -0.163  1.00  0.00     0.092 A 
HETATM    7  S1  UNL     1      -0.207  -0.291  -0.567  1.00  0.00    -0.073 SA
HETATM    8  C6  UNL     1      -1.864  -0.624  -0.522  1.00  0.00     0.017 A 
HETATM    9  C11 UNL     1      -2.425   0.578  -0.193  1.00  0.00     0.037 A 
HETATM   10  C12 UNL     1      -1.586   1.625  -0.007  1.00  0.00     0.074 A 
BRANCH   8  11
HETATM   11  C7  UNL     1      -2.582  -1.928  -0.778  1.00  0.00     0.185 C 
HETATM   12  C8  UNL     1      -4.008  -1.772  -0.371  1.00  0.00     0.205 C 
HETATM   13  O4  UNL     1      -4.700  -2.935  -0.699  1.00  0.00    -0.386 OA
HETATM   14  C9  UNL     1      -4.128  -4.033  -0.104  1.00  0.00     0.193 C 
HETATM   15  C10 UNL     1      -2.844  -3.744   0.621  1.00  0.00     0.195 C 
HETATM   16  O5  UNL     1      -1.965  -2.977  -0.142  1.00  0.00    -0.376 OA
ENDBRANCH   8  11
BRANCH  10  17
HETATM   17  C13 UNL     1      -2.075   2.991   0.355  1.00  0.00     0.296 C 
HETATM   18  O6  UNL     1      -1.333   3.962   0.530  1.00  0.00    -0.259 OA
BRANCH  17  19
HETATM   19  O7  UNL     1      -3.444   3.220   0.513  1.00  0.00    -0.318 OA
BRANCH  19  20
HETATM   20  C14 UNL     1      -3.920   4.514   0.857  1.00  0.00     0.174 C 
HETATM   21  C15 UNL     1      -5.428   4.524   0.973  1.00  0.00     0.034 C 
ENDBRANCH  19  20
ENDBRANCH  17  19
ENDBRANCH  10  17
ENDBRANCH   4   6
ENDBRANCH   3   4
BRANCH   3  22
HETATM   22  C16 UNL     1       2.904   1.979  -1.505  1.00  0.00     0.147 A 
HETATM   23  N3  UNL     1       3.126   3.274  -1.902  1.00  0.00    -0.234 N 
HETATM   24  O8  UNL     1       3.744   3.234  -3.019  1.00  0.00    -0.155 OA
ATOM     25  H3  UNL     1       2.848   4.115  -1.397  1.00  0.00     0.197 HD
HETATM   26  N4  UNL     1       3.965   2.041  -3.420  1.00  0.00    -0.224 N 
HETATM   27  C17 UNL     1       3.452   1.209  -2.498  1.00  0.00     0.154 A 
ATOM     28  H4  UNL     1       4.442   1.771  -4.280  1.00  0.00     0.198 HD
BRANCH  27  29
HETATM   29  N5  UNL     1       3.470  -0.051  -2.592  1.00  0.00    -0.382 N 
ATOM     30  H52 UNL     1       3.081  -0.683  -1.892  1.00  0.00     0.157 HD
ATOM     31  H51 UNL     1       3.878  -0.624  -3.331  1.00  0.00     0.157 HD
ENDBRANCH  27  29
ENDBRANCH   3  22
BRANCH   1  32
HETATM   32  O3  UNL     1       3.895   0.237   0.547  1.00  0.00    -0.173 OA
BRANCH  32  33
HETATM   33  C3  UNL     1       4.112  -1.026   1.098  1.00  0.00     0.428 C 
HETATM   34  O2  UNL     1       3.160  -1.620   1.654  1.00  0.00    -0.227 OA
BRANCH  33  35
HETATM   35  O1  UNL     1       5.345  -1.657   1.057  1.00  0.00    -0.297 OA
BRANCH  35  36
HETATM   36  C2  UNL     1       5.569  -2.938   1.615  1.00  0.00     0.177 C 
HETATM   37  C1  UNL     1       6.976  -3.404   1.445  1.00  0.00     0.034 C 
ENDBRANCH  35  36
ENDBRANCH  33  35
ENDBRANCH  32  33
ENDBRANCH   1  32
TORSDOF 12
