REMARK  10 active torsions:
REMARK  status: ('A' for Active; 'I' for Inactive)
REMARK    1  A    between atoms: O1_2  and  C2_3 
REMARK    2  A    between atoms: C4_5  and  O2_6 
REMARK    3  A    between atoms: C5_8  and  C6_9 
REMARK    4  A    between atoms: C6_9  and  C7_11 
REMARK    5  A    between atoms: C8_12  and  C9_13 
REMARK    6  A    between atoms: C11_17  and  C12_18 
REMARK    7  A    between atoms: C15_25  and  O6_26 
REMARK    8  A    between atoms: O6_26  and  C16_27 
REMARK    9  A    between atoms: C18_30  and  O8_31 
REMARK   10  A    between atoms: C20_34  and  O9_35 
ROOT
HETATM    1  C9  UNL     1      -0.299   1.507  -0.240  1.00  0.00     0.115 A 
HETATM    2  O4  UNL     1      -0.787   0.569   0.510  1.00  0.00    -0.272 OA
HETATM    3  C10 UNL     1      -1.771   0.700   1.360  1.00  0.00     0.305 A 
HETATM    4  O5  UNL     1      -2.181  -0.286   2.055  1.00  0.00    -0.259 OA
HETATM    5  C11 UNL     1      -2.409   1.907   1.545  1.00  0.00     0.120 A 
HETATM    6  C15 UNL     1      -1.931   2.942   0.770  1.00  0.00     0.135 A 
HETATM    7  C18 UNL     1      -0.902   2.784  -0.113  1.00  0.00     0.135 A 
ENDROOT
BRANCH   1   8
HETATM    8  C8  UNL     1       0.794   1.365  -1.178  1.00  0.00     0.044 C 
HETATM    9  C7  UNL     1       1.543   0.394  -1.501  1.00  0.00     0.058 C 
BRANCH   9  10
HETATM   10  C6  UNL     1       1.622  -0.966  -1.075  1.00  0.00     0.185 C 
HETATM   11  O3  UNL     1       0.767  -1.349  -0.204  1.00  0.00    -0.287 OA
BRANCH  10  12
HETATM   12  C5  UNL     1       2.557  -2.010  -1.500  1.00  0.00     0.050 A 
HETATM   13  C4  UNL     1       3.581  -1.824  -2.413  1.00  0.00     0.082 A 
HETATM   14  C3  UNL     1       4.434  -2.897  -2.777  1.00  0.00     0.077 A 
HETATM   15  C2  UNL     1       4.272  -4.132  -2.244  1.00  0.00     0.104 A 
HETATM   16  C20 UNL     1       3.242  -4.323  -1.323  1.00  0.00     0.102 A 
HETATM   17  C19 UNL     1       2.414  -3.292  -0.965  1.00  0.00     0.058 A 
BRANCH  13  18
HETATM   18  O2  UNL     1       3.788  -0.632  -2.977  1.00  0.00    -0.360 OA
ATOM     19  H2  UNL     1       3.217   0.087  -2.733  1.00  0.00     0.217 HD
ENDBRANCH  13  18
BRANCH  15  20
HETATM   20  O1  UNL     1       5.080  -5.218  -2.570  1.00  0.00    -0.353 OA
HETATM   21  C1  UNL     1       6.133  -5.075  -3.501  1.00  0.00     0.210 C 
ENDBRANCH  15  20
BRANCH  16  22
HETATM   22  O9  UNL     1       3.109  -5.596  -0.800  1.00  0.00    -0.353 OA
HETATM   23  C21 UNL     1       2.084  -5.854   0.134  1.00  0.00     0.210 C 
ENDBRANCH  16  22
ENDBRANCH  10  12
ENDBRANCH   9  10
ENDBRANCH   1   8
BRANCH   7  24
HETATM   24  O8  UNL     1      -0.449   3.842  -0.872  1.00  0.00    -0.356 OA
ATOM     25  H8  UNL     1      -0.853   4.698  -0.787  1.00  0.00     0.218 HD
ENDBRANCH   7  24
BRANCH   6  26
HETATM   26  O6  UNL     1      -2.518   4.201   0.885  1.00  0.00    -0.275 OA
BRANCH  26  27
HETATM   27  C16 UNL     1      -3.383   4.689  -0.083  1.00  0.00     0.260 C 
HETATM   28  C17 UNL     1      -4.019   6.011   0.003  1.00  0.00     0.126 C 
HETATM   29  O7  UNL     1      -3.610   3.939  -1.069  1.00  0.00    -0.265 OA
ENDBRANCH  26  27
ENDBRANCH   6  26
BRANCH   5  30
HETATM   30  C12 UNL     1      -3.476   2.165   2.484  1.00  0.00     0.116 C 
HETATM   31  N1  UNL     1      -4.333   3.133   2.506  1.00  0.00    -0.374 N 
HETATM   32  C13 UNL     1      -5.242   3.018   3.628  1.00  0.00     0.141 C 
ATOM     33  H1  UNL     1      -4.365   3.885   1.818  1.00  0.00     0.161 HD
HETATM   34  C14 UNL     1      -5.084   1.578   4.097  1.00  0.00     0.141 C 
HETATM   35  N2  UNL     1      -3.727   1.322   3.621  1.00  0.00    -0.374 N 
ATOM     36  H2  UNL     1      -3.069   0.657   4.027  1.00  0.00     0.161 HD
ENDBRANCH   5  30
TORSDOF 10
