REMARK  13 active torsions:
REMARK  status: ('A' for Active; 'I' for Inactive)
REMARK    1  A    between atoms: C2_2  and  O1_3 
REMARK    2  A    between atoms: O1_3  and  C3_4 
REMARK    3  A    between atoms: C3_4  and  C4_6 
REMARK    4  A    between atoms: C4_6  and  N1_7 
REMARK    5  A    between atoms: C6_9  and  C7_10 
REMARK    6  A    between atoms: C7_10  and  O4_12 
REMARK    7  A    between atoms: O4_12  and  C8_13 
REMARK    8  A    between atoms: C8_13  and  C9_14 
REMARK    9  A    between atoms: C12_18  and  O6_19 
REMARK   10  A    between atoms: C14_21  and  O7_22 
REMARK   11  A    between atoms: C15_24  and  O8_25 
REMARK   12  A    between atoms: C17_27  and  O9_28 
REMARK   13  A    between atoms: C19_32  and  N2_33 
ROOT
HETATM    1  C8  UNL     1      -1.716   1.950  -2.107  1.00  0.00     0.156 C 
ENDROOT
BRANCH   1   2
HETATM    2  O4  UNL     1      -0.506   1.307  -2.034  1.00  0.00    -0.286 OA
BRANCH   2   3
HETATM    3  C7  UNL     1       0.445   1.330  -3.020  1.00  0.00     0.306 C 
HETATM    4  O3  UNL     1       0.146   1.996  -4.067  1.00  0.00    -0.258 OA
BRANCH   3   5
HETATM    5  C6  UNL     1       1.744   0.666  -2.970  1.00  0.00     0.099 A 
HETATM    6  C5  UNL     1       2.362  -0.052  -1.985  1.00  0.00     0.118 A 
HETATM    7  N1  UNL     1       3.526  -0.571  -2.242  1.00  0.00    -0.327 N 
HETATM    8  C19 UNL     1       4.063  -0.380  -3.449  1.00  0.00     0.145 A 
HETATM    9  S1  UNL     1       2.884   0.565  -4.245  1.00  0.00    -0.047 SA
BRANCH   7  10
HETATM   10  C4  UNL     1       4.288  -1.379  -1.248  1.00  0.00     0.241 C 
BRANCH  10  11
HETATM   11  C3  UNL     1       5.239  -0.537  -0.496  1.00  0.00     0.277 C 
HETATM   12  O2  UNL     1       6.039   0.182  -1.170  1.00  0.00    -0.263 OA
BRANCH  11  13
HETATM   13  O1  UNL     1       5.334  -0.466   0.874  1.00  0.00    -0.321 OA
BRANCH  13  14
HETATM   14  C2  UNL     1       6.300   0.383   1.520  1.00  0.00     0.174 C 
HETATM   15  C1  UNL     1       6.138   0.231   3.006  1.00  0.00     0.034 C 
ENDBRANCH  13  14
ENDBRANCH  11  13
ENDBRANCH  10  11
ENDBRANCH   7  10
BRANCH   8  16
HETATM   16  N2  UNL     1       5.222  -0.821  -3.896  1.00  0.00    -0.379 N 
ATOM     17  H22 UNL     1       5.926  -1.385  -3.421  1.00  0.00     0.158 HD
ATOM     18  H21 UNL     1       5.632  -0.675  -4.818  1.00  0.00     0.158 HD
ENDBRANCH   8  16
ENDBRANCH   3   5
ENDBRANCH   2   3
ENDBRANCH   1   2
BRANCH   1  19
HETATM   19  C9  UNL     1      -2.736   1.879  -1.309  1.00  0.00     0.004 C 
HETATM   20  C10 UNL     1      -4.015   2.627  -1.477  1.00  0.00     0.217 C 
HETATM   21  O5  UNL     1      -4.531   2.660  -0.155  1.00  0.00    -0.343 OA
HETATM   22  C11 UNL     1      -4.028   1.573   0.563  1.00  0.00     0.119 A 
HETATM   23  C12 UNL     1      -4.458   1.005   1.738  1.00  0.00     0.138 A 
HETATM   24  C18 UNL     1      -2.914   1.071  -0.127  1.00  0.00     0.046 A 
HETATM   25  C14 UNL     1      -3.788  -0.083   2.260  1.00  0.00     0.138 A 
HETATM   26  C15 UNL     1      -2.675  -0.622   1.614  1.00  0.00     0.138 A 
HETATM   27  C17 UNL     1      -2.289  -0.012   0.440  1.00  0.00     0.115 A 
BRANCH  23  28
HETATM   28  O6  UNL     1      -5.559   1.506   2.415  1.00  0.00    -0.351 OA
HETATM   29  C13 UNL     1      -6.846   1.015   2.114  1.00  0.00     0.210 C 
ENDBRANCH  23  28
BRANCH  25  30
HETATM   30  O7  UNL     1      -4.201  -0.673   3.439  1.00  0.00    -0.356 OA
ATOM     31  H7  UNL     1      -3.740  -1.422   3.798  1.00  0.00     0.218 HD
ENDBRANCH  25  30
BRANCH  26  32
HETATM   32  O8  UNL     1      -2.010  -1.715   2.146  1.00  0.00    -0.351 OA
HETATM   33  C16 UNL     1      -2.433  -3.002   1.763  1.00  0.00     0.210 C 
ENDBRANCH  26  32
BRANCH  27  34
HETATM   34  O9  UNL     1      -1.192  -0.544  -0.197  1.00  0.00    -0.357 OA
ATOM     35  H9  UNL     1      -0.926  -0.124  -1.006  1.00  0.00     0.217 HD
ENDBRANCH  27  34
ENDBRANCH   1  19
TORSDOF 13
