REMARK  11 active torsions:
REMARK  status: ('A' for Active; 'I' for Inactive)
REMARK    1  A    between atoms: O1_2  and  N1_3 
REMARK    2  A    between atoms: C2_5  and  O2_6 
REMARK    3  A    between atoms: C2_5  and  C9_21 
REMARK    4  A    between atoms: O2_6  and  C3_7 
REMARK    5  A    between atoms: C3_7  and  C4_8 
REMARK    6  A    between atoms: C6_12  and  N3_13 
REMARK    7  A    between atoms: C7_18  and  O3_19 
REMARK    8  A    between atoms: C10_22  and  O4_23 
REMARK    9  A    between atoms: C13_28  and  O6_29 
REMARK   10  A    between atoms: C15_31  and  C16_32 
REMARK   11  A    between atoms: C16_32  and  O8_34 
ROOT
HETATM    1  N1  UNL     1      -1.534  -2.329  -0.248  1.00  0.00    -0.245 N 
ATOM      2  H1  UNL     1      -1.256  -3.103   0.355  1.00  0.00     0.196 HD
HETATM    3  C2  UNL     1      -0.707  -1.390  -0.406  1.00  0.00     0.176 C 
ENDROOT
BRANCH   3   4
HETATM    4  O2  UNL     1      -1.072  -0.363  -1.202  1.00  0.00    -0.329 OA
BRANCH   4   5
HETATM    5  C3  UNL     1      -2.317   0.136  -1.435  1.00  0.00     0.222 C 
BRANCH   5   6
HETATM    6  C4  UNL     1      -3.105   0.685  -0.333  1.00  0.00     0.033 A 
HETATM    7  C5  UNL     1      -2.610   0.763   0.935  1.00  0.00     0.119 A 
HETATM    8  N2  UNL     1      -3.387   1.306   1.917  1.00  0.00    -0.201 N 
HETATM    9  C6  UNL     1      -4.602   1.751   1.648  1.00  0.00     0.677 A 
ATOM     10  H2  UNL     1      -3.026   1.369   2.869  1.00  0.00     0.183 HD
HETATM   11  N4  UNL     1      -5.088   1.675   0.404  1.00  0.00    -0.170 N 
HETATM   12  C7  UNL     1      -4.390   1.159  -0.607  1.00  0.00     0.166 A 
ATOM     13  H4  UNL     1      -6.029   2.025   0.222  1.00  0.00     0.186 HD
BRANCH   9  14
HETATM   14  N3  UNL     1      -5.294   2.255   2.614  1.00  0.00    -0.234 N 
ATOM     15  H32 UNL     1      -4.923   2.313   3.563  1.00  0.00     0.174 HD
ATOM     16  H31 UNL     1      -6.232   2.598   2.406  1.00  0.00     0.174 HD
ENDBRANCH   9  14
BRANCH  12  17
HETATM   17  O3  UNL     1      -4.915   1.094  -1.872  1.00  0.00    -0.340 OA
HETATM   18  C8  UNL     1      -6.189   1.544  -2.233  1.00  0.00     0.211 C 
ENDBRANCH  12  17
ENDBRANCH   5   6
ENDBRANCH   4   5
ENDBRANCH   3   4
BRANCH   3  19
HETATM   19  C9  UNL     1       0.608  -1.496   0.303  1.00  0.00     0.057 A 
HETATM   20  C10 UNL     1       0.885  -2.590   1.101  1.00  0.00     0.083 A 
HETATM   21  C11 UNL     1       2.121  -2.672   1.774  1.00  0.00     0.075 A 
HETATM   22  C12 UNL     1       3.015  -1.665   1.619  1.00  0.00     0.093 A 
HETATM   23  O5  UNL     1       4.224  -1.574   2.177  1.00  0.00    -0.286 OA
HETATM   24  C18 UNL     1       2.766  -0.558   0.826  1.00  0.00     0.026 A 
HETATM   25  C13 UNL     1       4.796  -0.487   1.813  1.00  0.00     0.203 A 
HETATM   26  C15 UNL     1       3.907   0.199   0.949  1.00  0.00     0.111 A 
HETATM   27  C19 UNL     1       1.551  -0.487   0.169  1.00  0.00    -0.030 A 
HETATM   28  C20 UNL     1       1.266   0.671  -0.688  1.00  0.00     0.050 C 
BRANCH  20  29
HETATM   29  O4  UNL     1       0.052  -3.637   1.311  1.00  0.00    -0.360 OA
ATOM     30  H4  UNL     1       0.242  -4.389   1.859  1.00  0.00     0.217 HD
ENDBRANCH  20  29
BRANCH  25  31
HETATM   31  O6  UNL     1       6.065   0.018   2.153  1.00  0.00    -0.335 OA
HETATM   32  C14 UNL     1       7.141  -0.238   1.267  1.00  0.00     0.212 C 
ENDBRANCH  25  31
BRANCH  26  33
HETATM   33  C16 UNL     1       4.195   1.469   0.347  1.00  0.00     0.298 C 
HETATM   34  O7  UNL     1       3.896   2.573   0.879  1.00  0.00    -0.259 OA
BRANCH  33  35
HETATM   35  O8  UNL     1       4.849   1.529  -0.899  1.00  0.00    -0.322 OA
HETATM   36  C17 UNL     1       5.148   2.770  -1.510  1.00  0.00     0.213 C 
ENDBRANCH  33  35
ENDBRANCH  26  33
ENDBRANCH   3  19
BRANCH   1  37
HETATM   37  O1  UNL     1      -2.748  -2.389  -0.810  1.00  0.00    -0.283 OA
HETATM   38  C1  UNL     1      -3.819  -3.183  -0.358  1.00  0.00     0.237 C 
ENDBRANCH   1  37
TORSDOF 11
