REMARK  10 active torsions:
REMARK  status: ('A' for Active; 'I' for Inactive)
REMARK       I    between atoms: C2_2  and  N1_4 
REMARK    1  A    between atoms: N1_4  and  N2_6 
REMARK    2  A    between atoms: N2_6  and  C3_8 
REMARK    3  A    between atoms: C3_8  and  C4_13 
REMARK    4  A    between atoms: N3_9  and  O2_11 
REMARK    5  A    between atoms: N6_24  and  O4_26 
REMARK    6  A    between atoms: O4_26  and  C11_27 
REMARK    7  A    between atoms: C11_27  and  C12_28 
REMARK    8  A    between atoms: C12_28  and  N7_30 
REMARK    9  A    between atoms: N7_30  and  N8_32 
REMARK   10  A    between atoms: N8_32  and  O5_34 
ROOT
HETATM    1  C4  UNL     1       1.471   0.433  -0.574  1.00  0.00     0.089 A 
HETATM    2  C5  UNL     1       0.976   0.509  -1.882  1.00  0.00     0.108 A 
HETATM    3  C6  UNL     1      -0.362   0.422  -2.134  1.00  0.00     0.249 A 
HETATM    4  O3  UNL     1      -0.787   0.494  -3.323  1.00  0.00    -0.268 OA
HETATM    5  N4  UNL     1      -1.179   0.260  -1.087  1.00  0.00    -0.308 N 
ATOM      6  H4  UNL     1      -2.185   0.191  -1.243  1.00  0.00     0.170 HD
HETATM    7  C7  UNL     1      -0.690   0.185   0.189  1.00  0.00     0.136 A 
HETATM    8  N5  UNL     1       0.628   0.269   0.463  1.00  0.00    -0.328 N 
HETATM    9  C8  UNL     1       0.903   0.166   1.866  1.00  0.00     0.137 A 
HETATM   10  C9  UNL     1      -0.452   0.073   2.531  1.00  0.00     0.083 A 
HETATM   11  C10 UNL     1      -1.435   0.022   1.432  1.00  0.00     0.078 A 
HETATM   12  N6  UNL     1      -2.724  -0.131   1.523  1.00  0.00    -0.267 N 
ATOM     13  H6  UNL     1      -3.125  -0.235   2.455  1.00  0.00     0.194 HD
ENDROOT
BRANCH   1  14
HETATM   14  C3  UNL     1       2.901   0.563  -0.378  1.00  0.00     0.167 C 
HETATM   15  N3  UNL     1       3.509   1.552  -0.964  1.00  0.00    -0.250 N 
ATOM     16  H3  UNL     1       4.519   1.642  -0.851  1.00  0.00     0.196 HD
BRANCH  14  17
HETATM   17  N2  UNL     1       3.712  -0.310   0.377  1.00  0.00    -0.280 N 
ATOM     18  H2  UNL     1       3.309  -1.123   0.843  1.00  0.00     0.189 HD
BRANCH  17  19
HETATM   19  N1  UNL     1       5.083  -0.037   0.474  1.00  0.00    -0.269 N 
HETATM   20  C2  UNL     1       6.011  -1.004   0.916  1.00  0.00     0.232 C 
HETATM   21  C1  UNL     1       7.462  -0.710   1.016  1.00  0.00     0.119 C 
HETATM   22  O1  UNL     1       5.590  -2.143   1.230  1.00  0.00    -0.272 OA
ATOM     23  H1  UNL     1       5.421   0.890   0.217  1.00  0.00     0.190 HD
ENDBRANCH  17  19
ENDBRANCH  14  17
BRANCH  15  24
HETATM   24  O2  UNL     1       2.859   2.460  -1.713  1.00  0.00    -0.288 OA
ATOM     25  H2  UNL     1       3.303   3.182  -2.141  1.00  0.00     0.244 HD
ENDBRANCH  15  24
ENDBRANCH   1  14
BRANCH  12  26
HETATM   26  O4  UNL     1      -3.568  -0.161   0.467  1.00  0.00    -0.278 OA
BRANCH  26  27
HETATM   27  C11 UNL     1      -4.781  -0.881   0.486  1.00  0.00     0.227 C 
BRANCH  27  28
HETATM   28  C12 UNL     1      -5.532  -0.738  -0.827  1.00  0.00     0.123 C 
HETATM   29  C13 UNL     1      -4.650  -1.239  -1.951  1.00  0.00     0.036 C 
BRANCH  28  30
HETATM   30  N7  UNL     1      -5.813   0.661  -1.025  1.00  0.00    -0.311 N 
ATOM     31  H7  UNL     1      -5.446   1.142  -1.846  1.00  0.00     0.182 HD
BRANCH  30  32
HETATM   32  N8  UNL     1      -6.582   1.357  -0.102  1.00  0.00    -0.214 N 
ATOM     33  H8  UNL     1      -7.432   0.915   0.248  1.00  0.00     0.215 HD
BRANCH  32  34
HETATM   34  O5  UNL     1      -6.289   2.497   0.324  1.00  0.00    -0.275 OA
ATOM     35  H5  UNL     1      -6.815   2.973   0.956  1.00  0.00     0.246 HD
ENDBRANCH  32  34
ENDBRANCH  30  32
ENDBRANCH  28  30
ENDBRANCH  27  28
ENDBRANCH  26  27
ENDBRANCH  12  26
TORSDOF 10
