REMARK  12 active torsions:
REMARK  status: ('A' for Active; 'I' for Inactive)
REMARK    1  A    between atoms: C3_3  and  N1_4 
REMARK    2  A    between atoms: N1_4  and  O1_5 
REMARK    3  A    between atoms: N1_4  and  O2_7 
REMARK    4  A    between atoms: C5_13  and  O4_14 
REMARK    5  A    between atoms: C6_18  and  O5_19 
REMARK    6  A    between atoms: O5_19  and  C7_20 
REMARK    7  A    between atoms: C7_20  and  C8_21 
REMARK    8  A    between atoms: C8_21  and  C9_22 
REMARK    9  A    between atoms: C9_22  and  O6_23 
REMARK   10  A    between atoms: O6_23  and  N4_24 
REMARK   11  A    between atoms: C10_26  and  C11_27 
REMARK   12  A    between atoms: C12_30  and  N6_31 
ROOT
HETATM    1  C1  UNL     1      -3.470   1.854   0.600  1.00  0.00     0.054 C 
HETATM    2  C2  UNL     1      -3.845   0.454   0.279  1.00  0.00     0.007 A 
HETATM    3  C3  UNL     1      -4.962  -0.092  -0.343  1.00  0.00     0.185 A 
HETATM    4  O3  UNL     1      -4.829  -1.374  -0.470  1.00  0.00    -0.276 OA
HETATM    5  C4  UNL     1      -3.642  -1.730   0.059  1.00  0.00     0.168 A 
HETATM    6  N2  UNL     1      -2.994  -2.926   0.165  1.00  0.00    -0.301 N 
ATOM      7  H2  UNL     1      -3.415  -3.791  -0.173  1.00  0.00     0.171 HD
HETATM    8  C5  UNL     1      -1.743  -2.914   0.749  1.00  0.00     0.225 A 
HETATM    9  N3  UNL     1      -1.098  -1.886   1.212  1.00  0.00    -0.302 N 
ATOM     10  H3  UNL     1      -0.167  -1.971   1.620  1.00  0.00     0.171 HD
HETATM   11  C6  UNL     1      -1.757  -0.652   1.118  1.00  0.00     0.160 A 
HETATM   12  C13 UNL     1      -2.980  -0.620   0.550  1.00  0.00     0.076 A 
ENDROOT
BRANCH  11  13
HETATM   13  O5  UNL     1      -1.199   0.504   1.589  1.00  0.00    -0.335 OA
BRANCH  13  14
HETATM   14  C7  UNL     1       0.142   0.778   1.496  1.00  0.00     0.179 C 
BRANCH  14  15
HETATM   15  C8  UNL     1       0.443   0.901  -0.048  1.00  0.00     0.055 C 
BRANCH  15  16
HETATM   16  C9  UNL     1       1.985   0.746  -0.159  1.00  0.00     0.203 C 
BRANCH  16  17
HETATM   17  O6  UNL     1       2.197   0.659  -1.642  1.00  0.00    -0.281 OA
BRANCH  17  18
HETATM   18  N4  UNL     1       2.902  -0.420  -1.985  1.00  0.00    -0.274 N 
HETATM   19  C10 UNL     1       3.980  -0.913  -1.780  1.00  0.00     0.172 C 
ATOM     20  H4  UNL     1       2.359  -1.009  -2.616  1.00  0.00     0.193 HD
BRANCH  19  21
HETATM   21  C11 UNL     1       5.087  -0.444  -0.970  1.00  0.00     0.202 A 
HETATM   22  N5  UNL     1       6.242  -1.077  -0.820  1.00  0.00    -0.166 N 
HETATM   23  C12 UNL     1       7.083  -0.404   0.027  1.00  0.00     0.698 A 
ATOM     24  H5  UNL     1       6.476  -1.957  -1.279  1.00  0.00     0.186 HD
HETATM   25  N7  UNL     1       6.424   0.675   0.394  1.00  0.00    -0.089 N 
HETATM   26  O7  UNL     1       5.216   0.632  -0.216  1.00  0.00    -0.203 OA
ATOM     27  H7  UNL     1       6.760   1.406   1.020  1.00  0.00     0.213 HD
BRANCH  23  28
HETATM   28  N6  UNL     1       8.201  -0.961   0.334  1.00  0.00    -0.233 N 
ATOM     29  H62 UNL     1       8.712  -1.797   0.050  1.00  0.00     0.174 HD
ATOM     30  H61 UNL     1       8.827  -0.460   0.964  1.00  0.00     0.174 HD
ENDBRANCH  23  28
ENDBRANCH  19  21
ENDBRANCH  17  18
ENDBRANCH  16  17
ENDBRANCH  15  16
ENDBRANCH  14  15
ENDBRANCH  13  14
ENDBRANCH  11  13
BRANCH   8  31
HETATM   31  O4  UNL     1      -1.198  -4.126   0.816  1.00  0.00    -0.332 OA
ATOM     32  H4  UNL     1      -0.337  -4.118   1.218  1.00  0.00     0.221 HD
ENDBRANCH   8  31
BRANCH   3  33
HETATM   33  N1  UNL     1      -6.082   0.659  -0.785  1.00  0.00    -0.011 NA
BRANCH  33  34
HETATM   34  O1  UNL     1      -6.710  -0.044  -1.718  1.00  0.00    -0.283 OA
ATOM     35  H1  UNL     1      -7.460   0.459  -2.014  1.00  0.00     0.240 HD
ENDBRANCH  33  34
BRANCH  33  36
HETATM   36  O2  UNL     1      -5.732   1.864  -1.303  1.00  0.00    -0.283 OA
ATOM     37  H2  UNL     1      -6.482   2.367  -1.599  1.00  0.00     0.240 HD
ENDBRANCH  33  36
ENDBRANCH   3  33
TORSDOF 12
