REMARK  11 active torsions:
REMARK  status: ('A' for Active; 'I' for Inactive)
REMARK    1  A    between atoms: N1_1  and  C1_4 
REMARK    2  A    between atoms: C2_7  and  O1_8 
REMARK    3  A    between atoms: O1_8  and  C3_9 
REMARK    4  A    between atoms: C3_9  and  C4_10 
REMARK       I    between atoms: C4_10  and  N3_12 
REMARK    5  A    between atoms: C6_16  and  C7_17 
REMARK    6  A    between atoms: C8_19  and  N4_20 
REMARK    7  A    between atoms: C9_25  and  C10_26 
REMARK    8  A    between atoms: C10_26  and  O6_28 
REMARK    9  A    between atoms: O6_28  and  C11_29 
REMARK   10  A    between atoms: C11_29  and  O7_30 
REMARK   11  A    between atoms: O7_30  and  N6_31 
ROOT
HETATM    1  C1  UNL     1       2.553  -2.071   0.732  1.00  0.00     0.678 A 
HETATM    2  N2  UNL     1       3.137  -0.900   0.474  1.00  0.00    -0.171 N 
ATOM      3  H2  UNL     1       4.108  -0.743   0.744  1.00  0.00     0.186 HD
HETATM    4  C2  UNL     1       2.445   0.071  -0.141  1.00  0.00     0.160 A 
HETATM    5  C5  UNL     1       1.105  -0.177  -0.502  1.00  0.00     0.088 A 
HETATM    6  C6  UNL     1       0.491  -1.351  -0.249  1.00  0.00     0.073 A 
HETATM    7  N7  UNL     1       1.288  -2.286   0.387  1.00  0.00    -0.191 N 
ATOM      8  H7  UNL     1       0.880  -3.195   0.604  1.00  0.00     0.184 HD
ENDROOT
BRANCH   6   9
HETATM    9  C7  UNL     1      -0.892  -1.723  -0.482  1.00  0.00     0.068 A 
HETATM   10  S1  UNL     1      -1.328  -3.386  -0.899  1.00  0.00    -0.050 SA
HETATM   11  C8  UNL     1      -3.000  -3.184  -0.986  1.00  0.00     0.143 A 
HETATM   12  N5  UNL     1      -3.168  -1.904  -0.702  1.00  0.00    -0.331 N 
HETATM   13  C9  UNL     1      -2.112  -1.150  -0.441  1.00  0.00     0.130 A 
ATOM     14  H5  UNL     1      -4.105  -1.500  -0.684  1.00  0.00     0.168 HD
BRANCH  11  15
HETATM   15  N4  UNL     1      -3.929  -4.078  -1.268  1.00  0.00    -0.380 N 
ATOM     16  H42 UNL     1      -3.799  -5.066  -1.487  1.00  0.00     0.158 HD
ATOM     17  H41 UNL     1      -4.940  -3.956  -1.321  1.00  0.00     0.158 HD
ENDBRANCH  11  15
BRANCH  13  18
HETATM   18  C10 UNL     1      -2.332   0.269  -0.032  1.00  0.00     0.313 C 
HETATM   19  O5  UNL     1      -1.448   1.036   0.295  1.00  0.00    -0.257 OA
BRANCH  18  20
HETATM   20  O6  UNL     1      -3.625   0.817  -0.001  1.00  0.00    -0.288 OA
BRANCH  20  21
HETATM   21  C11 UNL     1      -3.844   2.162   0.386  1.00  0.00     0.379 C 
BRANCH  21  22
HETATM   22  O7  UNL     1      -5.218   2.358   0.300  1.00  0.00    -0.261 OA
BRANCH  22  23
HETATM   23  N6  UNL     1      -5.903   1.518   1.118  1.00  0.00    -0.309 N 
ATOM     24  H62 UNL     1      -5.449   0.830   1.719  1.00  0.00     0.184 HD
ATOM     25  H61 UNL     1      -6.911   1.662   1.055  1.00  0.00     0.184 HD
ENDBRANCH  22  23
ENDBRANCH  21  22
ENDBRANCH  20  21
ENDBRANCH  18  20
ENDBRANCH  13  18
ENDBRANCH   6   9
BRANCH   4  26
HETATM   26  O1  UNL     1       3.035   1.286  -0.415  1.00  0.00    -0.326 OA
BRANCH  26  27
HETATM   27  C3  UNL     1       4.381   1.503  -0.040  1.00  0.00     0.286 C 
BRANCH  27  28
HETATM   28  C4  UNL     1       4.833   2.865  -0.418  1.00  0.00     0.308 C 
HETATM   29  O2  UNL     1       4.079   3.677  -0.993  1.00  0.00    -0.264 OA
HETATM   30  N3  UNL     1       6.161   3.256  -0.118  1.00  0.00    -0.076 N 
HETATM   31  O3  UNL     1       6.561   4.377  -0.420  1.00  0.00    -0.529 OA
HETATM   32  O4  UNL     1       7.054   2.419   0.514  1.00  0.00    -0.529 OA
ENDBRANCH  27  28
ENDBRANCH  26  27
ENDBRANCH   4  26
BRANCH   1  33
HETATM   33  N1  UNL     1       3.262  -2.991   1.333  1.00  0.00    -0.234 N 
ATOM     34  H12 UNL     1       4.233  -2.826   1.598  1.00  0.00     0.174 HD
ATOM     35  H11 UNL     1       2.815  -3.887   1.530  1.00  0.00     0.174 HD
ENDBRANCH   1  33
TORSDOF 11
