REMARK  6 active torsions:
REMARK  status: ('A' for Active; 'I' for Inactive)
REMARK    1  A    between atoms: C4_8  and  C5_9 
REMARK    2  A    between atoms: C5_9  and  C6_10 
REMARK    3  A    between atoms: C6_10  and  C7_11 
REMARK    4  A    between atoms: C7_11  and  S1_12 
REMARK    5  A    between atoms: S1_12  and  C8_13 
REMARK    6  A    between atoms: C8_13  and  C9_14 
ROOT
HETATM    1  C6  UNL     1      -1.470  -0.775   0.596  1.00  0.00     0.016 C 
ENDROOT
BRANCH   1   2
HETATM    2  C5  UNL     1      -2.218  -0.610  -0.722  1.00  0.00     0.060 C 
BRANCH   2   3
HETATM    3  C4  UNL     1      -3.283   0.414  -0.602  1.00  0.00     0.032 A 
HETATM    4  C2  UNL     1      -4.496   0.287   0.004  1.00  0.00     0.029 A 
HETATM    5  C1  UNL     1      -5.069  -0.882   0.694  1.00  0.00     0.070 C 
HETATM    6  N1  UNL     1      -5.134   1.473  -0.131  1.00  0.00    -0.354 N 
HETATM    7  C3  UNL     1      -4.361   2.326  -0.797  1.00  0.00     0.180 A 
ATOM      8  H1  UNL     1      -6.067   1.681   0.224  1.00  0.00     0.166 HD
HETATM    9  N2  UNL     1      -3.226   1.661  -1.080  1.00  0.00    -0.354 N 
ATOM     10  H2  UNL     1      -2.433   2.053  -1.588  1.00  0.00     0.166 HD
ENDBRANCH   2   3
ENDBRANCH   1   2
BRANCH   1  11
HETATM   11  C7  UNL     1      -0.410  -1.828   0.382  1.00  0.00     0.074 C 
BRANCH  11  12
HETATM   12  S1  UNL     1       0.702  -1.274  -0.922  1.00  0.00    -0.168 SA
BRANCH  12  13
HETATM   13  C8  UNL     1       1.656   0.161  -0.498  1.00  0.00     0.089 C 
BRANCH  13  14
HETATM   14  C9  UNL     1       2.652  -0.064   0.607  1.00  0.00     0.066 C 
HETATM   15  C10 UNL     1       3.423   1.221   0.905  1.00  0.00     0.089 C 
HETATM   16  S2  UNL     1       5.099   0.892   1.465  1.00  0.00    -0.167 SA
HETATM   17  C11 UNL     1       6.125   0.174   0.157  1.00  0.00     0.084 C 
HETATM   18  C12 UNL     1       5.157  -0.392  -0.883  1.00  0.00     0.084 C 
HETATM   19  S3  UNL     1       3.873  -1.277   0.041  1.00  0.00    -0.162 SA
ENDBRANCH  13  14
ENDBRANCH  12  13
ENDBRANCH  11  12
ENDBRANCH   1  11
TORSDOF 6
