REMARK  8 active torsions:
REMARK  status: ('A' for Active; 'I' for Inactive)
REMARK    1  A    between atoms: S1_2  and  C2_3 
REMARK    2  A    between atoms: C2_3  and  S3_5 
REMARK    3  A    between atoms: S3_5  and  C3_6 
REMARK    4  A    between atoms: C3_6  and  C4_7 
REMARK    5  A    between atoms: C4_7  and  C5_8 
REMARK    6  A    between atoms: C5_8  and  C6_9 
REMARK    7  A    between atoms: C6_9  and  C7_10 
REMARK    8  A    between atoms: C7_10  and  N1_11 
ROOT
HETATM    1  C6  UNL     1       0.034  -0.697   0.195  1.00  0.00     0.019 C 
ENDROOT
BRANCH   1   2
HETATM    2  C5  UNL     1       1.467  -0.992  -0.132  1.00  0.00     0.002 C 
BRANCH   2   3
HETATM    3  C4  UNL     1       2.049  -0.161  -1.243  1.00  0.00     0.010 C 
BRANCH   3   4
HETATM    4  C3  UNL     1       3.483  -0.617  -1.409  1.00  0.00     0.081 C 
BRANCH   4   5
HETATM    5  S3  UNL     1       4.456  -0.403   0.068  1.00  0.00    -0.111 SA
BRANCH   5   6
HETATM    6  C2  UNL     1       4.717   1.328   0.383  1.00  0.00     0.103 C 
HETATM    7  S2  UNL     1       4.250   2.321  -0.536  1.00  0.00    -0.065 SA
BRANCH   6   8
HETATM    8  S1  UNL     1       5.587   1.896   1.847  1.00  0.00    -0.116 SA
HETATM    9  C1  UNL     1       6.092   0.467   2.844  1.00  0.00     0.097 C 
ENDBRANCH   6   8
ENDBRANCH   5   6
ENDBRANCH   4   5
ENDBRANCH   3   4
ENDBRANCH   2   3
ENDBRANCH   1   2
BRANCH   1  10
HETATM   10  C7  UNL     1      -0.924  -0.894  -0.909  1.00  0.00     0.117 C 
BRANCH  10  11
HETATM   11  N1  UNL     1      -2.256  -0.609  -0.507  1.00  0.00    -0.405 N 
HETATM   12  C8  UNL     1      -3.233  -0.838  -1.551  1.00  0.00     0.136 C 
HETATM   13  C9  UNL     1      -4.593  -0.882  -0.890  1.00  0.00     0.133 C 
HETATM   14  N2  UNL     1      -4.896   0.411  -0.376  1.00  0.00    -0.418 N 
HETATM   15  C10 UNL     1      -3.801   1.246  -0.040  1.00  0.00     0.138 C 
ATOM     16  H2  UNL     1      -5.860   0.723  -0.255  1.00  0.00     0.153 HD
HETATM   17  C11 UNL     1      -2.504   0.543   0.268  1.00  0.00     0.092 C 
HETATM   18  C12 UNL     1      -2.479   0.160   1.745  1.00  0.00     0.033 C 
ENDBRANCH  10  11
ENDBRANCH   1  10
TORSDOF 8
