REMARK  5 active torsions:
REMARK  status: ('A' for Active; 'I' for Inactive)
REMARK    1  A    between atoms: C2_2  and  C5_5 
REMARK    2  A    between atoms: C5_5  and  S1_8 
REMARK    3  A    between atoms: S1_8  and  C6_9 
REMARK    4  A    between atoms: C7_12  and  C8_13 
REMARK    5  A    between atoms: C10_19  and  N4_20 
ROOT
HETATM    1  C6  UNL     1       0.409  -0.003   0.540  1.00  0.00     0.215 A 
HETATM    2  N1  UNL     1       1.669  -0.392   0.246  1.00  0.00    -0.313 N 
ATOM      3  H1  UNL     1       1.932  -1.301  -0.134  1.00  0.00     0.170 HD
HETATM    4  C7  UNL     1       2.508   0.589   0.528  1.00  0.00     0.143 A 
HETATM    5  N5  UNL     1       1.713   1.588   1.003  1.00  0.00    -0.241 N 
ATOM      6  H5  UNL     1       2.047   2.500   1.315  1.00  0.00     0.196 HD
HETATM    7  O1  UNL     1       0.471   1.216   1.002  1.00  0.00    -0.210 OA
ENDROOT
BRANCH   4   8
HETATM    8  C8  UNL     1       3.948   0.701   0.407  1.00  0.00     0.071 A 
HETATM    9  C9  UNL     1       4.699   1.839   0.759  1.00  0.00     0.126 A 
HETATM   10  N2  UNL     1       5.991   1.611   0.525  1.00  0.00    -0.309 N 
HETATM   11  N3  UNL     1       6.135   0.407   0.045  1.00  0.00    -0.285 N 
ATOM     12  H2  UNL     1       6.748   2.274   0.695  1.00  0.00     0.186 HD
HETATM   13  C10 UNL     1       4.892  -0.185  -0.041  1.00  0.00     0.129 A 
ATOM     14  H3  UNL     1       7.019  -0.025  -0.222  1.00  0.00     0.188 HD
BRANCH  13  15
HETATM   15  N4  UNL     1       4.701  -1.361  -0.472  1.00  0.00    -0.384 N 
ATOM     16  H42 UNL     1       3.782  -1.799  -0.536  1.00  0.00     0.157 HD
ATOM     17  H41 UNL     1       5.404  -2.021  -0.806  1.00  0.00     0.157 HD
ENDBRANCH  13  15
ENDBRANCH   4   8
BRANCH   1  18
HETATM   18  S1  UNL     1      -0.915  -0.904   0.344  1.00  0.00    -0.006 SA
BRANCH  18  19
HETATM   19  C5  UNL     1      -2.548  -0.238   0.786  1.00  0.00     0.306 C 
HETATM   20  F1  UNL     1      -2.443   1.103   1.116  1.00  0.00    -0.192 F 
HETATM   21  F2  UNL     1      -3.041  -0.987   1.839  1.00  0.00    -0.192 F 
BRANCH  19  22
HETATM   22  C2  UNL     1      -3.534  -0.340  -0.348  1.00  0.00     0.025 C 
HETATM   23  C1  UNL     1      -3.061   0.452  -1.551  1.00  0.00     0.021 C 
HETATM   24  C3  UNL     1      -4.837   0.281   0.145  1.00  0.00     0.021 C 
HETATM   25  C4  UNL     1      -3.837  -1.777  -0.713  1.00  0.00     0.021 C 
ENDBRANCH  19  22
ENDBRANCH  18  19
ENDBRANCH   1  18
TORSDOF 5
