REMARK  4 active torsions:
REMARK  status: ('A' for Active; 'I' for Inactive)
REMARK    1  A    between atoms: N1_2  and  N2_4 
REMARK    2  A    between atoms: C4_7  and  O1_8 
REMARK    3  A    between atoms: C5_10  and  C6_11 
REMARK    4  A    between atoms: C7_13  and  N3_14 
ROOT
HETATM    1  N2  UNL     1      -1.747   0.030  -0.134  1.00  0.00    -0.227 N 
HETATM    2  C2  UNL     1      -0.566  -0.597  -0.027  1.00  0.00     0.138 A 
HETATM    3  C3  UNL     1       0.628   0.101   0.133  1.00  0.00     0.052 A 
HETATM    4  C4  UNL     1       0.641   1.462   0.196  1.00  0.00     0.092 A 
HETATM    5  C5  UNL     1      -0.577   2.136   0.084  1.00  0.00     0.050 A 
HETATM    6  C7  UNL     1      -1.753   1.391  -0.081  1.00  0.00     0.134 A 
HETATM    7  C8  UNL     1       1.855  -0.696   0.145  1.00  0.00    -0.006 C 
HETATM    8  C9  UNL     1       2.830  -0.378  -0.630  1.00  0.00     0.097 C 
HETATM    9  C10 UNL     1       4.140  -1.126  -0.668  1.00  0.00     0.082 C 
HETATM   10  F2  UNL     1       2.736   0.572  -1.612  1.00  0.00    -0.211 F 
HETATM   11  C11 UNL     1       1.890  -1.949   0.961  1.00  0.00     0.062 C 
HETATM   12  C12 UNL     1       0.552  -2.671   0.849  1.00  0.00     0.126 C 
HETATM   13  N4  UNL     1      -0.407  -2.014  -0.005  1.00  0.00    -0.374 N 
ATOM     14  H4  UNL     1      -0.993  -2.584  -0.615  1.00  0.00     0.161 HD
ENDROOT
BRANCH   1  15
HETATM   15  N1  UNL     1      -2.885  -0.740  -0.288  1.00  0.00    -0.331 N 
HETATM   16  C1  UNL     1      -4.234  -0.262  -0.437  1.00  0.00     0.168 C 
ATOM     17  H1  UNL     1      -2.755  -1.752  -0.297  1.00  0.00     0.180 HD
ENDBRANCH   1  15
BRANCH   6  18
HETATM   18  N3  UNL     1      -2.795   2.014  -0.173  1.00  0.00    -0.383 N 
ATOM     19  H32 UNL     1      -3.651   1.472  -0.293  1.00  0.00     0.157 HD
ATOM     20  H31 UNL     1      -2.799   3.033  -0.133  1.00  0.00     0.157 HD
ENDBRANCH   6  18
BRANCH   5  21
HETATM   21  C6  UNL     1      -0.567   3.600   0.145  1.00  0.00     0.267 C 
HETATM   22  F1  UNL     1      -1.841   4.099   0.018  1.00  0.00    -0.250 F 
ENDBRANCH   5  21
BRANCH   4  23
HETATM   23  O1  UNL     1       1.798   2.123   0.378  1.00  0.00    -0.359 OA
ATOM     24  H1  UNL     1       1.807   3.072   0.422  1.00  0.00     0.217 HD
ENDBRANCH   4  23
TORSDOF 4
