REMARK  2 active torsions:
REMARK  status: ('A' for Active; 'I' for Inactive)
REMARK    1  A    between atoms: C2_2  and  C3_4 
REMARK       I    between atoms: C3_4  and  N1_6 
REMARK    2  A    between atoms: N1_6  and  C4_8 
ROOT
HETATM    1  C4  UNL     1       0.603   0.177  -0.580  1.00  0.00     0.181 A 
HETATM    2  O2  UNL     1       0.497   1.084  -1.498  1.00  0.00    -0.274 OA
HETATM    3  C5  UNL     1      -0.725   1.492  -1.627  1.00  0.00     0.188 A 
HETATM    4  N2  UNL     1      -1.187   2.466  -2.528  1.00  0.00    -0.072 NA
HETATM    5  C6  UNL     1      -1.498   0.814  -0.735  1.00  0.00     0.108 A 
HETATM    6  C7  UNL     1      -0.644  -0.049  -0.043  1.00  0.00     0.111 A 
HETATM    7  N3  UNL     1      -0.928  -0.977   0.991  1.00  0.00    -0.384 N 
ATOM      8  H3  UNL     1      -0.129  -1.376   1.484  1.00  0.00     0.159 HD
HETATM    9  C8  UNL     1      -2.240  -1.413   1.415  1.00  0.00     0.121 C 
HETATM   10  C9  UNL     1      -3.105  -0.184   1.625  1.00  0.00     0.039 C 
HETATM   11  C10 UNL     1      -3.772   0.141   0.292  1.00  0.00     0.121 C 
HETATM   12  N4  UNL     1      -2.890   0.949  -0.538  1.00  0.00    -0.385 N 
ATOM     13  H4  UNL     1      -3.336   1.714  -1.044  1.00  0.00     0.159 HD
ENDROOT
BRANCH   1  14
HETATM   14  N1  UNL     1       1.782  -0.489  -0.172  1.00  0.00    -0.304 N 
HETATM   15  C3  UNL     1       3.015  -0.174  -0.799  1.00  0.00     0.241 C 
HETATM   16  O1  UNL     1       3.074   0.678  -1.700  1.00  0.00    -0.271 OA
ATOM     17  H1  UNL     1       1.746  -1.191   0.568  1.00  0.00     0.171 HD
BRANCH  15  18
HETATM   18  C2  UNL     1       4.254  -0.863  -0.381  1.00  0.00     0.170 C 
HETATM   19  C1  UNL     1       4.518  -0.605   1.074  1.00  0.00     0.037 C 
HETATM   20 CL1  UNL     1       5.640  -0.296  -1.324  1.00  0.00    -0.115 Cl
ENDBRANCH  15  18
ENDBRANCH   1  14
TORSDOF 2
