REMARK  3 active torsions:
REMARK  status: ('A' for Active; 'I' for Inactive)
REMARK    1  A    between atoms: C2_2  and  C4_4 
REMARK    2  A    between atoms: C4_4  and  N1_5 
REMARK    3  A    between atoms: N1_5  and  C5_8 
ROOT
HETATM    1  C5  UNL     1      -0.456  -0.097   0.907  1.00  0.00     0.297 C 
HETATM    2  C6  UNL     1      -0.993  -1.108  -0.073  1.00  0.00     0.167 C 
HETATM    3  N2  UNL     1      -2.323  -1.524   0.295  1.00  0.00    -0.417 N 
ATOM      4  H2  UNL     1      -2.544  -2.486   0.554  1.00  0.00     0.153 HD
HETATM    5  C7  UNL     1      -3.304  -0.497   0.271  1.00  0.00     0.115 C 
HETATM    6  C8  UNL     1      -3.025   0.644  -0.647  1.00  0.00     0.038 C 
HETATM    7  C9  UNL     1      -1.974   1.526  -0.034  1.00  0.00     0.117 C 
HETATM    8  N3  UNL     1      -1.336   1.010   1.123  1.00  0.00    -0.394 N 
ATOM      9  H3  UNL     1      -1.495   1.403   2.051  1.00  0.00     0.155 HD
ENDROOT
BRANCH   1  10
HETATM   10  N1  UNL     1       0.847   0.386   0.548  1.00  0.00    -0.050 N 
ATOM     11  H12 UNL     1       1.125   1.158   1.154  1.00  0.00     0.280 HD
ATOM     12  H11 UNL     1       0.816   0.874  -0.347  1.00  0.00     0.280 HD
BRANCH  10  13
HETATM   13  C4  UNL     1       1.862  -0.643   0.534  1.00  0.00     0.267 C 
BRANCH  13  14
HETATM   14  C2  UNL     1       3.192  -0.114   0.151  1.00  0.00    -0.068 C 
HETATM   15  C1  UNL     1       4.196  -0.223   0.995  1.00  0.00     0.015 C 
HETATM   16  C3  UNL     1       3.443   0.545  -1.163  1.00  0.00     0.044 C 
ENDBRANCH  13  14
ENDBRANCH  10  13
ENDBRANCH   1  10
TORSDOF 3
