REMARK  2 active torsions:
REMARK  status: ('A' for Active; 'I' for Inactive)
REMARK    1  A    between atoms: C1_2  and  N1_3 
REMARK    2  A    between atoms: N1_3  and  C2_5 
ROOT
HETATM    1  C2  UNL     1       0.080  -0.051  -0.354  1.00  0.00     0.287 C 
HETATM    2  C3  UNL     1      -1.112  -0.406   0.546  1.00  0.00     0.082 C 
HETATM    3  C4  UNL     1      -1.846   0.506  -0.435  1.00  0.00     0.238 C 
HETATM    4  N2  UNL     1      -0.580   1.257  -0.518  1.00  0.00    -0.054 N 
ATOM      5  H21 UNL     1      -0.369   1.872  -1.304  1.00  0.00     0.279 HD
ATOM      6  H22 UNL     1      -0.379   2.043   0.100  1.00  0.00     0.279 HD
ENDROOT
BRANCH   1   7
HETATM    7  N1  UNL     1       1.337   0.009   0.316  1.00  0.00    -0.341 N 
ATOM      8  H1  UNL     1       1.429   0.538   1.183  1.00  0.00     0.163 HD
BRANCH   7   9
HETATM    9  C1  UNL     1       2.458  -0.667  -0.224  1.00  0.00     0.350 C 
HETATM   10  O1  UNL     1       2.322  -1.309  -1.288  1.00  0.00    -0.284 OA
ENDBRANCH   7   9
ENDBRANCH   1   7
TORSDOF 2
