REMARK  3 active torsions:
REMARK  status: ('A' for Active; 'I' for Inactive)
REMARK    1  A    between atoms: N1_1  and  C1_4 
REMARK    2  A    between atoms: C1_4  and  C2_5 
REMARK    3  A    between atoms: C2_5  and  N2_6 
ROOT
HETATM    1  N2  UNL     1      -0.771  -0.067   0.398  1.00  0.00    -0.266 N 
HETATM    2  C3  UNL     1      -1.424   1.071   0.714  1.00  0.00     0.213 A 
HETATM    3  N3  UNL     1      -2.527   0.595   0.106  1.00  0.00    -0.279 N 
ATOM      4  H3  UNL     1      -3.472   0.942  -0.056  1.00  0.00     0.185 HD
HETATM    5  N4  UNL     1      -1.860  -0.526  -0.197  1.00  0.00    -0.018 NA
ENDROOT
BRANCH   1   6
HETATM    6  C2  UNL     1       0.558  -0.608   0.599  1.00  0.00     0.191 C 
BRANCH   6   7
HETATM    7  C1  UNL     1       1.446  -0.225  -0.535  1.00  0.00     0.074 C 
BRANCH   7   8
HETATM    8  N1  UNL     1       2.166   0.817  -0.409  1.00  0.00    -0.410 N 
ATOM      9  H12 UNL     1       2.125   1.364   0.451  1.00  0.00     0.155 HD
ATOM     10  H11 UNL     1       2.774   1.079  -1.185  1.00  0.00     0.155 HD
ENDBRANCH   7   8
ENDBRANCH   6   7
ENDBRANCH   1   6
TORSDOF 3
