REMARK  5 active torsions:
REMARK  status: ('A' for Active; 'I' for Inactive)
REMARK    1  A    between atoms: C4_4  and  C5_5 
REMARK    2  A    between atoms: C5_5  and  C6_6 
REMARK    3  A    between atoms: N2_15  and  C13_16 
REMARK    4  A    between atoms: C13_16  and  C14_17 
REMARK    5  A    between atoms: C14_17  and  C15_18 
ROOT
HETATM    1  C6  UNL     1       2.850  -0.589  -0.282  1.00  0.00     0.207 C 
HETATM    2  C7  UNL     1       3.407   0.221  -1.385  1.00  0.00     0.147 C 
HETATM    3  N1  UNL     1       2.884   1.565  -1.456  1.00  0.00    -0.419 N 
ATOM      4  H1  UNL     1       3.467   2.364  -1.704  1.00  0.00     0.153 HD
HETATM    5  C8  UNL     1       1.496   1.699  -1.155  1.00  0.00     0.114 C 
HETATM    6  C9  UNL     1       0.600   0.761  -1.879  1.00  0.00     0.030 C 
HETATM    7  C10 UNL     1      -0.281  -0.090  -0.994  1.00  0.00    -0.012 C 
HETATM    8  C11 UNL     1      -0.980   0.698   0.064  1.00  0.00     0.031 C 
HETATM    9  C12 UNL     1      -2.218  -0.120   0.471  1.00  0.00     0.122 C 
HETATM   10  N2  UNL     1      -3.164   0.100  -0.563  1.00  0.00    -0.393 N 
HETATM   11  C18 UNL     1      -2.657  -0.177  -1.855  1.00  0.00     0.122 C 
HETATM   12  C19 UNL     1      -1.279  -0.783  -1.865  1.00  0.00     0.031 C 
HETATM   13  C20 UNL     1       0.511  -1.174  -0.277  1.00  0.00     0.242 C 
HETATM   14  N3  UNL     1       1.798  -1.423  -0.845  1.00  0.00    -0.068 N 
ATOM     15  H31 UNL     1       2.041  -2.411  -0.771  1.00  0.00     0.277 HD
ATOM     16  H32 UNL     1       1.769  -1.332  -1.861  1.00  0.00     0.277 HD
ENDROOT
BRANCH  10  17
HETATM   17  C13 UNL     1      -4.470  -0.315  -0.243  1.00  0.00     0.058 C 
BRANCH  17  18
HETATM   18  C14 UNL     1      -5.052   0.586   0.824  1.00  0.00     0.049 C 
BRANCH  18  19
HETATM   19  C15 UNL     1      -6.458   0.182   1.201  1.00  0.00    -0.010 A 
HETATM   20  C16 UNL     1      -7.560   0.155   0.228  1.00  0.00     0.005 A 
HETATM   21  C17 UNL     1      -7.546   1.282   1.186  1.00  0.00     0.005 A 
ENDBRANCH  18  19
ENDBRANCH  17  18
ENDBRANCH  10  17
BRANCH   1  22
HETATM   22  C5  UNL     1       3.805  -1.489   0.445  1.00  0.00     0.073 C 
BRANCH  22  23
HETATM   23  C4  UNL     1       4.930  -0.814   1.098  1.00  0.00    -0.056 A 
HETATM   24  C3  UNL     1       4.867  -0.285   2.368  1.00  0.00     0.007 A 
HETATM   25  C2  UNL     1       5.958   0.328   2.945  1.00  0.00     0.001 A 
HETATM   26  C1  UNL     1       7.145   0.426   2.257  1.00  0.00     0.000 A 
HETATM   27  C22 UNL     1       7.220  -0.096   0.995  1.00  0.00     0.001 A 
HETATM   28  C21 UNL     1       6.130  -0.704   0.431  1.00  0.00     0.007 A 
ENDBRANCH  22  23
ENDBRANCH   1  22
TORSDOF 5
