REMARK  6 active torsions:
REMARK  status: ('A' for Active; 'I' for Inactive)
REMARK    1  A    between atoms: C2_2  and  C4_4 
REMARK    2  A    between atoms: C2_2  and  C6_8 
REMARK    3  A    between atoms: C4_4  and  C5_5 
REMARK    4  A    between atoms: C6_8  and  C7_9 
REMARK       I    between atoms: C7_9  and  N1_11 
REMARK    5  A    between atoms: C8_13  and  C9_14 
REMARK       I    between atoms: C9_14  and  N2_16 
REMARK    6  A    between atoms: N2_16  and  C10_18 
ROOT
HETATM    1  C9  UNL     1      -0.450   0.782   0.281  1.00  0.00     0.257 C 
HETATM    2  O4  UNL     1      -0.930   1.936   0.229  1.00  0.00    -0.267 OA
HETATM    3  N2  UNL     1      -1.275  -0.377   0.285  1.00  0.00    -0.347 N 
ATOM      4  H2  UNL     1      -0.821  -1.289   0.331  1.00  0.00     0.163 HD
ENDROOT
BRANCH   1   5
HETATM    5  C8  UNL     1       0.989   0.655   0.336  1.00  0.00     0.165 C 
HETATM    6  N1  UNL     1       1.704   1.719   0.329  1.00  0.00    -0.332 N 
HETATM    7  C7  UNL     1       3.099   1.632   0.380  1.00  0.00     0.222 C 
ATOM      8  H1  UNL     1       1.254   2.633   0.286  1.00  0.00     0.168 HD
HETATM    9  O3  UNL     1       3.746   2.577   0.882  1.00  0.00    -0.273 OA
BRANCH   7  10
HETATM   10  C6  UNL     1       3.787   0.443  -0.152  1.00  0.00     0.112 C 
BRANCH  10  11
HETATM   11  C2  UNL     1       5.273   0.626  -0.022  1.00  0.00    -0.030 C 
HETATM   12  C1  UNL     1       5.625   0.805   1.417  1.00  0.00     0.016 C 
HETATM   13  C3  UNL     1       5.682   1.790  -0.905  1.00  0.00     0.016 C 
BRANCH  11  14
HETATM   14  C4  UNL     1       5.897  -0.648  -0.603  1.00  0.00     0.122 C 
BRANCH  14  15
HETATM   15  C5  UNL     1       5.445  -1.851   0.101  1.00  0.00     0.173 C 
HETATM   16  O1  UNL     1       5.957  -2.166   1.222  1.00  0.00    -0.648 OA
HETATM   17  O2  UNL     1       4.464  -2.721  -0.361  1.00  0.00    -0.648 OA
ENDBRANCH  14  15
ENDBRANCH  11  14
ENDBRANCH  10  11
ENDBRANCH   7  10
ENDBRANCH   1   5
BRANCH   3  18
HETATM   18  C10 UNL     1      -2.707  -0.339   0.228  1.00  0.00     0.034 C 
HETATM   19  C11 UNL     1      -3.349   0.403   1.355  1.00  0.00     0.035 C 
HETATM   20  C12 UNL     1      -4.831   0.508   1.077  1.00  0.00    -0.012 C 
HETATM   21  C13 UNL     1      -5.098   1.179  -0.241  1.00  0.00     0.009 C 
HETATM   22  C17 UNL     1      -5.394  -0.897   1.148  1.00  0.00     0.009 C 
HETATM   23  C14 UNL     1      -4.586   0.275  -1.338  1.00  0.00    -0.012 C 
HETATM   24  C15 UNL     1      -5.141  -1.116  -1.259  1.00  0.00     0.009 C 
HETATM   25  C19 UNL     1      -3.076   0.189  -1.144  1.00  0.00     0.035 C 
HETATM   26  C16 UNL     1      -4.753  -1.751   0.064  1.00  0.00    -0.012 C 
HETATM   27  C18 UNL     1      -3.265  -1.768   0.267  1.00  0.00     0.035 C 
ENDBRANCH   3  18
TORSDOF 6
