REMARK  13 active torsions:
REMARK  status: ('A' for Active; 'I' for Inactive)
REMARK    1  A    between atoms: C1_2  and  C2_3 
REMARK       I    between atoms: C1_2  and  N1_7 
REMARK    2  A    between atoms: C2_3  and  C3_4 
REMARK    3  A    between atoms: C3_4  and  C4_5 
REMARK    4  A    between atoms: N1_7  and  C5_9 
REMARK    5  A    between atoms: C5_9  and  C6_10 
REMARK    6  A    between atoms: C6_10  and  C7_11 
REMARK    7  A    between atoms: C7_11  and  C8_12 
REMARK    8  A    between atoms: C8_12  and  C9_13 
REMARK    9  A    between atoms: C9_13  and  N2_14 
REMARK       I    between atoms: N2_14  and  C10_16 
REMARK   10  A    between atoms: C10_16  and  C11_18 
REMARK   11  A    between atoms: C11_18  and  C12_19 
REMARK   12  A    between atoms: C12_19  and  C13_20 
REMARK   13  A    between atoms: C17_24  and  C18_25 
ROOT
HETATM    1  C11 UNL     1      -1.699   0.227   0.330  1.00  0.00     0.046 C 
HETATM    2  C16 UNL     1      -2.244  -0.593  -0.824  1.00  0.00     0.029 C 
HETATM    3  C17 UNL     1      -3.446   0.192  -1.303  1.00  0.00     0.024 C 
HETATM    4  C24 UNL     1      -3.909   1.038  -0.188  1.00  0.00    -0.001 C 
HETATM    5  C25 UNL     1      -5.305   0.847   0.299  1.00  0.00     0.005 C 
HETATM    6  C26 UNL     1      -5.384   1.663   1.607  1.00  0.00     0.000 C 
HETATM    7  C27 UNL     1      -4.713   0.789   2.649  1.00  0.00     0.000 C 
HETATM    8  C28 UNL     1      -3.502   0.079   2.089  1.00  0.00     0.006 C 
HETATM    9  C29 UNL     1      -2.917   0.873   0.962  1.00  0.00     0.008 C 
ENDROOT
BRANCH   1  10
HETATM   10  C10 UNL     1      -0.840   1.281  -0.230  1.00  0.00     0.226 C 
HETATM   11  N2  UNL     1       0.009   1.208  -1.343  1.00  0.00    -0.360 N 
ATOM     12  H2  UNL     1       0.064   0.332  -1.863  1.00  0.00     0.162 HD
HETATM   13  O2  UNL     1      -0.897   2.405   0.405  1.00  0.00    -0.273 OA
BRANCH  11  14
HETATM   14  C9  UNL     1       0.809   2.328  -1.781  1.00  0.00     0.122 C 
BRANCH  14  15
HETATM   15  C8  UNL     1       1.795   2.832  -0.786  1.00  0.00     0.020 C 
BRANCH  15  16
HETATM   16  C7  UNL     1       2.810   1.797  -0.354  1.00  0.00     0.003 C 
BRANCH  16  17
HETATM   17  C6  UNL     1       3.608   1.297  -1.530  1.00  0.00     0.020 C 
BRANCH  17  18
HETATM   18  C5  UNL     1       4.606   0.272  -1.105  1.00  0.00     0.122 C 
BRANCH  18  19
HETATM   19  N1  UNL     1       5.542   0.816  -0.145  1.00  0.00    -0.361 N 
HETATM   20  C1  UNL     1       6.583   0.011   0.403  1.00  0.00     0.217 C 
HETATM   21  O1  UNL     1       6.662  -1.177   0.029  1.00  0.00    -0.274 OA
ATOM     22  H1  UNL     1       5.456   1.790   0.144  1.00  0.00     0.162 HD
BRANCH  20  23
HETATM   23  C2  UNL     1       7.536   0.562   1.378  1.00  0.00     0.103 C 
BRANCH  23  24
HETATM   24  C3  UNL     1       8.469  -0.437   1.949  1.00  0.00     0.020 C 
BRANCH  24  25
HETATM   25  C4  UNL     1       7.814  -1.531   2.729  1.00  0.00     0.085 C 
HETATM   26 BR1  UNL     1       9.241  -2.700   3.376  1.00  0.00    -0.097 Br
ENDBRANCH  24  25
ENDBRANCH  23  24
ENDBRANCH  20  23
ENDBRANCH  18  19
ENDBRANCH  17  18
ENDBRANCH  16  17
ENDBRANCH  15  16
ENDBRANCH  14  15
ENDBRANCH  11  14
ENDBRANCH   1  10
BRANCH   1  27
HETATM   27  C12 UNL     1      -0.957  -0.649   1.251  1.00  0.00     0.024 C 
BRANCH  27  28
HETATM   28  C13 UNL     1       0.211  -1.385   0.655  1.00  0.00    -0.013 A 
HETATM   29  C14 UNL     1       1.010  -2.306   1.518  1.00  0.00     0.005 A 
HETATM   30  C15 UNL     1       0.122  -2.900   0.491  1.00  0.00     0.005 A 
ENDBRANCH  27  28
ENDBRANCH   1  27
BRANCH   3  31
HETATM   31  C18 UNL     1      -4.386  -0.743  -1.903  1.00  0.00    -0.048 A 
HETATM   32  C19 UNL     1      -4.863  -0.540  -3.182  1.00  0.00     0.053 A 
HETATM   33  C20 UNL     1      -5.751  -1.431  -3.775  1.00  0.00     0.158 A 
HETATM   34  F1  UNL     1      -6.226  -1.238  -5.034  1.00  0.00    -0.203 F 
HETATM   35  C21 UNL     1      -6.182  -2.547  -3.102  1.00  0.00     0.193 A 
HETATM   36  F2  UNL     1      -7.059  -3.414  -3.705  1.00  0.00    -0.200 F 
HETATM   37  C22 UNL     1      -5.717  -2.764  -1.829  1.00  0.00     0.158 A 
HETATM   38  F3  UNL     1      -6.129  -3.871  -1.128  1.00  0.00    -0.203 F 
HETATM   39  C23 UNL     1      -4.838  -1.870  -1.260  1.00  0.00     0.053 A 
ENDBRANCH   3  31
TORSDOF 13
