REMARK  15 active torsions:
REMARK  status: ('A' for Active; 'I' for Inactive)
REMARK    1  A    between atoms: C7_14  and  N5_15 
REMARK    2  A    between atoms: N5_15  and  C8_16 
REMARK    3  A    between atoms: C8_16  and  C9_17 
REMARK    4  A    between atoms: C9_17  and  C10_18 
REMARK    5  A    between atoms: C10_18  and  C11_19 
REMARK    6  A    between atoms: C11_19  and  C12_20 
REMARK    7  A    between atoms: C12_20  and  C13_21 
REMARK    8  A    between atoms: C13_21  and  C14_22 
REMARK    9  A    between atoms: C14_22  and  C15_23 
REMARK   10  A    between atoms: C15_23  and  C16_24 
REMARK   11  A    between atoms: C16_24  and  C17_25 
REMARK   12  A    between atoms: C17_25  and  C18_26 
REMARK   13  A    between atoms: C18_26  and  C19_27 
REMARK   14  A    between atoms: C19_27  and  C20_28 
REMARK   15  A    between atoms: C20_28  and  C21_31 
ROOT
HETATM    1  N5  UNL     1      -2.755  -0.685   0.783  1.00  0.00    -0.428 NA
ENDROOT
BRANCH   1   2
HETATM    2  C7  UNL     1      -3.288  -0.711  -0.279  1.00  0.00     0.205 A 
HETATM    3  N4  UNL     1      -3.049  -1.561  -1.318  1.00  0.00    -0.272 N 
HETATM    4  N3  UNL     1      -3.839  -1.273  -2.317  1.00  0.00    -0.282 N 
ATOM      5  H4  UNL     1      -2.357  -2.310  -1.315  1.00  0.00     0.189 HD
HETATM    6  C6  UNL     1      -4.637  -0.233  -2.007  1.00  0.00     0.145 A 
ATOM      7  H3  UNL     1      -3.850  -1.767  -3.209  1.00  0.00     0.188 HD
HETATM    8  N2  UNL     1      -5.658   0.463  -2.725  1.00  0.00    -0.287 N 
HETATM    9  C22 UNL     1      -4.311   0.142  -0.726  1.00  0.00     0.113 A 
HETATM   10  C4  UNL     1      -6.342   1.547  -2.118  1.00  0.00     0.331 A 
HETATM   11  C5  UNL     1      -5.977   0.046  -4.064  1.00  0.00     0.163 C 
HETATM   12  N1  UNL     1      -6.038   1.977  -0.785  1.00  0.00    -0.282 N 
HETATM   13  O1  UNL     1      -7.242   2.165  -2.743  1.00  0.00    -0.246 OA
HETATM   14  C3  UNL     1      -6.575   3.032   0.048  1.00  0.00     0.160 A 
HETATM   15  C23 UNL     1      -5.021   1.273  -0.087  1.00  0.00     0.127 A 
HETATM   16  C2  UNL     1      -5.794   2.901   1.305  1.00  0.00     0.097 A 
HETATM   17  C1  UNL     1      -5.029   4.156   1.663  1.00  0.00     0.034 C 
HETATM   18  N6  UNL     1      -4.903   1.797   1.061  1.00  0.00    -0.369 N 
ATOM     19  H6  UNL     1      -4.233   1.464   1.754  1.00  0.00     0.161 HD
ENDBRANCH   1   2
BRANCH   1  20
HETATM   20  C8  UNL     1      -2.187  -0.616   1.985  1.00  0.00     0.220 C 
BRANCH  20  21
HETATM   21  C9  UNL     1      -1.313  -1.827   2.321  1.00  0.00     0.033 C 
BRANCH  21  22
HETATM   22  C10 UNL     1      -0.203  -1.951   1.309  1.00  0.00     0.002 C 
BRANCH  22  23
HETATM   23  C11 UNL     1       0.620  -3.179   1.688  1.00  0.00     0.000 C 
BRANCH  23  24
HETATM   24  C12 UNL     1       1.748  -3.413   0.741  1.00  0.00     0.000 C 
BRANCH  24  25
HETATM   25  C13 UNL     1       2.712  -2.252   0.697  1.00  0.00     0.000 C 
BRANCH  25  26
HETATM   26  C14 UNL     1       3.307  -2.031   2.040  1.00  0.00     0.000 C 
BRANCH  26  27
HETATM   27  C15 UNL     1       4.283  -0.903   2.110  1.00  0.00     0.000 C 
BRANCH  27  28
HETATM   28  C16 UNL     1       5.462  -1.144   1.162  1.00  0.00     0.000 C 
BRANCH  28  29
HETATM   29  C17 UNL     1       6.490  -0.040   1.255  1.00  0.00     0.000 C 
BRANCH  29  30
HETATM   30  C18 UNL     1       5.937   1.268   0.875  1.00  0.00     0.003 C 
BRANCH  30  31
HETATM   31  C19 UNL     1       5.460   1.398  -0.524  1.00  0.00     0.040 C 
BRANCH  31  32
HETATM   32  C20 UNL     1       6.443   1.309  -1.623  1.00  0.00     0.124 C 
HETATM   33 CL1  UNL     1       7.725   2.567  -1.436  1.00  0.00    -0.104 Cl
HETATM   34 BR1  UNL     1       7.223  -0.397  -1.888  1.00  0.00    -0.065 Br
BRANCH  32  35
HETATM   35  C21 UNL     1       5.772   1.694  -2.968  1.00  0.00     0.212 C 
HETATM   36 CL2  UNL     1       4.425   0.627  -3.349  1.00  0.00    -0.105 Cl
HETATM   37 CL3  UNL     1       5.194   3.358  -2.887  1.00  0.00    -0.105 Cl
ENDBRANCH  32  35
ENDBRANCH  31  32
ENDBRANCH  30  31
ENDBRANCH  29  30
ENDBRANCH  28  29
ENDBRANCH  27  28
ENDBRANCH  26  27
ENDBRANCH  25  26
ENDBRANCH  24  25
ENDBRANCH  23  24
ENDBRANCH  22  23
ENDBRANCH  21  22
ENDBRANCH  20  21
ENDBRANCH   1  20
TORSDOF 15
