REMARK  11 active torsions:
REMARK  status: ('A' for Active; 'I' for Inactive)
REMARK    1  A    between atoms: C2_2  and  N1_4 
REMARK    2  A    between atoms: N1_4  and  N2_5 
REMARK       I    between atoms: N2_5  and  C3_7 
REMARK    3  A    between atoms: C3_7  and  C4_9 
REMARK    4  A    between atoms: C4_9  and  C5_10 
REMARK    5  A    between atoms: C5_10  and  C6_11 
REMARK    6  A    between atoms: C6_11  and  C7_12 
REMARK    7  A    between atoms: C7_12  and  C8_13 
REMARK    8  A    between atoms: C8_13  and  C9_14 
REMARK    9  A    between atoms: C9_14  and  C10_15 
REMARK   10  A    between atoms: C10_15  and  N3_16 
REMARK   11  A    between atoms: N3_16  and  C11_18 
ROOT
HETATM    1  C9  UNL     1      -1.089  -0.003  -0.795  1.00  0.00     0.020 C 
ENDROOT
BRANCH   1   2
HETATM    2  C8  UNL     1      -0.466   1.199  -0.159  1.00  0.00     0.002 C 
BRANCH   2   3
HETATM    3  C7  UNL     1       0.748   1.677  -0.879  1.00  0.00     0.000 C 
BRANCH   3   4
HETATM    4  C6  UNL     1       1.863   0.680  -0.982  1.00  0.00     0.000 C 
BRANCH   4   5
HETATM    5  C5  UNL     1       2.322   0.273   0.392  1.00  0.00     0.009 C 
BRANCH   5   6
HETATM    6  C4  UNL     1       3.437  -0.718   0.397  1.00  0.00     0.104 C 
BRANCH   6   7
HETATM    7  C3  UNL     1       4.657  -0.208  -0.236  1.00  0.00     0.233 C 
HETATM    8  N2  UNL     1       5.762  -1.092  -0.420  1.00  0.00    -0.273 N 
ATOM      9  H2  UNL     1       5.690  -2.061  -0.111  1.00  0.00     0.185 HD
HETATM   10  O1  UNL     1       4.780   0.971  -0.625  1.00  0.00    -0.272 OA
BRANCH   8  11
HETATM   11  N1  UNL     1       6.957  -0.637  -1.027  1.00  0.00    -0.118 NA
BRANCH  11  12
HETATM   12  C2  UNL     1       7.729   0.085  -0.010  1.00  0.00     0.191 C 
HETATM   13  C1  UNL     1       8.090  -0.840   1.106  1.00  0.00     0.046 C 
HETATM   14 CL1  UNL     1       9.159   0.863  -0.670  1.00  0.00    -0.105 Cl
ENDBRANCH  11  12
ENDBRANCH   8  11
ENDBRANCH   6   7
ENDBRANCH   5   6
ENDBRANCH   4   5
ENDBRANCH   3   4
ENDBRANCH   2   3
ENDBRANCH   1   2
BRANCH   1  15
HETATM   15  C10 UNL     1      -2.334  -0.445  -0.036  1.00  0.00     0.122 C 
BRANCH  15  16
HETATM   16  N3  UNL     1      -3.320   0.625  -0.039  1.00  0.00    -0.365 N 
ATOM     17  H3  UNL     1      -3.049   1.605  -0.124  1.00  0.00     0.162 HD
BRANCH  16  18
HETATM   18  C11 UNL     1      -4.582   0.260   0.074  1.00  0.00     0.188 A 
HETATM   19  O2  UNL     1      -5.626   1.007   0.096  1.00  0.00    -0.286 OA
HETATM   20  C12 UNL     1      -6.783   0.519   0.211  1.00  0.00     0.097 A 
HETATM   21  C13 UNL     1      -7.997   1.240   0.247  1.00  0.00     0.040 A 
HETATM   22  C17 UNL     1      -6.911  -0.840   0.312  1.00  0.00     0.066 A 
HETATM   23  C14 UNL     1      -9.201   0.595   0.375  1.00  0.00     0.024 A 
HETATM   24  C15 UNL     1      -9.297  -0.777   0.474  1.00  0.00     0.034 A 
HETATM   25 BR1  UNL     1     -10.997  -1.660   0.653  1.00  0.00    -0.049 Br
HETATM   26  C16 UNL     1      -8.126  -1.495   0.442  1.00  0.00     0.071 A 
HETATM   27 CL2  UNL     1      -8.104  -3.237   0.555  1.00  0.00    -0.081 Cl
HETATM   28  S1  UNL     1      -5.252  -1.305   0.228  1.00  0.00    -0.042 SA
ENDBRANCH  16  18
ENDBRANCH  15  16
ENDBRANCH   1  15
TORSDOF 11
