REMARK  11 active torsions:
REMARK  status: ('A' for Active; 'I' for Inactive)
REMARK    1  A    between atoms: C2_2  and  C3_3 
REMARK    2  A    between atoms: C3_3  and  C4_4 
REMARK    3  A    between atoms: C4_4  and  C5_5 
REMARK    4  A    between atoms: C6_7  and  O2_8 
REMARK    5  A    between atoms: O2_8  and  C7_9 
REMARK    6  A    between atoms: C7_9  and  C8_10 
REMARK    7  A    between atoms: C8_10  and  C9_11 
REMARK    8  A    between atoms: C9_11  and  C10_12 
REMARK    9  A    between atoms: C16_18  and  O3_19 
REMARK   10  A    between atoms: C17_21  and  O4_22 
REMARK   11  A    between atoms: C18_24  and  C19_25 
ROOT
HETATM    1  C5  UNL     1      -2.010  -0.085   1.001  1.00  0.00     0.264 C 
HETATM    2  O1  UNL     1      -1.133  -0.496  -0.003  1.00  0.00    -0.329 OA
HETATM    3  C6  UNL     1      -0.332   0.569  -0.431  1.00  0.00     0.293 C 
HETATM    4  C16 UNL     1      -0.900   1.289  -1.622  1.00  0.00     0.205 C 
HETATM    5  C17 UNL     1      -2.407   1.002  -1.659  1.00  0.00     0.185 C 
HETATM    6  C18 UNL     1      -3.008   1.463  -0.385  1.00  0.00     0.191 C 
HETATM    7  O5  UNL     1      -3.180   0.317   0.437  1.00  0.00    -0.349 OA
ENDROOT
BRANCH   3   8
HETATM    8  O2  UNL     1       0.928   0.033  -0.660  1.00  0.00    -0.358 OA
BRANCH   8   9
HETATM    9  C7  UNL     1       1.830   0.573   0.248  1.00  0.00     0.171 C 
BRANCH   9  10
HETATM   10  C8  UNL     1       3.228  -0.001   0.035  1.00  0.00     0.027 C 
BRANCH  10  11
HETATM   11  C9  UNL     1       4.165   0.615   1.042  1.00  0.00     0.007 C 
BRANCH  11  12
HETATM   12  C10 UNL     1       5.538   0.059   0.859  1.00  0.00    -0.014 C 
HETATM   13  C11 UNL     1       5.513  -1.442   1.054  1.00  0.00     0.004 C 
HETATM   14  C12 UNL     1       5.769  -2.094  -0.268  1.00  0.00     0.000 C 
HETATM   15  C13 UNL     1       7.175  -1.776  -0.765  1.00  0.00     0.000 C 
HETATM   16  C14 UNL     1       7.493  -0.306  -0.576  1.00  0.00     0.000 C 
HETATM   17  C15 UNL     1       6.128   0.394  -0.471  1.00  0.00     0.004 C 
ENDBRANCH  11  12
ENDBRANCH  10  11
ENDBRANCH   9  10
ENDBRANCH   8   9
ENDBRANCH   3   8
BRANCH   4  18
HETATM   18  O3  UNL     1      -0.741   2.660  -1.416  1.00  0.00    -0.388 OA
ATOM     19  H3  UNL     1      -1.100   3.115  -2.169  1.00  0.00     0.210 HD
ENDBRANCH   4  18
BRANCH   1  20
HETATM   20  C4  UNL     1      -2.240  -1.168   2.002  1.00  0.00     0.061 C 
BRANCH  20  21
HETATM   21  C3  UNL     1      -2.809  -2.441   1.511  1.00  0.00     0.004 C 
BRANCH  21  22
HETATM   22  C2  UNL     1      -4.153  -2.400   0.880  1.00  0.00    -0.004 C 
HETATM   23  C1  UNL     1      -4.547  -3.833   0.473  1.00  0.00     0.005 C 
ENDBRANCH  21  22
ENDBRANCH  20  21
ENDBRANCH   1  20
BRANCH   5  24
HETATM   24  O4  UNL     1      -2.526  -0.340  -1.929  1.00  0.00    -0.390 OA
ATOM     25  H4  UNL     1      -3.459  -0.518  -1.952  1.00  0.00     0.210 HD
ENDBRANCH   5  24
BRANCH   6  26
HETATM   26  C19 UNL     1      -4.362   2.055  -0.483  1.00  0.00    -0.002 A 
HETATM   27  C20 UNL     1      -5.108   2.064  -1.638  1.00  0.00     0.015 A 
HETATM   28  C21 UNL     1      -6.384   2.629  -1.681  1.00  0.00     0.046 A 
HETATM   29  C22 UNL     1      -6.918   3.188  -0.564  1.00  0.00     0.156 A 
HETATM   30  F1  UNL     1      -8.174   3.737  -0.634  1.00  0.00    -0.203 F 
HETATM   31  C23 UNL     1      -6.202   3.194   0.596  1.00  0.00     0.177 A 
HETATM   32  F2  UNL     1      -6.751   3.754   1.693  1.00  0.00    -0.201 F 
HETATM   33  C24 UNL     1      -4.941   2.632   0.626  1.00  0.00     0.084 A 
HETATM   34 CL1  UNL     1      -4.087   2.676   2.141  1.00  0.00    -0.080 Cl
ENDBRANCH   6  26
TORSDOF 11
