REMARK  9 active torsions:
REMARK  status: ('A' for Active; 'I' for Inactive)
REMARK    1  A    between atoms: C2_2  and  C3_3 
REMARK    2  A    between atoms: C3_3  and  C4_4 
REMARK    3  A    between atoms: C3_3  and  S1_31 
REMARK    4  A    between atoms: C4_4  and  N1_5 
REMARK       I    between atoms: N1_5  and  C5_7 
REMARK    5  A    between atoms: C5_7  and  C6_9 
REMARK    6  A    between atoms: C9_14  and  N3_15 
REMARK    7  A    between atoms: C12_18  and  N4_19 
REMARK    8  A    between atoms: N4_19  and  C13_21 
REMARK    9  A    between atoms: S1_31  and  C22_32 
ROOT
HETATM    1  C6  UNL     1      -2.685  -1.780  -0.275  1.00  0.00     0.058 A 
HETATM    2  C7  UNL     1      -2.484  -3.107   0.001  1.00  0.00     0.036 A 
HETATM    3  C8  UNL     1      -1.195  -3.629   0.105  1.00  0.00     0.091 A 
HETATM    4  N2  UNL     1      -0.187  -2.771  -0.079  1.00  0.00    -0.351 N 
ATOM      5  H2  UNL     1       0.760  -3.143  -0.005  1.00  0.00     0.166 HD
HETATM    6  C9  UNL     1      -0.312  -1.462  -0.353  1.00  0.00     0.126 A 
HETATM    7  C21 UNL     1      -1.604  -0.967  -0.452  1.00  0.00     0.093 A 
HETATM    8 CL1  UNL     1      -1.850   0.718  -0.795  1.00  0.00    -0.079 Cl
ENDROOT
BRANCH   6   9
HETATM    9  N3  UNL     1       0.803  -0.601  -0.542  1.00  0.00    -0.365 N 
HETATM   10  C10 UNL     1       1.486  -0.622  -1.823  1.00  0.00     0.130 C 
HETATM   11  C11 UNL     1       2.984  -0.635  -1.442  1.00  0.00     0.072 C 
HETATM   12  C12 UNL     1       3.276   0.691  -0.825  1.00  0.00    -0.015 C 
HETATM   13  C19 UNL     1       2.487   0.959   0.393  1.00  0.00     0.072 C 
HETATM   14  C20 UNL     1       1.188   0.248   0.544  1.00  0.00     0.130 C 
BRANCH  12  15
HETATM   15  N4  UNL     1       4.653   1.076  -0.763  1.00  0.00    -0.392 N 
ATOM     16  H4  UNL     1       4.980   1.929  -1.217  1.00  0.00     0.159 HD
BRANCH  15  17
HETATM   17  C13 UNL     1       5.542   0.246  -0.059  1.00  0.00     0.081 C 
HETATM   18  C14 UNL     1       6.777   0.056  -0.968  1.00  0.00     0.025 C 
HETATM   19  C15 UNL     1       7.814   1.078  -0.521  1.00  0.00     0.002 C 
HETATM   20  C16 UNL     1       8.389   0.592   0.793  1.00  0.00     0.000 C 
HETATM   21  C17 UNL     1       7.277   0.281   1.746  1.00  0.00     0.002 C 
HETATM   22  C18 UNL     1       5.921   0.797   1.265  1.00  0.00     0.025 C 
ENDBRANCH  15  17
ENDBRANCH  12  15
ENDBRANCH   6   9
BRANCH   1  23
HETATM   23  C5  UNL     1      -4.095  -1.270  -0.362  1.00  0.00     0.253 C 
HETATM   24  N1  UNL     1      -4.700  -0.762   0.779  1.00  0.00    -0.356 N 
ATOM     25  H1  UNL     1      -4.085  -0.780   1.593  1.00  0.00     0.162 HD
HETATM   26  O1  UNL     1      -4.568  -1.369  -1.495  1.00  0.00    -0.268 OA
BRANCH  24  27
HETATM   27  C4  UNL     1      -5.974  -0.226   1.068  1.00  0.00     0.138 C 
BRANCH  27  28
HETATM   28  C3  UNL     1      -6.475   0.934   0.303  1.00  0.00     0.073 C 
BRANCH  28  29
HETATM   29  C2  UNL     1      -7.812   1.464   0.871  1.00  0.00     0.012 C 
HETATM   30  C1  UNL     1      -8.289   2.640   0.086  1.00  0.00     0.006 C 
ENDBRANCH  28  29
BRANCH  28  31
HETATM   31  S1  UNL     1      -6.882   0.543  -1.444  1.00  0.00    -0.049 SA
BRANCH  31  32
HETATM   32  C22 UNL     1      -8.147  -0.731  -1.575  1.00  0.00     0.443 C 
HETATM   33  F1  UNL     1      -7.770  -1.970  -1.109  1.00  0.00    -0.160 F 
HETATM   34  F2  UNL     1      -9.381  -0.354  -1.064  1.00  0.00    -0.160 F 
HETATM   35  F3  UNL     1      -8.384  -0.889  -2.953  1.00  0.00    -0.160 F 
ENDBRANCH  31  32
ENDBRANCH  28  31
ENDBRANCH  27  28
ENDBRANCH  24  27
ENDBRANCH   1  23
TORSDOF 9
