REMARK  4 active torsions:
REMARK  status: ('A' for Active; 'I' for Inactive)
REMARK       I    between atoms: C1_2  and  N1_3 
REMARK    1  A    between atoms: C1_2  and  C8_11 
REMARK    2  A    between atoms: N1_3  and  C2_5 
REMARK    3  A    between atoms: C8_11  and  O2_12 
REMARK    4  A    between atoms: C8_11  and  C9_14 
ROOT
HETATM    1  C8  UNL     1       1.163  -0.996  -0.845  1.00  0.00     0.241 C 
ENDROOT
BRANCH   1   2
HETATM    2  C1  UNL     1      -0.066  -0.174  -0.734  1.00  0.00     0.249 C 
HETATM    3  O1  UNL     1      -0.056   1.041  -1.090  1.00  0.00    -0.271 OA
HETATM    4  N1  UNL     1      -1.293  -0.687  -0.236  1.00  0.00    -0.354 N 
ATOM      5  H1  UNL     1      -1.331  -1.663   0.058  1.00  0.00     0.162 HD
BRANCH   4   6
HETATM    6  C2  UNL     1      -2.492   0.115  -0.127  1.00  0.00     0.084 C 
HETATM    7  C3  UNL     1      -3.586  -0.576  -0.894  1.00  0.00     0.025 C 
HETATM    8  C4  UNL     1      -4.944  -0.020  -0.652  1.00  0.00     0.002 C 
HETATM    9  C5  UNL     1      -5.211   0.431   0.737  1.00  0.00     0.000 C 
HETATM   10  C6  UNL     1      -4.079   1.180   1.378  1.00  0.00     0.002 C 
HETATM   11  C7  UNL     1      -2.865   0.250   1.352  1.00  0.00     0.025 C 
ENDBRANCH   4   6
ENDBRANCH   1   2
BRANCH   1  12
HETATM   12  O2  UNL     1       0.941  -2.285  -0.408  1.00  0.00    -0.383 OA
ATOM     13  H2  UNL     1       1.728  -2.812  -0.479  1.00  0.00     0.210 HD
ENDBRANCH   1  12
BRANCH   1  14
HETATM   14  C9  UNL     1       2.198  -0.374   0.067  1.00  0.00     0.188 C 
HETATM   15  O3  UNL     1       2.475   0.956  -0.327  1.00  0.00    -0.378 OA
HETATM   16  C10 UNL     1       3.241   1.488   0.736  1.00  0.00     0.200 C 
HETATM   17  C11 UNL     1       4.495   0.661   0.882  1.00  0.00     0.145 C 
HETATM   18  C12 UNL     1       5.123   0.548  -0.485  1.00  0.00     0.036 C 
HETATM   19  O4  UNL     1       4.229  -0.669   1.189  1.00  0.00    -0.376 OA
HETATM   20  C13 UNL     1       4.414  -0.651  -1.062  1.00  0.00     0.037 C 
HETATM   21  C14 UNL     1       3.505  -1.105   0.060  1.00  0.00     0.154 C 
ENDBRANCH   1  14
TORSDOF 4
