REMARK  4 active torsions:
REMARK  status: ('A' for Active; 'I' for Inactive)
REMARK    1  A    between atoms: C3_3  and  N1_4 
REMARK    2  A    between atoms: C7_8  and  O1_9 
REMARK    3  A    between atoms: C7_8  and  C8_11 
REMARK    4  A    between atoms: C8_11  and  C9_12 
ROOT
HETATM    1  C1  UNL     1      -4.123   3.112   0.728  1.00  0.00     0.098 C 
HETATM    2  C2  UNL     1      -4.066   1.886   0.665  1.00  0.00    -0.158 C 
HETATM    3  C3  UNL     1      -4.034   0.431   0.585  1.00  0.00     0.355 C 
ENDROOT
BRANCH   3   4
HETATM    4  N1  UNL     1      -2.915  -0.011  -0.157  1.00  0.00     0.133 N 
HETATM    5  C4  UNL     1      -2.898  -1.447  -0.379  1.00  0.00     0.277 C 
HETATM    6  C5  UNL     1      -1.832  -2.044   0.472  1.00  0.00     0.035 C 
HETATM    7  C6  UNL     1      -1.534  -0.895   1.418  1.00  0.00     0.073 C 
HETATM    8  C7  UNL     1      -1.605   0.283   0.465  1.00  0.00     0.261 C 
BRANCH   8   9
HETATM    9  O1  UNL     1      -1.621   1.465   1.139  1.00  0.00    -0.363 OA
ATOM     10  H1  UNL     1      -0.780   1.654   1.538  1.00  0.00     0.212 HD
ENDBRANCH   8   9
BRANCH   8  11
HETATM   11  C8  UNL     1      -0.633   0.224  -0.652  1.00  0.00     0.104 C 
BRANCH  11  12
HETATM   12  C9  UNL     1       0.797   0.519  -0.392  1.00  0.00     0.195 C 
HETATM   13  C10 UNL     1       1.519  -0.326   0.582  1.00  0.00     0.075 C 
HETATM   14  C11 UNL     1       2.987  -0.250   0.391  1.00  0.00    -0.017 A 
HETATM   15  C12 UNL     1       3.810  -0.805   1.367  1.00  0.00     0.098 A 
HETATM   16  C14 UNL     1       3.590   0.343  -0.687  1.00  0.00     0.043 A 
HETATM   17  N2  UNL     1       5.142  -0.751   1.239  1.00  0.00    -0.362 N 
HETATM   18  C13 UNL     1       5.727  -0.164   0.173  1.00  0.00     0.180 A 
ATOM     19  H2  UNL     1       5.729  -1.163   1.964  1.00  0.00     0.166 HD
HETATM   20  N3  UNL     1       4.910   0.369  -0.765  1.00  0.00    -0.354 N 
ATOM     21  H3  UNL     1       5.336   0.816  -1.577  1.00  0.00     0.166 HD
HETATM   22  C15 UNL     1       2.740   0.947  -1.770  1.00  0.00     0.290 C 
HETATM   23  N4  UNL     1       1.435   0.326  -1.718  1.00  0.00    -0.065 N 
ATOM     24  H42 UNL     1       1.480  -0.661  -1.971  1.00  0.00     0.278 HD
ATOM     25  H41 UNL     1       0.834   0.655  -2.474  1.00  0.00     0.278 HD
ENDBRANCH  11  12
ENDBRANCH   8  11
ENDBRANCH   3   4
TORSDOF 4
