REMARK  3 active torsions:
REMARK  status: ('A' for Active; 'I' for Inactive)
REMARK    1  A    between atoms: C2_3  and  N2_4 
REMARK    2  A    between atoms: C8_11  and  N4_12 
REMARK       I    between atoms: N4_12  and  C9_14 
REMARK       I    between atoms: C9_14  and  N5_16 
REMARK    3  A    between atoms: N5_16  and  C10_18 
ROOT
HETATM    1  N1  UNL     1      -3.088   1.173  -2.785  1.00  0.00    -0.191 NA
HETATM    2  C1  UNL     1      -2.836   1.294  -1.658  1.00  0.00     0.105 C 
HETATM    3  C2  UNL     1      -2.511   1.475  -0.222  1.00  0.00     0.186 C 
ENDROOT
BRANCH   3   4
HETATM    4  N2  UNL     1      -2.767   0.274   0.453  1.00  0.00    -0.338 N 
HETATM    5  C3  UNL     1      -4.091  -0.178   0.602  1.00  0.00     0.066 C 
HETATM    6  C4  UNL     1      -4.236  -1.488  -0.140  1.00  0.00     0.046 C 
HETATM    7  C5  UNL     1      -3.232  -2.500   0.275  1.00  0.00     0.028 C 
HETATM    8  C6  UNL     1      -2.027  -2.009   0.985  1.00  0.00     0.136 C 
HETATM    9  C7  UNL     1      -2.016  -2.456   2.398  1.00  0.00     0.068 C 
HETATM   10  C8  UNL     1      -1.706  -0.559   0.851  1.00  0.00     0.210 C 
HETATM   11  N3  UNL     1      -2.004  -2.800   3.511  1.00  0.00    -0.197 NA
BRANCH  10  12
HETATM   12  N4  UNL     1      -0.586  -0.352  -0.080  1.00  0.00    -0.320 N 
HETATM   13  C9  UNL     1       0.646   0.159   0.396  1.00  0.00     0.318 C 
HETATM   14  O1  UNL     1       0.777   0.435   1.618  1.00  0.00    -0.247 OA
HETATM   15  N5  UNL     1       1.765   0.383  -0.441  1.00  0.00    -0.338 N 
ATOM     16  H5  UNL     1       1.678   0.166  -1.434  1.00  0.00     0.164 HD
ATOM     17  H4  UNL     1      -0.697  -0.577  -1.069  1.00  0.00     0.166 HD
BRANCH  15  18
HETATM   18  C10 UNL     1       3.017   0.901   0.037  1.00  0.00     0.086 C 
HETATM   19  C11 UNL     1       3.437   2.163  -0.633  1.00  0.00     0.025 C 
HETATM   20  C12 UNL     1       4.800   1.895  -1.206  1.00  0.00     0.002 C 
HETATM   21  C13 UNL     1       4.927   0.398  -1.349  1.00  0.00     0.002 C 
HETATM   22  C14 UNL     1       4.152  -0.086  -0.127  1.00  0.00     0.025 C 
ENDBRANCH  15  18
ENDBRANCH  10  12
ENDBRANCH   3   4
TORSDOF 3
