REMARK  3 active torsions:
REMARK  status: ('A' for Active; 'I' for Inactive)
REMARK    1  A    between atoms: O1_2  and  C2_3 
REMARK    2  A    between atoms: C2_3  and  C3_4 
REMARK    3  A    between atoms: C8_11  and  C9_12 
ROOT
HETATM    1  C3  UNL     1       1.922   0.146   0.910  1.00  0.00     0.154 C 
HETATM    2  O2  UNL     1       0.948   1.150   0.942  1.00  0.00    -0.375 OA
HETATM    3  C4  UNL     1       0.036   0.444   0.164  1.00  0.00     0.164 C 
HETATM    4  C5  UNL     1       0.851  -0.783   0.385  1.00  0.00     0.076 C 
HETATM    5  C6  UNL     1       0.158  -1.528   1.469  1.00  0.00     0.282 C 
HETATM    6  N1  UNL     1      -0.962  -0.764   1.838  1.00  0.00     0.092 N 
HETATM    7  C7  UNL     1      -1.008  -0.347   3.208  1.00  0.00     0.310 C 
HETATM    8  C8  UNL     1      -1.269   0.218   0.880  1.00  0.00     0.257 C 
ENDROOT
BRANCH   8   9
HETATM    9  C9  UNL     1      -2.414  -0.081  -0.048  1.00  0.00     0.047 C 
HETATM   10  C10 UNL     1      -2.604   1.115  -0.992  1.00  0.00     0.035 C 
HETATM   11  C11 UNL     1      -2.221   0.603  -2.354  1.00  0.00     0.168 C 
HETATM   12  O3  UNL     1      -1.610  -0.631  -2.164  1.00  0.00    -0.391 OA
HETATM   13  C12 UNL     1      -2.180  -1.182  -1.020  1.00  0.00     0.174 C 
ENDBRANCH   8   9
BRANCH   1  14
HETATM   14  C2  UNL     1       3.035   0.377  -0.060  1.00  0.00     0.199 C 
BRANCH  14  15
HETATM   15  O1  UNL     1       2.606   0.483  -1.373  1.00  0.00    -0.393 OA
HETATM   16  C1  UNL     1       3.762   0.696  -2.150  1.00  0.00     0.201 C 
ENDBRANCH  14  15
ENDBRANCH   1  14
TORSDOF 3
