REMARK  5 active torsions:
REMARK  status: ('A' for Active; 'I' for Inactive)
REMARK    1  A    between atoms: O1_2  and  C2_3 
REMARK    2  A    between atoms: C2_3  and  C3_4 
REMARK    3  A    between atoms: C3_4  and  O2_5 
REMARK    4  A    between atoms: O2_5  and  C4_6 
REMARK    5  A    between atoms: C4_6  and  N1_8 
ROOT
HETATM    1  N1  UNL     1      -1.214   0.615   0.414  1.00  0.00    -0.218 N 
HETATM    2  O3  UNL     1      -1.950   1.234   1.362  1.00  0.00    -0.249 OA
HETATM    3  C5  UNL     1      -2.741   2.178   0.707  1.00  0.00     0.370 C 
HETATM    4  O4  UNL     1      -3.290   1.702  -0.468  1.00  0.00    -0.362 OA
HETATM    5  C6  UNL     1      -3.413   0.299  -0.428  1.00  0.00     0.198 C 
HETATM    6  C7  UNL     1      -1.972  -0.226  -0.518  1.00  0.00     0.138 C 
HETATM    7  C8  UNL     1      -1.981  -1.652  -0.078  1.00  0.00     0.037 C 
ENDROOT
BRANCH   1   8
HETATM    8  C4  UNL     1       0.176   0.775   0.338  1.00  0.00     0.237 C 
HETATM    9  S1  UNL     1       0.905   1.737   1.434  1.00  0.00    -0.031 SA
BRANCH   8  10
HETATM   10  O2  UNL     1       0.948   0.159  -0.613  1.00  0.00    -0.323 OA
BRANCH  10  11
HETATM   11  C3  UNL     1       1.777  -0.948  -0.411  1.00  0.00     0.204 C 
BRANCH  11  12
HETATM   12  C2  UNL     1       2.861  -0.711   0.606  1.00  0.00     0.193 C 
BRANCH  12  13
HETATM   13  O1  UNL     1       3.717   0.314   0.286  1.00  0.00    -0.394 OA
HETATM   14  C1  UNL     1       4.382   0.116  -0.900  1.00  0.00     0.201 C 
ENDBRANCH  12  13
ENDBRANCH  11  12
ENDBRANCH  10  11
ENDBRANCH   8  10
ENDBRANCH   1   8
TORSDOF 5
