REMARK  4 active torsions:
REMARK  status: ('A' for Active; 'I' for Inactive)
REMARK    1  A    between atoms: C2_2  and  O1_3 
REMARK    2  A    between atoms: O1_3  and  C3_4 
REMARK    3  A    between atoms: C3_4  and  C4_6 
REMARK    4  A    between atoms: N1_8  and  C6_9 
ROOT
HETATM    1  C4  UNL     1       0.818  -1.131   0.514  1.00  0.00     0.133 C 
HETATM    2  C5  UNL     1      -0.007   0.100   0.761  1.00  0.00     0.289 C 
HETATM    3  N1  UNL     1      -1.225  -0.015  -0.015  1.00  0.00     0.095 N 
HETATM    4  C10 UNL     1      -1.361  -1.445  -0.308  1.00  0.00     0.293 C 
HETATM    5  C11 UNL     1       0.081  -1.864  -0.579  1.00  0.00     0.136 C 
HETATM    6  C12 UNL     1       0.221  -3.330  -0.438  1.00  0.00     0.066 C 
HETATM    7  N2  UNL     1       0.335  -4.485  -0.348  1.00  0.00    -0.197 NA
ENDROOT
BRANCH   1   8
HETATM    8  C3  UNL     1       2.189  -0.765   0.156  1.00  0.00     0.266 C 
HETATM    9  O2  UNL     1       3.145  -1.133   0.867  1.00  0.00    -0.265 OA
BRANCH   8  10
HETATM   10  O1  UNL     1       2.440  -0.010  -0.969  1.00  0.00    -0.321 OA
BRANCH  10  11
HETATM   11  C2  UNL     1       3.742   0.377  -1.366  1.00  0.00     0.174 C 
HETATM   12  C1  UNL     1       4.453   1.207  -0.338  1.00  0.00     0.034 C 
ENDBRANCH  10  11
ENDBRANCH   8  10
ENDBRANCH   1   8
BRANCH   3  13
HETATM   13  C6  UNL     1      -2.394   0.364   0.733  1.00  0.00     0.223 C 
HETATM   14  C7  UNL     1      -3.609   0.408  -0.172  1.00  0.00     0.036 C 
HETATM   15  C8  UNL     1      -3.444   1.916  -0.188  1.00  0.00     0.004 C 
HETATM   16  C9  UNL     1      -2.565   1.810   1.060  1.00  0.00     0.036 C 
ENDBRANCH   3  13
TORSDOF 4
