REMARK  4 active torsions:
REMARK  status: ('A' for Active; 'I' for Inactive)
REMARK    1  A    between atoms: N1_2  and  C2_5 
REMARK    2  A    between atoms: C2_5  and  C3_6 
REMARK    3  A    between atoms: C3_6  and  N2_7 
REMARK    4  A    between atoms: N2_7  and  C4_9 
ROOT
HETATM    1  C4  UNL     1       1.964  -0.231  -0.601  1.00  0.00     0.706 A 
HETATM    2  N3  UNL     1       2.783  -0.232  -1.666  1.00  0.00    -0.114 N 
ATOM      3  H3  UNL     1       2.507  -0.477  -2.617  1.00  0.00     0.203 HD
HETATM    4  N4  UNL     1       4.009   0.134  -1.297  1.00  0.00     0.009 NA
HETATM    5  N5  UNL     1       3.961   0.369   0.017  1.00  0.00    -0.212 N 
ATOM      6  H5  UNL     1       4.744   0.668   0.598  1.00  0.00     0.206 HD
HETATM    7  N6  UNL     1       2.744   0.152   0.432  1.00  0.00    -0.118 N 
ATOM      8  H6  UNL     1       2.428   0.256   1.396  1.00  0.00     0.207 HD
ENDROOT
BRANCH   1   9
HETATM    9  N2  UNL     1       0.699  -0.540  -0.601  1.00  0.00    -0.222 N 
ATOM     10  H2  UNL     1       0.211  -0.817  -1.453  1.00  0.00     0.177 HD
BRANCH   9  11
HETATM   11  C3  UNL     1       0.030  -0.468   0.672  1.00  0.00     0.165 C 
BRANCH  11  12
HETATM   12  C2  UNL     1      -1.456  -0.536   0.609  1.00  0.00     0.252 C 
BRANCH  12  13
HETATM   13  N1  UNL     1      -2.089   0.502  -0.134  1.00  0.00    -0.077 N 
HETATM   14  C1  UNL     1      -3.515   0.410  -0.033  1.00  0.00     0.267 C 
ATOM     15  H12 UNL     1      -1.781   0.510  -1.106  1.00  0.00     0.276 HD
ATOM     16  H11 UNL     1      -1.751   1.423   0.144  1.00  0.00     0.276 HD
ENDBRANCH  12  13
ENDBRANCH  11  12
ENDBRANCH   9  11
ENDBRANCH   1   9
TORSDOF 4
