REMARK  5 active torsions:
REMARK  status: ('A' for Active; 'I' for Inactive)
REMARK    1  A    between atoms: N1_1  and  C1_4 
REMARK    2  A    between atoms: C3_10  and  N4_11 
REMARK    3  A    between atoms: N4_11  and  C4_13 
REMARK    4  A    between atoms: C4_13  and  C5_14 
REMARK    5  A    between atoms: C5_14  and  N5_15 
ROOT
HETATM    1  C1  UNL     1       2.524  -0.864  -0.192  1.00  0.00     0.691 A 
HETATM    2  N2  UNL     1       2.198  -1.696   0.812  1.00  0.00    -0.187 N 
ATOM      3  H2  UNL     1       2.824  -2.472   1.028  1.00  0.00     0.185 HD
HETATM    4  C2  UNL     1       1.069  -1.544   1.549  1.00  0.00     0.215 A 
HETATM    5  N3  UNL     1       0.259  -0.522   1.252  1.00  0.00    -0.187 N 
ATOM      6  H3  UNL     1      -0.596  -0.386   1.791  1.00  0.00     0.185 HD
HETATM    7  C3  UNL     1       0.556   0.331   0.251  1.00  0.00     0.693 A 
HETATM    8  N6  UNL     1       1.684   0.149  -0.458  1.00  0.00    -0.023 N 
ATOM      9  H6  UNL     1       1.907   0.795  -1.215  1.00  0.00     0.203 HD
ENDROOT
BRANCH   7  10
HETATM   10  N4  UNL     1      -0.217   1.323  -0.047  1.00  0.00    -0.224 N 
ATOM     11  H4  UNL     1       0.062   1.934  -0.815  1.00  0.00     0.177 HD
BRANCH  10  12
HETATM   12  C4  UNL     1      -1.441   1.616   0.636  1.00  0.00     0.165 C 
BRANCH  12  13
HETATM   13  C5  UNL     1      -2.505   0.657   0.148  1.00  0.00     0.249 C 
BRANCH  13  14
HETATM   14  N5  UNL     1      -2.674   0.832  -1.285  1.00  0.00    -0.078 N 
ATOM     15  H53 UNL     1      -2.876   1.799  -1.538  1.00  0.00     0.274 HD
ATOM     16  H52 UNL     1      -1.797   0.732  -1.795  1.00  0.00     0.274 HD
ATOM     17  H51 UNL     1      -3.391   0.186  -1.614  1.00  0.00     0.274 HD
ENDBRANCH  13  14
ENDBRANCH  12  13
ENDBRANCH  10  12
ENDBRANCH   7  10
BRANCH   1  18
HETATM   18  N1  UNL     1       3.606  -1.017  -0.893  1.00  0.00    -0.234 N 
ATOM     19  H12 UNL     1       4.244  -1.787  -0.691  1.00  0.00     0.174 HD
ATOM     20  H11 UNL     1       3.853  -0.386  -1.655  1.00  0.00     0.174 HD
ENDBRANCH   1  18
TORSDOF 5
