REMARK  5 active torsions:
REMARK  status: ('A' for Active; 'I' for Inactive)
REMARK    1  A    between atoms: N1_1  and  C1_4 
REMARK    2  A    between atoms: C3_10  and  N4_11 
REMARK    3  A    between atoms: N4_11  and  C4_13 
REMARK    4  A    between atoms: C4_13  and  C5_14 
REMARK    5  A    between atoms: C5_14  and  N5_15 
ROOT
HETATM    1  C1  UNL     1       2.690  -1.085   0.707  1.00  0.00     0.692 A 
HETATM    2  N2  UNL     1       3.246   0.099   0.395  1.00  0.00    -0.133 N 
ATOM      3  H2  UNL     1       4.245   0.227   0.558  1.00  0.00     0.205 HD
HETATM    4  N3  UNL     1       2.554   1.107  -0.115  1.00  0.00    -0.294 N 
ATOM      5  H3  UNL     1       3.022   1.986  -0.335  1.00  0.00     0.186 HD
HETATM    6  C2  UNL     1       1.234   0.973  -0.343  1.00  0.00     0.156 A 
HETATM    7  C3  UNL     1       0.622  -0.239  -0.033  1.00  0.00     0.134 A 
HETATM    8  N6  UNL     1       1.372  -1.229   0.483  1.00  0.00    -0.175 N 
ATOM      9  H6  UNL     1       0.927  -2.118   0.712  1.00  0.00     0.186 HD
ENDROOT
BRANCH   7  10
HETATM   10  N4  UNL     1      -0.643  -0.388  -0.244  1.00  0.00    -0.373 N 
ATOM     11  H4  UNL     1      -1.081  -1.280  -0.013  1.00  0.00     0.161 HD
BRANCH  10  12
HETATM   12  C4  UNL     1      -1.455   0.668  -0.796  1.00  0.00     0.148 C 
BRANCH  12  13
HETATM   13  C5  UNL     1      -2.922   0.329  -0.769  1.00  0.00     0.249 C 
BRANCH  13  14
HETATM   14  N5  UNL     1      -3.387   0.098   0.583  1.00  0.00    -0.078 N 
ATOM     15  H53 UNL     1      -2.830  -0.616   1.053  1.00  0.00     0.274 HD
ATOM     16  H52 UNL     1      -3.175   0.889   1.191  1.00  0.00     0.274 HD
ATOM     17  H51 UNL     1      -4.381  -0.132   0.601  1.00  0.00     0.274 HD
ENDBRANCH  13  14
ENDBRANCH  12  13
ENDBRANCH  10  12
ENDBRANCH   7  10
BRANCH   1  18
HETATM   18  N1  UNL     1       3.393  -2.072   1.212  1.00  0.00    -0.233 N 
ATOM     19  H12 UNL     1       4.393  -1.963   1.382  1.00  0.00     0.174 HD
ATOM     20  H11 UNL     1       2.971  -2.970   1.449  1.00  0.00     0.174 HD
ENDBRANCH   1  18
TORSDOF 5
