REMARK  5 active torsions:
REMARK  status: ('A' for Active; 'I' for Inactive)
REMARK    1  A    between atoms: C4_5  and  O1_6 
REMARK    2  A    between atoms: N2_8  and  C5_9 
REMARK    3  A    between atoms: C5_9  and  C6_10 
REMARK    4  A    between atoms: C6_10  and  C7_11 
REMARK    5  A    between atoms: C8_13  and  O2_14 
ROOT
HETATM    1  C1  UNL     1      -2.272   2.404  -0.044  1.00  0.00     0.150 C 
HETATM    2  N1  UNL     1      -1.845   1.031   0.133  1.00  0.00    -0.374 N 
HETATM    3  C2  UNL     1      -0.592   0.411  -0.148  1.00  0.00     0.094 A 
HETATM    4  C3  UNL     1      -0.641  -0.946   0.003  1.00  0.00     0.049 A 
HETATM    5  C4  UNL     1       0.625  -1.421  -0.296  1.00  0.00     0.155 A 
HETATM    6  N2  UNL     1       1.411  -0.391  -0.616  1.00  0.00    -0.306 N 
HETATM    7  C8  UNL     1       0.690   0.734  -0.533  1.00  0.00     0.172 A 
HETATM    8  C9  UNL     1      -2.007  -1.302   0.414  1.00  0.00     0.091 C 
HETATM    9 CL1  UNL     1      -1.990  -2.447   1.763  1.00  0.00    -0.111 Cl
HETATM   10  C10 UNL     1      -2.982  -1.605  -0.680  1.00  0.00     0.035 C 
HETATM   11  C11 UNL     1      -3.802  -0.380  -0.308  1.00  0.00     0.030 C 
HETATM   12  C12 UNL     1      -2.701  -0.009   0.669  1.00  0.00     0.112 C 
ENDROOT
BRANCH   6  13
HETATM   13  C5  UNL     1       2.785  -0.452  -0.994  1.00  0.00     0.135 C 
BRANCH  13  14
HETATM   14  C6  UNL     1       3.774  -0.376   0.117  1.00  0.00     0.052 C 
BRANCH  14  15
HETATM   15  C7  UNL     1       3.691   0.893   0.933  1.00  0.00     0.224 C 
HETATM   16  F1  UNL     1       4.684   0.797   1.915  1.00  0.00    -0.255 F 
ENDBRANCH  14  15
ENDBRANCH  13  14
ENDBRANCH   6  13
BRANCH   5  17
HETATM   17  O1  UNL     1       1.003  -2.750  -0.265  1.00  0.00    -0.345 OA
ATOM     18  H1  UNL     1       1.871  -3.076  -0.470  1.00  0.00     0.219 HD
ENDBRANCH   5  17
BRANCH   7  19
HETATM   19  O2  UNL     1       1.131   2.045  -0.788  1.00  0.00    -0.344 OA
ATOM     20  H2  UNL     1       2.015   2.268  -1.054  1.00  0.00     0.219 HD
ENDBRANCH   7  19
TORSDOF 5
