REMARK  5 active torsions:
REMARK  status: ('A' for Active; 'I' for Inactive)
REMARK    1  A    between atoms: C2_2  and  C3_3 
REMARK    2  A    between atoms: C3_3  and  C4_4 
REMARK       I    between atoms: C4_4  and  N1_6 
REMARK    3  A    between atoms: C5_7  and  O2_8 
REMARK    4  A    between atoms: C7_11  and  C8_12 
REMARK    5  A    between atoms: C13_19  and  O3_20 
ROOT
HETATM    1  C4  UNL     1       2.531  -0.474   0.142  1.00  0.00     0.232 C 
HETATM    2  O1  UNL     1       2.948  -0.753   1.283  1.00  0.00    -0.273 OA
HETATM    3  N1  UNL     1       1.126  -0.548  -0.176  1.00  0.00    -0.241 N 
HETATM    4  C5  UNL     1       0.582  -0.285  -1.380  1.00  0.00     0.151 A 
HETATM    5  C6  UNL     1      -0.813  -0.356  -1.248  1.00  0.00     0.068 A 
HETATM    6  C7  UNL     1      -1.106  -0.669   0.058  1.00  0.00     0.002 A 
HETATM    7  C13 UNL     1       0.152  -0.789   0.712  1.00  0.00     0.158 A 
ENDROOT
BRANCH   6   8
HETATM    8  C8  UNL     1      -2.417  -0.948   0.675  1.00  0.00     0.029 C 
HETATM    9  C9  UNL     1      -2.936   0.184   1.522  1.00  0.00     0.015 C 
HETATM   10  C10 UNL     1      -4.214   0.720   0.980  1.00  0.00     0.080 C 
HETATM   11  C11 UNL     1      -4.167   0.319  -0.491  1.00  0.00     0.244 C 
HETATM   12  F1  UNL     1      -5.453   0.260  -1.017  1.00  0.00    -0.206 F 
HETATM   13  F2  UNL     1      -3.419   1.268  -1.135  1.00  0.00    -0.206 F 
HETATM   14  C12 UNL     1      -3.468  -1.011  -0.469  1.00  0.00     0.088 C 
ENDBRANCH   6   8
BRANCH   7  15
HETATM   15  O3  UNL     1       0.254  -1.102   2.054  1.00  0.00    -0.345 OA
ATOM     16  H3  UNL     1      -0.437  -1.273   2.684  1.00  0.00     0.219 HD
ENDBRANCH   7  15
BRANCH   4  17
HETATM   17  O2  UNL     1       1.179   0.006  -2.591  1.00  0.00    -0.346 OA
ATOM     18  H2  UNL     1       0.795   0.191  -3.440  1.00  0.00     0.219 HD
ENDBRANCH   4  17
BRANCH   1  19
HETATM   19  C3  UNL     1       3.518  -0.054  -0.875  1.00  0.00     0.103 C 
BRANCH  19  20
HETATM   20  C2  UNL     1       4.800   0.474  -0.248  1.00  0.00     0.005 C 
HETATM   21  C1  UNL     1       4.420   1.694   0.572  1.00  0.00     0.005 C 
ENDBRANCH  19  20
ENDBRANCH   1  19
TORSDOF 5
