REMARK  6 active torsions:
REMARK  status: ('A' for Active; 'I' for Inactive)
REMARK    1  A    between atoms: C2_2  and  C3_3 
REMARK    2  A    between atoms: C10_10  and  O1_11 
REMARK    3  A    between atoms: N1_13  and  O2_14 
REMARK    4  A    between atoms: O2_14  and  C11_15 
REMARK    5  A    between atoms: C11_15  and  C12_16 
REMARK    6  A    between atoms: C13_18  and  O3_19 
ROOT
HETATM    1  C3  UNL     1      -2.611   0.672  -0.285  1.00  0.00     0.017 C 
HETATM    2  C4  UNL     1      -2.695  -0.804  -0.528  1.00  0.00     0.018 C 
HETATM    3  C5  UNL     1      -1.583  -1.113  -1.457  1.00  0.00     0.025 C 
HETATM    4  C6  UNL     1      -1.416   0.241  -2.190  1.00  0.00     0.019 C 
HETATM    5  C7  UNL     1      -1.291   1.054  -0.883  1.00  0.00     0.032 C 
HETATM    6  C8  UNL     1      -0.168   0.237  -0.315  1.00  0.00     0.011 A 
HETATM    7  C9  UNL     1      -0.318  -1.063  -0.666  1.00  0.00     0.010 A 
HETATM    8  C10 UNL     1       0.785  -1.793  -0.203  1.00  0.00     0.177 A 
HETATM    9  N1  UNL     1       1.573  -0.935   0.389  1.00  0.00    -0.175 N 
HETATM   10  C13 UNL     1       1.079   0.299   0.382  1.00  0.00     0.177 A 
ENDROOT
BRANCH   9  11
HETATM   11  O2  UNL     1       2.870  -1.209   0.662  1.00  0.00    -0.267 OA
BRANCH  11  12
HETATM   12  C11 UNL     1       3.729  -0.205   1.279  1.00  0.00     0.233 C 
BRANCH  12  13
HETATM   13  C12 UNL     1       4.918  -0.037   0.295  1.00  0.00     0.250 C 
HETATM   14  F1  UNL     1       4.292   0.332  -0.958  1.00  0.00    -0.253 F 
ENDBRANCH  12  13
ENDBRANCH  11  12
ENDBRANCH   9  11
BRANCH   8  15
HETATM   15  O1  UNL     1       0.937  -3.181  -0.371  1.00  0.00    -0.344 OA
ATOM     16  H1  UNL     1       1.685  -3.676  -0.057  1.00  0.00     0.219 HD
ENDBRANCH   8  15
BRANCH  10  17
HETATM   17  O3  UNL     1       1.494   1.486   0.888  1.00  0.00    -0.344 OA
ATOM     18  H3  UNL     1       2.322   1.527   1.351  1.00  0.00     0.219 HD
ENDBRANCH  10  17
BRANCH   1  19
HETATM   19  C2  UNL     1      -2.726   1.155   1.090  1.00  0.00    -0.032 C 
HETATM   20  C1  UNL     1      -3.758   1.970   1.408  1.00  0.00     0.007 C 
ENDBRANCH   1  19
TORSDOF 6
