REMARK  6 active torsions:
REMARK  status: ('A' for Active; 'I' for Inactive)
REMARK    1  A    between atoms: N1_4  and  C4_5 
REMARK    2  A    between atoms: C4_5  and  C5_6 
REMARK    3  A    between atoms: C4_5  and  C6_9 
REMARK    4  A    between atoms: C5_6  and  O1_7 
REMARK    5  A    between atoms: C7_15  and  N4_16 
REMARK       I    between atoms: N4_16  and  C8_18 
REMARK    6  A    between atoms: C8_18  and  C9_20 
ROOT
HETATM    1  C6  UNL     1      -0.644   1.057  -1.632  1.00  0.00     0.127 A 
HETATM    2  N2  UNL     1      -0.554   1.598  -2.884  1.00  0.00    -0.236 N 
ATOM      3  H2  UNL     1      -1.180   2.308  -3.265  1.00  0.00     0.197 HD
HETATM    4  O2  UNL     1       0.441   1.075  -3.508  1.00  0.00    -0.155 OA
HETATM    5  N3  UNL     1       1.061   0.197  -2.772  1.00  0.00    -0.223 N 
ATOM      6  H3  UNL     1       1.875  -0.358  -3.036  1.00  0.00     0.198 HD
HETATM    7  C7  UNL     1       0.415   0.169  -1.600  1.00  0.00     0.161 A 
ENDROOT
BRANCH   1   8
HETATM    8  C4  UNL     1      -1.692   1.223  -0.596  1.00  0.00     0.064 C 
BRANCH   8   9
HETATM    9  N1  UNL     1      -2.593   0.222  -0.346  1.00  0.00    -0.380 N 
HETATM   10  C3  UNL     1      -2.556  -0.796   0.566  1.00  0.00     0.127 C 
HETATM   11  C2  UNL     1      -4.001  -1.255   0.832  1.00  0.00     0.005 C 
HETATM   12  C1  UNL     1      -4.301  -2.552   0.062  1.00  0.00     0.012 C 
HETATM   13  C17 UNL     1      -4.893  -0.208   0.221  1.00  0.00     0.005 C 
HETATM   14  C16 UNL     1      -3.981   0.623  -0.591  1.00  0.00     0.127 C 
HETATM   15  C18 UNL     1      -5.605   0.658   1.200  1.00  0.00     0.012 C 
ENDBRANCH   8   9
BRANCH   8  16
HETATM   16  C5  UNL     1      -1.358   2.276   0.434  1.00  0.00     0.223 C 
BRANCH  16  17
HETATM   17  O1  UNL     1      -0.421   3.191  -0.053  1.00  0.00    -0.395 OA
ATOM     18  H1  UNL     1      -0.211   3.853   0.595  1.00  0.00     0.209 HD
ENDBRANCH  16  17
ENDBRANCH   8  16
ENDBRANCH   1   8
BRANCH   7  19
HETATM   19  N4  UNL     1       0.752  -0.483  -0.566  1.00  0.00    -0.309 N 
HETATM   20  C8  UNL     1       1.787  -1.398  -0.377  1.00  0.00     0.231 C 
HETATM   21  O3  UNL     1       1.721  -2.633  -0.657  1.00  0.00    -0.272 OA
ATOM     22  H4  UNL     1       0.175  -0.311   0.257  1.00  0.00     0.170 HD
BRANCH  20  23
HETATM   23  C9  UNL     1       3.106  -0.932   0.211  1.00  0.00     0.037 C 
HETATM   24  C10 UNL     1       3.231  -1.665   1.549  1.00  0.00     0.025 C 
HETATM   25  C11 UNL     1       4.197  -1.363  -0.701  1.00  0.00     0.019 C 
HETATM   26  C12 UNL     1       5.152  -0.291  -1.113  1.00  0.00     0.001 C 
HETATM   27  C13 UNL     1       5.524   0.493   0.154  1.00  0.00     0.000 C 
HETATM   28  C14 UNL     1       4.319   1.283   0.516  1.00  0.00     0.001 C 
HETATM   29  C15 UNL     1       3.022   0.521   0.476  1.00  0.00     0.019 C 
ENDBRANCH  20  23
ENDBRANCH   7  19
TORSDOF 6
