REMARK  7 active torsions:
REMARK  status: ('A' for Active; 'I' for Inactive)
REMARK    1  A    between atoms: O1_2  and  C2_3 
REMARK    2  A    between atoms: C2_3  and  C3_4 
REMARK    3  A    between atoms: C4_7  and  N2_8 
REMARK    4  A    between atoms: C7_11  and  N3_12 
REMARK    5  A    between atoms: C14_21  and  N5_22 
REMARK    6  A    between atoms: C17_25  and  C18_26 
REMARK    7  A    between atoms: C18_26  and  O2_27 
ROOT
HETATM    1  C3  UNL     1       0.546   1.719  -1.756  1.00  0.00     0.059 A 
HETATM    2  N1  UNL     1      -0.307   0.699  -1.619  1.00  0.00    -0.193 N 
ATOM      3  H1  UNL     1      -1.073   0.617  -2.287  1.00  0.00     0.184 HD
HETATM    4  C4  UNL     1      -0.207  -0.246  -0.625  1.00  0.00     0.682 A 
HETATM    5  N4  UNL     1       0.840  -0.057   0.186  1.00  0.00    -0.176 N 
ATOM      6  H4  UNL     1       0.961  -0.734   0.939  1.00  0.00     0.186 HD
HETATM    7  C14 UNL     1       1.748   0.929   0.114  1.00  0.00     0.127 A 
HETATM    8  C21 UNL     1       1.633   1.890  -0.868  1.00  0.00     0.008 A 
HETATM    9  C22 UNL     1       2.470   3.083  -0.955  1.00  0.00     0.054 C 
ENDROOT
BRANCH   4  10
HETATM   10  N2  UNL     1      -1.155  -1.244  -0.387  1.00  0.00    -0.217 N 
HETATM   11  C5  UNL     1      -1.436  -1.633   1.029  1.00  0.00     0.143 C 
HETATM   12  C6  UNL     1      -2.710  -0.744   1.265  1.00  0.00     0.056 C 
HETATM   13  C7  UNL     1      -3.610  -0.794   0.064  1.00  0.00     0.226 C 
HETATM   14  C12 UNL     1      -3.426  -1.995  -0.758  1.00  0.00     0.056 C 
HETATM   15  C13 UNL     1      -1.967  -1.937  -1.320  1.00  0.00     0.143 C 
BRANCH  13  16
HETATM   16  N3  UNL     1      -4.910  -0.342   0.425  1.00  0.00     0.093 N 
HETATM   17  C8  UNL     1      -5.552  -1.034   1.521  1.00  0.00     0.273 C 
HETATM   18  C9  UNL     1      -6.983  -0.478   1.388  1.00  0.00     0.032 C 
HETATM   19  C10 UNL     1      -7.234  -0.649  -0.105  1.00  0.00     0.032 C 
HETATM   20  C11 UNL     1      -5.874  -0.269  -0.649  1.00  0.00     0.273 C 
ENDBRANCH  13  16
ENDBRANCH   4  10
BRANCH   1  21
HETATM   21  C2  UNL     1       0.384   2.803  -2.735  1.00  0.00     0.225 C 
BRANCH  21  22
HETATM   22  O1  UNL     1       0.224   2.322  -4.098  1.00  0.00    -0.390 OA
HETATM   23  C1  UNL     1       1.414   1.557  -4.331  1.00  0.00     0.201 C 
ENDBRANCH  21  22
ENDBRANCH   1  21
BRANCH   7  24
HETATM   24  N5  UNL     1       2.940   0.805   0.878  1.00  0.00    -0.366 N 
HETATM   25  C15 UNL     1       2.823  -0.132   2.033  1.00  0.00     0.125 C 
HETATM   26  C16 UNL     1       4.170  -0.495   2.584  1.00  0.00     0.026 C 
HETATM   27  C17 UNL     1       5.141  -0.911   1.542  1.00  0.00     0.012 C 
HETATM   28  C19 UNL     1       5.205   0.094   0.412  1.00  0.00     0.026 C 
HETATM   29  C20 UNL     1       4.266   1.298   0.718  1.00  0.00     0.125 C 
BRANCH  27  30
HETATM   30  C18 UNL     1       6.546  -0.961   2.149  1.00  0.00     0.168 C 
BRANCH  30  31
HETATM   31  O2  UNL     1       7.501  -1.363   1.220  1.00  0.00    -0.400 OA
ATOM     32  H2  UNL     1       8.373  -1.394   1.597  1.00  0.00     0.209 HD
ENDBRANCH  30  31
ENDBRANCH  27  30
ENDBRANCH   7  24
TORSDOF 7
