REMARK  9 active torsions:
REMARK  status: ('A' for Active; 'I' for Inactive)
REMARK    1  A    between atoms: C7_7  and  O1_8 
REMARK    2  A    between atoms: C10_12  and  C12_14 
REMARK    3  A    between atoms: C12_14  and  C13_15 
REMARK    4  A    between atoms: C12_14  and  C18_24 
REMARK    5  A    between atoms: C13_15  and  C14_17 
REMARK    6  A    between atoms: C14_17  and  O3_18 
REMARK    7  A    between atoms: C18_24  and  O5_25 
REMARK    8  A    between atoms: C18_24  and  C21_29 
REMARK    9  A    between atoms: O5_25  and  C19_26 
ROOT
HETATM    1  C12 UNL     1      -0.522   0.823   0.218  1.00  0.00     0.040 C 
ENDROOT
BRANCH   1   2
HETATM    2  C10 UNL     1       0.916   0.880  -0.032  1.00  0.00    -0.006 C 
HETATM    3  C5  UNL     1       1.903  -0.047   0.496  1.00  0.00     0.009 C 
HETATM    4  C4  UNL     1       2.134  -0.126   1.973  1.00  0.00     0.011 C 
HETATM    5  C6  UNL     1       2.083  -1.414  -0.034  1.00  0.00     0.047 C 
HETATM    6  C3  UNL     1       3.416  -0.987   1.967  1.00  0.00     0.034 C 
HETATM    7  C2  UNL     1       3.265  -1.867   0.786  1.00  0.00    -0.082 C 
HETATM    8  C1  UNL     1       4.028  -2.888   0.482  1.00  0.00     0.015 C 
HETATM    9  C7  UNL     1       2.474  -1.262  -1.490  1.00  0.00     0.126 C 
HETATM   10  C8  UNL     1       1.397  -0.435  -2.145  1.00  0.00     0.033 C 
HETATM   11  C9  UNL     1       1.206   0.907  -1.570  1.00  0.00     0.017 C 
HETATM   12  C11 UNL     1       1.482   2.279   0.362  1.00  0.00     0.021 C 
BRANCH   9  13
HETATM   13  O1  UNL     1       2.382  -2.546  -2.069  1.00  0.00    -0.395 OA
ATOM     14  H1  UNL     1       2.627  -2.451  -2.982  1.00  0.00     0.210 HD
ENDBRANCH   9  13
ENDBRANCH   1   2
BRANCH   1  15
HETATM   15  C13 UNL     1      -1.369  -0.271  -0.188  1.00  0.00     0.224 C 
HETATM   16  O2  UNL     1      -1.979  -0.125  -1.271  1.00  0.00    -0.286 OA
BRANCH  15  17
HETATM   17  C14 UNL     1      -1.660  -1.571   0.441  1.00  0.00     0.262 A 
HETATM   18  O4  UNL     1      -1.453  -2.651  -0.478  1.00  0.00    -0.330 OA
HETATM   19  C15 UNL     1      -2.767  -2.400   0.171  1.00  0.00     0.122 A 
HETATM   20  C16 UNL     1      -3.023  -3.564   1.110  1.00  0.00     0.052 C 
HETATM   21  C17 UNL     1      -3.839  -2.210  -0.845  1.00  0.00     0.052 C 
BRANCH  17  22
HETATM   22  O3  UNL     1      -1.064  -1.727   1.695  1.00  0.00    -0.357 OA
ATOM     23  H3  UNL     1      -1.252  -2.565   2.101  1.00  0.00     0.213 HD
ENDBRANCH  17  22
ENDBRANCH  15  17
ENDBRANCH   1  15
BRANCH   1  24
HETATM   24  C18 UNL     1      -1.299   2.117   0.156  1.00  0.00     0.135 C 
BRANCH  24  25
HETATM   25  O5  UNL     1      -1.252   2.823  -1.019  1.00  0.00    -0.275 OA
BRANCH  25  26
HETATM   26  C19 UNL     1      -2.316   3.150  -1.787  1.00  0.00     0.260 C 
HETATM   27  C20 UNL     1      -2.190   3.924  -3.081  1.00  0.00     0.126 C 
HETATM   28  O6  UNL     1      -3.474   2.811  -1.437  1.00  0.00    -0.265 OA
ENDBRANCH  25  26
ENDBRANCH  24  25
BRANCH  24  29
HETATM   29  C21 UNL     1      -1.159   2.957   1.391  1.00  0.00     0.179 C 
HETATM   30  C22 UNL     1      -1.244   2.308   2.725  1.00  0.00     0.099 C 
HETATM   31  O7  UNL     1      -0.980   4.155   1.344  1.00  0.00    -0.291 OA
ENDBRANCH  24  29
ENDBRANCH   1  24
TORSDOF 9
