REMARK  7 active torsions:
REMARK  status: ('A' for Active; 'I' for Inactive)
REMARK    1  A    between atoms: N1_7  and  C7_8 
REMARK    2  A    between atoms: C7_8  and  C8_9 
REMARK    3  A    between atoms: C8_9  and  N2_10 
REMARK    4  A    between atoms: C10_15  and  C11_16 
REMARK    5  A    between atoms: N6_26  and  C17_27 
REMARK    6  A    between atoms: C20_30  and  C21_31 
REMARK    7  A    between atoms: C21_31  and  O1_32 
ROOT
HETATM    1  N2  UNL     1      -1.251   0.616   0.118  1.00  0.00    -0.373 N 
ATOM      2  H2  UNL     1      -1.166   1.632   0.137  1.00  0.00     0.161 HD
HETATM    3  C9  UNL     1      -0.166  -0.070   0.026  1.00  0.00     0.133 A 
HETATM    4  N3  UNL     1      -0.117  -1.416  -0.011  1.00  0.00    -0.330 N 
ATOM      5  H3  UNL     1      -0.988  -1.945   0.038  1.00  0.00     0.168 HD
HETATM    6  C10 UNL     1       1.056  -2.086  -0.112  1.00  0.00     0.088 A 
HETATM    7  N4  UNL     1       2.224  -1.424  -0.180  1.00  0.00    -0.330 N 
ATOM      8  H4  UNL     1       3.097  -1.946  -0.257  1.00  0.00     0.168 HD
HETATM    9  C14 UNL     1       2.252  -0.080  -0.148  1.00  0.00     0.143 A 
HETATM   10  C15 UNL     1       1.044   0.588  -0.045  1.00  0.00     0.122 A 
HETATM   11  N5  UNL     1       1.375   1.903  -0.036  1.00  0.00    -0.346 N 
ATOM     12  H5  UNL     1       0.720   2.682   0.031  1.00  0.00     0.167 HD
HETATM   13  C16 UNL     1       2.711   2.005  -0.130  1.00  0.00     0.188 A 
HETATM   14  N6  UNL     1       3.280   0.791  -0.201  1.00  0.00    -0.300 N 
ENDROOT
BRANCH   1  15
HETATM   15  C8  UNL     1      -2.565   0.063   0.195  1.00  0.00     0.151 C 
BRANCH  15  16
HETATM   16  C7  UNL     1      -3.536   1.177   0.460  1.00  0.00     0.293 C 
BRANCH  16  17
HETATM   17  N1  UNL     1      -4.900   0.798   0.566  1.00  0.00     0.098 N 
HETATM   18  C2  UNL     1      -5.258   0.009   1.704  1.00  0.00     0.219 C 
HETATM   19  C1  UNL     1      -5.925   0.928   2.713  1.00  0.00     0.043 C 
HETATM   20  C3  UNL     1      -6.266  -1.009   1.280  1.00  0.00     0.037 C 
HETATM   21  C4  UNL     1      -6.668  -0.615  -0.106  1.00  0.00     0.037 C 
HETATM   22  C5  UNL     1      -5.485   0.200  -0.591  1.00  0.00     0.219 C 
HETATM   23  C6  UNL     1      -5.929   1.314  -1.520  1.00  0.00     0.043 C 
ENDBRANCH  16  17
ENDBRANCH  15  16
ENDBRANCH   1  15
BRANCH   6  24
HETATM   24  C11 UNL     1       1.114  -3.571  -0.152  1.00  0.00     0.053 A 
HETATM   25  C12 UNL     1       2.366  -4.284   0.171  1.00  0.00     0.013 A 
HETATM   26  C13 UNL     1       2.025  -4.088  -1.274  1.00  0.00     0.013 A 
ENDBRANCH   6  24
BRANCH  14  27
HETATM   27  C17 UNL     1       4.709   0.488  -0.314  1.00  0.00     0.231 C 
HETATM   28  C18 UNL     1       5.339   0.294   1.017  1.00  0.00     0.057 C 
HETATM   29  C19 UNL     1       6.209   1.499   1.187  1.00  0.00     0.038 C 
HETATM   30  C20 UNL     1       6.061   2.260  -0.083  1.00  0.00     0.147 C 
HETATM   31  O2  UNL     1       5.337   1.511  -0.965  1.00  0.00    -0.359 OA
BRANCH  30  32
HETATM   32  C21 UNL     1       7.429   2.532  -0.718  1.00  0.00     0.196 C 
BRANCH  32  33
HETATM   33  O1  UNL     1       8.087   1.337  -0.978  1.00  0.00    -0.398 OA
ATOM     34  H1  UNL     1       8.935   1.506  -1.372  1.00  0.00     0.209 HD
ENDBRANCH  32  33
ENDBRANCH  30  32
ENDBRANCH  14  27
TORSDOF 7
