REMARK  7 active torsions:
REMARK  status: ('A' for Active; 'I' for Inactive)
REMARK    1  A    between atoms: C2_2  and  N1_4 
REMARK    2  A    between atoms: C5_6  and  N2_7 
REMARK    3  A    between atoms: C7_11  and  N3_12 
REMARK    4  A    between atoms: N3_12  and  C8_14 
REMARK    5  A    between atoms: C8_14  and  C9_15 
REMARK    6  A    between atoms: C9_15  and  N4_16 
REMARK    7  A    between atoms: N6_25  and  C15_27 
ROOT
HETATM    1  N1  UNL     1      -2.322   2.829   0.561  1.00  0.00    -0.336 N 
HETATM    2  C4  UNL     1      -1.511   3.887   0.693  1.00  0.00     0.130 A 
HETATM    3  C5  UNL     1      -0.175   3.440   0.570  1.00  0.00     0.136 A 
HETATM    4  C6  UNL     1      -0.225   2.098   0.365  1.00  0.00     0.087 A 
HETATM    5  C7  UNL     1       0.736   1.127   0.184  1.00  0.00     0.133 A 
HETATM    6  N5  UNL     1       0.312  -0.128   0.011  1.00  0.00    -0.176 N 
ATOM      7  H5  UNL     1       1.006  -0.863  -0.125  1.00  0.00     0.186 HD
HETATM    8  C14 UNL     1      -1.011  -0.469   0.009  1.00  0.00     0.681 A 
HETATM    9  N6  UNL     1      -1.344  -1.688  -0.158  1.00  0.00    -0.221 N 
ATOM     10  H6  UNL     1      -0.614  -2.388  -0.288  1.00  0.00     0.178 HD
HETATM   11  N7  UNL     1      -1.947   0.464   0.185  1.00  0.00    -0.175 N 
ATOM     12  H7  UNL     1      -2.935   0.209   0.184  1.00  0.00     0.186 HD
HETATM   13  C20 UNL     1      -1.577   1.739   0.363  1.00  0.00     0.140 A 
ENDROOT
BRANCH   5  14
HETATM   14  N3  UNL     1       1.964   1.366   0.191  1.00  0.00    -0.373 N 
ATOM     15  H3  UNL     1       2.205   2.345   0.344  1.00  0.00     0.161 HD
BRANCH  14  16
HETATM   16  C8  UNL     1       3.078   0.503   0.022  1.00  0.00     0.140 C 
BRANCH  16  17
HETATM   17  C9  UNL     1       3.476  -0.200   1.295  1.00  0.00     0.136 C 
BRANCH  17  18
HETATM   18  N4  UNL     1       4.593  -1.072   1.175  1.00  0.00    -0.407 N 
HETATM   19  C10 UNL     1       5.838  -0.415   0.933  1.00  0.00     0.143 C 
HETATM   20  C11 UNL     1       6.961  -1.393   0.836  1.00  0.00     0.187 C 
HETATM   21  O3  UNL     1       6.530  -2.674   1.196  1.00  0.00    -0.388 OA
HETATM   22  C12 UNL     1       5.609  -3.051   0.220  1.00  0.00     0.187 C 
HETATM   23  C13 UNL     1       4.341  -2.248   0.408  1.00  0.00     0.143 C 
ENDBRANCH  17  18
ENDBRANCH  16  17
ENDBRANCH  14  16
ENDBRANCH   5  14
BRANCH   3  24
HETATM   24  N2  UNL     1       0.920   4.282   0.670  1.00  0.00    -0.113 N 
HETATM   25  O1  UNL     1       0.800   5.305   1.409  1.00  0.00    -0.532 OA
HETATM   26  O2  UNL     1       2.122   4.142   0.067  1.00  0.00    -0.532 OA
ENDBRANCH   3  24
BRANCH   1  27
HETATM   27  C2  UNL     1      -3.775   2.928   0.632  1.00  0.00     0.083 C 
HETATM   28  C1  UNL     1      -4.192   4.273   1.164  1.00  0.00     0.032 C 
HETATM   29  C3  UNL     1      -4.367   2.686  -0.749  1.00  0.00     0.032 C 
ENDBRANCH   1  27
BRANCH   9  30
HETATM   30  C15 UNL     1      -2.711  -2.101  -0.168  1.00  0.00     0.099 C 
HETATM   31  C16 UNL     1      -3.425  -1.940  -1.471  1.00  0.00     0.026 C 
HETATM   32  C17 UNL     1      -4.315  -3.163  -1.589  1.00  0.00     0.002 C 
HETATM   33  C18 UNL     1      -4.068  -3.998  -0.364  1.00  0.00     0.002 C 
HETATM   34  C19 UNL     1      -2.661  -3.642  -0.000  1.00  0.00     0.026 C 
ENDBRANCH   9  30
TORSDOF 7
