REMARK  6 active torsions:
REMARK  status: ('A' for Active; 'I' for Inactive)
REMARK    1  A    between atoms: C2_2  and  C4_4 
REMARK    2  A    between atoms: C8_12  and  N3_13 
REMARK    3  A    between atoms: N4_20  and  C15_21 
REMARK    4  A    between atoms: C15_21  and  C16_22 
REMARK    5  A    between atoms: C16_22  and  N5_23 
REMARK    6  A    between atoms: N5_23  and  C17_26 
ROOT
HETATM    1  C4  UNL     1      -3.175   2.112   0.102  1.00  0.00     0.085 A 
HETATM    2  N1  UNL     1      -2.072   2.814   0.413  1.00  0.00    -0.353 N 
ATOM      3  H1  UNL     1      -2.132   3.832   0.431  1.00  0.00     0.166 HD
HETATM    4  C5  UNL     1      -0.903   2.240   0.699  1.00  0.00     0.121 A 
HETATM    5  C6  UNL     1      -0.811   0.865   0.676  1.00  0.00     0.079 A 
HETATM    6  C7  UNL     1      -1.935   0.134   0.358  1.00  0.00     0.090 A 
HETATM    7  N2  UNL     1      -3.088   0.772   0.079  1.00  0.00    -0.342 N 
ATOM      8  H2  UNL     1      -3.916   0.224  -0.156  1.00  0.00     0.167 HD
HETATM    9  C8  UNL     1      -1.566  -1.189   0.410  1.00  0.00     0.075 A 
HETATM   10  C14 UNL     1      -0.235  -1.262   0.755  1.00  0.00     0.123 A 
HETATM   11  N4  UNL     1       0.190  -0.001   0.909  1.00  0.00    -0.350 N 
ENDROOT
BRANCH  11  12
HETATM   12  C15 UNL     1       1.558   0.363   1.281  1.00  0.00     0.156 C 
BRANCH  12  13
HETATM   13  C16 UNL     1       2.362   0.529   0.003  1.00  0.00     0.253 C 
BRANCH  13  14
HETATM   14  N5  UNL     1       3.698   0.882   0.401  1.00  0.00    -0.069 N 
ATOM     15  H52 UNL     1       3.688   1.703   1.006  1.00  0.00     0.277 HD
ATOM     16  H51 UNL     1       4.073   0.193   1.053  1.00  0.00     0.277 HD
BRANCH  14  17
HETATM   17  C17 UNL     1       4.607   1.079  -0.714  1.00  0.00     0.195 C 
HETATM   18  C18 UNL     1       4.734  -0.206  -1.459  1.00  0.00     0.034 C 
HETATM   19  C19 UNL     1       6.153  -0.580  -1.802  1.00  0.00     0.012 C 
HETATM   20  C20 UNL     1       6.875  -1.166  -0.585  1.00  0.00     0.074 C 
HETATM   21  S1  UNL     1       6.611   0.059   0.756  1.00  0.00    -0.167 SA
HETATM   22  C21 UNL     1       5.926   1.535  -0.097  1.00  0.00     0.106 C 
ENDBRANCH  14  17
ENDBRANCH  13  14
ENDBRANCH  12  13
ENDBRANCH  11  12
BRANCH   9  23
HETATM   23  N3  UNL     1      -2.404  -2.301   0.151  1.00  0.00    -0.374 N 
HETATM   24  C9  UNL     1      -1.893  -3.661   0.258  1.00  0.00     0.150 C 
HETATM   25  C10 UNL     1      -2.907  -4.417   1.063  1.00  0.00    -0.011 C 
HETATM   26  C11 UNL     1      -4.169  -4.307   0.699  1.00  0.00    -0.027 C 
HETATM   27  C12 UNL     1      -4.456  -3.432  -0.487  1.00  0.00     0.047 C 
HETATM   28  C13 UNL     1      -3.774  -2.111  -0.222  1.00  0.00     0.127 C 
ENDBRANCH   9  23
BRANCH   1  29
HETATM   29  C2  UNL     1      -4.428   2.852  -0.200  1.00  0.00     0.045 C 
HETATM   30  C1  UNL     1      -4.229   3.746  -1.413  1.00  0.00     0.017 C 
HETATM   31  C3  UNL     1      -4.793   3.684   0.998  1.00  0.00     0.017 C 
ENDBRANCH   1  29
TORSDOF 6
