REMARK  6 active torsions:
REMARK  status: ('A' for Active; 'I' for Inactive)
REMARK    1  A    between atoms: C4_4  and  S1_5 
REMARK    2  A    between atoms: S1_5  and  C5_6 
REMARK    3  A    between atoms: C5_6  and  C6_7 
REMARK    4  A    between atoms: C6_7  and  N1_8 
REMARK    5  A    between atoms: N4_17  and  C10_18 
REMARK    6  A    between atoms: N5_21  and  C13_22 
ROOT
HETATM    1  N1  UNL     1       3.601  -1.149  -0.246  1.00  0.00    -0.370 N 
ATOM      2  H1  UNL     1       4.412  -1.747  -0.091  1.00  0.00     0.161 HD
HETATM    3  C7  UNL     1       2.500  -1.718  -0.010  1.00  0.00     0.185 A 
HETATM    4  N2  UNL     1       2.588  -3.021   0.406  1.00  0.00    -0.280 N 
ATOM      5  H2  UNL     1       3.496  -3.474   0.506  1.00  0.00     0.188 HD
HETATM    6  N3  UNL     1       1.485  -3.673   0.672  1.00  0.00    -0.287 N 
ATOM      7  H3  UNL     1       1.560  -4.642   0.981  1.00  0.00     0.188 HD
HETATM    8  C8  UNL     1       0.234  -3.125   0.558  1.00  0.00     0.097 A 
HETATM    9  C9  UNL     1      -0.971  -3.882   0.869  1.00  0.00     0.091 C 
HETATM   10  N4  UNL     1       0.088  -1.863   0.158  1.00  0.00    -0.294 N 
HETATM   11  C21 UNL     1       1.243  -1.188  -0.118  1.00  0.00     0.294 A 
HETATM   12  O1  UNL     1       1.169   0.029  -0.508  1.00  0.00    -0.264 OA
ENDROOT
BRANCH   1  13
HETATM   13  C6  UNL     1       3.932   0.152  -0.682  1.00  0.00     0.132 C 
BRANCH  13  14
HETATM   14  C5  UNL     1       4.144   1.130   0.474  1.00  0.00     0.100 C 
BRANCH  14  15
HETATM   15  S1  UNL     1       5.495   0.558   1.516  1.00  0.00    -0.109 SA
BRANCH  15  16
HETATM   16  C4  UNL     1       7.072   0.680   0.707  1.00  0.00     0.086 A 
HETATM   17  C3  UNL     1       7.374   1.200  -0.535  1.00  0.00     0.064 A 
HETATM   18  C2  UNL     1       8.748   1.084  -0.776  1.00  0.00     0.024 A 
HETATM   19  C1  UNL     1       9.442   1.536  -2.009  1.00  0.00     0.070 C 
HETATM   20  N7  UNL     1       9.231   0.502   0.321  1.00  0.00    -0.304 N 
HETATM   21  N6  UNL     1       8.274   0.260   1.192  1.00  0.00    -0.294 N 
ATOM     22  H7  UNL     1      10.214   0.274   0.467  1.00  0.00     0.186 HD
ATOM     23  H6  UNL     1       8.413  -0.180   2.102  1.00  0.00     0.187 HD
ENDBRANCH  15  16
ENDBRANCH  14  15
ENDBRANCH  13  14
ENDBRANCH   1  13
BRANCH  10  24
HETATM   24  C10 UNL     1      -1.098  -1.180   0.001  1.00  0.00     0.104 C 
HETATM   25  C11 UNL     1      -2.374  -1.726  -0.423  1.00  0.00     0.071 C 
HETATM   26  C12 UNL     1      -3.272  -0.543  -0.846  1.00  0.00     0.065 C 
HETATM   27  N5  UNL     1      -3.177   0.584  -0.052  1.00  0.00    -0.369 N 
HETATM   28  C19 UNL     1      -2.309   0.664   1.035  1.00  0.00     0.065 C 
HETATM   29  C20 UNL     1      -1.411  -0.469   1.339  1.00  0.00     0.071 C 
BRANCH  27  30
HETATM   30  C13 UNL     1      -4.401   1.322   0.150  1.00  0.00     0.088 C 
HETATM   31  C14 UNL     1      -4.931   1.858  -1.137  1.00  0.00     0.026 C 
HETATM   32  C15 UNL     1      -6.274   2.483  -1.036  1.00  0.00     0.002 C 
HETATM   33  C16 UNL     1      -7.097   1.979   0.120  1.00  0.00     0.000 C 
HETATM   34  C17 UNL     1      -6.763   0.551   0.484  1.00  0.00     0.002 C 
HETATM   35  C18 UNL     1      -5.346   0.509   0.960  1.00  0.00     0.026 C 
ENDBRANCH  27  30
ENDBRANCH  10  24
TORSDOF 6
