REMARK  9 active torsions:
REMARK  status: ('A' for Active; 'I' for Inactive)
REMARK    1  A    between atoms: N1_5  and  C5_6 
REMARK    2  A    between atoms: N2_9  and  C8_10 
REMARK    3  A    between atoms: C9_11  and  C10_12 
REMARK    4  A    between atoms: C10_12  and  O1_13 
REMARK    5  A    between atoms: C10_12  and  C11_15 
REMARK    6  A    between atoms: C10_12  and  C17_24 
REMARK    7  A    between atoms: N3_29  and  C22_30 
REMARK    8  A    between atoms: C22_30  and  C23_31 
REMARK    9  A    between atoms: C31_39  and  N4_40 
ROOT
HETATM    1  C10 UNL     1      -1.095  -1.349   0.683  1.00  0.00     0.131 C 
ENDROOT
BRANCH   1   2
HETATM    2  C9  UNL     1       0.086  -1.309   1.564  1.00  0.00     0.035 C 
HETATM    3  C8  UNL     1       1.225  -0.454   1.595  1.00  0.00     0.089 C 
BRANCH   3   4
HETATM    4  N2  UNL     1       2.211  -0.349   0.615  1.00  0.00    -0.370 N 
HETATM    5  C7  UNL     1       3.102  -1.392   0.358  1.00  0.00     0.065 C 
HETATM    6  C6  UNL     1       4.517  -0.908   0.652  1.00  0.00     0.071 C 
HETATM    7  C5  UNL     1       4.889  -0.050  -0.564  1.00  0.00     0.113 C 
HETATM    8  C30 UNL     1       3.759   0.903  -0.762  1.00  0.00     0.047 C 
HETATM    9  C29 UNL     1       2.806   0.945   0.416  1.00  0.00     0.129 C 
BRANCH   7  10
HETATM   10  N1  UNL     1       6.191   0.537  -0.446  1.00  0.00    -0.189 N 
HETATM   11  C4  UNL     1       6.437   1.777  -0.041  1.00  0.00     0.111 A 
HETATM   12  C3  UNL     1       7.734   2.235   0.032  1.00  0.00     0.043 A 
HETATM   13  C2  UNL     1       8.795   1.439  -0.305  1.00  0.00     0.024 A 
HETATM   14  C1  UNL     1      10.213   1.917  -0.235  1.00  0.00     0.068 C 
HETATM   15  N5  UNL     1       8.517   0.190  -0.711  1.00  0.00    -0.196 N 
HETATM   16  C31 UNL     1       7.256  -0.255  -0.782  1.00  0.00     0.678 A 
ATOM     17  H5  UNL     1       9.282  -0.433  -0.971  1.00  0.00     0.184 HD
BRANCH  16  18
HETATM   18  N4  UNL     1       7.054  -1.472  -1.181  1.00  0.00    -0.234 N 
ATOM     19  H42 UNL     1       6.093  -1.811  -1.235  1.00  0.00     0.174 HD
ATOM     20  H41 UNL     1       7.847  -2.062  -1.431  1.00  0.00     0.174 HD
ENDBRANCH  16  18
ENDBRANCH   7  10
ENDBRANCH   3   4
ENDBRANCH   1   2
BRANCH   1  21
HETATM   21  O1  UNL     1      -1.786  -2.485   1.287  1.00  0.00    -0.378 OA
ATOM     22  H1  UNL     1      -2.547  -2.511   0.719  1.00  0.00     0.211 HD
ENDBRANCH   1  21
BRANCH   1  23
HETATM   23  C11 UNL     1      -0.953  -1.861  -0.694  1.00  0.00     0.062 A 
HETATM   24  C12 UNL     1      -0.432  -1.143  -1.760  1.00  0.00     0.129 A 
HETATM   25  F1  UNL     1      -0.177   0.163  -1.578  1.00  0.00    -0.205 F 
HETATM   26  C13 UNL     1      -0.231  -1.644  -3.020  1.00  0.00     0.046 A 
HETATM   27  C14 UNL     1      -0.546  -2.931  -3.319  1.00  0.00     0.048 A 
HETATM   28  C15 UNL     1      -1.072  -3.707  -2.314  1.00  0.00     0.155 A 
HETATM   29  F2  UNL     1      -1.390  -4.990  -2.601  1.00  0.00    -0.203 F 
HETATM   30  C16 UNL     1      -1.260  -3.175  -1.058  1.00  0.00     0.167 A 
HETATM   31  F3  UNL     1      -1.797  -4.042  -0.136  1.00  0.00    -0.202 F 
ENDBRANCH   1  23
BRANCH   1  32
HETATM   32  C17 UNL     1      -2.128  -0.275   0.853  1.00  0.00     0.131 C 
HETATM   33  C18 UNL     1      -2.331   0.159   2.278  1.00  0.00     0.030 C 
HETATM   34  C19 UNL     1      -3.171  -0.772   3.095  1.00  0.00     0.007 C 
HETATM   35  C20 UNL     1      -4.389  -1.293   2.393  1.00  0.00     0.045 C 
HETATM   36  C21 UNL     1      -4.325  -1.293   0.901  1.00  0.00     0.063 C 
HETATM   37  N3  UNL     1      -3.384  -0.481   0.268  1.00  0.00    -0.365 N 
BRANCH  37  38
HETATM   38  C22 UNL     1      -3.882   0.317  -0.755  1.00  0.00     0.068 C 
BRANCH  38  39
HETATM   39  C23 UNL     1      -4.250   1.733  -0.535  1.00  0.00     0.024 C 
HETATM   40  C24 UNL     1      -4.747   2.297  -1.870  1.00  0.00     0.010 C 
HETATM   41  C25 UNL     1      -6.094   1.795  -2.260  1.00  0.00     0.001 C 
HETATM   42  C26 UNL     1      -7.076   2.367  -1.228  1.00  0.00     0.000 C 
HETATM   43  C27 UNL     1      -6.707   1.672   0.065  1.00  0.00     0.001 C 
HETATM   44  C28 UNL     1      -5.317   2.008   0.467  1.00  0.00     0.010 C 
ENDBRANCH  38  39
ENDBRANCH  37  38
ENDBRANCH   1  32
TORSDOF 9
