REMARK  6 active torsions:
REMARK  status: ('A' for Active; 'I' for Inactive)
REMARK       I    between atoms: C1_2  and  N1_3 
REMARK    1  A    between atoms: C1_2  and  C11_15 
REMARK    2  A    between atoms: N1_3  and  C2_5 
REMARK    3  A    between atoms: C2_5  and  C3_6 
REMARK    4  A    between atoms: N2_10  and  C7_11 
REMARK    5  A    between atoms: N3_20  and  C15_21 
REMARK    6  A    between atoms: C15_21  and  C16_22 
ROOT
HETATM    1  C11 UNL     1       0.805   0.017  -0.744  1.00  0.00     0.171 C 
HETATM    2  C12 UNL     1       1.412  -1.219  -1.395  1.00  0.00     0.033 C 
HETATM    3  C13 UNL     1       2.352  -0.704  -2.470  1.00  0.00     0.105 C 
HETATM    4  C14 UNL     1       3.015   0.553  -2.032  1.00  0.00     0.230 C 
HETATM    5  O2  UNL     1       3.525   1.336  -2.891  1.00  0.00    -0.273 OA
HETATM    6  N3  UNL     1       3.072   0.873  -0.615  1.00  0.00    -0.266 N 
HETATM    7  C22 UNL     1       1.862   0.599   0.102  1.00  0.00     0.243 C 
HETATM    8  O3  UNL     1       1.816   0.864   1.306  1.00  0.00    -0.272 OA
ENDROOT
BRANCH   1   9
HETATM    9  C1  UNL     1      -0.476  -0.257  -0.095  1.00  0.00     0.234 C 
HETATM   10  O1  UNL     1      -0.567  -0.121   1.117  1.00  0.00    -0.272 OA
HETATM   11  N1  UNL     1      -1.546  -0.667  -0.916  1.00  0.00    -0.340 N 
ATOM     12  H1  UNL     1      -1.290  -0.748  -1.900  1.00  0.00     0.167 HD
BRANCH  11  13
HETATM   13  C2  UNL     1      -2.875  -0.984  -0.667  1.00  0.00     0.070 C 
BRANCH  13  14
HETATM   14  C3  UNL     1      -3.843   0.086  -0.284  1.00  0.00     0.042 C 
HETATM   15  C4  UNL     1      -3.495   0.822   0.941  1.00  0.00     0.013 C 
HETATM   16  C5  UNL     1      -4.603   1.773   1.361  1.00  0.00     0.020 C 
HETATM   17  C6  UNL     1      -5.751   1.649   0.399  1.00  0.00     0.117 C 
HETATM   18  N2  UNL     1      -6.166   0.299   0.394  1.00  0.00    -0.407 N 
HETATM   19  C10 UNL     1      -5.225  -0.592  -0.125  1.00  0.00     0.127 C 
BRANCH  18  20
HETATM   20  C7  UNL     1      -7.527   0.061   0.062  1.00  0.00     0.079 A 
HETATM   21  C8  UNL     1      -8.199  -1.055   0.874  1.00  0.00     0.027 A 
HETATM   22  C9  UNL     1      -7.957  -1.206  -0.594  1.00  0.00     0.027 A 
ENDBRANCH  18  20
ENDBRANCH  13  14
ENDBRANCH  11  13
ENDBRANCH   1   9
BRANCH   6  23
HETATM   23  C15 UNL     1       4.261   1.430  -0.115  1.00  0.00     0.080 C 
BRANCH  23  24
HETATM   24  C16 UNL     1       5.323   0.483   0.346  1.00  0.00     0.025 C 
HETATM   25  C17 UNL     1       6.505   1.326   0.823  1.00  0.00     0.010 C 
HETATM   26  C18 UNL     1       7.596   0.502   1.424  1.00  0.00     0.001 C 
HETATM   27  C19 UNL     1       7.370  -0.980   1.245  1.00  0.00     0.000 C 
HETATM   28  C20 UNL     1       6.024  -1.419   1.708  1.00  0.00     0.001 C 
HETATM   29  C21 UNL     1       4.928  -0.391   1.509  1.00  0.00     0.010 C 
ENDBRANCH  23  24
ENDBRANCH   6  23
TORSDOF 6
