REMARK  15 active torsions:
REMARK  status: ('A' for Active; 'I' for Inactive)
REMARK    1  A    between atoms: C3_3  and  N1_4 
REMARK    2  A    between atoms: N1_4  and  C4_6 
REMARK    3  A    between atoms: C4_6  and  N2_7 
REMARK    4  A    between atoms: N2_7  and  N3_8 
REMARK    5  A    between atoms: C5_11  and  N4_12 
REMARK       I    between atoms: N4_12  and  C6_14 
REMARK    6  A    between atoms: C6_14  and  C7_16 
REMARK    7  A    between atoms: C7_16  and  C8_17 
REMARK    8  A    between atoms: C8_17  and  C9_18 
REMARK    9  A    between atoms: C15_24  and  C16_25 
REMARK   10  A    between atoms: C16_25  and  C17_26 
REMARK   11  A    between atoms: N6_35  and  C23_36 
REMARK   12  A    between atoms: C24_37  and  C25_38 
REMARK   13  A    between atoms: C25_38  and  N7_39 
REMARK   14  A    between atoms: C25_38  and  C26_43 
REMARK   15  A    between atoms: C26_43  and  C27_44 
ROOT
HETATM    1  C1  UNL     1      -2.795   1.094   2.242  1.00  0.00     0.073 C 
HETATM    2  C2  UNL     1      -1.938   1.153   1.041  1.00  0.00     0.059 A 
HETATM    3  C3  UNL     1      -0.591   1.492   1.228  1.00  0.00     0.087 A 
HETATM    4  C5  UNL     1       0.261   1.529   0.144  1.00  0.00     0.088 A 
HETATM    5  C15 UNL     1      -0.260   1.229  -1.079  1.00  0.00     0.059 A 
HETATM    6  N5  UNL     1      -1.572   0.912  -1.180  1.00  0.00    -0.296 N 
ATOM      7  H5  UNL     1      -1.929   0.693  -2.110  1.00  0.00     0.187 HD
HETATM    8  N6  UNL     1      -2.446   0.861  -0.155  1.00  0.00    -0.270 N 
ENDROOT
BRANCH   4   9
HETATM    9  N4  UNL     1       1.587   1.934   0.381  1.00  0.00    -0.324 N 
HETATM   10  C6  UNL     1       2.555   1.062   1.004  1.00  0.00     0.222 C 
HETATM   11  O1  UNL     1       2.117  -0.065   1.307  1.00  0.00    -0.273 OA
ATOM     12  H4  UNL     1       1.874   2.873   0.104  1.00  0.00     0.169 HD
BRANCH  10  13
HETATM   13  C7  UNL     1       3.922   1.486   1.249  1.00  0.00     0.108 C 
BRANCH  13  14
HETATM   14  C8  UNL     1       4.852   0.555   1.922  1.00  0.00     0.047 C 
BRANCH  14  15
HETATM   15  C9  UNL     1       5.155  -0.712   1.290  1.00  0.00    -0.058 A 
HETATM   16  C10 UNL     1       4.538  -1.881   1.646  1.00  0.00     0.007 A 
HETATM   17  C11 UNL     1       4.834  -3.097   1.019  1.00  0.00     0.001 A 
HETATM   18  C12 UNL     1       5.767  -3.128   0.020  1.00  0.00     0.000 A 
HETATM   19  C13 UNL     1       6.388  -1.975  -0.344  1.00  0.00     0.001 A 
HETATM   20  C14 UNL     1       6.106  -0.774   0.263  1.00  0.00     0.007 A 
ENDBRANCH  14  15
ENDBRANCH  13  14
ENDBRANCH  10  13
ENDBRANCH   4   9
BRANCH   3  21
HETATM   21  N1  UNL     1      -0.116   1.802   2.551  1.00  0.00    -0.336 N 
ATOM     22  H1  UNL     1       0.247   1.074   3.166  1.00  0.00     0.168 HD
BRANCH  21  23
HETATM   23  C4  UNL     1      -0.172   3.160   2.969  1.00  0.00     0.301 C 
BRANCH  23  24
HETATM   24  N2  UNL     1       0.863   3.765   3.383  1.00  0.00    -0.328 NA
BRANCH  24  25
HETATM   25  N3  UNL     1       1.899   4.206   3.904  1.00  0.00    -0.279 N 
ATOM     26  H32 UNL     1       1.916   3.356   4.468  1.00  0.00     0.191 HD
ATOM     27  H31 UNL     1       2.731   4.693   4.237  1.00  0.00     0.191 HD
ENDBRANCH  24  25
ENDBRANCH  23  24
ENDBRANCH  21  23
ENDBRANCH   3  21
BRANCH   5  28
HETATM   28  C16 UNL     1       0.545   1.228  -2.349  1.00  0.00     0.099 C 
BRANCH  28  29
HETATM   29  C17 UNL     1       1.229  -0.061  -2.552  1.00  0.00    -0.052 A 
HETATM   30  C18 UNL     1       0.492  -1.209  -2.872  1.00  0.00     0.009 A 
HETATM   31  C19 UNL     1       1.119  -2.404  -3.113  1.00  0.00     0.024 A 
HETATM   32  C20 UNL     1       2.493  -2.487  -3.042  1.00  0.00     0.034 A 
HETATM   33 CL1  UNL     1       3.342  -3.971  -3.338  1.00  0.00    -0.084 Cl
HETATM   34  C21 UNL     1       3.228  -1.341  -2.722  1.00  0.00     0.024 A 
HETATM   35  C22 UNL     1       2.581  -0.154  -2.485  1.00  0.00     0.009 A 
ENDBRANCH  28  29
ENDBRANCH   5  28
BRANCH   8  36
HETATM   36  C23 UNL     1      -3.782   0.552  -0.421  1.00  0.00     0.114 C 
HETATM   37  C24 UNL     1      -4.879   0.524   0.209  1.00  0.00     0.025 C 
BRANCH  37  38
HETATM   38  C25 UNL     1      -6.144   0.097  -0.529  1.00  0.00     0.212 C 
BRANCH  38  39
HETATM   39  N7  UNL     1      -5.963   0.007  -1.935  1.00  0.00    -0.071 N 
ATOM     40  H73 UNL     1      -5.600   0.882  -2.312  1.00  0.00     0.275 HD
ATOM     41  H72 UNL     1      -5.183  -0.609  -2.163  1.00  0.00     0.275 HD
ATOM     42  H71 UNL     1      -6.809  -0.279  -2.428  1.00  0.00     0.275 HD
ENDBRANCH  38  39
BRANCH  38  43
HETATM   43  C26 UNL     1      -6.714  -1.139   0.090  1.00  0.00     0.080 C 
BRANCH  43  44
HETATM   44  C27 UNL     1      -7.938  -1.515  -0.663  1.00  0.00     0.055 C 
HETATM   45  N8  UNL     1      -8.999  -1.956  -0.098  1.00  0.00    -0.411 N 
ATOM     46  H82 UNL     1      -8.986  -2.047   0.918  1.00  0.00     0.155 HD
ATOM     47  H81 UNL     1      -9.839  -2.214  -0.615  1.00  0.00     0.155 HD
ENDBRANCH  43  44
ENDBRANCH  38  43
ENDBRANCH  37  38
ENDBRANCH   8  36
TORSDOF 15
