REMARK  13 active torsions:
REMARK  status: ('A' for Active; 'I' for Inactive)
REMARK    1  A    between atoms: N1_1  and  C1_4 
REMARK    2  A    between atoms: C5_9  and  C6_10 
REMARK    3  A    between atoms: C6_10  and  C7_11 
REMARK    4  A    between atoms: C7_11  and  C8_12 
REMARK    5  A    between atoms: C7_11  and  C22_32 
REMARK       I    between atoms: C8_12  and  N2_14 
REMARK    6  A    between atoms: N2_14  and  C9_15 
REMARK    7  A    between atoms: N2_14  and  C13_23 
REMARK    8  A    between atoms: C9_15  and  C10_16 
REMARK    9  A    between atoms: C10_16  and  C11_17 
REMARK   10  A    between atoms: C11_17  and  N3_18 
REMARK   11  A    between atoms: C13_23  and  C14_24 
REMARK   12  A    between atoms: C14_24  and  C15_25 
REMARK   13  A    between atoms: C15_25  and  C16_26 
ROOT
HETATM    1  C7  UNL     1      -1.573   0.271   0.964  1.00  0.00     0.135 C 
ENDROOT
BRANCH   1   2
HETATM    2  C6  UNL     1      -2.481  -0.757   1.517  1.00  0.00     0.077 C 
BRANCH   2   3
HETATM    3  C5  UNL     1      -3.383  -1.496   0.673  1.00  0.00     0.013 A 
HETATM    4  C4  UNL     1      -4.624  -0.956   0.347  1.00  0.00     0.044 A 
HETATM    5  C3  UNL     1      -5.496  -1.676  -0.419  1.00  0.00     0.016 A 
HETATM    6  C2  UNL     1      -5.145  -2.933  -0.867  1.00  0.00     0.067 A 
HETATM    7 BR1  UNL     1      -7.201  -0.910  -0.855  1.00  0.00    -0.051 Br
HETATM    8  C1  UNL     1      -3.917  -3.464  -0.542  1.00  0.00     0.100 A 
HETATM    9  N8  UNL     1      -3.086  -2.724   0.215  1.00  0.00    -0.346 N 
ATOM     10  H8  UNL     1      -2.177  -3.119   0.455  1.00  0.00     0.167 HD
BRANCH   8  11
HETATM   11  N1  UNL     1      -3.602  -4.645  -0.969  1.00  0.00    -0.385 N 
ATOM     12  H12 UNL     1      -4.232  -5.206  -1.543  1.00  0.00     0.157 HD
ATOM     13  H11 UNL     1      -2.692  -5.038  -0.728  1.00  0.00     0.157 HD
ENDBRANCH   8  11
ENDBRANCH   2   3
ENDBRANCH   1   2
BRANCH   1  14
HETATM   14  C8  UNL     1      -0.590  -0.135  -0.041  1.00  0.00     0.233 C 
HETATM   15  O1  UNL     1      -0.949  -1.047  -0.859  1.00  0.00    -0.272 OA
HETATM   16  N2  UNL     1       0.733   0.412  -0.158  1.00  0.00    -0.331 N 
BRANCH  16  17
HETATM   17  C9  UNL     1       1.324   1.435   0.605  1.00  0.00     0.068 C 
BRANCH  17  18
HETATM   18  C10 UNL     1       1.208   2.843   0.118  1.00  0.00     0.064 C 
BRANCH  18  19
HETATM   19  C11 UNL     1       1.805   3.075  -1.255  1.00  0.00     0.127 C 
BRANCH  19  20
HETATM   20  N3  UNL     1       1.657   4.489  -1.630  1.00  0.00    -0.367 N 
HETATM   21  C12 UNL     1       0.655   4.914  -2.315  1.00  0.00     0.196 C 
HETATM   22  N4  UNL     1       0.587   6.304  -2.638  1.00  0.00    -0.067 NA
HETATM   23  N5  UNL     1      -0.408   4.102  -2.785  1.00  0.00    -0.067 NA
ATOM     24  H3  UNL     1       2.372   5.155  -1.337  1.00  0.00     0.161 HD
ENDBRANCH  19  20
ENDBRANCH  18  19
ENDBRANCH  17  18
ENDBRANCH  16  17
BRANCH  16  25
HETATM   25  C13 UNL     1       1.546  -0.219  -1.222  1.00  0.00     0.131 C 
BRANCH  25  26
HETATM   26  C14 UNL     1       2.267  -1.440  -0.756  1.00  0.00     0.025 C 
BRANCH  26  27
HETATM   27  C15 UNL     1       3.218  -1.249   0.378  1.00  0.00     0.040 C 
BRANCH  27  28
HETATM   28  C16 UNL     1       3.897  -2.547   0.740  1.00  0.00    -0.058 A 
HETATM   29  C17 UNL     1       3.353  -3.398   1.674  1.00  0.00     0.007 A 
HETATM   30  C18 UNL     1       3.999  -4.578   1.983  1.00  0.00     0.001 A 
HETATM   31  C19 UNL     1       5.186  -4.927   1.373  1.00  0.00     0.000 A 
HETATM   32  C20 UNL     1       5.760  -4.079   0.421  1.00  0.00     0.001 A 
HETATM   33  C21 UNL     1       5.083  -2.914   0.142  1.00  0.00     0.007 A 
ENDBRANCH  27  28
ENDBRANCH  26  27
ENDBRANCH  25  26
ENDBRANCH  16  25
ENDBRANCH   1  14
BRANCH   1  34
HETATM   34  C22 UNL     1      -2.245   1.510   0.530  1.00  0.00     0.039 A 
HETATM   35  C23 UNL     1      -2.796   1.825  -0.681  1.00  0.00     0.114 A 
HETATM   36  N6  UNL     1      -3.324   3.054  -0.635  1.00  0.00    -0.360 N 
HETATM   37  C24 UNL     1      -3.114   3.531   0.605  1.00  0.00     0.180 A 
ATOM     38  H6  UNL     1      -3.797   3.538  -1.398  1.00  0.00     0.166 HD
HETATM   39  N7  UNL     1      -2.456   2.583   1.308  1.00  0.00    -0.354 N 
ATOM     40  H7  UNL     1      -2.164   2.670   2.282  1.00  0.00     0.166 HD
ENDBRANCH   1  34
TORSDOF 13
