REMARK  14 active torsions:
REMARK  status: ('A' for Active; 'I' for Inactive)
REMARK    1  A    between atoms: C2_2  and  N1_3 
REMARK    2  A    between atoms: C2_2  and  C4_8 
REMARK       I    between atoms: C4_8  and  N4_10 
REMARK    3  A    between atoms: N4_10  and  C5_12 
REMARK    4  A    between atoms: C5_12  and  C6_13 
REMARK    5  A    between atoms: C9_16  and  C10_17 
REMARK    6  A    between atoms: C10_17  and  C11_18 
REMARK    7  A    between atoms: C11_18  and  C12_19 
REMARK    8  A    between atoms: C12_19  and  N5_20 
REMARK    9  A    between atoms: N5_20  and  C13_22 
REMARK   10  A    between atoms: C14_25  and  C15_26 
REMARK   11  A    between atoms: C18_31  and  N8_32 
REMARK   12  A    between atoms: N8_32  and  C19_34 
REMARK   13  A    between atoms: C19_34  and  C20_35 
REMARK   14  A    between atoms: C20_35  and  C21_36 
ROOT
HETATM    1  N5  UNL     1      -1.584  -1.921  -0.644  1.00  0.00    -0.205 N 
ATOM      2  H5  UNL     1      -1.864  -2.685  -0.029  1.00  0.00     0.183 HD
ENDROOT
BRANCH   1   3
HETATM    3  C12 UNL     1      -0.204  -1.824  -0.913  1.00  0.00     0.079 C 
BRANCH   3   4
HETATM    4  C11 UNL     1       0.240  -0.859  -1.957  1.00  0.00     0.049 C 
BRANCH   4   5
HETATM    5  C10 UNL     1       1.738  -0.864  -2.211  1.00  0.00     0.043 C 
BRANCH   5   6
HETATM    6  C9  UNL     1       2.441  -0.500  -0.979  1.00  0.00    -0.058 A 
HETATM    7  C8  UNL     1       2.646   0.852  -0.737  1.00  0.00     0.007 A 
HETATM    8  C7  UNL     1       3.321   1.193   0.414  1.00  0.00     0.009 A 
HETATM    9  C6  UNL     1       3.773   0.236   1.289  1.00  0.00    -0.041 A 
HETATM   10  C28 UNL     1       3.556  -1.086   1.023  1.00  0.00     0.009 A 
HETATM   11  C27 UNL     1       2.888  -1.482  -0.113  1.00  0.00     0.007 A 
BRANCH   9  12
HETATM   12  C5  UNL     1       4.482   0.644   2.513  1.00  0.00     0.161 C 
BRANCH  12  13
HETATM   13  N4  UNL     1       5.789   1.151   2.154  1.00  0.00    -0.355 N 
HETATM   14  C4  UNL     1       6.842   0.274   1.812  1.00  0.00     0.240 C 
HETATM   15  O1  UNL     1       6.658  -0.960   1.817  1.00  0.00    -0.271 OA
ATOM     16  H4  UNL     1       5.952   2.158   2.148  1.00  0.00     0.162 HD
BRANCH  14  17
HETATM   17  C2  UNL     1       8.174   0.806   1.447  1.00  0.00     0.171 C 
HETATM   18  C1  UNL     1       8.642   1.623   2.650  1.00  0.00     0.042 C 
BRANCH  17  19
HETATM   19  N1  UNL     1       9.066  -0.281   1.192  1.00  0.00    -0.354 N 
HETATM   20  C3  UNL     1       9.852  -0.346   0.179  1.00  0.00     0.197 C 
HETATM   21  N2  UNL     1       9.902   0.690  -0.808  1.00  0.00    -0.067 NA
HETATM   22  N3  UNL     1      10.674  -1.499   0.090  1.00  0.00    -0.067 NA
ATOM     23  H1  UNL     1       9.079  -1.054   1.857  1.00  0.00     0.162 HD
ENDBRANCH  17  19
ENDBRANCH  14  17
ENDBRANCH  12  13
ENDBRANCH   9  12
ENDBRANCH   5   6
ENDBRANCH   4   5
ENDBRANCH   3   4
ENDBRANCH   1   3
BRANCH   1  24
HETATM   24  C13 UNL     1      -2.530  -1.176  -1.070  1.00  0.00     0.697 A 
HETATM   25  N6  UNL     1      -2.404  -0.120  -1.881  1.00  0.00    -0.179 N 
HETATM   26  C14 UNL     1      -3.444   0.613  -2.280  1.00  0.00     0.117 A 
ATOM     27  H6  UNL     1      -1.472   0.136  -2.208  1.00  0.00     0.185 HD
HETATM   28  N7  UNL     1      -4.697   0.297  -1.859  1.00  0.00    -0.179 N 
HETATM   29  C18 UNL     1      -4.883  -0.754  -1.043  1.00  0.00     0.694 A 
ATOM     30  H7  UNL     1      -5.494   0.856  -2.162  1.00  0.00     0.185 HD
HETATM   31  N9  UNL     1      -3.816  -1.462  -0.667  1.00  0.00    -0.022 N 
ATOM     32  H9  UNL     1      -3.961  -2.259  -0.047  1.00  0.00     0.203 HD
BRANCH  26  33
HETATM   33  C15 UNL     1      -3.298   1.796  -3.182  1.00  0.00     0.054 A 
HETATM   34  C16 UNL     1      -4.303   1.982  -4.262  1.00  0.00     0.013 A 
HETATM   35  C17 UNL     1      -4.265   2.917  -3.025  1.00  0.00     0.013 A 
ENDBRANCH  26  33
BRANCH  29  36
HETATM   36  N8  UNL     1      -6.055  -1.055  -0.641  1.00  0.00    -0.225 N 
ATOM     37  H8  UNL     1      -6.111  -1.866  -0.025  1.00  0.00     0.177 HD
BRANCH  36  38
HETATM   38  C19 UNL     1      -7.289  -0.425  -0.928  1.00  0.00     0.142 C 
BRANCH  38  39
HETATM   39  C20 UNL     1      -7.780   0.479   0.183  1.00  0.00     0.058 C 
BRANCH  39  40
HETATM   40  C21 UNL     1      -7.980  -0.271   1.449  1.00  0.00    -0.057 A 
HETATM   41  C22 UNL     1      -6.923  -0.371   2.325  1.00  0.00     0.007 A 
HETATM   42  C23 UNL     1      -7.131  -1.075   3.493  1.00  0.00     0.001 A 
HETATM   43  C24 UNL     1      -8.350  -1.657   3.776  1.00  0.00     0.000 A 
HETATM   44  C25 UNL     1      -9.421  -1.559   2.896  1.00  0.00     0.001 A 
HETATM   45  C26 UNL     1      -9.203  -0.852   1.728  1.00  0.00     0.007 A 
ENDBRANCH  39  40
ENDBRANCH  38  39
ENDBRANCH  36  38
ENDBRANCH  29  36
ENDBRANCH   1  24
TORSDOF 14
