REMARK  15 active torsions:
REMARK  status: ('A' for Active; 'I' for Inactive)
REMARK    1  A    between atoms: C2_2  and  C3_3 
REMARK    2  A    between atoms: C3_3  and  N1_4 
REMARK       I    between atoms: C4_6  and  N3_8 
REMARK    3  A    between atoms: N3_8  and  C5_10 
REMARK    4  A    between atoms: C5_10  and  C6_11 
REMARK    5  A    between atoms: C6_11  and  C7_12 
REMARK    6  A    between atoms: C7_12  and  N4_13 
REMARK    7  A    between atoms: C8_15  and  N5_17 
REMARK    8  A    between atoms: N5_17  and  C10_19 
REMARK    9  A    between atoms: C10_19  and  C11_20 
REMARK   10  A    between atoms: C11_20  and  N6_21 
REMARK   11  A    between atoms: N7_24  and  C14_25 
REMARK   12  A    between atoms: C14_25  and  C15_26 
REMARK   13  A    between atoms: C15_26  and  C16_27 
REMARK   14  A    between atoms: C16_27  and  N8_28 
REMARK   15  A    between atoms: N8_28  and  C17_30 
ROOT
HETATM    1  N6  UNL     1      -1.081  -0.908   1.120  1.00  0.00    -0.388 N 
HETATM    2  C12 UNL     1      -1.332  -1.266  -0.199  1.00  0.00     0.152 C 
HETATM    3  C13 UNL     1      -2.855  -1.212  -0.428  1.00  0.00     0.292 C 
HETATM    4  N7  UNL     1      -3.473  -1.776   0.760  1.00  0.00     0.091 N 
HETATM    5  C24 UNL     1      -3.428  -0.695   1.750  1.00  0.00     0.292 C 
HETATM    6  C25 UNL     1      -2.038  -0.143   1.833  1.00  0.00     0.152 C 
ENDROOT
BRANCH   1   7
HETATM    7  C11 UNL     1       0.197  -1.001   1.701  1.00  0.00     0.077 C 
BRANCH   7   8
HETATM    8  C10 UNL     1       1.260  -0.102   1.192  1.00  0.00     0.165 C 
BRANCH   8   9
HETATM    9  N5  UNL     1       1.687  -0.340  -0.159  1.00  0.00    -0.376 N 
ATOM     10  H5  UNL     1       1.412   0.290  -0.912  1.00  0.00     0.161 HD
BRANCH   9  11
HETATM   11  C8  UNL     1       2.495  -1.465  -0.419  1.00  0.00     0.069 C 
HETATM   12  N4  UNL     1       3.768  -1.321  -0.165  1.00  0.00    -0.380 N 
ATOM     13  H4  UNL     1       4.401  -2.102  -0.338  1.00  0.00     0.160 HD
HETATM   14  C9  UNL     1       2.030  -2.742  -0.941  1.00  0.00     0.088 C 
BRANCH  12  15
HETATM   15  C7  UNL     1       4.309  -0.070   0.361  1.00  0.00     0.122 C 
BRANCH  15  16
HETATM   16  C6  UNL     1       5.564   0.299  -0.360  1.00  0.00     0.039 C 
BRANCH  16  17
HETATM   17  C5  UNL     1       6.642  -0.739  -0.210  1.00  0.00     0.123 C 
BRANCH  17  18
HETATM   18  N3  UNL     1       7.791  -0.290  -0.945  1.00  0.00    -0.365 N 
HETATM   19  C4  UNL     1       8.554   0.843  -0.557  1.00  0.00     0.183 C 
HETATM   20  N1  UNL     1       9.630   0.710   0.130  1.00  0.00    -0.365 N 
HETATM   21  N2  UNL     1       8.128   2.169  -0.937  1.00  0.00    -0.064 NA
ATOM     22  H1  UNL     1       9.949  -0.218   0.409  1.00  0.00     0.162 HD
ATOM     23  H3  UNL     1       8.070  -0.806  -1.779  1.00  0.00     0.162 HD
BRANCH  20  24
HETATM   24  C3  UNL     1      10.388   1.882   0.506  1.00  0.00     0.122 C 
BRANCH  24  25
HETATM   25  C2  UNL     1      11.500   2.063  -0.521  1.00  0.00     0.015 C 
HETATM   26  C1  UNL     1      12.411   0.874  -0.551  1.00  0.00     0.006 C 
ENDBRANCH  24  25
ENDBRANCH  20  24
ENDBRANCH  17  18
ENDBRANCH  16  17
ENDBRANCH  15  16
ENDBRANCH  12  15
ENDBRANCH   9  11
ENDBRANCH   8   9
ENDBRANCH   7   8
ENDBRANCH   1   7
BRANCH   4  27
HETATM   27  C14 UNL     1      -4.753  -2.345   0.567  1.00  0.00     0.277 C 
BRANCH  27  28
HETATM   28  C15 UNL     1      -5.788  -1.265   0.287  1.00  0.00     0.074 C 
BRANCH  28  29
HETATM   29  C16 UNL     1      -7.147  -1.882   0.062  1.00  0.00     0.064 C 
BRANCH  29  30
HETATM   30  N8  UNL     1      -8.161  -0.967  -0.180  1.00  0.00    -0.354 N 
ATOM     31  H8  UNL     1      -9.044  -1.451  -0.343  1.00  0.00     0.166 HD
BRANCH  30  32
HETATM   32  C17 UNL     1      -8.322   0.267  -0.259  1.00  0.00     0.132 A 
HETATM   33  N9  UNL     1      -7.495   1.306  -0.130  1.00  0.00    -0.284 N 
HETATM   34  N10 UNL     1      -8.180   2.418  -0.292  1.00  0.00    -0.298 N 
ATOM     35  H9  UNL     1      -6.495   1.248   0.063  1.00  0.00     0.188 HD
HETATM   36  C18 UNL     1      -9.468   2.157  -0.533  1.00  0.00     0.062 A 
ATOM     37  H10 UNL     1      -7.780   3.355  -0.240  1.00  0.00     0.187 HD
HETATM   38  C19 UNL     1     -10.579   2.977  -0.768  1.00  0.00     0.033 A 
HETATM   39  C23 UNL     1      -9.598   0.801  -0.520  1.00  0.00     0.039 A 
HETATM   40  C20 UNL     1     -11.808   2.394  -0.987  1.00  0.00     0.026 A 
HETATM   41  C21 UNL     1     -11.951   1.009  -0.976  1.00  0.00     0.035 A 
HETATM   42 CL1  UNL     1     -13.495   0.246  -1.248  1.00  0.00    -0.084 Cl
HETATM   43  C22 UNL     1     -10.843   0.227  -0.742  1.00  0.00     0.041 A 
ENDBRANCH  30  32
ENDBRANCH  29  30
ENDBRANCH  28  29
ENDBRANCH  27  28
ENDBRANCH   4  27
TORSDOF 15
