REMARK  5 active torsions:
REMARK  status: ('A' for Active; 'I' for Inactive)
REMARK    1  A    between atoms: O1_1  and  C1_3 
REMARK    2  A    between atoms: C1_3  and  C2_4 
REMARK    3  A    between atoms: C2_4  and  O2_5 
REMARK    4  A    between atoms: O2_5  and  C3_6 
REMARK    5  A    between atoms: C7_10  and  O3_11 
ROOT
HETATM    1  C3  UNL     1      -0.007  -0.066   0.516  1.00  0.00     0.262 C 
HETATM    2  C4  UNL     1       0.601  -0.994  -0.546  1.00  0.00     0.061 C 
HETATM    3  C5  UNL     1       1.356  -0.025  -1.462  1.00  0.00     0.010 C 
HETATM    4  C6  UNL     1       2.438   0.581  -0.617  1.00  0.00     0.061 C 
HETATM    5  C7  UNL     1       2.241   0.411   0.845  1.00  0.00     0.260 C 
HETATM    6  O4  UNL     1       0.963   0.470   1.300  1.00  0.00    -0.332 OA
ENDROOT
BRANCH   1   7
HETATM    7  O2  UNL     1      -0.988  -0.765   1.147  1.00  0.00    -0.359 OA
BRANCH   7   8
HETATM    8  C2  UNL     1      -2.269  -0.339   0.944  1.00  0.00     0.197 C 
BRANCH   8   9
HETATM    9  C1  UNL     1      -2.712  -0.363  -0.497  1.00  0.00     0.190 C 
BRANCH   9  10
HETATM   10  O1  UNL     1      -4.034   0.100  -0.522  1.00  0.00    -0.399 OA
ATOM     11  H1  UNL     1      -4.313   0.085  -1.430  1.00  0.00     0.209 HD
ENDBRANCH   9  10
ENDBRANCH   8   9
ENDBRANCH   7   8
ENDBRANCH   1   7
BRANCH   5  12
HETATM   12  O3  UNL     1       2.969   1.440   1.487  1.00  0.00    -0.371 OA
ATOM     13  H3  UNL     1       2.843   1.331   2.422  1.00  0.00     0.212 HD
ENDBRANCH   5  12
TORSDOF 5
