REMARK  5 active torsions:
REMARK  status: ('A' for Active; 'I' for Inactive)
REMARK    1  A    between atoms: O1_1  and  C1_3 
REMARK    2  A    between atoms: C1_3  and  C2_4 
REMARK    3  A    between atoms: C2_4  and  N1_5 
REMARK    4  A    between atoms: C6_10  and  C7_11 
REMARK    5  A    between atoms: C7_11  and  O3_12 
ROOT
HETATM    1  N1  UNL     1       0.445   0.209   0.595  1.00  0.00    -0.189 NA
HETATM    2  O2  UNL     1       0.698  -1.018   1.049  1.00  0.00    -0.303 OA
HETATM    3  C3  UNL     1       0.071  -2.019   0.375  1.00  0.00     0.194 C 
HETATM    4  C4  UNL     1      -1.414  -1.843   0.245  1.00  0.00     0.030 C 
HETATM    5  C5  UNL     1      -1.596  -0.488  -0.466  1.00  0.00     0.026 C 
HETATM    6  C6  UNL     1      -0.937   0.497   0.460  1.00  0.00     0.110 C 
ENDROOT
BRANCH   1   7
HETATM    7  C2  UNL     1       1.265   0.606  -0.506  1.00  0.00     0.147 C 
BRANCH   7   8
HETATM    8  C1  UNL     1       2.757   0.568  -0.134  1.00  0.00     0.181 C 
BRANCH   8   9
HETATM    9  O1  UNL     1       3.191  -0.687   0.260  1.00  0.00    -0.400 OA
ATOM     10  H1  UNL     1       4.112  -0.710   0.490  1.00  0.00     0.209 HD
ENDBRANCH   8   9
ENDBRANCH   7   8
ENDBRANCH   1   7
BRANCH   6  11
HETATM   11  C7  UNL     1      -1.240   1.890   0.022  1.00  0.00     0.186 C 
BRANCH  11  12
HETATM   12  O3  UNL     1      -2.641   2.018  -0.049  1.00  0.00    -0.399 OA
ATOM     13  H3  UNL     1      -2.834   2.905  -0.328  1.00  0.00     0.209 HD
ENDBRANCH  11  12
ENDBRANCH   6  11
TORSDOF 5
