REMARK  5 active torsions:
REMARK  status: ('A' for Active; 'I' for Inactive)
REMARK    1  A    between atoms: O1_1  and  C1_3 
REMARK    2  A    between atoms: C1_3  and  O2_4 
REMARK    3  A    between atoms: O2_4  and  N1_5 
REMARK    4  A    between atoms: C6_10  and  C7_11 
REMARK    5  A    between atoms: C7_11  and  O3_12 
ROOT
HETATM    1  N1  UNL     1       0.494  -0.242   0.211  1.00  0.00    -0.264 N 
HETATM    2  C2  UNL     1       0.078  -1.570   0.042  1.00  0.00     0.090 C 
HETATM    3  C3  UNL     1      -1.351  -1.884   0.135  1.00  0.00     0.047 C 
HETATM    4  C4  UNL     1      -2.281  -0.715   0.249  1.00  0.00     0.007 C 
HETATM    5  C5  UNL     1      -1.721   0.390  -0.648  1.00  0.00     0.030 C 
HETATM    6  C6  UNL     1      -0.423   0.795   0.019  1.00  0.00     0.137 C 
ENDROOT
BRANCH   1   7
HETATM    7  O2  UNL     1       1.723  -0.036  -0.304  1.00  0.00    -0.253 OA
BRANCH   7   8
HETATM    8  C1  UNL     1       2.661  -0.181   0.729  1.00  0.00     0.367 C 
BRANCH   8   9
HETATM    9  O1  UNL     1       3.951   0.026   0.231  1.00  0.00    -0.375 OA
ATOM     10  H1  UNL     1       4.586  -0.072   0.931  1.00  0.00     0.212 HD
ENDBRANCH   8   9
ENDBRANCH   7   8
ENDBRANCH   1   7
BRANCH   6  11
HETATM   11  C7  UNL     1       0.107   1.993  -0.744  1.00  0.00     0.191 C 
BRANCH  11  12
HETATM   12  O3  UNL     1      -0.951   2.918  -0.835  1.00  0.00    -0.399 OA
ATOM     13  H3  UNL     1      -0.619   3.669  -1.313  1.00  0.00     0.209 HD
ENDBRANCH  11  12
ENDBRANCH   6  11
TORSDOF 5
