REMARK  17 active torsions:
REMARK  status: ('A' for Active; 'I' for Inactive)
REMARK    1  A    between atoms: C2_2  and  C3_3 
REMARK    2  A    between atoms: C3_3  and  C4_4 
REMARK    3  A    between atoms: C4_4  and  C5_5 
REMARK    4  A    between atoms: C5_5  and  C6_6 
REMARK    5  A    between atoms: C6_6  and  O2_8 
REMARK    6  A    between atoms: O2_8  and  C7_9 
REMARK    7  A    between atoms: C8_11  and  O3_12 
REMARK    8  A    between atoms: O3_12  and  C9_13 
REMARK    9  A    between atoms: C10_14  and  N1_15 
REMARK   10  A    between atoms: C12_20  and  N2_21 
REMARK   11  A    between atoms: N2_21  and  N3_23 
REMARK   12  A    between atoms: N3_23  and  N4_24 
REMARK   13  A    between atoms: C13_27  and  O4_28 
REMARK   14  A    between atoms: C14_30  and  C15_31 
REMARK   15  A    between atoms: C15_31  and  O5_32 
REMARK   16  A    between atoms: C16_34  and  N5_35 
REMARK   17  A    between atoms: C18_40  and  N6_41 
ROOT
HETATM    1  C7  UNL     1      -1.315  -0.182   0.433  1.00  0.00     0.226 C 
HETATM    2  S1  UNL     1      -0.039  -1.458   0.654  1.00  0.00    -0.101 SA
HETATM    3  C8  UNL     1       1.145  -1.311  -0.724  1.00  0.00     0.216 C 
HETATM    4  C16 UNL     1       0.367  -1.360  -1.985  1.00  0.00     0.224 C 
HETATM    5  C17 UNL     1      -1.000  -0.749  -1.910  1.00  0.00     0.072 C 
HETATM    6  C18 UNL     1      -1.084   0.417  -0.955  1.00  0.00     0.225 C 
ENDROOT
BRANCH   3   7
HETATM    7  O3  UNL     1       1.863  -0.170  -0.504  1.00  0.00    -0.365 OA
BRANCH   7   8
HETATM    8  C9  UNL     1       3.184  -0.302  -0.221  1.00  0.00     0.162 C 
HETATM    9  C10 UNL     1       3.603   0.277   1.112  1.00  0.00     0.215 C 
HETATM   10  C11 UNL     1       5.092   0.021   1.242  1.00  0.00     0.065 C 
HETATM   11  C12 UNL     1       5.814   0.944   0.328  1.00  0.00     0.145 C 
HETATM   12  C13 UNL     1       4.973   1.372  -0.820  1.00  0.00     0.152 C 
HETATM   13  C14 UNL     1       3.980   0.376  -1.309  1.00  0.00     0.071 C 
BRANCH   9  14
HETATM   14  N1  UNL     1       2.979  -0.416   2.223  1.00  0.00    -0.072 N 
ATOM     15  H13 UNL     1       1.964  -0.430   2.128  1.00  0.00     0.274 HD
ATOM     16  H12 UNL     1       3.158  -1.419   2.182  1.00  0.00     0.274 HD
ATOM     17  H11 UNL     1       3.262  -0.026   3.122  1.00  0.00     0.274 HD
ENDBRANCH   9  14
BRANCH  11  18
HETATM   18  N2  UNL     1       7.111   0.417  -0.093  1.00  0.00    -0.245 N 
ATOM     19  H2  UNL     1       7.183  -0.046  -0.999  1.00  0.00     0.197 HD
BRANCH  18  20
HETATM   20  N3  UNL     1       8.114   0.511   0.602  1.00  0.00    -0.248 NA
BRANCH  20  21
HETATM   21  N4  UNL     1       9.166   0.587   1.204  1.00  0.00    -0.261 N 
ATOM     22  H42 UNL     1       9.509   0.409   0.260  1.00  0.00     0.193 HD
ATOM     23  H41 UNL     1      10.002   0.665   1.783  1.00  0.00     0.193 HD
ENDBRANCH  20  21
ENDBRANCH  18  20
ENDBRANCH  11  18
BRANCH  12  24
HETATM   24  O4  UNL     1       4.382   2.640  -0.604  1.00  0.00    -0.393 OA
ATOM     25  H4  UNL     1       3.844   2.914  -1.338  1.00  0.00     0.210 HD
ENDBRANCH  12  24
BRANCH  13  26
HETATM   26  C15 UNL     1       4.679  -0.653  -2.206  1.00  0.00     0.174 C 
BRANCH  26  27
HETATM   27  O5  UNL     1       5.400   0.015  -3.193  1.00  0.00    -0.400 OA
ATOM     28  H5  UNL     1       5.833  -0.622  -3.749  1.00  0.00     0.209 HD
ENDBRANCH  26  27
ENDBRANCH  13  26
ENDBRANCH   7   8
ENDBRANCH   3   7
BRANCH   4  29
HETATM   29  N5  UNL     1       0.169  -2.780  -2.324  1.00  0.00    -0.072 N 
ATOM     30  H53 UNL     1       1.043  -3.303  -2.374  1.00  0.00     0.274 HD
ATOM     31  H52 UNL     1      -0.262  -3.314  -1.569  1.00  0.00     0.274 HD
ATOM     32  H51 UNL     1      -0.366  -2.814  -3.192  1.00  0.00     0.274 HD
ENDBRANCH   4  29
BRANCH   1  33
HETATM   33  O2  UNL     1      -2.613  -0.764   0.406  1.00  0.00    -0.303 OA
BRANCH  33  34
HETATM   34  C6  UNL     1      -3.638  -0.298   1.250  1.00  0.00     0.260 C 
HETATM   35  O1  UNL     1      -3.319   0.640   2.001  1.00  0.00    -0.265 OA
BRANCH  34  36
HETATM   36  C5  UNL     1      -4.988  -0.910   1.215  1.00  0.00     0.111 C 
BRANCH  36  37
HETATM   37  C4  UNL     1      -5.962  -0.281   2.142  1.00  0.00     0.010 C 
BRANCH  37  38
HETATM   38  C3  UNL     1      -6.245   1.171   1.898  1.00  0.00     0.000 C 
BRANCH  38  39
HETATM   39  C2  UNL     1      -6.806   1.382   0.504  1.00  0.00    -0.005 C 
HETATM   40  C1  UNL     1      -8.094   0.599   0.363  1.00  0.00     0.005 C 
ENDBRANCH  38  39
ENDBRANCH  37  38
ENDBRANCH  36  37
ENDBRANCH  34  36
ENDBRANCH  33  34
ENDBRANCH   1  33
BRANCH   6  41
HETATM   41  N6  UNL     1      -2.271   1.172  -1.304  1.00  0.00    -0.072 N 
ATOM     42  H63 UNL     1      -3.126   0.619  -1.246  1.00  0.00     0.274 HD
ATOM     43  H62 UNL     1      -2.518   1.872  -0.604  1.00  0.00     0.274 HD
ATOM     44  H61 UNL     1      -2.117   1.572  -2.230  1.00  0.00     0.274 HD
ENDBRANCH   6  41
TORSDOF 17
