REMARK  14 active torsions:
REMARK  status: ('A' for Active; 'I' for Inactive)
REMARK    1  A    between atoms: C2_2  and  C3_3 
REMARK    2  A    between atoms: C3_3  and  C4_4 
REMARK    3  A    between atoms: C4_4  and  N1_5 
REMARK    4  A    between atoms: C6_7  and  O1_8 
REMARK    5  A    between atoms: C7_10  and  C8_11 
REMARK    6  A    between atoms: C12_16  and  C13_17 
REMARK    7  A    between atoms: C13_17  and  N2_18 
REMARK    8  A    between atoms: C16_21  and  O3_22 
REMARK    9  A    between atoms: O3_22  and  C17_23 
REMARK   10  A    between atoms: C18_25  and  C19_26 
REMARK   11  A    between atoms: C19_26  and  O5_27 
REMARK   12  A    between atoms: C20_29  and  O6_30 
REMARK   13  A    between atoms: C21_32  and  O7_33 
REMARK   14  A    between atoms: C22_35  and  O8_36 
ROOT
HETATM    1  C8  UNL     1      -0.083   1.294   0.758  1.00  0.00     0.129 C 
HETATM    2  O2  UNL     1      -0.504   2.084   1.877  1.00  0.00    -0.364 OA
HETATM    3  C9  UNL     1      -1.809   1.797   1.583  1.00  0.00     0.155 C 
HETATM    4  C10 UNL     1      -2.282   2.765   0.547  1.00  0.00     0.035 C 
HETATM    5  C11 UNL     1      -1.074   3.250  -0.282  1.00  0.00     0.012 C 
HETATM    6  C12 UNL     1      -0.280   1.967  -0.541  1.00  0.00     0.056 C 
HETATM    7  C16 UNL     1      -1.311   0.444   1.061  1.00  0.00     0.193 C 
ENDROOT
BRANCH   1   8
HETATM    8  C7  UNL     1       1.226   0.662   1.065  1.00  0.00     0.065 A 
HETATM    9  C6  UNL     1       2.360   1.393   1.415  1.00  0.00     0.095 A 
HETATM   10  C5  UNL     1       3.406   0.517   1.597  1.00  0.00     0.130 A 
HETATM   11  N1  UNL     1       2.978  -0.723   1.378  1.00  0.00    -0.335 N 
HETATM   12  C22 UNL     1       1.663  -0.630   1.058  1.00  0.00     0.154 A 
BRANCH   9  13
HETATM   13  O1  UNL     1       2.424   2.792   1.564  1.00  0.00    -0.358 OA
ATOM     14  H1  UNL     1       1.702   3.397   1.438  1.00  0.00     0.217 HD
ENDBRANCH   9  13
BRANCH  11  15
HETATM   15  C4  UNL     1       3.757  -1.969   1.459  1.00  0.00     0.130 C 
BRANCH  15  16
HETATM   16  C3  UNL     1       3.704  -2.552   2.831  1.00  0.00     0.020 C 
BRANCH  16  17
HETATM   17  C2  UNL     1       4.240  -1.689   3.918  1.00  0.00    -0.003 C 
HETATM   18  C1  UNL     1       5.690  -1.321   3.745  1.00  0.00     0.005 C 
ENDBRANCH  16  17
ENDBRANCH  15  16
ENDBRANCH  11  15
BRANCH  12  19
HETATM   19  O8  UNL     1       0.889  -1.749   0.765  1.00  0.00    -0.345 OA
ATOM     20  H8  UNL     1      -0.032  -1.684   0.541  1.00  0.00     0.219 HD
ENDBRANCH  12  19
ENDBRANCH   1   8
BRANCH   6  21
HETATM   21  C13 UNL     1       0.867   2.203  -1.432  1.00  0.00     0.279 C 
BRANCH  21  22
HETATM   22  N2  UNL     1       0.309   2.873  -2.641  1.00  0.00     0.080 N 
HETATM   23  C14 UNL     1       1.405   3.170  -3.554  1.00  0.00     0.309 C 
HETATM   24  C15 UNL     1      -0.654   1.984  -3.273  1.00  0.00     0.309 C 
ENDBRANCH  21  22
ENDBRANCH   6  21
BRANCH   7  25
HETATM   25  O3  UNL     1      -1.959   0.031  -0.053  1.00  0.00    -0.347 OA
BRANCH  25  26
HETATM   26  C17 UNL     1      -2.484  -1.204  -0.142  1.00  0.00     0.292 C 
HETATM   27  O4  UNL     1      -3.875  -1.090  -0.148  1.00  0.00    -0.348 OA
HETATM   28  C18 UNL     1      -4.279  -1.248  -1.468  1.00  0.00     0.179 C 
HETATM   29  C20 UNL     1      -3.384  -2.300  -2.039  1.00  0.00     0.182 C 
HETATM   30  C21 UNL     1      -2.094  -2.073  -1.273  1.00  0.00     0.204 C 
BRANCH  28  31
HETATM   31  C19 UNL     1      -5.733  -1.680  -1.431  1.00  0.00     0.198 C 
BRANCH  31  32
HETATM   32  O5  UNL     1      -6.253  -1.870  -2.702  1.00  0.00    -0.398 OA
ATOM     33  H5  UNL     1      -7.163  -2.140  -2.679  1.00  0.00     0.209 HD
ENDBRANCH  31  32
ENDBRANCH  28  31
BRANCH  29  34
HETATM   34  O6  UNL     1      -3.876  -3.598  -1.777  1.00  0.00    -0.390 OA
ATOM     35  H6  UNL     1      -3.307  -4.267  -2.140  1.00  0.00     0.210 HD
ENDBRANCH  29  34
BRANCH  30  36
HETATM   36  O7  UNL     1      -1.622  -3.332  -0.884  1.00  0.00    -0.388 OA
ATOM     37  H7  UNL     1      -1.371  -3.890  -1.611  1.00  0.00     0.210 HD
ENDBRANCH  30  36
ENDBRANCH  25  26
ENDBRANCH   7  25
TORSDOF 14
