REMARK  15 active torsions:
REMARK  status: ('A' for Active; 'I' for Inactive)
REMARK    1  A    between atoms: O1_2  and  C2_3 
REMARK    2  A    between atoms: C4_5  and  C5_6 
REMARK    3  A    between atoms: C5_6  and  C6_7 
REMARK    4  A    between atoms: C6_7  and  C7_8 
REMARK    5  A    between atoms: C7_8  and  O2_9 
REMARK    6  A    between atoms: O2_9  and  C8_10 
REMARK    7  A    between atoms: C14_17  and  O4_18 
REMARK    8  A    between atoms: C15_20  and  O5_21 
REMARK    9  A    between atoms: O5_21  and  C16_22 
REMARK   10  A    between atoms: C17_24  and  C18_25 
REMARK   11  A    between atoms: C18_25  and  O7_26 
REMARK   12  A    between atoms: C19_28  and  C20_29 
REMARK   13  A    between atoms: C20_29  and  O8_30 
REMARK   14  A    between atoms: C21_32  and  O9_33 
REMARK   15  A    between atoms: C22_35  and  O10_36 
ROOT
HETATM    1  C2  UNL     1       0.761  -0.303   1.334  1.00  0.00     0.104 A 
HETATM    2  C3  UNL     1      -0.571   0.036   1.310  1.00  0.00     0.047 A 
HETATM    3  C4  UNL     1      -1.323  -0.316   0.214  1.00  0.00    -0.053 A 
HETATM    4  C13 UNL     1      -0.746  -0.985  -0.815  1.00  0.00     0.046 A 
HETATM    5  C14 UNL     1       0.610  -1.354  -0.838  1.00  0.00     0.102 A 
HETATM    6  C15 UNL     1       1.332  -0.989   0.267  1.00  0.00     0.138 A 
ENDROOT
BRANCH   6   7
HETATM    7  O5  UNL     1       2.688  -1.307   0.339  1.00  0.00    -0.312 OA
BRANCH   7   8
HETATM    8  C16 UNL     1       3.607  -0.310  -0.142  1.00  0.00     0.298 C 
HETATM    9  O6  UNL     1       4.031   0.350   1.026  1.00  0.00    -0.350 OA
HETATM   10  C17 UNL     1       5.290  -0.189   1.364  1.00  0.00     0.157 C 
HETATM   11  C19 UNL     1       6.256   0.434   0.416  1.00  0.00     0.072 C 
HETATM   12  C21 UNL     1       6.008  -0.212  -0.943  1.00  0.00     0.160 C 
HETATM   13  C22 UNL     1       4.676  -0.937  -0.942  1.00  0.00     0.203 C 
BRANCH  10  14
HETATM   14  C18 UNL     1       5.583   0.070   2.806  1.00  0.00     0.196 C 
BRANCH  14  15
HETATM   15  O7  UNL     1       6.782  -0.469   3.240  1.00  0.00    -0.398 OA
ATOM     16  H7  UNL     1       6.968  -0.304   4.157  1.00  0.00     0.209 HD
ENDBRANCH  14  15
ENDBRANCH  10  14
BRANCH  11  17
HETATM   17  C20 UNL     1       7.677   0.403   0.847  1.00  0.00     0.174 C 
BRANCH  17  18
HETATM   18  O8  UNL     1       8.506   1.003  -0.134  1.00  0.00    -0.400 OA
ATOM     19  H8  UNL     1       9.415   0.983   0.142  1.00  0.00     0.209 HD
ENDBRANCH  17  18
ENDBRANCH  11  17
BRANCH  12  20
HETATM   20  O9  UNL     1       6.079   0.750  -1.924  1.00  0.00    -0.392 OA
ATOM     21  H9  UNL     1       5.925   0.348  -2.771  1.00  0.00     0.210 HD
ENDBRANCH  12  20
BRANCH  13  22
HETATM   22  O10 UNL     1       4.287  -1.023  -2.288  1.00  0.00    -0.388 OA
ATOM     23  H10 UNL     1       4.975  -1.427  -2.803  1.00  0.00     0.210 HD
ENDBRANCH  13  22
ENDBRANCH   7   8
ENDBRANCH   6   7
BRANCH   1  24
HETATM   24  O1  UNL     1       1.536   0.047   2.438  1.00  0.00    -0.353 OA
HETATM   25  C1  UNL     1       0.981   0.738   3.523  1.00  0.00     0.210 C 
ENDBRANCH   1  24
BRANCH   5  26
HETATM   26  O4  UNL     1       1.138  -2.033  -1.908  1.00  0.00    -0.358 OA
ATOM     27  H4  UNL     1       2.055  -2.282  -1.924  1.00  0.00     0.217 HD
ENDBRANCH   5  26
BRANCH   3  28
HETATM   28  C5  UNL     1      -2.751   0.066   0.212  1.00  0.00     0.041 C 
BRANCH  28  29
HETATM   29  C6  UNL     1      -3.630  -1.037   0.781  1.00  0.00     0.031 C 
BRANCH  29  30
HETATM   30  C7  UNL     1      -5.069  -0.497   0.729  1.00  0.00     0.171 C 
BRANCH  30  31
HETATM   31  O2  UNL     1      -5.318  -0.225  -0.602  1.00  0.00    -0.361 OA
BRANCH  31  32
HETATM   32  C8  UNL     1      -6.591   0.297  -0.825  1.00  0.00     0.259 C 
HETATM   33  C9  UNL     1      -7.428  -0.483  -1.761  1.00  0.00     0.061 C 
HETATM   34  C10 UNL     1      -7.938   0.256  -2.957  1.00  0.00     0.007 C 
HETATM   35  C11 UNL     1      -8.098   1.725  -2.805  1.00  0.00     0.026 C 
HETATM   36  C12 UNL     1      -7.779   2.105  -1.369  1.00  0.00     0.171 C 
HETATM   37  O3  UNL     1      -6.458   1.645  -1.162  1.00  0.00    -0.361 OA
ENDBRANCH  31  32
ENDBRANCH  30  31
ENDBRANCH  29  30
ENDBRANCH  28  29
ENDBRANCH   3  28
TORSDOF 15
