REMARK  4 active torsions:
REMARK  status: ('A' for Active; 'I' for Inactive)
REMARK    1  A    between atoms: C1_4  and  C2_5 
REMARK    2  A    between atoms: C3_6  and  C4_7 
REMARK    3  A    between atoms: C5_8  and  C6_9 
REMARK    4  A    between atoms: N2_10  and  N3_12 
ROOT
HETATM    1  C4  UNL     1      -0.340  -0.142   0.236  1.00  0.00     0.001 C 
HETATM    2  C5  UNL     1       0.954   0.064   0.059  1.00  0.00     0.019 C 
ENDROOT
BRANCH   1   3
HETATM    3  C3  UNL     1      -1.288   0.938   0.374  1.00  0.00     0.001 C 
HETATM    4  C2  UNL     1      -2.580   0.809   0.551  1.00  0.00     0.016 C 
BRANCH   4   5
HETATM    5  C1  UNL     1      -3.184  -0.506   0.627  1.00  0.00     0.080 C 
HETATM    6  N1  UNL     1      -4.477  -0.580   0.805  1.00  0.00    -0.408 N 
ATOM      7  H12 UNL     1      -5.030   0.273   0.886  1.00  0.00     0.155 HD
ATOM      8  H11 UNL     1      -4.902  -1.506   0.858  1.00  0.00     0.155 HD
ENDBRANCH   4   5
ENDBRANCH   1   3
BRANCH   2   9
HETATM    9  C6  UNL     1       1.913  -1.003  -0.080  1.00  0.00     0.106 C 
HETATM   10  N2  UNL     1       3.157  -0.763  -0.250  1.00  0.00    -0.318 N 
ATOM     11  H2  UNL     1       3.784  -1.562  -0.341  1.00  0.00     0.185 HD
BRANCH  10  12
HETATM   12  N3  UNL     1       3.714   0.500  -0.320  1.00  0.00    -0.345 N 
ATOM     13  H32 UNL     1       3.072   1.287  -0.227  1.00  0.00     0.176 HD
ATOM     14  H31 UNL     1       4.707   0.692  -0.456  1.00  0.00     0.176 HD
ENDBRANCH  10  12
ENDBRANCH   2   9
TORSDOF 4
