REMARK  4 active torsions:
REMARK  status: ('A' for Active; 'I' for Inactive)
REMARK    1  A    between atoms: C3_3  and  O1_4 
REMARK    2  A    between atoms: C5_7  and  O2_8 
REMARK    3  A    between atoms: N1_16  and  O3_18 
REMARK    4  A    between atoms: C14_23  and  C15_24 
ROOT
HETATM    1  C1  UNL     1      -2.082   0.339  -1.757  1.00  0.00     0.022 C 
HETATM    2  C2  UNL     1      -1.661  -0.142  -0.341  1.00  0.00     0.025 A 
HETATM    3  C3  UNL     1      -0.623   0.840   0.100  1.00  0.00     0.132 C 
HETATM    4  C4  UNL     1      -0.016   1.681  -0.987  1.00  0.00     0.064 C 
HETATM    5  C5  UNL     1       1.454   1.979  -0.843  1.00  0.00     0.120 C 
HETATM    6  C6  UNL     1       2.049   1.872   0.486  1.00  0.00     0.032 C 
HETATM    7  C7  UNL     1       2.823   0.685   0.886  1.00  0.00     0.002 C 
HETATM    8  C8  UNL     1       3.286  -0.282  -0.133  1.00  0.00     0.000 C 
HETATM    9  C9  UNL     1       2.622  -1.653   0.019  1.00  0.00     0.006 C 
HETATM   10  C10 UNL     1       1.368  -1.807  -0.797  1.00  0.00     0.057 C 
HETATM   11  C11 UNL     1       0.150  -1.866   0.040  1.00  0.00     0.039 C 
HETATM   12  N1  UNL     1       0.334  -2.221   1.239  1.00  0.00    -0.275 N 
ATOM     13  H1  UNL     1       1.305  -2.422   1.480  1.00  0.00     0.193 HD
HETATM   14  C12 UNL     1      -1.181  -1.551  -0.502  1.00  0.00     0.180 A 
HETATM   15  O4  UNL     1      -2.162  -2.397   0.010  1.00  0.00    -0.378 OA
HETATM   16  C13 UNL     1      -3.157  -1.697   0.599  1.00  0.00     0.181 A 
HETATM   17  C14 UNL     1      -2.921  -0.216   0.419  1.00  0.00     0.084 A 
ENDROOT
BRANCH  12  18
HETATM   18  O3  UNL     1      -0.537  -2.377   2.247  1.00  0.00    -0.290 OA
ATOM     19  H3  UNL     1      -0.399  -2.644   3.148  1.00  0.00     0.244 HD
ENDBRANCH  12  18
BRANCH   3  20
HETATM   20  O1  UNL     1      -1.123   1.793   1.026  1.00  0.00    -0.395 OA
ATOM     21  H1  UNL     1      -0.464   2.417   1.306  1.00  0.00     0.210 HD
ENDBRANCH   3  20
BRANCH  17  22
HETATM   22  C15 UNL     1      -3.059   0.446   1.700  1.00  0.00     0.238 C 
HETATM   23  O5  UNL     1      -2.810   0.030   2.811  1.00  0.00    -0.306 OA
ENDBRANCH  17  22
BRANCH   5  24
HETATM   24  O2  UNL     1       1.601   3.317  -1.334  1.00  0.00    -0.395 OA
ATOM     25  H2  UNL     1       2.528   3.505  -1.243  1.00  0.00     0.210 HD
ENDBRANCH   5  24
TORSDOF 4
