REMARK  5 active torsions:
REMARK  status: ('A' for Active; 'I' for Inactive)
REMARK    1  A    between atoms: C2_2  and  O2_4 
REMARK    2  A    between atoms: O2_4  and  C3_5 
REMARK    3  A    between atoms: C6_8  and  O3_10 
REMARK    4  A    between atoms: C8_12  and  O4_14 
REMARK    5  A    between atoms: C12_18  and  O5_20 
ROOT
HETATM    1  C3  UNL     1       1.622   0.488   0.110  1.00  0.00     0.154 C 
HETATM    2  C4  UNL     1       0.635   1.500   0.535  1.00  0.00     0.004 C 
HETATM    3  C5  UNL     1      -0.521   1.839   0.064  1.00  0.00     0.012 C 
HETATM    4  C6  UNL     1      -1.302   1.348  -1.082  1.00  0.00     0.102 C 
HETATM    5  C7  UNL     1      -0.534   0.959  -2.292  1.00  0.00     0.053 C 
HETATM    6  C8  UNL     1      -2.333   0.291  -0.704  1.00  0.00     0.088 C 
HETATM    7  C9  UNL     1      -3.395   0.852   0.199  1.00  0.00     0.049 C 
HETATM    8  C10 UNL     1      -1.778  -1.012  -0.284  1.00  0.00     0.044 C 
HETATM    9  C11 UNL     1      -1.549  -1.175   1.193  1.00  0.00     0.040 C 
HETATM   10  C12 UNL     1      -0.188  -1.787   1.486  1.00  0.00     0.054 C 
HETATM   11  C13 UNL     1      -0.294  -2.932   2.493  1.00  0.00     0.045 C 
HETATM   12  C14 UNL     1       0.710  -0.734   2.101  1.00  0.00     0.040 C 
HETATM   13  C15 UNL     1       1.891  -0.539   1.202  1.00  0.00     0.039 C 
ENDROOT
BRANCH   1  14
HETATM   14  O2  UNL     1       2.884   1.093  -0.216  1.00  0.00    -0.312 OA
BRANCH  14  15
HETATM   15  C2  UNL     1       3.542   0.904  -1.397  1.00  0.00     0.255 C 
HETATM   16  C1  UNL     1       4.845   1.528  -1.738  1.00  0.00     0.126 C 
HETATM   17  O1  UNL     1       3.026   0.161  -2.254  1.00  0.00    -0.266 OA
ENDBRANCH  14  15
ENDBRANCH   1  14
BRANCH   4  18
HETATM   18  O3  UNL     1      -2.124   2.431  -1.540  1.00  0.00    -0.383 OA
ATOM     19  H3  UNL     1      -2.628   2.114  -2.280  1.00  0.00     0.211 HD
ENDBRANCH   4  18
BRANCH  10  20
HETATM   20  O5  UNL     1       0.372  -2.353   0.339  1.00  0.00    -0.390 OA
ATOM     21  H5  UNL     1       1.222  -2.735   0.522  1.00  0.00     0.210 HD
ENDBRANCH  10  20
BRANCH   6  22
HETATM   22  O4  UNL     1      -3.040   0.035  -1.914  1.00  0.00    -0.387 OA
ATOM     23  H4  UNL     1      -3.683  -0.624  -1.678  1.00  0.00     0.210 HD
ENDBRANCH   6  22
TORSDOF 5
