REMARK  16 active torsions:
REMARK  status: ('A' for Active; 'I' for Inactive)
REMARK    1  A    between atoms: C2_2  and  C3_3 
REMARK    2  A    between atoms: C3_3  and  C4_4 
REMARK    3  A    between atoms: C5_5  and  C6_6 
REMARK    4  A    between atoms: C6_6  and  N1_7 
REMARK    5  A    between atoms: C9_13  and  C10_14 
REMARK    6  A    between atoms: C10_14  and  N2_15 
REMARK    7  A    between atoms: C10_14  and  C12_22 
REMARK    8  A    between atoms: N2_15  and  N3_17 
REMARK    9  A    between atoms: N3_17  and  C11_19 
REMARK   10  A    between atoms: C13_27  and  N7_28 
REMARK   11  A    between atoms: N7_28  and  C14_30 
REMARK   12  A    between atoms: C14_30  and  O1_31 
REMARK   13  A    between atoms: C14_30  and  C15_33 
REMARK   14  A    between atoms: C17_43  and  N12_44 
REMARK   15  A    between atoms: N12_44  and  N13_46 
REMARK   16  A    between atoms: N14_49  and  O2_50 
ROOT
HETATM    1  C12 UNL     1       0.726  -0.447  -0.034  1.00  0.00     0.125 A 
HETATM    2  N5  UNL     1       0.817   0.827  -0.386  1.00  0.00    -0.281 N 
ATOM      3  H5  UNL     1      -0.034   1.313  -0.668  1.00  0.00     0.188 HD
HETATM    4  N6  UNL     1       1.948   1.497  -0.391  1.00  0.00    -0.132 N 
ATOM      5  H6  UNL     1       1.932   2.476  -0.675  1.00  0.00     0.205 HD
HETATM    6  C13 UNL     1       3.125   0.951  -0.039  1.00  0.00     0.696 A 
HETATM    7  N11 UNL     1       3.096  -0.342   0.328  1.00  0.00    -0.172 N 
ATOM      8  H11 UNL     1       3.962  -0.804   0.604  1.00  0.00     0.186 HD
HETATM    9  C17 UNL     1       1.946  -1.036   0.337  1.00  0.00     0.166 A 
ENDROOT
BRANCH   1  10
HETATM   10  C10 UNL     1      -0.503  -1.280  -0.069  1.00  0.00     0.109 C 
BRANCH  10  11
HETATM   11  C9  UNL     1      -1.816  -0.796  -0.435  1.00  0.00     0.093 A 
HETATM   12  C8  UNL     1      -2.700  -1.694  -1.044  1.00  0.00     0.035 A 
HETATM   13  C7  UNL     1      -4.006  -1.394  -1.365  1.00  0.00     0.013 A 
HETATM   14  C5  UNL     1      -4.493  -0.127  -1.076  1.00  0.00    -0.008 A 
HETATM   15  C4  UNL     1      -3.631   0.752  -0.479  1.00  0.00     0.049 A 
HETATM   16  N14 UNL     1      -2.332   0.409  -0.174  1.00  0.00    -0.226 N 
BRANCH  14  17
HETATM   17  C6  UNL     1      -5.854   0.269  -1.425  1.00  0.00     0.270 C 
BRANCH  17  18
HETATM   18  N1  UNL     1      -6.548  -0.867  -2.055  1.00  0.00    -0.075 N 
ATOM     19  H13 UNL     1      -6.036  -1.236  -2.856  1.00  0.00     0.274 HD
ATOM     20  H12 UNL     1      -6.527  -1.704  -1.472  1.00  0.00     0.274 HD
ATOM     21  H11 UNL     1      -7.499  -0.590  -2.299  1.00  0.00     0.274 HD
ENDBRANCH  17  18
ENDBRANCH  14  17
BRANCH  15  22
HETATM   22  C3  UNL     1      -4.093   2.107  -0.101  1.00  0.00     0.060 C 
BRANCH  22  23
HETATM   23  C2  UNL     1      -4.803   2.188   1.208  1.00  0.00     0.002 C 
HETATM   24  C1  UNL     1      -5.214   3.634   1.419  1.00  0.00     0.005 C 
ENDBRANCH  22  23
ENDBRANCH  15  22
BRANCH  16  25
HETATM   25  O2  UNL     1      -1.597   1.367   0.488  1.00  0.00    -0.282 OA
ATOM     26  H2  UNL     1      -0.701   1.130   0.698  1.00  0.00     0.245 HD
ENDBRANCH  16  25
ENDBRANCH  10  11
BRANCH  10  27
HETATM   27  N2  UNL     1      -0.278  -2.509   0.189  1.00  0.00    -0.294 N 
ATOM     28  H2  UNL     1       0.708  -2.634   0.420  1.00  0.00     0.187 HD
BRANCH  27  29
HETATM   29  N3  UNL     1      -0.898  -3.671   0.256  1.00  0.00    -0.278 N 
ATOM     30  H3  UNL     1      -0.835  -4.305  -0.540  1.00  0.00     0.189 HD
BRANCH  29  31
HETATM   31  C11 UNL     1      -1.656  -4.079   1.401  1.00  0.00     0.199 C 
HETATM   32  N4  UNL     1      -2.325  -5.336   1.471  1.00  0.00    -0.068 NA
HETATM   33  S1  UNL     1      -1.753  -3.065   2.667  1.00  0.00    -0.043 SA
ENDBRANCH  29  31
ENDBRANCH  27  29
ENDBRANCH  10  27
ENDBRANCH   1  10
BRANCH   9  34
HETATM   34  N12 UNL     1       1.989  -2.268   0.700  1.00  0.00    -0.290 N 
ATOM     35  H12 UNL     1       1.123  -2.806   0.713  1.00  0.00     0.188 HD
BRANCH  34  36
HETATM   36  N13 UNL     1       3.174  -2.896   1.077  1.00  0.00    -0.344 N 
ATOM     37 2H13 UNL     1       4.031  -2.343   1.059  1.00  0.00     0.176 HD
ATOM     38 1H13 UNL     1       3.208  -3.874   1.365  1.00  0.00     0.176 HD
ENDBRANCH  34  36
ENDBRANCH   9  34
BRANCH   6  39
HETATM   39  N7  UNL     1       4.225   1.624  -0.052  1.00  0.00    -0.192 N 
ATOM     40  H7  UNL     1       4.228   2.604  -0.335  1.00  0.00     0.180 HD
BRANCH  39  41
HETATM   41  C14 UNL     1       5.438   0.978   0.335  1.00  0.00     0.294 C 
BRANCH  41  42
HETATM   42  O1  UNL     1       5.512   0.745   1.707  1.00  0.00    -0.370 OA
ATOM     43  H1  UNL     1       6.319   0.315   1.965  1.00  0.00     0.212 HD
ENDBRANCH  41  42
BRANCH  41  44
HETATM   44  C15 UNL     1       6.608   1.885   0.024  1.00  0.00     0.119 A 
HETATM   45  N8  UNL     1       7.760   1.561  -0.550  1.00  0.00    -0.323 N 
HETATM   46  C16 UNL     1       8.650   2.487  -0.735  1.00  0.00     0.199 A 
ATOM     47  H8  UNL     1       7.943   0.601  -0.841  1.00  0.00     0.169 HD
HETATM   48  N9  UNL     1       9.931   2.221  -1.352  1.00  0.00    -0.063 NA
HETATM   49  N10 UNL     1       8.353   3.728  -0.332  1.00  0.00    -0.299 N 
HETATM   50  S2  UNL     1       6.805   3.554   0.306  1.00  0.00     0.006 SA
ATOM     51  H10 UNL     1       8.924   4.571  -0.396  1.00  0.00     0.177 HD
ENDBRANCH  41  44
ENDBRANCH  39  41
ENDBRANCH   6  39
TORSDOF 16
