REMARK  16 active torsions:
REMARK  status: ('A' for Active; 'I' for Inactive)
REMARK    1  A    between atoms: C2_2  and  C3_3 
REMARK    2  A    between atoms: C3_3  and  N1_4 
REMARK    3  A    between atoms: C3_3  and  C4_8 
REMARK    4  A    between atoms: C5_13  and  N4_14 
REMARK    5  A    between atoms: N4_14  and  C6_16 
REMARK    6  A    between atoms: C7_19  and  O2_20 
REMARK    7  A    between atoms: O2_20  and  C8_21 
REMARK    8  A    between atoms: C9_22  and  O3_23 
REMARK    9  A    between atoms: C10_25  and  O4_26 
REMARK   10  A    between atoms: C12_29  and  O6_30 
REMARK   11  A    between atoms: C12_29  and  C13_32 
REMARK   12  A    between atoms: C13_32  and  S1_33 
REMARK   13  A    between atoms: S1_33  and  C14_34 
REMARK   14  A    between atoms: C18_38  and  O7_39 
REMARK   15  A    between atoms: C19_41  and  N6_42 
REMARK   16  A    between atoms: C21_47  and  N7_48 
ROOT
HETATM    1  C6  UNL     1       2.512  -0.510  -1.017  1.00  0.00     0.211 C 
HETATM    2  N5  UNL     1       1.625  -0.484   0.104  1.00  0.00    -0.373 N 
ATOM      3  H5  UNL     1       1.534   0.342   0.695  1.00  0.00     0.158 HD
HETATM    4  C7  UNL     1       0.874  -1.668   0.355  1.00  0.00     0.249 C 
HETATM    5  C19 UNL     1       1.711  -2.898   0.426  1.00  0.00     0.233 C 
HETATM    6  C20 UNL     1       3.151  -2.518   0.161  1.00  0.00     0.074 C 
HETATM    7  C21 UNL     1       3.156  -1.867  -1.219  1.00  0.00     0.227 C 
ENDROOT
BRANCH   4   8
HETATM    8  O2  UNL     1      -0.236  -1.810  -0.478  1.00  0.00    -0.354 OA
BRANCH   8   9
HETATM    9  C8  UNL     1      -1.440  -1.743   0.211  1.00  0.00     0.192 C 
HETATM   10  C9  UNL     1      -2.067  -3.133   0.140  1.00  0.00     0.205 C 
HETATM   11  C10 UNL     1      -3.380  -2.944   0.920  1.00  0.00     0.294 C 
HETATM   12  O5  UNL     1      -4.196  -2.230   0.083  1.00  0.00    -0.319 OA
HETATM   13  C12 UNL     1      -3.814  -0.896  -0.087  1.00  0.00     0.202 C 
HETATM   14  C18 UNL     1      -2.374  -0.678  -0.268  1.00  0.00     0.213 C 
BRANCH  10  15
HETATM   15  O3  UNL     1      -2.410  -3.374  -1.170  1.00  0.00    -0.388 OA
ATOM     16  H3  UNL     1      -2.800  -4.239  -1.214  1.00  0.00     0.210 HD
ENDBRANCH  10  15
BRANCH  11  17
HETATM   17  O4  UNL     1      -3.926  -4.162   1.269  1.00  0.00    -0.363 OA
HETATM   18  C11 UNL     1      -4.018  -4.212   2.658  1.00  0.00     0.204 C 
ENDBRANCH  11  17
BRANCH  13  19
HETATM   19  O6  UNL     1      -4.477  -0.524  -1.276  1.00  0.00    -0.363 OA
ATOM     20  H6  UNL     1      -4.217   0.383  -1.392  1.00  0.00     0.213 HD
ENDBRANCH  13  19
BRANCH  13  21
HETATM   21  C13 UNL     1      -4.471  -0.131   1.033  1.00  0.00     0.146 C 
BRANCH  21  22
HETATM   22  S1  UNL     1      -4.175   1.608   1.122  1.00  0.00    -0.155 SA
BRANCH  22  23
HETATM   23  C14 UNL     1      -4.865   2.674  -0.101  1.00  0.00    -0.003 C 
HETATM   24  C15 UNL     1      -6.391   2.672  -0.113  1.00  0.00     0.026 C 
HETATM   25  C16 UNL     1      -4.362   2.570  -1.500  1.00  0.00     0.026 C 
HETATM   26  C17 UNL     1      -4.527   4.141   0.331  1.00  0.00     0.026 C 
ENDBRANCH  22  23
ENDBRANCH  21  22
ENDBRANCH  13  21
BRANCH  14  27
HETATM   27  O7  UNL     1      -1.995   0.502   0.396  1.00  0.00    -0.387 OA
ATOM     28  H7  UNL     1      -2.588   1.179   0.092  1.00  0.00     0.210 HD
ENDBRANCH  14  27
ENDBRANCH   8   9
ENDBRANCH   4   8
BRANCH   5  29
HETATM   29  N6  UNL     1       1.692  -3.536   1.734  1.00  0.00    -0.071 N 
ATOM     30  H63 UNL     1       1.959  -2.874   2.463  1.00  0.00     0.274 HD
ATOM     31  H62 UNL     1       0.735  -3.733   2.027  1.00  0.00     0.274 HD
ATOM     32  H61 UNL     1       2.265  -4.378   1.783  1.00  0.00     0.274 HD
ENDBRANCH   5  29
BRANCH   1  33
HETATM   33  N4  UNL     1       3.632   0.382  -0.666  1.00  0.00    -0.345 N 
ATOM     34  H4  UNL     1       4.463  -0.010  -0.222  1.00  0.00     0.163 HD
BRANCH  33  35
HETATM   35  C5  UNL     1       3.583   1.627  -0.905  1.00  0.00     0.191 A 
HETATM   36  C4  UNL     1       4.577   2.530  -0.611  1.00  0.00     0.107 A 
HETATM   37  N2  UNL     1       4.172   3.744  -1.006  1.00  0.00    -0.276 N 
HETATM   38  N3  UNL     1       2.961   3.571  -1.526  1.00  0.00     0.029 NA
ATOM     39  H2  UNL     1       4.687   4.621  -0.925  1.00  0.00     0.184 HD
HETATM   40  O1  UNL     1       2.618   2.311  -1.462  1.00  0.00    -0.204 OA
BRANCH  36  41
HETATM   41  C3  UNL     1       5.862   2.191   0.029  1.00  0.00     0.238 C 
BRANCH  41  42
HETATM   42  C2  UNL     1       6.625   3.480   0.294  1.00  0.00     0.035 C 
HETATM   43  C1  UNL     1       8.019   3.198   0.818  1.00  0.00     0.007 C 
ENDBRANCH  41  42
BRANCH  41  44
HETATM   44  N1  UNL     1       6.658   1.470  -0.977  1.00  0.00    -0.070 N 
ATOM     45  H13 UNL     1       6.850   2.015  -1.818  1.00  0.00     0.275 HD
ATOM     46  H12 UNL     1       7.630   1.324  -0.705  1.00  0.00     0.275 HD
ATOM     47  H11 UNL     1       6.146   0.606  -1.155  1.00  0.00     0.275 HD
ENDBRANCH  41  44
ENDBRANCH  36  41
ENDBRANCH  33  35
ENDBRANCH   1  33
BRANCH   7  48
HETATM   48  N7  UNL     1       2.361  -2.714  -2.087  1.00  0.00    -0.071 N 
ATOM     49  H73 UNL     1       1.404  -2.804  -1.745  1.00  0.00     0.274 HD
ATOM     50  H72 UNL     1       2.169  -2.257  -2.978  1.00  0.00     0.274 HD
ATOM     51  H71 UNL     1       2.794  -3.627  -2.223  1.00  0.00     0.274 HD
ENDBRANCH   7  48
TORSDOF 16
