REMARK  15 active torsions:
REMARK  status: ('A' for Active; 'I' for Inactive)
REMARK    1  A    between atoms: C2_2  and  N1_3 
REMARK    2  A    between atoms: C2_2  and  N6_25 
REMARK    3  A    between atoms: N1_3  and  N2_5 
REMARK       I    between atoms: N2_5  and  C3_7 
REMARK    4  A    between atoms: C3_7  and  O2_9 
REMARK    5  A    between atoms: O2_9  and  C4_10 
REMARK    6  A    between atoms: C4_10  and  O3_11 
REMARK    7  A    between atoms: O3_11  and  C5_12 
REMARK    8  A    between atoms: C5_12  and  O4_13 
REMARK    9  A    between atoms: C5_12  and  C6_15 
REMARK   10  A    between atoms: C7_19  and  N4_20 
REMARK   11  A    between atoms: N6_25  and  C8_27 
REMARK   12  A    between atoms: C9_32  and  C10_33 
REMARK   13  A    between atoms: C10_33  and  C11_34 
REMARK   14  A    between atoms: N10_41  and  N11_42 
REMARK   15  A    between atoms: N11_42  and  C16_44 
ROOT
HETATM    1  C1  UNL     1       0.923   3.035  -0.355  1.00  0.00     0.090 C 
HETATM    2  C2  UNL     1       0.744   1.986   0.708  1.00  0.00     0.093 C 
ENDROOT
BRANCH   2   3
HETATM    3  N1  UNL     1       1.556   0.987   0.776  1.00  0.00    -0.285 N 
ATOM      4  H1  UNL     1       1.410   0.290   1.507  1.00  0.00     0.188 HD
BRANCH   3   5
HETATM    5  N2  UNL     1       2.624   0.815  -0.103  1.00  0.00    -0.244 N 
HETATM    6  C3  UNL     1       3.957   0.941   0.421  1.00  0.00     0.381 C 
HETATM    7  O1  UNL     1       4.158   1.198   1.635  1.00  0.00    -0.237 OA
ATOM      8  H2  UNL     1       2.465   0.606  -1.089  1.00  0.00     0.192 HD
BRANCH   6   9
HETATM    9  O2  UNL     1       5.071   0.784  -0.387  1.00  0.00    -0.277 OA
BRANCH   9  10
HETATM   10  C4  UNL     1       6.379   0.920   0.188  1.00  0.00     0.353 C 
BRANCH  10  11
HETATM   11  O3  UNL     1       7.358   0.733  -0.756  1.00  0.00    -0.330 OA
BRANCH  11  12
HETATM   12  C5  UNL     1       7.309  -0.527  -1.348  1.00  0.00     0.330 C 
BRANCH  12  13
HETATM   13  O4  UNL     1       7.034  -0.339  -2.699  1.00  0.00    -0.365 OA
ATOM     14  H4  UNL     1       7.001  -1.198  -3.103  1.00  0.00     0.213 HD
ENDBRANCH  12  13
BRANCH  12  15
HETATM   15  C6  UNL     1       8.603  -1.244  -1.206  1.00  0.00     0.161 A 
HETATM   16  N3  UNL     1       9.277  -1.940  -2.154  1.00  0.00    -0.240 N 
HETATM   17  O5  UNL     1      10.372  -2.429  -1.657  1.00  0.00    -0.200 OA
ATOM     18  H3  UNL     1       8.968  -2.062  -3.119  1.00  0.00     0.196 HD
HETATM   19  C7  UNL     1      10.468  -2.087  -0.391  1.00  0.00     0.242 A 
HETATM   20  N5  UNL     1       9.379  -1.354  -0.102  1.00  0.00    -0.305 N 
ATOM     21  H5  UNL     1       9.170  -0.944   0.808  1.00  0.00     0.171 HD
BRANCH  19  22
HETATM   22  N4  UNL     1      11.459  -2.436   0.356  1.00  0.00    -0.364 N 
ATOM     23  H42 UNL     1      12.285  -2.992   0.137  1.00  0.00     0.159 HD
ATOM     24  H41 UNL     1      11.533  -2.171   1.338  1.00  0.00     0.159 HD
ENDBRANCH  19  22
ENDBRANCH  12  15
ENDBRANCH  11  12
ENDBRANCH  10  11
ENDBRANCH   9  10
ENDBRANCH   6   9
ENDBRANCH   3   5
ENDBRANCH   2   3
BRANCH   2  25
HETATM   25  N6  UNL     1      -0.311   2.063   1.655  1.00  0.00    -0.324 N 
ATOM     26  H6  UNL     1      -0.294   2.768   2.392  1.00  0.00     0.169 HD
BRANCH  25  27
HETATM   27  C8  UNL     1      -1.297   1.225   1.570  1.00  0.00     0.166 A 
HETATM   28  N7  UNL     1      -1.451   0.254   0.662  1.00  0.00    -0.279 N 
HETATM   29  N8  UNL     1      -2.486  -0.479   0.729  1.00  0.00    -0.296 N 
ATOM     30  H7  UNL     1      -0.753   0.106  -0.067  1.00  0.00     0.189 HD
HETATM   31  C9  UNL     1      -3.394  -0.303   1.662  1.00  0.00     0.075 A 
ATOM     32  H8  UNL     1      -2.615  -1.222   0.042  1.00  0.00     0.187 HD
HETATM   33  S2  UNL     1      -2.702   1.036   2.521  1.00  0.00    -0.037 SA
BRANCH  31  34
HETATM   34  C10 UNL     1      -4.688  -1.019   1.957  1.00  0.00     0.126 C 
BRANCH  34  35
HETATM   35  C11 UNL     1      -5.760  -0.292   1.236  1.00  0.00     0.044 A 
HETATM   36  C12 UNL     1      -6.265   0.793   1.948  1.00  0.00     0.029 A 
HETATM   37  C13 UNL     1      -7.263   1.544   1.396  1.00  0.00     0.034 A 
HETATM   38  C14 UNL     1      -7.729   1.207   0.166  1.00  0.00     0.116 A 
HETATM   39  N9  UNL     1      -8.761   1.967  -0.428  1.00  0.00    -0.097 NA
HETATM   40  C15 UNL     1      -7.183   0.110  -0.497  1.00  0.00     0.290 A 
HETATM   41  O6  UNL     1      -7.672  -0.126  -1.623  1.00  0.00    -0.264 OA
HETATM   42  N10 UNL     1      -6.215  -0.644   0.002  1.00  0.00    -0.221 N 
BRANCH  42  43
HETATM   43  N11 UNL     1      -5.623  -1.731  -0.606  1.00  0.00    -0.269 N 
ATOM     44  H11 UNL     1      -4.865  -2.117  -0.043  1.00  0.00     0.189 HD
BRANCH  43  45
HETATM   45  C16 UNL     1      -5.796  -2.428  -1.782  1.00  0.00     0.200 C 
HETATM   46  N12 UNL     1      -4.892  -3.572  -2.035  1.00  0.00    -0.068 NA
HETATM   47  S1  UNL     1      -6.859  -2.204  -2.958  1.00  0.00    -0.043 SA
ENDBRANCH  43  45
ENDBRANCH  42  43
ENDBRANCH  34  35
ENDBRANCH  31  34
ENDBRANCH  25  27
ENDBRANCH   2  25
TORSDOF 15
