REMARK  5 active torsions:
REMARK  status: ('A' for Active; 'I' for Inactive)
REMARK    1  A    between atoms: C6_9  and  N3_10 
REMARK    2  A    between atoms: N3_10  and  C7_12 
REMARK    3  A    between atoms: C12_17  and  S1_18 
REMARK    4  A    between atoms: N5_28  and  C18_30 
REMARK    5  A    between atoms: C21_33  and  C22_34 
ROOT
HETATM    1  C1  UNL     1       1.886  -1.560   3.090  1.00  0.00     0.089 C 
HETATM    2  C2  UNL     1       1.423  -0.992   1.775  1.00  0.00     0.079 A 
HETATM    3  N1  UNL     1       0.103  -0.982   1.507  1.00  0.00    -0.344 N 
ATOM      4  H1  UNL     1      -0.552  -1.356   2.194  1.00  0.00     0.167 HD
HETATM    5  C3  UNL     1      -0.366  -0.486   0.346  1.00  0.00     0.073 A 
HETATM    6  C4  UNL     1      -1.742  -0.483   0.084  1.00  0.00     0.116 A 
HETATM    7  C5  UNL     1      -2.643  -1.014   1.065  1.00  0.00     0.105 C 
HETATM    8  N2  UNL     1      -3.346  -1.446   1.869  1.00  0.00    -0.191 NA
HETATM    9  C6  UNL     1      -2.188   0.031  -1.110  1.00  0.00     0.129 A 
HETATM   10  N4  UNL     1      -1.238   0.514  -1.978  1.00  0.00    -0.350 N 
ATOM     11  H4  UNL     1      -1.552   0.899  -2.869  1.00  0.00     0.166 HD
HETATM   12  C15 UNL     1       0.068   0.508  -1.722  1.00  0.00     0.107 A 
HETATM   13  C16 UNL     1       0.561   0.006  -0.545  1.00  0.00     0.052 A 
HETATM   14  C17 UNL     1       1.914   0.007  -0.293  1.00  0.00     0.121 A 
HETATM   15  N5  UNL     1       2.784   0.466  -1.124  1.00  0.00    -0.342 N 
ATOM     16  H5  UNL     1       2.479   0.853  -2.017  1.00  0.00     0.167 HD
HETATM   17  N8  UNL     1       2.312  -0.504   0.885  1.00  0.00    -0.332 N 
ATOM     18  H8  UNL     1       3.307  -0.523   1.111  1.00  0.00     0.168 HD
ENDROOT
BRANCH   9  19
HETATM   19  N3  UNL     1      -3.355   0.106  -1.490  1.00  0.00    -0.341 N 
ATOM     20  H3  UNL     1      -3.387   0.531  -2.417  1.00  0.00     0.167 HD
BRANCH  19  21
HETATM   21  C7  UNL     1      -4.630  -0.194  -1.077  1.00  0.00     0.035 A 
HETATM   22  C8  UNL     1      -5.244  -1.431  -1.348  1.00  0.00     0.030 A 
HETATM   23  C9  UNL     1      -6.528  -1.675  -0.929  1.00  0.00     0.010 A 
HETATM   24  C10 UNL     1      -7.257  -0.734  -0.237  1.00  0.00    -0.040 A 
HETATM   25  C11 UNL     1      -8.656  -1.000   0.218  1.00  0.00     0.049 C 
HETATM   26  C12 UNL     1      -6.654   0.481   0.029  1.00  0.00     0.067 A 
HETATM   27  C14 UNL     1      -5.395   0.718  -0.382  1.00  0.00     0.053 A 
BRANCH  26  28
HETATM   28  S1  UNL     1      -7.543   1.724   0.914  1.00  0.00     0.172 S 
HETATM   29  C13 UNL     1      -9.008   2.140  -0.000  1.00  0.00     0.167 C 
HETATM   30  O1  UNL     1      -6.682   2.952   0.942  1.00  0.00    -0.223 OA
HETATM   31  O2  UNL     1      -7.817   1.321   2.309  1.00  0.00    -0.223 OA
ENDBRANCH  26  28
ENDBRANCH  19  21
ENDBRANCH   9  19
BRANCH  15  32
HETATM   32  C18 UNL     1       4.166   0.436  -0.802  1.00  0.00     0.033 A 
HETATM   33  C19 UNL     1       4.946  -0.590  -1.255  1.00  0.00     0.030 A 
HETATM   34  C20 UNL     1       6.290  -0.654  -0.964  1.00  0.00     0.014 A 
HETATM   35  C21 UNL     1       6.910   0.312  -0.204  1.00  0.00    -0.023 A 
HETATM   36  C26 UNL     1       6.102   1.349   0.248  1.00  0.00     0.014 A 
HETATM   37  C27 UNL     1       4.763   1.425  -0.034  1.00  0.00     0.030 A 
BRANCH  35  38
HETATM   38  C22 UNL     1       8.321   0.249   0.104  1.00  0.00     0.005 A 
HETATM   39  C23 UNL     1       8.849   0.754   1.276  1.00  0.00     0.102 A 
HETATM   40  N6  UNL     1      10.154   0.655   1.482  1.00  0.00    -0.361 N 
HETATM   41  C24 UNL     1      10.977   0.087   0.599  1.00  0.00     0.180 A 
ATOM     42  H6  UNL     1      10.544   1.027   2.348  1.00  0.00     0.166 HD
HETATM   43  N7  UNL     1      10.485  -0.403  -0.535  1.00  0.00    -0.361 N 
HETATM   44  C25 UNL     1       9.185  -0.330  -0.790  1.00  0.00     0.102 A 
ATOM     45  H7  UNL     1      11.111  -0.838  -1.213  1.00  0.00     0.166 HD
ENDBRANCH  35  38
ENDBRANCH  15  32
TORSDOF 5
