REMARK  5 active torsions:
REMARK  status: ('A' for Active; 'I' for Inactive)
REMARK    1  A    between atoms: C9_11  and  N2_12 
REMARK    2  A    between atoms: C11_17  and  C12_18 
REMARK    3  A    between atoms: C13_21  and  C14_22 
REMARK    4  A    between atoms: C14_22  and  N4_23 
REMARK    5  A    between atoms: C21_32  and  N5_33 
ROOT
HETATM    1  C1  UNL     1      -4.839  -4.587   2.402  1.00  0.00     0.046 C 
HETATM    2  C2  UNL     1      -4.910  -3.739   1.130  1.00  0.00     0.061 C 
HETATM    3  C3  UNL     1      -5.260  -4.703   0.008  1.00  0.00     0.046 C 
HETATM    4  C4  UNL     1      -6.007  -2.741   1.320  1.00  0.00     0.044 C 
HETATM    5  C5  UNL     1      -5.901  -1.531   0.457  1.00  0.00     0.063 C 
HETATM    6  C6  UNL     1      -4.518  -0.997   0.370  1.00  0.00     0.045 A 
HETATM    7  N1  UNL     1      -4.248   0.288   0.103  1.00  0.00    -0.359 N 
ATOM      8  H1  UNL     1      -5.021   0.936  -0.046  1.00  0.00     0.165 HD
HETATM    9  C7  UNL     1      -2.975   0.751   0.025  1.00  0.00     0.037 A 
HETATM   10  C8  UNL     1      -1.874  -0.032   0.208  1.00  0.00     0.032 A 
HETATM   11  C9  UNL     1      -2.138  -1.356   0.483  1.00  0.00     0.075 A 
HETATM   12  C10 UNL     1      -3.446  -1.829   0.563  1.00  0.00     0.119 A 
HETATM   13  O1  UNL     1      -3.667  -3.165   0.841  1.00  0.00    -0.337 OA
HETATM   14  C11 UNL     1      -0.655   0.799   0.058  1.00  0.00     0.036 A 
HETATM   15  C21 UNL     1      -1.024   2.039  -0.209  1.00  0.00     0.035 A 
HETATM   16  C26 UNL     1      -2.511   2.132  -0.293  1.00  0.00     0.039 A 
HETATM   17  C27 UNL     1      -3.009   2.385  -1.697  1.00  0.00     0.028 C 
HETATM   18  C28 UNL     1      -3.127   3.017   0.737  1.00  0.00     0.028 C 
ENDROOT
BRANCH  14  19
HETATM   19  C12 UNL     1       0.675   0.183   0.155  1.00  0.00     0.087 A 
HETATM   20  N3  UNL     1       1.664   0.085  -0.683  1.00  0.00    -0.348 N 
HETATM   21  C13 UNL     1       2.773  -0.486  -0.348  1.00  0.00     0.055 A 
ATOM     22  H3  UNL     1       1.562   0.467  -1.623  1.00  0.00     0.166 HD
HETATM   23  C20 UNL     1       2.874  -0.986   0.924  1.00  0.00     0.082 A 
HETATM   24  S1  UNL     1       1.325  -0.590   1.564  1.00  0.00    -0.081 SA
BRANCH  21  25
HETATM   25  C14 UNL     1       3.902  -0.595  -1.349  1.00  0.00     0.120 C 
BRANCH  25  26
HETATM   26  N4  UNL     1       5.087  -1.048  -0.786  1.00  0.00    -0.366 N 
HETATM   27  C15 UNL     1       5.739  -0.321   0.219  1.00  0.00     0.065 C 
HETATM   28  C16 UNL     1       6.929   0.405  -0.388  1.00  0.00     0.071 C 
HETATM   29  C17 UNL     1       8.020  -0.628  -0.593  1.00  0.00     0.172 C 
HETATM   30  O2  UNL     1       7.576  -1.618  -1.459  1.00  0.00    -0.389 OA
HETATM   31  C18 UNL     1       6.916  -2.612  -0.753  1.00  0.00     0.187 C 
HETATM   32  C19 UNL     1       5.398  -2.433  -0.893  1.00  0.00     0.153 C 
ENDBRANCH  25  26
ENDBRANCH  21  25
ENDBRANCH  14  19
BRANCH  15  33
HETATM   33  N5  UNL     1      -0.155   3.158  -0.419  1.00  0.00    -0.378 N 
HETATM   34  C22 UNL     1      -0.516   4.373  -1.091  1.00  0.00     0.149 C 
HETATM   35  C23 UNL     1      -0.486   5.521  -0.069  1.00  0.00     0.187 C 
HETATM   36  O3  UNL     1       0.387   5.239   0.987  1.00  0.00    -0.388 OA
HETATM   37  C24 UNL     1       1.526   4.631   0.474  1.00  0.00     0.187 C 
HETATM   38  C25 UNL     1       1.237   3.175   0.067  1.00  0.00     0.149 C 
ENDBRANCH  15  33
BRANCH  11  39
HETATM   39  N2  UNL     1      -1.211  -2.194   0.659  1.00  0.00    -0.396 N 
ATOM     40  H22 UNL     1      -0.253  -1.848   0.600  1.00  0.00     0.156 HD
ATOM     41  H21 UNL     1      -1.406  -3.174   0.863  1.00  0.00     0.156 HD
ENDBRANCH  11  39
TORSDOF 5
