REMARK  3 active torsions:
REMARK  status: ('A' for Active; 'I' for Inactive)
REMARK    1  A    between atoms: C2_2  and  O1_4 
REMARK    2  A    between atoms: O1_4  and  C4_5 
REMARK    3  A    between atoms: C4_5  and  C5_7 
ROOT
HETATM    1  C5  UNL     1       1.306   0.824   0.507  1.00  0.00     0.103 C 
HETATM    2  C6  UNL     1       0.702  -0.424   1.130  1.00  0.00     0.016 C 
HETATM    3  C7  UNL     1       0.780  -1.541   0.136  1.00  0.00     0.001 C 
HETATM    4  C8  UNL     1       0.250  -2.843   0.633  1.00  0.00     0.000 C 
HETATM    5  C9  UNL     1      -1.011  -2.768   1.420  1.00  0.00     0.000 C 
HETATM    6  C10 UNL     1      -2.249  -2.964   0.578  1.00  0.00     0.000 C 
HETATM    7  C11 UNL     1      -2.792  -1.727  -0.028  1.00  0.00     0.000 C 
HETATM    8  C12 UNL     1      -3.911  -1.121   0.807  1.00  0.00     0.000 C 
HETATM    9  C13 UNL     1      -4.641  -0.047   0.071  1.00  0.00     0.000 C 
HETATM   10  C14 UNL     1      -3.747   0.866  -0.725  1.00  0.00     0.000 C 
HETATM   11  C15 UNL     1      -2.969   1.828   0.150  1.00  0.00     0.000 C 
HETATM   12  C16 UNL     1      -2.589   3.023  -0.670  1.00  0.00     0.009 C 
HETATM   13  C17 UNL     1      -1.596   2.723  -1.756  1.00  0.00     0.103 C 
HETATM   14  C18 UNL     1      -0.241   3.200  -1.383  1.00  0.00     0.217 C 
HETATM   15  O3  UNL     1      -0.118   4.422  -1.103  1.00  0.00    -0.274 OA
HETATM   16  N1  UNL     1       0.905   2.360  -1.329  1.00  0.00    -0.360 N 
ATOM     17  H1  UNL     1       1.811   2.755  -1.582  1.00  0.00     0.162 HD
HETATM   18  C19 UNL     1       0.843   0.965  -0.929  1.00  0.00     0.137 C 
ENDROOT
BRANCH   1  19
HETATM   19  C4  UNL     1       2.758   0.900   0.651  1.00  0.00     0.265 C 
HETATM   20  O2  UNL     1       3.274   1.866   1.269  1.00  0.00    -0.265 OA
BRANCH  19  21
HETATM   21  O1  UNL     1       3.653  -0.031   0.149  1.00  0.00    -0.316 OA
BRANCH  21  22
HETATM   22  C2  UNL     1       5.036   0.026   0.276  1.00  0.00     0.123 C 
HETATM   23  C1  UNL     1       5.653  -1.153   0.965  1.00  0.00     0.040 C 
HETATM   24  C3  UNL     1       5.712   0.144  -1.089  1.00  0.00     0.040 C 
ENDBRANCH  21  22
ENDBRANCH  19  21
ENDBRANCH   1  19
TORSDOF 3
