REMARK  3 active torsions:
REMARK  status: ('A' for Active; 'I' for Inactive)
REMARK    1  A    between atoms: C2_2  and  C4_4 
REMARK    2  A    between atoms: C21_22  and  O2_23 
REMARK    3  A    between atoms: O2_23  and  O3_24 
ROOT
HETATM    1  C4  UNL     1       2.485  -0.089   0.363  1.00  0.00     0.072 C 
HETATM    2  C5  UNL     1       1.627   0.581   1.366  1.00  0.00     0.020 C 
HETATM    3  C6  UNL     1       0.721   1.663   0.881  1.00  0.00     0.005 C 
HETATM    4  C7  UNL     1       1.477   2.668   0.064  1.00  0.00     0.040 C 
HETATM    5  C8  UNL     1       0.860   2.038  -1.136  1.00  0.00    -0.077 C 
HETATM    6  C9  UNL     1       1.212   2.154  -2.407  1.00  0.00     0.015 C 
HETATM    7  C10 UNL     1      -0.160   1.352  -0.278  1.00  0.00     0.013 C 
HETATM    8  C11 UNL     1      -1.394   2.189  -0.257  1.00  0.00     0.017 C 
HETATM    9  C12 UNL     1      -2.378   2.011   0.805  1.00  0.00     0.002 C 
HETATM   10  C13 UNL     1      -2.383   0.794   1.641  1.00  0.00     0.005 C 
HETATM   11  C14 UNL     1      -2.918  -0.445   0.997  1.00  0.00    -0.014 C 
HETATM   12  C15 UNL     1      -2.338  -1.684   1.633  1.00  0.00     0.010 C 
HETATM   13  C16 UNL     1      -2.833  -0.455  -0.494  1.00  0.00    -0.009 C 
HETATM   14  C17 UNL     1      -3.730  -1.634  -0.935  1.00  0.00     0.011 C 
HETATM   15  C18 UNL     1      -1.508  -0.686  -1.083  1.00  0.00     0.016 C 
HETATM   16  C19 UNL     1      -1.659  -0.508  -2.603  1.00  0.00     0.013 C 
HETATM   17  C20 UNL     1      -0.312  -0.079  -0.506  1.00  0.00     0.142 C 
HETATM   18  O1  UNL     1       0.782  -0.483  -1.298  1.00  0.00    -0.351 OA
HETATM   19  C21 UNL     1       1.810  -1.047  -0.548  1.00  0.00     0.305 C 
ENDROOT
BRANCH   1  20
HETATM   20  C2  UNL     1       3.588  -0.797   1.070  1.00  0.00    -0.084 C 
HETATM   21  C1  UNL     1       3.636  -0.952   2.400  1.00  0.00     0.014 C 
HETATM   22  C3  UNL     1       4.767  -1.377   0.324  1.00  0.00     0.043 C 
ENDBRANCH   1  20
BRANCH  19  23
HETATM   23  O2  UNL     1       2.692  -1.558  -1.488  1.00  0.00    -0.210 OA
BRANCH  23  24
HETATM   24  O3  UNL     1       2.667  -2.892  -1.516  1.00  0.00    -0.248 OA
ATOM     25  H3  UNL     1       3.271  -3.242  -2.160  1.00  0.00     0.253 HD
ENDBRANCH  23  24
ENDBRANCH  19  23
TORSDOF 3
