REMARK  5 active torsions:
REMARK  status: ('A' for Active; 'I' for Inactive)
REMARK    1  A    between atoms: C2_2  and  C4_4 
REMARK    2  A    between atoms: C9_9  and  C10_10 
REMARK    3  A    between atoms: C19_19  and  O1_20 
REMARK    4  A    between atoms: C19_19  and  C20_22 
REMARK    5  A    between atoms: C20_22  and  O3_24 
ROOT
HETATM    1  C4  UNL     1       0.944  -0.683  -1.425  1.00  0.00     0.027 C 
HETATM    2  C5  UNL     1       0.142   0.552  -1.727  1.00  0.00     0.019 C 
HETATM    3  C6  UNL     1      -0.648   1.126  -0.644  1.00  0.00     0.011 C 
HETATM    4  C7  UNL     1      -0.738   0.514   0.703  1.00  0.00    -0.036 C 
HETATM    5  C8  UNL     1      -0.235   1.649   1.638  1.00  0.00     0.016 C 
HETATM    6  C9  UNL     1      -2.123   0.100   1.074  1.00  0.00    -0.003 C 
HETATM    7  C13 UNL     1      -2.071  -1.325   1.511  1.00  0.00     0.006 C 
HETATM    8  C14 UNL     1      -0.668  -1.832   1.335  1.00  0.00     0.006 C 
HETATM    9  C15 UNL     1       0.168  -0.652   1.010  1.00  0.00    -0.001 C 
HETATM   10  C16 UNL     1       1.211  -0.722   0.012  1.00  0.00     0.007 C 
HETATM   11  C17 UNL     1       2.258  -1.798   0.136  1.00  0.00     0.010 C 
HETATM   12  C18 UNL     1       3.214  -1.314  -0.942  1.00  0.00     0.050 C 
HETATM   13  C19 UNL     1       2.402  -0.503  -1.930  1.00  0.00     0.157 C 
ENDROOT
BRANCH  13  14
HETATM   14  O1  UNL     1       2.483  -0.982  -3.242  1.00  0.00    -0.378 OA
ATOM     15  H1  UNL     1       3.375  -0.872  -3.551  1.00  0.00     0.211 HD
ENDBRANCH  13  14
BRANCH  13  16
HETATM   16  C20 UNL     1       2.840   0.904  -1.985  1.00  0.00     0.294 C 
HETATM   17  O2  UNL     1       3.136   1.416  -3.124  1.00  0.00    -0.262 OA
BRANCH  16  18
HETATM   18  O3  UNL     1       2.987   1.785  -0.938  1.00  0.00    -0.324 OA
HETATM   19  C21 UNL     1       3.422   3.123  -1.100  1.00  0.00     0.213 C 
ENDBRANCH  16  18
ENDBRANCH  13  16
BRANCH   1  20
HETATM   20  C2  UNL     1       0.404  -1.854  -2.081  1.00  0.00    -0.081 C 
HETATM   21  C1  UNL     1       0.999  -2.917  -2.557  1.00  0.00     0.015 C 
HETATM   22  C3  UNL     1      -1.115  -1.933  -2.216  1.00  0.00     0.043 C 
ENDBRANCH   1  20
BRANCH   6  23
HETATM   23  C10 UNL     1      -2.788   0.946   2.138  1.00  0.00    -0.018 C 
HETATM   24  C11 UNL     1      -4.199   0.367   2.392  1.00  0.00     0.010 C 
HETATM   25  C12 UNL     1      -3.028   2.371   1.702  1.00  0.00     0.010 C 
ENDBRANCH   6  23
TORSDOF 5
