REMARK  20 active torsions:
REMARK  status: ('A' for Active; 'I' for Inactive)
REMARK    1  A    between atoms: O1_2  and  C2_3 
REMARK    2  A    between atoms: C2_3  and  C3_5 
REMARK    3  A    between atoms: N2_9  and  C5_11 
REMARK    4  A    between atoms: N3_12  and  O3_13 
REMARK    5  A    between atoms: C6_15  and  O4_16 
REMARK    6  A    between atoms: C6_15  and  O5_18 
REMARK    7  A    between atoms: C7_20  and  N4_21 
REMARK    8  A    between atoms: C8_25  and  C9_26 
REMARK    9  A    between atoms: C9_26  and  N5_27 
REMARK   10  A    between atoms: C13_34  and  N7_35 
REMARK   11  A    between atoms: N8_38  and  O7_39 
REMARK   12  A    between atoms: C14_41  and  N9_42 
REMARK   13  A    between atoms: N9_42  and  C15_44 
REMARK   14  A    between atoms: C15_44  and  O8_45 
REMARK   15  A    between atoms: C15_44  and  C16_47 
REMARK   16  A    between atoms: C16_47  and  C17_48 
REMARK   17  A    between atoms: C16_47  and  C19_52 
REMARK   18  A    between atoms: C17_48  and  C18_49 
REMARK   19  A    between atoms: C19_52  and  O10_53 
REMARK   20  A    between atoms: C19_52  and  O11_55 
ROOT
HETATM    1  C3  UNL     1       1.254   1.671   1.596  1.00  0.00     0.171 A 
HETATM    2  N1  UNL     1      -0.085   1.678   1.894  1.00  0.00    -0.179 N 
ATOM      3  H1  UNL     1      -0.579   2.427   2.379  1.00  0.00     0.184 HD
HETATM    4  C4  UNL     1      -0.636   0.554   1.451  1.00  0.00     0.712 A 
HETATM    5  N2  UNL     1      -1.874   0.278   1.591  1.00  0.00    -0.176 N 
ATOM      6  H2  UNL     1      -2.434   0.981   2.073  1.00  0.00     0.185 HD
HETATM    7  N8  UNL     1       0.326  -0.155   0.884  1.00  0.00    -0.033 N 
HETATM    8  C14 UNL     1       1.557   0.504   0.948  1.00  0.00     0.183 A 
ENDROOT
BRANCH   5   9
HETATM    9  C5  UNL     1      -2.558  -0.858   1.171  1.00  0.00     0.134 C 
HETATM   10  N3  UNL     1      -2.550  -2.019   1.714  1.00  0.00    -0.184 N 
HETATM   11  C6  UNL     1      -3.409  -2.964   0.981  1.00  0.00     0.300 C 
HETATM   12  C7  UNL     1      -4.421  -2.012   0.313  1.00  0.00     0.283 C 
HETATM   13  C8  UNL     1      -3.454  -0.898  -0.041  1.00  0.00     0.113 C 
BRANCH  10  14
HETATM   14  O3  UNL     1      -1.863  -2.443   2.852  1.00  0.00    -0.281 OA
ATOM     15  H3  UNL     1      -1.857  -3.304   3.254  1.00  0.00     0.245 HD
ENDBRANCH  10  14
BRANCH  11  16
HETATM   16  O4  UNL     1      -2.730  -3.729   0.075  1.00  0.00    -0.345 OA
ATOM     17  H4  UNL     1      -3.284  -4.339  -0.398  1.00  0.00     0.215 HD
ENDBRANCH  11  16
BRANCH  11  18
HETATM   18  O5  UNL     1      -4.142  -3.775   1.840  1.00  0.00    -0.345 OA
ATOM     19  H5  UNL     1      -4.696  -4.385   1.367  1.00  0.00     0.215 HD
ENDBRANCH  11  18
BRANCH  12  20
HETATM   20  N4  UNL     1      -5.435  -1.641   1.247  1.00  0.00    -0.067 N 
ATOM     21  H43 UNL     1      -5.891  -2.455   1.659  1.00  0.00     0.275 HD
ATOM     22  H42 UNL     1      -5.042  -1.243   2.100  1.00  0.00     0.275 HD
ATOM     23  H41 UNL     1      -6.105  -1.011   0.805  1.00  0.00     0.275 HD
ENDBRANCH  12  20
BRANCH  13  24
HETATM   24  C9  UNL     1      -4.065   0.422  -0.351  1.00  0.00     0.161 C 
BRANCH  24  25
HETATM   25  N5  UNL     1      -4.907   0.468  -1.509  1.00  0.00    -0.193 N 
HETATM   26  C10 UNL     1      -6.236   0.344  -1.508  1.00  0.00     0.114 A 
HETATM   27  C11 UNL     1      -7.007   0.424  -2.680  1.00  0.00     0.092 A 
HETATM   28  C12 UNL     1      -6.377   0.639  -3.877  1.00  0.00     0.260 A 
HETATM   29  O6  UNL     1      -6.983   0.726  -4.978  1.00  0.00    -0.268 OA
HETATM   30  N6  UNL     1      -5.039   0.763  -3.859  1.00  0.00    -0.156 N 
HETATM   31  C13 UNL     1      -4.336   0.683  -2.738  1.00  0.00     0.680 A 
ATOM     32  H6  UNL     1      -4.547   0.924  -4.738  1.00  0.00     0.187 HD
BRANCH  31  33
HETATM   33  N7  UNL     1      -3.053   0.809  -2.775  1.00  0.00    -0.234 N 
ATOM     34  H72 UNL     1      -2.512   0.747  -1.912  1.00  0.00     0.174 HD
ATOM     35  H71 UNL     1      -2.629   0.969  -3.689  1.00  0.00     0.174 HD
ENDBRANCH  31  33
ENDBRANCH  24  25
ENDBRANCH  13  24
ENDBRANCH   5   9
BRANCH   7  36
HETATM   36  O7  UNL     1       0.122  -1.373   0.317  1.00  0.00    -0.268 OA
ATOM     37  H7  UNL     1       0.813  -1.882  -0.090  1.00  0.00     0.246 HD
ENDBRANCH   7  36
BRANCH   1  38
HETATM   38  C2  UNL     1       2.108   2.816   1.874  1.00  0.00     0.314 C 
HETATM   39  O2  UNL     1       3.285   2.967   1.549  1.00  0.00    -0.257 OA
BRANCH  38  40
HETATM   40  O1  UNL     1       1.563   3.907   2.602  1.00  0.00    -0.321 OA
HETATM   41  C1  UNL     1       2.396   5.012   2.869  1.00  0.00     0.213 C 
ENDBRANCH  38  40
ENDBRANCH   1  38
BRANCH   8  42
HETATM   42  N9  UNL     1       2.724  -0.119   0.505  1.00  0.00    -0.345 N 
ATOM     43  H9  UNL     1       2.552  -0.923  -0.099  1.00  0.00     0.163 HD
BRANCH  42  44
HETATM   44  C15 UNL     1       4.083   0.137   0.722  1.00  0.00     0.228 C 
BRANCH  44  45
HETATM   45  O8  UNL     1       4.441   0.088   2.100  1.00  0.00    -0.376 OA
ATOM     46  H8  UNL     1       5.363   0.262   2.247  1.00  0.00     0.212 HD
ENDBRANCH  44  45
BRANCH  44  47
HETATM   47  C16 UNL     1       4.964  -0.982   0.070  1.00  0.00     0.097 C 
BRANCH  47  48
HETATM   48  C17 UNL     1       4.762  -1.069  -1.395  1.00  0.00     0.113 C 
BRANCH  48  49
HETATM   49  C18 UNL     1       5.092   0.180  -2.120  1.00  0.00     0.231 C 
HETATM   50  N10 UNL     1       6.313   0.303  -2.839  1.00  0.00    -0.062 NA
HETATM   51  O9  UNL     1       4.323   1.188  -2.140  1.00  0.00    -0.277 OA
ENDBRANCH  48  49
ENDBRANCH  47  48
BRANCH  47  52
HETATM   52  C19 UNL     1       6.360  -0.725   0.510  1.00  0.00     0.262 C 
BRANCH  52  53
HETATM   53  O10 UNL     1       7.280  -1.624   0.023  1.00  0.00    -0.371 OA
ATOM     54  H10 UNL     1       8.172  -1.460   0.304  1.00  0.00     0.212 HD
ENDBRANCH  52  53
BRANCH  52  55
HETATM   55  O11 UNL     1       6.802   0.573   0.270  1.00  0.00    -0.371 OA
ATOM     56  H11 UNL     1       7.694   0.737   0.551  1.00  0.00     0.212 HD
ENDBRANCH  52  55
ENDBRANCH  47  52
ENDBRANCH  44  47
ENDBRANCH  42  44
ENDBRANCH   8  42
TORSDOF 20
