REMARK  18 active torsions:
REMARK  status: ('A' for Active; 'I' for Inactive)
REMARK    1  A    between atoms: C2_2  and  C3_3 
REMARK    2  A    between atoms: C2_2  and  C4_10 
REMARK    3  A    between atoms: N5_12  and  C6_13 
REMARK    4  A    between atoms: C7_14  and  O1_15 
REMARK    5  A    between atoms: C8_17  and  O2_18 
REMARK    6  A    between atoms: C9_20  and  O3_21 
REMARK    7  A    between atoms: O3_21  and  C10_22 
REMARK    8  A    between atoms: C10_22  and  C11_23 
REMARK    9  A    between atoms: C11_23  and  O4_24 
REMARK   10  A    between atoms: C11_23  and  C12_26 
REMARK   11  A    between atoms: C12_26  and  N6_27 
REMARK   12  A    between atoms: C13_31  and  O5_32 
REMARK   13  A    between atoms: C15_36  and  O6_37 
REMARK   14  A    between atoms: C16_39  and  O7_40 
REMARK   15  A    between atoms: C17_44  and  C18_45 
REMARK   16  A    between atoms: C18_45  and  O8_46 
REMARK   17  A    between atoms: O8_46  and  C19_47 
REMARK   18  A    between atoms: C19_47  and  N11_52 
ROOT
HETATM    1  C6  UNL     1      -0.271  -1.622  -1.047  1.00  0.00     0.170 C 
HETATM    2  C7  UNL     1       1.023  -1.137  -1.642  1.00  0.00     0.177 C 
HETATM    3  C8  UNL     1       1.635   0.000  -0.909  1.00  0.00     0.182 C 
HETATM    4  C9  UNL     1       2.688  -0.418   0.114  1.00  0.00     0.204 C 
HETATM    5  C13 UNL     1       2.174  -1.379   1.120  1.00  0.00     0.203 C 
HETATM    6  C14 UNL     1       2.707  -2.740   0.929  1.00  0.00     0.103 C 
HETATM    7  N7  UNL     1       3.160  -3.820   0.782  1.00  0.00    -0.194 NA
HETATM    8  C15 UNL     1       0.701  -1.455   1.290  1.00  0.00     0.200 C 
HETATM    9  C16 UNL     1      -0.088  -2.237   0.319  1.00  0.00     0.178 C 
ENDROOT
BRANCH   5  10
HETATM   10  O5  UNL     1       2.677  -1.012   2.413  1.00  0.00    -0.371 OA
ATOM     11  H5  UNL     1       2.348  -1.628   3.057  1.00  0.00     0.212 HD
ENDBRANCH   5  10
BRANCH   4  12
HETATM   12  O3  UNL     1       3.823  -0.884  -0.480  1.00  0.00    -0.376 OA
BRANCH  12  13
HETATM   13  C10 UNL     1       4.948  -0.141  -0.418  1.00  0.00     0.201 C 
BRANCH  13  14
HETATM   14  C11 UNL     1       5.561   0.177   0.889  1.00  0.00     0.167 C 
BRANCH  14  15
HETATM   15  O4  UNL     1       6.683   1.015   0.587  1.00  0.00    -0.392 OA
ATOM     16  H4  UNL     1       7.077   1.219   1.427  1.00  0.00     0.210 HD
ENDBRANCH  14  15
BRANCH  14  17
HETATM   17  C12 UNL     1       6.202  -1.009   1.593  1.00  0.00     0.263 C 
BRANCH  17  18
HETATM   18  N6  UNL     1       6.908  -0.553   2.795  1.00  0.00    -0.077 N 
ATOM     19  H63 UNL     1       7.585   0.181   2.586  1.00  0.00     0.274 HD
ATOM     20  H62 UNL     1       6.300  -0.021   3.418  1.00  0.00     0.274 HD
ATOM     21  H61 UNL     1       7.338  -1.348   3.267  1.00  0.00     0.274 HD
ENDBRANCH  17  18
ENDBRANCH  14  17
ENDBRANCH  13  14
ENDBRANCH  12  13
ENDBRANCH   4  12
BRANCH   8  22
HETATM   22  O6  UNL     1       0.489  -2.084   2.550  1.00  0.00    -0.389 OA
ATOM     23  H6  UNL     1      -0.453  -2.133   2.659  1.00  0.00     0.210 HD
ENDBRANCH   8  22
BRANCH   3  24
HETATM   24  O2  UNL     1       2.348   0.780  -1.852  1.00  0.00    -0.390 OA
ATOM     25  H2  UNL     1       2.740   1.507  -1.383  1.00  0.00     0.210 HD
ENDBRANCH   3  24
BRANCH   9  26
HETATM   26  O7  UNL     1       0.291  -3.541   0.180  1.00  0.00    -0.391 OA
ATOM     27  H7  UNL     1       0.406  -3.928   1.040  1.00  0.00     0.210 HD
ENDBRANCH   9  26
BRANCH   2  28
HETATM   28  O1  UNL     1       0.794  -0.752  -2.958  1.00  0.00    -0.391 OA
ATOM     29  H1  UNL     1       1.611  -0.446  -3.334  1.00  0.00     0.210 HD
ENDBRANCH   2  28
BRANCH   1  30
HETATM   30  N5  UNL     1      -1.305  -0.609  -1.046  1.00  0.00    -0.292 N 
HETATM   31  C5  UNL     1      -1.814   0.092  -2.064  1.00  0.00     0.125 A 
HETATM   32  C4  UNL     1      -2.809   0.974  -1.594  1.00  0.00     0.020 A 
HETATM   33  C17 UNL     1      -2.853   0.751  -0.257  1.00  0.00     0.062 A 
HETATM   34  N8  UNL     1      -1.941  -0.199   0.023  1.00  0.00    -0.299 N 
ATOM     35  H8  UNL     1      -1.765  -0.559   0.961  1.00  0.00     0.187 HD
BRANCH  32  36
HETATM   36  C2  UNL     1      -3.618   1.856  -2.410  1.00  0.00     0.014 C 
HETATM   37  C1  UNL     1      -3.977   3.061  -2.031  1.00  0.00     0.028 C 
BRANCH  36  38
HETATM   38  C3  UNL     1      -4.080   1.373  -3.717  1.00  0.00     0.141 C 
HETATM   39  N1  UNL     1      -4.815   2.079  -4.533  1.00  0.00    -0.270 N 
HETATM   40  N2  UNL     1      -5.055   1.307  -5.658  1.00  0.00    -0.007 NA
ATOM     41  H1  UNL     1      -5.152   3.028  -4.371  1.00  0.00     0.185 HD
HETATM   42  N3  UNL     1      -4.088   0.298  -5.696  1.00  0.00    -0.007 NA
HETATM   43  N4  UNL     1      -3.859   0.113  -4.300  1.00  0.00    -0.270 N 
ATOM     44  H4  UNL     1      -3.592  -0.750  -3.826  1.00  0.00     0.185 HD
ENDBRANCH  36  38
ENDBRANCH  32  36
BRANCH  33  45
HETATM   45  C18 UNL     1      -3.711   1.400   0.781  1.00  0.00     0.238 C 
BRANCH  45  46
HETATM   46  O8  UNL     1      -3.421   0.798   2.018  1.00  0.00    -0.316 OA
BRANCH  46  47
HETATM   47  C19 UNL     1      -4.002   1.113   3.203  1.00  0.00     0.228 C 
HETATM   48  N9  UNL     1      -4.781   2.066   3.375  1.00  0.00    -0.259 N 
HETATM   49  C20 UNL     1      -5.294   3.033   2.583  1.00  0.00     0.185 C 
ATOM     50  H9  UNL     1      -5.110   2.134   4.338  1.00  0.00     0.181 HD
HETATM   51  N10 UNL     1      -5.747   3.870   1.933  1.00  0.00    -0.172 NA
BRANCH  47  52
HETATM   52  N11 UNL     1      -3.652   0.240   4.317  1.00  0.00    -0.360 N 
HETATM   53  C21 UNL     1      -2.360  -0.393   4.360  1.00  0.00     0.150 C 
ATOM     54  H11 UNL     1      -4.324   0.078   5.067  1.00  0.00     0.162 HD
ENDBRANCH  47  52
ENDBRANCH  46  47
ENDBRANCH  45  46
ENDBRANCH  33  45
ENDBRANCH   1  30
TORSDOF 18
