REMARK  14 active torsions:
REMARK  status: ('A' for Active; 'I' for Inactive)
REMARK    1  A    between atoms: N5_15  and  C6_16 
REMARK    2  A    between atoms: C7_18  and  N6_19 
REMARK    3  A    between atoms: C8_22  and  C9_23 
REMARK    4  A    between atoms: C9_23  and  O2_24 
REMARK    5  A    between atoms: C9_23  and  N8_26 
REMARK    6  A    between atoms: N8_26  and  C10_28 
REMARK    7  A    between atoms: C10_28  and  C11_29 
REMARK    8  A    between atoms: C10_28  and  C12_32 
REMARK    9  A    between atoms: C12_32  and  O4_33 
REMARK   10  A    between atoms: C12_32  and  C13_35 
REMARK   11  A    between atoms: C13_35  and  N10_36 
REMARK   12  A    between atoms: C16_51  and  O5_52 
REMARK   13  A    between atoms: C17_54  and  N16_55 
REMARK   14  A    between atoms: C18_59  and  O6_60 
ROOT
HETATM    1  N6  UNL     1      -0.182  -0.593  -0.193  1.00  0.00    -0.239 N 
HETATM    2  N7  UNL     1      -0.457  -0.321  -1.492  1.00  0.00    -0.279 N 
ATOM      3  H7  UNL     1       0.110  -0.630  -2.281  1.00  0.00     0.188 HD
HETATM    4  C8  UNL     1      -1.558   0.398  -1.597  1.00  0.00     0.147 A 
HETATM    5  N11 UNL     1      -2.002   0.593  -0.374  1.00  0.00    -0.323 N 
ATOM      6  H11 UNL     1      -2.841   1.113  -0.117  1.00  0.00     0.169 HD
HETATM    7  C14 UNL     1      -1.148  -0.019   0.487  1.00  0.00     0.173 A 
HETATM    8  C15 UNL     1      -1.341   0.028   1.912  1.00  0.00     0.180 A 
HETATM    9  N12 UNL     1      -2.326   0.647   2.557  1.00  0.00    -0.264 N 
ATOM     10  H12 UNL     1      -3.071   1.177   2.105  1.00  0.00     0.186 HD
HETATM   11  N13 UNL     1      -2.208   0.482   3.873  1.00  0.00    -0.005 NA
HETATM   12  N14 UNL     1      -1.115  -0.262   4.036  1.00  0.00    -0.225 N 
ATOM     13  H14 UNL     1      -0.739  -0.573   4.932  1.00  0.00     0.205 HD
HETATM   14  N15 UNL     1      -0.598  -0.532   2.853  1.00  0.00    -0.268 N 
ATOM     15  H15 UNL     1       0.243  -1.086   2.689  1.00  0.00     0.190 HD
ENDROOT
BRANCH   1  16
HETATM   16  C7  UNL     1       0.964  -1.347   0.172  1.00  0.00     0.279 C 
HETATM   17  O1  UNL     1       1.705  -0.686   1.124  1.00  0.00    -0.335 OA
HETATM   18  C6  UNL     1       2.829  -1.377   1.551  1.00  0.00     0.264 C 
HETATM   19  C18 UNL     1       3.213  -2.561   0.745  1.00  0.00     0.200 C 
HETATM   20  C17 UNL     1       2.097  -3.523   0.629  1.00  0.00     0.249 C 
HETATM   21  C16 UNL     1       0.780  -2.793   0.488  1.00  0.00     0.202 C 
BRANCH  18  22
HETATM   22  N5  UNL     1       3.966  -0.436   1.696  1.00  0.00    -0.297 N 
HETATM   23  C3  UNL     1       4.695  -0.165   2.786  1.00  0.00     0.142 A 
HETATM   24  N3  UNL     1       4.635  -0.641   4.046  1.00  0.00    -0.336 N 
HETATM   25  C4  UNL     1       5.657   0.770   2.503  1.00  0.00     0.122 A 
HETATM   26  C2  UNL     1       5.464  -0.249   5.032  1.00  0.00     0.183 A 
ATOM     27  H3  UNL     1       3.922  -1.337   4.265  1.00  0.00     0.168 HD
HETATM   28  N2  UNL     1       6.410   0.671   4.750  1.00  0.00    -0.337 N 
HETATM   29  C1  UNL     1       6.506   1.174   3.503  1.00  0.00     0.131 A 
ATOM     30  H2  UNL     1       7.051   0.985   5.479  1.00  0.00     0.168 HD
HETATM   31  N1  UNL     1       7.424   2.045   3.233  1.00  0.00    -0.383 N 
ATOM     32  H12 UNL     1       8.055   2.345   3.976  1.00  0.00     0.157 HD
ATOM     33  H11 UNL     1       7.497   2.426   2.289  1.00  0.00     0.157 HD
HETATM   34  N4  UNL     1       5.500   1.074   1.194  1.00  0.00    -0.346 N 
HETATM   35  C5  UNL     1       4.476   0.338   0.726  1.00  0.00     0.188 A 
ATOM     36  H4  UNL     1       6.057   1.740   0.659  1.00  0.00     0.167 HD
ENDBRANCH  18  22
BRANCH  19  37
HETATM   37  O6  UNL     1       3.865  -2.268  -0.456  1.00  0.00    -0.389 OA
ATOM     38  H6  UNL     1       4.111  -3.027  -0.972  1.00  0.00     0.210 HD
ENDBRANCH  19  37
BRANCH  20  39
HETATM   39  N16 UNL     1       2.277  -4.446  -0.491  1.00  0.00    -0.070 N 
ATOM     40 3H16 UNL     1       1.491  -5.089  -0.587  1.00  0.00     0.274 HD
ATOM     41 2H16 UNL     1       2.195  -3.975  -1.392  1.00  0.00     0.274 HD
ATOM     42 1H16 UNL     1       3.165  -4.938  -0.396  1.00  0.00     0.274 HD
ENDBRANCH  20  39
BRANCH  21  43
HETATM   43  O5  UNL     1       0.155  -3.411  -0.619  1.00  0.00    -0.389 OA
ATOM     44  H5  UNL     1       0.038  -4.332  -0.418  1.00  0.00     0.210 HD
ENDBRANCH  21  43
ENDBRANCH   1  16
BRANCH   4  45
HETATM   45  C9  UNL     1      -2.097   0.905  -2.875  1.00  0.00     0.284 C 
BRANCH  45  46
HETATM   46  O2  UNL     1      -1.739  -0.107  -3.830  1.00  0.00    -0.370 OA
ATOM     47  H2  UNL     1      -2.086   0.219  -4.652  1.00  0.00     0.212 HD
ENDBRANCH  45  46
BRANCH  45  48
HETATM   48  N8  UNL     1      -3.470   1.073  -3.005  1.00  0.00    -0.376 N 
ATOM     49  H8  UNL     1      -3.934   0.643  -3.805  1.00  0.00     0.157 HD
BRANCH  48  50
HETATM   50  C10 UNL     1      -4.251   1.799  -2.100  1.00  0.00     0.199 C 
BRANCH  50  51
HETATM   51  C11 UNL     1      -3.906   3.221  -1.926  1.00  0.00     0.256 C 
HETATM   52  N9  UNL     1      -4.718   3.962  -1.021  1.00  0.00    -0.060 NA
HETATM   53  O3  UNL     1      -2.982   3.834  -2.484  1.00  0.00    -0.274 OA
ENDBRANCH  50  51
BRANCH  50  54
HETATM   54  C12 UNL     1      -5.726   1.769  -2.552  1.00  0.00     0.174 C 
BRANCH  54  55
HETATM   55  O4  UNL     1      -6.157   0.469  -2.617  1.00  0.00    -0.391 OA
ATOM     56  H4  UNL     1      -7.065   0.451  -2.895  1.00  0.00     0.210 HD
ENDBRANCH  54  55
BRANCH  54  57
HETATM   57  C13 UNL     1      -5.905   2.432  -3.882  1.00  0.00     0.263 C 
BRANCH  57  58
HETATM   58  N10 UNL     1      -5.168   1.776  -4.937  1.00  0.00    -0.077 N 
ATOM     59 3H10 UNL     1      -4.180   1.697  -4.698  1.00  0.00     0.274 HD
ATOM     60 2H10 UNL     1      -5.405   0.785  -4.987  1.00  0.00     0.274 HD
ATOM     61 1H10 UNL     1      -5.290   2.228  -5.843  1.00  0.00     0.274 HD
ENDBRANCH  57  58
ENDBRANCH  54  57
ENDBRANCH  50  54
ENDBRANCH  48  50
ENDBRANCH  45  48
ENDBRANCH   4  45
TORSDOF 14
