REMARK  5 active torsions:
REMARK  status: ('A' for Active; 'I' for Inactive)
REMARK    1  A    between atoms: C6_8  and  N2_9 
REMARK    2  A    between atoms: C7_14  and  N4_15 
REMARK    3  A    between atoms: N4_15  and  C8_17 
REMARK    4  A    between atoms: C8_17  and  C9_18 
REMARK    5  A    between atoms: C9_18  and  N5_19 
ROOT
HETATM    1  C1  UNL     1       4.473  -2.279  -1.719  1.00  0.00     0.018 C 
HETATM    2  C2  UNL     1       4.180  -1.375  -0.973  1.00  0.00    -0.072 C 
HETATM    3  C3  UNL     1       3.819  -0.301  -0.103  1.00  0.00     0.083 A 
HETATM    4  C4  UNL     1       4.828   0.423   0.496  1.00  0.00     0.045 A 
HETATM    5  C5  UNL     1       6.269   0.134   0.284  1.00  0.00     0.070 C 
HETATM    6  N1  UNL     1       4.460   1.426   1.309  1.00  0.00    -0.195 N 
ATOM      7  H1  UNL     1       5.181   1.982   1.769  1.00  0.00     0.184 HD
HETATM    8  C6  UNL     1       3.160   1.718   1.534  1.00  0.00     0.677 A 
HETATM    9  N3  UNL     1       2.184   1.005   0.945  1.00  0.00    -0.176 N 
ATOM     10  H3  UNL     1       1.210   1.244   1.131  1.00  0.00     0.186 HD
HETATM   11  C7  UNL     1       2.465  -0.016   0.116  1.00  0.00     0.137 A 
ENDROOT
BRANCH  11  12
HETATM   12  N4  UNL     1       1.590  -0.740  -0.483  1.00  0.00    -0.373 N 
ATOM     13  H4  UNL     1       1.874  -1.500  -1.101  1.00  0.00     0.161 HD
BRANCH  12  14
HETATM   14  C8  UNL     1       0.191  -0.449  -0.259  1.00  0.00     0.140 C 
BRANCH  14  15
HETATM   15  C9  UNL     1      -0.721  -1.251  -1.165  1.00  0.00     0.137 C 
BRANCH  15  16
HETATM   16  N5  UNL     1      -2.060  -0.894  -0.856  1.00  0.00    -0.407 N 
HETATM   17  C10 UNL     1      -2.480   0.423  -1.178  1.00  0.00     0.121 C 
HETATM   18  C11 UNL     1      -2.837   1.242   0.054  1.00  0.00    -0.001 C 
HETATM   19  C12 UNL     1      -3.100   2.659  -0.299  1.00  0.00     0.011 C 
HETATM   20  C13 UNL     1      -4.047   0.513   0.638  1.00  0.00     0.008 C 
HETATM   21  C14 UNL     1      -3.482  -0.803   1.161  1.00  0.00     0.025 C 
HETATM   22  C15 UNL     1      -2.731  -1.584   0.150  1.00  0.00     0.075 C 
HETATM   23  C16 UNL     1      -3.713  -2.576  -0.490  1.00  0.00     0.032 C 
ENDBRANCH  15  16
ENDBRANCH  14  15
ENDBRANCH  12  14
ENDBRANCH  11  12
BRANCH   8  24
HETATM   24  N2  UNL     1       2.817   2.680   2.316  1.00  0.00    -0.234 N 
ATOM     25  H22 UNL     1       3.557   3.221   2.763  1.00  0.00     0.174 HD
ATOM     26  H21 UNL     1       1.836   2.900   2.486  1.00  0.00     0.174 HD
ENDBRANCH   8  24
TORSDOF 5
