REMARK  5 active torsions:
REMARK  status: ('A' for Active; 'I' for Inactive)
REMARK    1  A    between atoms: N1_2  and  C2_4 
REMARK    2  A    between atoms: C6_10  and  C7_11 
REMARK    3  A    between atoms: C7_11  and  C8_12 
REMARK    4  A    between atoms: C8_12  and  N3_13 
REMARK    5  A    between atoms: N3_13  and  C9_15 
ROOT
HETATM    1  N3  UNL     1      -0.185  -1.636   0.122  1.00  0.00    -0.226 N 
ATOM      2  H3  UNL     1       0.060  -2.590   0.387  1.00  0.00     0.177 HD
ENDROOT
BRANCH   1   3
HETATM    3  C8  UNL     1       0.859  -0.729  -0.230  1.00  0.00     0.142 C 
BRANCH   3   4
HETATM    4  C7  UNL     1       1.900  -0.558   0.886  1.00  0.00     0.062 C 
BRANCH   4   5
HETATM    5  C6  UNL     1       2.926   0.403   0.419  1.00  0.00    -0.013 A 
HETATM    6  C2  UNL     1       3.901   0.003  -0.464  1.00  0.00     0.106 A 
HETATM    7  N2  UNL     1       4.828   0.907  -0.891  1.00  0.00    -0.352 N 
HETATM    8  C3  UNL     1       4.818   2.191  -0.470  1.00  0.00     0.089 A 
ATOM      9  H2  UNL     1       5.549   0.606  -1.546  1.00  0.00     0.166 HD
HETATM   10  C4  UNL     1       3.844   2.595   0.415  1.00  0.00     0.018 A 
HETATM   11  C5  UNL     1       2.884   1.723   0.878  1.00  0.00     0.012 A 
BRANCH   6  12
HETATM   12  N1  UNL     1       3.893  -1.227  -0.839  1.00  0.00    -0.380 N 
HETATM   13  C1  UNL     1       4.904  -1.682  -1.754  1.00  0.00     0.147 C 
ATOM     14  H1  UNL     1       3.181  -1.870  -0.493  1.00  0.00     0.160 HD
ENDBRANCH   6  12
ENDBRANCH   4   5
ENDBRANCH   3   4
ENDBRANCH   1   3
BRANCH   1  15
HETATM   15  C9  UNL     1      -1.411  -1.296   0.117  1.00  0.00     0.679 A 
HETATM   16  N4  UNL     1      -2.414  -2.151   0.450  1.00  0.00    -0.190 N 
HETATM   17  C10 UNL     1      -3.599  -1.513   0.354  1.00  0.00     0.077 A 
ATOM     18  H4  UNL     1      -2.290  -3.124   0.729  1.00  0.00     0.184 HD
HETATM   19  C11 UNL     1      -4.928  -1.856   0.560  1.00  0.00     0.035 A 
HETATM   20  C16 UNL     1      -3.343  -0.216  -0.053  1.00  0.00     0.085 A 
HETATM   21  C12 UNL     1      -5.973  -0.988   0.385  1.00  0.00     0.045 A 
HETATM   22  C13 UNL     1      -5.698   0.308  -0.023  1.00  0.00     0.124 A 
HETATM   23  F1  UNL     1      -6.717   1.199  -0.207  1.00  0.00    -0.205 F 
HETATM   24  C14 UNL     1      -4.383   0.672  -0.234  1.00  0.00     0.006 A 
HETATM   25  C15 UNL     1      -4.090   2.061  -0.670  1.00  0.00     0.054 C 
HETATM   26  N5  UNL     1      -2.001  -0.130  -0.184  1.00  0.00    -0.189 N 
ATOM     27  H5  UNL     1      -1.502   0.711  -0.474  1.00  0.00     0.184 HD
ENDBRANCH   1  15
TORSDOF 5
