REMARK  4 active torsions:
REMARK  status: ('A' for Active; 'I' for Inactive)
REMARK    1  A    between atoms: C4_8  and  C5_9 
REMARK    2  A    between atoms: C6_11  and  C7_12 
REMARK    3  A    between atoms: C11_16  and  S1_17 
REMARK    4  A    between atoms: S1_17  and  N3_18 
ROOT
HETATM    1  C1  UNL     1      -3.137   2.224   0.650  1.00  0.00     0.044 C 
HETATM    2  C2  UNL     1      -2.018   1.547   0.516  1.00  0.00     0.047 A 
HETATM    3  N1  UNL     1      -0.795   2.275   0.263  1.00  0.00    -0.341 N 
ATOM      4  H1  UNL     1      -0.812   3.293   0.202  1.00  0.00     0.167 HD
HETATM    5  C3  UNL     1       0.420   1.581   0.100  1.00  0.00     0.117 A 
HETATM    6  N2  UNL     1       1.709   1.963  -0.144  1.00  0.00    -0.344 N 
ATOM      7  H2  UNL     1       2.023   2.927  -0.258  1.00  0.00     0.167 HD
HETATM    8  C4  UNL     1       2.498   0.883  -0.211  1.00  0.00     0.032 A 
HETATM    9  C6  UNL     1       1.688  -0.211  -0.006  1.00  0.00    -0.021 A 
HETATM   10  C9  UNL     1       0.373   0.207   0.193  1.00  0.00     0.018 A 
HETATM   11  C10 UNL     1      -0.857  -0.524   0.448  1.00  0.00     0.043 A 
HETATM   12  C11 UNL     1      -2.041   0.097   0.611  1.00  0.00     0.106 A 
ENDROOT
BRANCH  12  13
HETATM   13  S1  UNL     1      -3.481  -0.846   0.947  1.00  0.00     0.259 S 
HETATM   14  O1  UNL     1      -4.338  -0.280   2.016  1.00  0.00    -0.201 OA
HETATM   15  O2  UNL     1      -3.032  -2.215   1.493  1.00  0.00    -0.201 OA
BRANCH  13  16
HETATM   16  N3  UNL     1      -4.376  -1.193  -0.465  1.00  0.00    -0.324 N 
ATOM     17  H32 UNL     1      -4.092  -0.880  -1.393  1.00  0.00     0.169 HD
ATOM     18  H31 UNL     1      -5.214  -1.741  -0.270  1.00  0.00     0.169 HD
ENDBRANCH  13  16
ENDBRANCH  12  13
BRANCH   9  19
HETATM   19  C7  UNL     1       2.063  -1.669   0.019  1.00  0.00     0.037 C 
HETATM   20  C8  UNL     1       2.280  -2.207  -1.373  1.00  0.00     0.010 C 
ENDBRANCH   9  19
BRANCH   8  21
HETATM   21  C5  UNL     1       3.959   0.803  -0.453  1.00  0.00     0.172 C 
HETATM   22 CL1  UNL     1       4.818   0.467   1.086  1.00  0.00    -0.124 Cl
ENDBRANCH   8  21
TORSDOF 4
