REMARK  6 active torsions:
REMARK  status: ('A' for Active; 'I' for Inactive)
REMARK    1  A    between atoms: C2_2  and  C3_3 
REMARK    2  A    between atoms: C3_3  and  N1_4 
REMARK    3  A    between atoms: N1_4  and  C4_6 
REMARK    4  A    between atoms: C5_9  and  N3_10 
REMARK    5  A    between atoms: C7_15  and  N5_16 
REMARK    6  A    between atoms: N5_16  and  C8_18 
ROOT
HETATM    1  C4  UNL     1       2.441   0.185  -0.179  1.00  0.00     0.707 A 
HETATM    2  N2  UNL     1       2.269  -1.044   0.341  1.00  0.00    -0.022 N 
ATOM      3  H2  UNL     1       3.088  -1.641   0.456  1.00  0.00     0.203 HD
HETATM    4  C5  UNL     1       1.078  -1.522   0.714  1.00  0.00     0.706 A 
HETATM    5  N4  UNL     1      -0.021  -0.745   0.569  1.00  0.00    -0.022 N 
ATOM      6  H4  UNL     1      -0.940  -1.090   0.847  1.00  0.00     0.203 HD
HETATM    7  C7  UNL     1       0.117   0.490   0.053  1.00  0.00     0.707 A 
HETATM    8  N6  UNL     1       1.343   0.954  -0.321  1.00  0.00    -0.021 N 
ATOM      9  H6  UNL     1       1.430   1.892  -0.712  1.00  0.00     0.203 HD
ENDROOT
BRANCH   7  10
HETATM   10  N5  UNL     1      -0.907   1.237  -0.092  1.00  0.00    -0.220 N 
ATOM     11  H5  UNL     1      -0.764   2.166  -0.488  1.00  0.00     0.178 HD
BRANCH  10  12
HETATM   12  C8  UNL     1      -2.239   0.864   0.261  1.00  0.00     0.101 C 
HETATM   13  C9  UNL     1      -3.141   2.076   0.308  1.00  0.00     0.027 C 
HETATM   14  C10 UNL     1      -4.513   1.444   0.194  1.00  0.00     0.027 C 
HETATM   15  C11 UNL     1      -4.295   0.502  -0.979  1.00  0.00     0.035 C 
HETATM   16  C12 UNL     1      -5.338  -0.599  -0.995  1.00  0.00     0.032 C 
HETATM   17 CL1  UNL     1      -4.363   1.407  -2.517  1.00  0.00    -0.119 Cl
HETATM   18  C13 UNL     1      -2.905  -0.036  -0.724  1.00  0.00     0.050 C 
ENDBRANCH  10  12
ENDBRANCH   7  10
BRANCH   4  19
HETATM   19  N3  UNL     1       0.887  -2.695   1.214  1.00  0.00    -0.229 N 
HETATM   20  C6  UNL     1       1.903  -3.669   1.450  1.00  0.00     0.165 C 
ATOM     21  H3  UNL     1      -0.070  -2.948   1.461  1.00  0.00     0.177 HD
ENDBRANCH   4  19
BRANCH   1  22
HETATM   22  N1  UNL     1       3.562   0.669  -0.544  1.00  0.00    -0.222 N 
ATOM     23  H1  UNL     1       3.565   1.615  -0.925  1.00  0.00     0.178 HD
BRANCH  22  24
HETATM   24  C3  UNL     1       4.825  -0.017  -0.460  1.00  0.00     0.164 C 
BRANCH  24  25
HETATM   25  C2  UNL     1       5.940   0.970  -0.615  1.00  0.00    -0.017 C 
HETATM   26  C1  UNL     1       5.672   2.244  -0.794  1.00  0.00     0.008 C 
ENDBRANCH  24  25
ENDBRANCH  22  24
ENDBRANCH   1  22
TORSDOF 6
