REMARK  6 active torsions:
REMARK  status: ('A' for Active; 'I' for Inactive)
REMARK    1  A    between atoms: C2_2  and  S1_3 
REMARK    2  A    between atoms: S1_3  and  N1_6 
REMARK    3  A    between atoms: N1_6  and  C3_8 
REMARK    4  A    between atoms: C4_11  and  C5_12 
REMARK    5  A    between atoms: C6_13  and  C7_14 
REMARK    6  A    between atoms: C8_16  and  C9_17 
ROOT
HETATM    1  C3  UNL     1       1.058  -0.785  -0.262  1.00  0.00     0.693 A 
HETATM    2  N2  UNL     1       0.202  -1.753  -0.630  1.00  0.00    -0.181 N 
ATOM      3  H2  UNL     1       0.453  -2.708  -0.888  1.00  0.00     0.185 HD
HETATM    4  C4  UNL     1      -1.046  -1.243  -0.599  1.00  0.00     0.131 A 
HETATM    5  C8  UNL     1      -0.991   0.071  -0.205  1.00  0.00     0.097 A 
HETATM    6  N4  UNL     1       0.346   0.309  -0.007  1.00  0.00    -0.187 N 
ATOM      7  H4  UNL     1       0.739   1.201   0.294  1.00  0.00     0.184 HD
ENDROOT
BRANCH   1   8
HETATM    8  N1  UNL     1       2.350  -0.861  -0.160  1.00  0.00    -0.116 N 
ATOM      9  H1  UNL     1       2.829  -1.736  -0.372  1.00  0.00     0.197 HD
BRANCH   8  10
HETATM   10  S1  UNL     1       3.251   0.514   0.332  1.00  0.00     0.243 S 
HETATM   11  O1  UNL     1       2.708   0.942   1.682  1.00  0.00    -0.205 OA
HETATM   12  O2  UNL     1       3.105   1.585  -0.689  1.00  0.00    -0.205 OA
BRANCH  10  13
HETATM   13  C2  UNL     1       4.944   0.000   0.544  1.00  0.00     0.159 C 
HETATM   14  C1  UNL     1       5.834   1.125   0.977  1.00  0.00     0.023 C 
ENDBRANCH  10  13
ENDBRANCH   8  10
ENDBRANCH   1   8
BRANCH   4  15
HETATM   15  C5  UNL     1      -2.213  -2.020  -0.941  1.00  0.00    -0.043 C 
HETATM   16  C6  UNL     1      -3.170  -2.692  -1.231  1.00  0.00    -0.068 C 
BRANCH  16  17
HETATM   17  C7  UNL     1      -4.330  -3.516  -1.589  1.00  0.00     0.316 C 
HETATM   18  F1  UNL     1      -4.635  -4.448  -0.642  1.00  0.00    -0.242 F 
ENDBRANCH  16  17
ENDBRANCH   4  15
BRANCH   5  19
HETATM   19  C9  UNL     1      -2.053   1.032  -0.023  1.00  0.00     0.011 A 
HETATM   20  C10 UNL     1      -3.386   0.887  -0.194  1.00  0.00     0.032 A 
HETATM   21  C11 UNL     1      -4.040   2.089   0.099  1.00  0.00     0.088 A 
HETATM   22  N3  UNL     1      -3.075   2.958   0.448  1.00  0.00    -0.374 N 
HETATM   23  C12 UNL     1      -1.879   2.350   0.383  1.00  0.00     0.101 A 
ATOM     24  H3  UNL     1      -3.228   3.929   0.720  1.00  0.00     0.164 HD
ENDBRANCH   5  19
TORSDOF 6
