REMARK  5 active torsions:
REMARK  status: ('A' for Active; 'I' for Inactive)
REMARK    1  A    between atoms: C2_2  and  C3_3 
REMARK    2  A    between atoms: C3_3  and  C4_4 
REMARK    3  A    between atoms: C4_4  and  C5_5 
REMARK    4  A    between atoms: C7_7  and  O1_8 
REMARK    5  A    between atoms: C10_12  and  O2_13 
ROOT
HETATM    1  C5  UNL     1       1.414   0.745   0.173  1.00  0.00     0.025 A 
HETATM    2  C6  UNL     1       1.705   1.149   1.581  1.00  0.00     0.046 A 
HETATM    3  C7  UNL     1       0.506   0.751   2.436  1.00  0.00     0.154 A 
HETATM    4  C8  UNL     1      -0.451   0.225   1.433  1.00  0.00     0.004 A 
HETATM    5  C9  UNL     1       0.038   0.266   0.158  1.00  0.00    -0.009 A 
HETATM    6  C10 UNL     1      -0.843  -0.172  -0.849  1.00  0.00     0.086 A 
HETATM    7  C11 UNL     1      -2.122  -0.621  -0.572  1.00  0.00     0.034 A 
HETATM    8  C12 UNL     1      -2.951  -1.045  -1.595  1.00  0.00    -0.023 A 
HETATM    9  C13 UNL     1      -2.536  -1.043  -3.002  1.00  0.00     0.051 C 
HETATM   10  C14 UNL     1      -4.232  -1.486  -1.233  1.00  0.00     0.063 A 
HETATM   11 CL1  UNL     1      -5.330  -2.036  -2.482  1.00  0.00    -0.082 Cl
HETATM   12  C15 UNL     1      -4.684  -1.515   0.061  1.00  0.00     0.028 A 
HETATM   13  C16 UNL     1      -6.052  -1.989   0.423  1.00  0.00     0.070 C 
HETATM   14  N1  UNL     1      -3.844  -1.094   1.015  1.00  0.00    -0.356 N 
ATOM     15  H1  UNL     1      -4.152  -1.102   1.987  1.00  0.00     0.166 HD
HETATM   16  C17 UNL     1      -2.590  -0.656   0.720  1.00  0.00     0.068 A 
HETATM   17  C18 UNL     1      -1.752  -0.231   1.721  1.00  0.00     0.071 A 
HETATM   18 CL2  UNL     1      -2.375  -0.284   3.359  1.00  0.00    -0.081 Cl
ENDROOT
BRANCH   1  19
HETATM   19  C4  UNL     1       2.453  -0.066  -0.469  1.00  0.00     0.009 C 
BRANCH  19  20
HETATM   20  C3  UNL     1       3.758   0.582  -0.711  1.00  0.00     0.000 C 
BRANCH  20  21
HETATM   21  C2  UNL     1       4.539   1.108   0.424  1.00  0.00    -0.005 C 
HETATM   22  C1  UNL     1       5.877   1.648  -0.171  1.00  0.00     0.005 C 
ENDBRANCH  20  21
ENDBRANCH  19  20
ENDBRANCH   1  19
BRANCH   3  23
HETATM   23  O1  UNL     1      -0.015   1.834   3.117  1.00  0.00    -0.391 OA
ATOM     24  H1  UNL     1      -0.762   1.586   3.649  1.00  0.00     0.210 HD
ENDBRANCH   3  23
BRANCH   6  25
HETATM   25  O2  UNL     1      -0.421  -0.144  -2.134  1.00  0.00    -0.359 OA
ATOM     26  H2  UNL     1      -1.015  -0.440  -2.814  1.00  0.00     0.217 HD
ENDBRANCH   6  25
TORSDOF 5
