REMARK  6 active torsions:
REMARK  status: ('A' for Active; 'I' for Inactive)
REMARK    1  A    between atoms: C2_2  and  C4_4 
REMARK    2  A    between atoms: C2_2  and  C11_13 
REMARK    3  A    between atoms: C5_5  and  C6_6 
REMARK    4  A    between atoms: C6_6  and  C9_9 
REMARK    5  A    between atoms: C13_16  and  C14_17 
REMARK    6  A    between atoms: C14_17  and  C15_19 
ROOT
HETATM    1  C1  UNL     1       0.931   2.327  -0.081  1.00  0.00     0.034 C 
HETATM    2  C2  UNL     1       0.645   0.963   0.428  1.00  0.00     0.044 C 
HETATM    3  C3  UNL     1       0.911   0.959   1.925  1.00  0.00     0.034 C 
ENDROOT
BRANCH   2   4
HETATM    4  C4  UNL     1      -0.761   0.607   0.258  1.00  0.00    -0.091 C 
HETATM    5  C5  UNL     1      -1.930   0.281   0.092  1.00  0.00    -0.093 C 
BRANCH   5   6
HETATM    6  C6  UNL     1      -3.315  -0.146  -0.132  1.00  0.00     0.051 C 
HETATM    7  C7  UNL     1      -3.934   0.605  -1.305  1.00  0.00     0.032 C 
HETATM    8  C8  UNL     1      -3.354  -1.627  -0.515  1.00  0.00     0.032 C 
BRANCH   6   9
HETATM    9  C9  UNL     1      -4.102   0.044   1.123  1.00  0.00     0.127 C 
HETATM   10  C10 UNL     1      -5.535  -0.420   0.876  1.00  0.00     0.052 C 
HETATM   11 CL1  UNL     1      -3.345  -0.844   2.457  1.00  0.00    -0.100 Cl
HETATM   12 CL2  UNL     1      -4.162   1.764   1.549  1.00  0.00    -0.100 Cl
ENDBRANCH   6   9
ENDBRANCH   5   6
ENDBRANCH   2   4
BRANCH   2  13
HETATM   13  C11 UNL     1       1.522  -0.093  -0.245  1.00  0.00    -0.030 A 
HETATM   14  C12 UNL     1       0.939  -1.010  -1.072  1.00  0.00     0.059 A 
HETATM   15  S1  UNL     1       2.238  -1.987  -1.567  1.00  0.00    -0.097 SA
HETATM   16  C13 UNL     1       3.514  -1.197  -0.697  1.00  0.00     0.056 A 
HETATM   17  C16 UNL     1       2.860  -0.198  -0.059  1.00  0.00     0.032 A 
BRANCH  16  18
HETATM   18  C14 UNL     1       4.935  -1.602  -0.681  1.00  0.00     0.202 C 
HETATM   19  O1  UNL     1       5.209  -2.670  -1.350  1.00  0.00    -0.286 OA
BRANCH  18  20
HETATM   20  C15 UNL     1       6.000  -0.912   0.008  1.00  0.00     0.156 C 
HETATM   21  N1  UNL     1       5.838   0.486   0.230  1.00  0.00    -0.111 NA
ENDBRANCH  18  20
ENDBRANCH  16  18
ENDBRANCH   2  13
TORSDOF 6
