REMARK  4 active torsions:
REMARK  status: ('A' for Active; 'I' for Inactive)
REMARK    1  A    between atoms: C2_2  and  C3_3 
REMARK    2  A    between atoms: C4_4  and  C5_5 
REMARK    3  A    between atoms: C14_19  and  O2_20 
REMARK    4  A    between atoms: C15_22  and  C16_23 
ROOT
HETATM    1  C3  UNL     1      -0.737   0.013   0.201  1.00  0.00    -0.012 A 
HETATM    2  C4  UNL     1       0.399  -0.325  -0.460  1.00  0.00     0.101 A 
HETATM    3  O1  UNL     1      -0.027  -0.840  -1.652  1.00  0.00    -0.286 OA
HETATM    4  C14 UNL     1      -1.308  -0.832  -1.738  1.00  0.00     0.191 A 
HETATM    5  C15 UNL     1      -1.870  -0.307  -0.605  1.00  0.00     0.013 A 
ENDROOT
BRANCH   2   6
HETATM    6  C5  UNL     1       1.835  -0.253  -0.209  1.00  0.00     0.079 A 
HETATM    7  C6  UNL     1       2.452  -0.352   0.992  1.00  0.00     0.139 A 
HETATM    8  F1  UNL     1       1.833  -0.742   2.139  1.00  0.00    -0.204 F 
HETATM    9  C7  UNL     1       3.838  -0.149   1.147  1.00  0.00    -0.010 A 
HETATM   10  C8  UNL     1       4.487  -0.261   2.475  1.00  0.00     0.052 C 
HETATM   11  C9  UNL     1       4.556   0.155   0.023  1.00  0.00     0.004 A 
HETATM   12  C10 UNL     1       5.916   0.408  -0.159  1.00  0.00     0.031 A 
HETATM   13  C12 UNL     1       3.960   0.259  -1.208  1.00  0.00     0.083 A 
HETATM   14  C11 UNL     1       6.075   0.655  -1.504  1.00  0.00     0.089 A 
HETATM   15  N1  UNL     1       4.900   0.566  -2.141  1.00  0.00    -0.363 N 
ATOM     16  H1  UNL     1       4.740   0.703  -3.139  1.00  0.00     0.165 HD
HETATM   17  C13 UNL     1       2.618   0.063  -1.353  1.00  0.00     0.160 A 
HETATM   18  F2  UNL     1       2.023   0.168  -2.569  1.00  0.00    -0.203 F 
ENDBRANCH   2   6
BRANCH   1  19
HETATM   19  C2  UNL     1      -0.851   0.663   1.517  1.00  0.00     0.037 C 
HETATM   20  C1  UNL     1      -0.359   2.098   1.524  1.00  0.00     0.010 C 
ENDBRANCH   1  19
BRANCH   5  21
HETATM   21  C16 UNL     1      -3.242  -0.092  -0.201  1.00  0.00     0.024 C 
HETATM   22  C17 UNL     1      -4.231  -0.301  -1.356  1.00  0.00     0.009 C 
HETATM   23  C18 UNL     1      -5.544  -0.126  -0.584  1.00  0.00     0.001 C 
HETATM   24  C19 UNL     1      -5.260  -0.662   0.801  1.00  0.00     0.001 C 
HETATM   25  C20 UNL     1      -3.796  -1.128   0.757  1.00  0.00     0.009 C 
ENDBRANCH   5  21
BRANCH   4  26
HETATM   26  O2  UNL     1      -2.037  -1.297  -2.842  1.00  0.00    -0.340 OA
ATOM     27  H2  UNL     1      -2.985  -1.291  -2.906  1.00  0.00     0.220 HD
ENDBRANCH   4  26
TORSDOF 4
