REMARK  4 active torsions:
REMARK  status: ('A' for Active; 'I' for Inactive)
REMARK    1  A    between atoms: C4_4  and  N1_5 
REMARK    2  A    between atoms: N2_7  and  C5_9 
REMARK    3  A    between atoms: N4_14  and  C8_15 
REMARK    4  A    between atoms: C11_18  and  N5_19 
ROOT
HETATM    1  C5  UNL     1      -0.811   0.461  -0.195  1.00  0.00     0.117 A 
HETATM    2  C6  UNL     1      -1.305   1.532   0.523  1.00  0.00     0.054 A 
HETATM    3  C7  UNL     1      -0.509   2.580   1.187  1.00  0.00     0.072 C 
HETATM    4  N3  UNL     1      -2.660   1.392   0.472  1.00  0.00    -0.299 N 
ATOM      5  H3  UNL     1      -3.333   2.023   0.906  1.00  0.00     0.187 HD
HETATM    6  N4  UNL     1      -2.969   0.308  -0.230  1.00  0.00    -0.271 N 
HETATM    7  C11 UNL     1      -1.855  -0.305  -0.667  1.00  0.00     0.146 A 
ENDROOT
BRANCH   1   8
HETATM    8  N2  UNL     1       0.572   0.173  -0.426  1.00  0.00    -0.295 N 
HETATM    9  N1  UNL     1       1.193  -0.383   0.530  1.00  0.00    -0.299 N 
ATOM     10  H1  UNL     1       0.710  -0.601   1.401  1.00  0.00     0.187 HD
ATOM     11  H2  UNL     1       1.031   0.402  -1.308  1.00  0.00     0.187 HD
BRANCH   9  12
HETATM   12  C4  UNL     1       2.568  -0.698   0.373  1.00  0.00     0.066 A 
HETATM   13  C3  UNL     1       3.529   0.296   0.363  1.00  0.00     0.042 A 
HETATM   14  C2  UNL     1       4.870   0.001   0.211  1.00  0.00    -0.021 A 
HETATM   15  C1  UNL     1       5.843   1.115   0.210  1.00  0.00     0.051 C 
HETATM   16  C14 UNL     1       5.273  -1.313   0.064  1.00  0.00     0.123 A 
HETATM   17  C13 UNL     1       4.305  -2.283   0.076  1.00  0.00     0.064 A 
HETATM   18  F1  UNL     1       6.594  -1.607  -0.086  1.00  0.00    -0.206 F 
HETATM   19  C12 UNL     1       2.959  -2.031   0.225  1.00  0.00     0.042 A 
HETATM   20 BR1  UNL     1       1.652  -3.417   0.235  1.00  0.00    -0.049 Br
ENDBRANCH   9  12
ENDBRANCH   1   8
BRANCH   7  21
HETATM   21  N5  UNL     1      -1.777  -1.380  -1.376  1.00  0.00    -0.382 N 
ATOM     22  H52 UNL     1      -0.932  -1.845  -1.708  1.00  0.00     0.157 HD
ATOM     23  H51 UNL     1      -2.550  -1.947  -1.725  1.00  0.00     0.157 HD
ENDBRANCH   7  21
BRANCH   6  24
HETATM   24  C8  UNL     1      -4.353  -0.125  -0.472  1.00  0.00     0.102 C 
HETATM   25  C9  UNL     1      -4.434  -1.650  -0.412  1.00  0.00     0.034 C 
HETATM   26  C10 UNL     1      -5.236   0.396   0.643  1.00  0.00     0.034 C 
ENDBRANCH   6  24
TORSDOF 4
