REMARK  6 active torsions:
REMARK  status: ('A' for Active; 'I' for Inactive)
REMARK    1  A    between atoms: C5_5  and  O1_6 
REMARK    2  A    between atoms: C8_10  and  O2_11 
REMARK    3  A    between atoms: C13_17  and  C14_18 
REMARK    4  A    between atoms: C14_18  and  C16_20 
REMARK    5  A    between atoms: C16_20  and  C17_21 
REMARK    6  A    between atoms: C17_21  and  C18_22 
ROOT
HETATM    1  C1  UNL     1      -7.390   1.135   0.937  1.00  0.00     0.043 C 
HETATM    2  C2  UNL     1      -5.910   1.086   0.673  1.00  0.00    -0.087 C 
HETATM    3  C3  UNL     1      -5.265   2.166   0.245  1.00  0.00    -0.021 C 
HETATM    4  C4  UNL     1      -3.779   2.046  -0.000  1.00  0.00     0.066 C 
HETATM    5  C5  UNL     1      -3.610   0.848  -0.873  1.00  0.00     0.071 C 
HETATM    6  C6  UNL     1      -4.281  -0.386  -0.342  1.00  0.00     0.054 C 
HETATM    7  C7  UNL     1      -5.112  -0.153   0.877  1.00  0.00     0.043 C 
HETATM    8  C8  UNL     1      -3.168  -1.417  -0.072  1.00  0.00     0.130 C 
HETATM    9  C9  UNL     1      -2.011  -0.508   0.129  1.00  0.00     0.026 C 
HETATM   10  C10 UNL     1      -0.691  -0.983   0.396  1.00  0.00     0.001 C 
HETATM   11  C11 UNL     1      -0.300  -2.403   0.360  1.00  0.00     0.006 C 
HETATM   12  C12 UNL     1       1.237  -2.335   0.411  1.00  0.00     0.006 C 
HETATM   13  C13 UNL     1       1.561  -0.860   0.307  1.00  0.00    -0.002 C 
HETATM   14  C21 UNL     1       0.440  -0.376  -0.496  1.00  0.00    -0.036 C 
HETATM   15  C22 UNL     1       0.348  -0.954  -1.853  1.00  0.00     0.016 C 
HETATM   16  C23 UNL     1       0.154   1.097  -0.407  1.00  0.00     0.010 C 
HETATM   17  C24 UNL     1      -1.167   1.479  -0.992  1.00  0.00     0.009 C 
HETATM   18  C25 UNL     1      -2.184   0.413  -1.092  1.00  0.00     0.028 C 
ENDROOT
BRANCH  13  19
HETATM   19  C14 UNL     1       2.954  -0.485   0.095  1.00  0.00    -0.014 C 
HETATM   20  C15 UNL     1       3.645  -0.994  -1.126  1.00  0.00     0.010 C 
BRANCH  19  21
HETATM   21  C16 UNL     1       3.722  -0.835   1.341  1.00  0.00     0.009 C 
BRANCH  21  22
HETATM   22  C17 UNL     1       5.155  -0.541   1.400  1.00  0.00     0.061 C 
BRANCH  22  23
HETATM   23  C18 UNL     1       5.556   0.907   1.295  1.00  0.00     0.259 C 
HETATM   24  O3  UNL     1       5.195   1.545   0.130  1.00  0.00    -0.359 OA
HETATM   25  C19 UNL     1       6.321   1.768  -0.640  1.00  0.00     0.197 C 
HETATM   26  C20 UNL     1       7.408   0.971   0.086  1.00  0.00     0.197 C 
HETATM   27  O4  UNL     1       6.937   1.070   1.394  1.00  0.00    -0.359 OA
ENDBRANCH  22  23
ENDBRANCH  21  22
ENDBRANCH  19  21
ENDBRANCH  13  19
BRANCH   8  28
HETATM   28  O2  UNL     1      -3.142  -2.263  -1.134  1.00  0.00    -0.395 OA
ATOM     29  H2  UNL     1      -2.456  -2.899  -0.968  1.00  0.00     0.210 HD
ENDBRANCH   8  28
BRANCH   5  30
HETATM   30  O1  UNL     1      -4.129   1.200  -2.142  1.00  0.00    -0.389 OA
ATOM     31  H1  UNL     1      -4.021   0.437  -2.698  1.00  0.00     0.210 HD
ENDBRANCH   5  30
TORSDOF 6
