REMARK  6 active torsions:
REMARK  status: ('A' for Active; 'I' for Inactive)
REMARK    1  A    between atoms: C2_2  and  C4_4 
REMARK    2  A    between atoms: C12_12  and  O1_13 
REMARK    3  A    between atoms: O1_13  and  C13_14 
REMARK    4  A    between atoms: C13_14  and  C14_16 
REMARK    5  A    between atoms: C14_16  and  C15_17 
REMARK    6  A    between atoms: C16_20  and  O5_21 
ROOT
HETATM    1  C4  UNL     1      -3.867   0.590   0.535  1.00  0.00    -0.003 C 
HETATM    2  C5  UNL     1      -3.210   0.677   1.899  1.00  0.00     0.006 C 
HETATM    3  C6  UNL     1      -2.298  -0.516   2.031  1.00  0.00     0.006 C 
HETATM    4  C7  UNL     1      -1.887  -0.819   0.631  1.00  0.00    -0.002 C 
HETATM    5  C8  UNL     1      -0.462  -0.386   0.418  1.00  0.00    -0.005 C 
HETATM    6  C9  UNL     1       0.434  -1.423   1.108  1.00  0.00     0.006 C 
HETATM    7  C10 UNL     1       1.882  -1.042   0.987  1.00  0.00     0.008 C 
HETATM    8  C11 UNL     1       2.323  -0.691  -0.381  1.00  0.00     0.026 C 
HETATM    9  C12 UNL     1       3.431   0.365  -0.254  1.00  0.00     0.165 C 
HETATM   10  C16 UNL     1       2.664   1.606   0.020  1.00  0.00     0.148 C 
HETATM   11  C17 UNL     1       1.497   1.480  -0.963  1.00  0.00     0.044 C 
HETATM   12  C18 UNL     1       1.327   0.011  -1.227  1.00  0.00    -0.032 C 
HETATM   13  C19 UNL     1       1.709  -0.233  -2.691  1.00  0.00     0.016 C 
HETATM   14  C20 UNL     1      -0.088  -0.465  -1.056  1.00  0.00    -0.001 C 
HETATM   15  C21 UNL     1      -1.009   0.347  -1.904  1.00  0.00     0.006 C 
HETATM   16  C22 UNL     1      -2.109   0.949  -1.089  1.00  0.00     0.010 C 
HETATM   17  C23 UNL     1      -2.865  -0.117  -0.284  1.00  0.00    -0.036 C 
HETATM   18  C24 UNL     1      -3.381  -1.127  -1.254  1.00  0.00     0.016 C 
ENDROOT
BRANCH   9  19
HETATM   19  O1  UNL     1       4.364  -0.025   0.685  1.00  0.00    -0.309 OA
BRANCH  19  20
HETATM   20  C13 UNL     1       5.710  -0.263   0.434  1.00  0.00     0.289 C 
HETATM   21  O2  UNL     1       6.041  -0.094  -0.761  1.00  0.00    -0.260 OA
BRANCH  20  22
HETATM   22  C14 UNL     1       6.654  -0.669   1.441  1.00  0.00     0.166 C 
BRANCH  22  23
HETATM   23  C15 UNL     1       7.913  -0.869   1.092  1.00  0.00     0.204 C 
HETATM   24  O3  UNL     1       8.331  -0.696  -0.220  1.00  0.00    -0.644 OA
HETATM   25  O4  UNL     1       8.887  -1.261   2.001  1.00  0.00    -0.644 OA
ENDBRANCH  22  23
ENDBRANCH  20  22
ENDBRANCH  19  20
ENDBRANCH   9  19
BRANCH  10  26
HETATM   26  O5  UNL     1       3.333   2.777  -0.337  1.00  0.00    -0.393 OA
ATOM     27  H5  UNL     1       2.842   3.571  -0.162  1.00  0.00     0.210 HD
ENDBRANCH  10  26
BRANCH   1  28
HETATM   28  C2  UNL     1      -5.198  -0.056   0.710  1.00  0.00    -0.018 C 
HETATM   29  C1  UNL     1      -5.982   0.850   1.675  1.00  0.00     0.010 C 
HETATM   30  C3  UNL     1      -6.027  -0.089  -0.556  1.00  0.00     0.010 C 
ENDBRANCH   1  28
TORSDOF 6
