REMARK  6 active torsions:
REMARK  status: ('A' for Active; 'I' for Inactive)
REMARK    1  A    between atoms: C2_2  and  C3_3 
REMARK    2  A    between atoms: C2_2  and  C4_6 
REMARK    3  A    between atoms: C3_3  and  O1_4 
REMARK    4  A    between atoms: C7_9  and  C8_10 
REMARK    5  A    between atoms: C13_15  and  O2_17 
REMARK    6  A    between atoms: C15_19  and  O3_20 
ROOT
HETATM    1  C8  UNL     1      -0.916  -1.068  -0.198  1.00  0.00    -0.018 C 
HETATM    2  C9  UNL     1       0.332  -0.509  -0.312  1.00  0.00    -0.066 C 
HETATM    3  C10 UNL     1       0.365   0.873  -0.776  1.00  0.00     0.036 C 
HETATM    4  C11 UNL     1       1.694   1.381  -1.212  1.00  0.00     0.013 C 
HETATM    5  C12 UNL     1       2.859   0.862  -0.432  1.00  0.00     0.031 C 
HETATM    6  C13 UNL     1       3.022   1.492   0.934  1.00  0.00     0.084 C 
HETATM    7  C14 UNL     1       2.897   2.997   0.835  1.00  0.00     0.049 C 
HETATM    8  C15 UNL     1       4.473   1.226   1.357  1.00  0.00     0.152 C 
HETATM    9  C16 UNL     1       4.969  -0.107   0.880  1.00  0.00     0.035 C 
HETATM   10  C17 UNL     1       3.862  -1.099   0.699  1.00  0.00     0.013 C 
HETATM   11  C18 UNL     1       2.845  -0.634  -0.333  1.00  0.00    -0.030 C 
HETATM   12  C19 UNL     1       3.374  -1.161  -1.678  1.00  0.00     0.016 C 
HETATM   13  C20 UNL     1       1.540  -1.242   0.043  1.00  0.00     0.024 C 
HETATM   14  C21 UNL     1       1.500  -2.683  -0.395  1.00  0.00     0.011 C 
HETATM   15  C22 UNL     1       0.152  -3.275  -0.544  1.00  0.00     0.014 C 
HETATM   16  C23 UNL     1      -0.909  -2.494   0.229  1.00  0.00    -0.018 C 
HETATM   17  C24 UNL     1      -0.665  -2.631   1.719  1.00  0.00     0.020 C 
HETATM   18  C25 UNL     1      -2.203  -3.206  -0.051  1.00  0.00     0.020 C 
ENDROOT
BRANCH   1  19
HETATM   19  C7  UNL     1      -2.140  -0.363  -0.505  1.00  0.00     0.054 C 
HETATM   20  C6  UNL     1      -2.851  -0.682  -1.776  1.00  0.00     0.068 C 
HETATM   21  C5  UNL     1      -3.980   0.370  -1.724  1.00  0.00     0.039 C 
HETATM   22  C4  UNL     1      -3.302   1.476  -1.000  1.00  0.00     0.134 C 
HETATM   23  O4  UNL     1      -2.198   0.993  -0.349  1.00  0.00    -0.349 OA
BRANCH  22  24
HETATM   24  C2  UNL     1      -4.213   2.285  -0.114  1.00  0.00     0.035 C 
HETATM   25  C1  UNL     1      -5.323   2.926  -0.917  1.00  0.00     0.015 C 
BRANCH  24  26
HETATM   26  C3  UNL     1      -4.800   1.509   1.016  1.00  0.00     0.170 C 
BRANCH  26  27
HETATM   27  O1  UNL     1      -5.523   2.391   1.816  1.00  0.00    -0.400 OA
ATOM     28  H1  UNL     1      -5.897   1.897   2.536  1.00  0.00     0.209 HD
ENDBRANCH  26  27
ENDBRANCH  24  26
ENDBRANCH  22  24
ENDBRANCH   1  19
BRANCH   6  29
HETATM   29  O2  UNL     1       2.128   1.007   1.873  1.00  0.00    -0.387 OA
ATOM     30  H2  UNL     1       2.230   1.403   2.731  1.00  0.00     0.210 HD
ENDBRANCH   6  29
BRANCH   8  31
HETATM   31  O3  UNL     1       5.240   2.193   0.665  1.00  0.00    -0.393 OA
ATOM     32  H3  UNL     1       6.138   2.028   0.927  1.00  0.00     0.210 HD
ENDBRANCH   8  31
TORSDOF 6
