REMARK  6 active torsions:
REMARK  status: ('A' for Active; 'I' for Inactive)
REMARK    1  A    between atoms: C9_9  and  O1_10 
REMARK    2  A    between atoms: O1_10  and  C10_11 
REMARK    3  A    between atoms: C10_11  and  C11_12 
REMARK    4  A    between atoms: C11_12  and  O2_13 
REMARK    5  A    between atoms: C18_21  and  O3_23 
REMARK    6  A    between atoms: C20_25  and  O4_26 
ROOT
HETATM    1  C1  UNL     1       2.634  -2.388   2.283  1.00  0.00     0.010 C 
HETATM    2  C2  UNL     1       2.951  -1.426   1.195  1.00  0.00    -0.013 C 
HETATM    3  C3  UNL     1       3.903  -2.243   0.299  1.00  0.00     0.005 C 
HETATM    4  C4  UNL     1       4.233  -1.694  -1.010  1.00  0.00     0.001 C 
HETATM    5  C5  UNL     1       3.165  -0.904  -1.709  1.00  0.00     0.010 C 
HETATM    6  C6  UNL     1       2.448  -0.035  -0.662  1.00  0.00    -0.037 C 
HETATM    7  C7  UNL     1       3.533   0.848  -0.087  1.00  0.00     0.015 C 
HETATM    8  C8  UNL     1       1.516   0.830  -1.434  1.00  0.00     0.042 C 
HETATM    9  C9  UNL     1       0.603   1.479  -0.444  1.00  0.00     0.127 C 
HETATM   10  C12 UNL     1      -0.261   0.445   0.218  1.00  0.00     0.032 C 
HETATM   11  C13 UNL     1       0.561  -0.531   0.989  1.00  0.00    -0.033 C 
HETATM   12  C14 UNL     1       0.923   0.136   2.328  1.00  0.00     0.016 C 
HETATM   13  C15 UNL     1      -0.285  -1.723   1.314  1.00  0.00     0.010 C 
HETATM   14  C16 UNL     1      -1.744  -1.596   1.358  1.00  0.00     0.009 C 
HETATM   15  C17 UNL     1      -2.407  -0.531   0.563  1.00  0.00     0.031 C 
HETATM   16  C18 UNL     1      -3.789  -0.797   0.152  1.00  0.00     0.084 C 
HETATM   17  C19 UNL     1      -4.742  -0.203   1.219  1.00  0.00     0.049 C 
HETATM   18  C20 UNL     1      -4.254  -0.387  -1.176  1.00  0.00     0.152 C 
HETATM   19  C21 UNL     1      -3.399   0.551  -1.944  1.00  0.00     0.035 C 
HETATM   20  C22 UNL     1      -2.107   0.960  -1.321  1.00  0.00     0.012 C 
HETATM   21  C23 UNL     1      -1.412  -0.114  -0.533  1.00  0.00    -0.031 C 
HETATM   22  C24 UNL     1      -1.209  -1.275  -1.407  1.00  0.00     0.016 C 
HETATM   23  C25 UNL     1       1.838  -0.969   0.326  1.00  0.00     0.006 C 
ENDROOT
BRANCH   9  24
HETATM   24  O1  UNL     1       0.005   2.628  -0.844  1.00  0.00    -0.383 OA
BRANCH  24  25
HETATM   25  C10 UNL     1       0.396   3.773  -0.153  1.00  0.00     0.194 C 
BRANCH  25  26
HETATM   26  C11 UNL     1      -0.297   5.001  -0.640  1.00  0.00     0.190 C 
BRANCH  26  27
HETATM   27  O2  UNL     1       0.154   6.087   0.104  1.00  0.00    -0.399 OA
ATOM     28  H2  UNL     1      -0.287   6.869  -0.206  1.00  0.00     0.209 HD
ENDBRANCH  26  27
ENDBRANCH  25  26
ENDBRANCH  24  25
ENDBRANCH   9  24
BRANCH  16  29
HETATM   29  O3  UNL     1      -4.028  -2.187   0.316  1.00  0.00    -0.387 OA
ATOM     30  H3  UNL     1      -4.923  -2.359   0.050  1.00  0.00     0.210 HD
ENDBRANCH  16  29
BRANCH  18  31
HETATM   31  O4  UNL     1      -4.623  -1.518  -1.958  1.00  0.00    -0.393 OA
ATOM     32  H4  UNL     1      -4.924  -1.252  -2.819  1.00  0.00     0.210 HD
ENDBRANCH  18  31
TORSDOF 6
