REMARK  4 active torsions:
REMARK  status: ('A' for Active; 'I' for Inactive)
REMARK    1  A    between atoms: O1_2  and  C2_3 
REMARK       I    between atoms: C2_3  and  N1_5 
REMARK    2  A    between atoms: N1_5  and  C3_7 
REMARK    3  A    between atoms: C5_9  and  C6_10 
REMARK    4  A    between atoms: C9_13  and  N2_14 
REMARK       I    between atoms: N2_14  and  C10_16 
ROOT
HETATM    1  C6  UNL     1      -0.132  -0.386   0.440  1.00  0.00     0.104 C 
HETATM    2  C7  UNL     1      -0.023  -0.766   1.904  1.00  0.00     0.053 C 
HETATM    3  C8  UNL     1      -1.220   0.631   0.198  1.00  0.00     0.072 C 
HETATM    4  C9  UNL     1      -2.558   0.038   0.439  1.00  0.00     0.124 C 
HETATM    5  C12 UNL     1      -2.722  -1.357  -0.143  1.00  0.00     0.226 C 
HETATM    6  F1  UNL     1      -3.434  -1.179  -1.336  1.00  0.00    -0.244 F 
HETATM    7  C13 UNL     1      -1.488  -2.103  -0.403  1.00  0.00     0.088 C 
HETATM    8  C14 UNL     1      -1.612  -2.736  -1.804  1.00  0.00     0.049 C 
HETATM    9  C15 UNL     1      -1.425  -3.331   0.520  1.00  0.00     0.049 C 
HETATM   10  O4  UNL     1      -0.297  -1.470  -0.383  1.00  0.00    -0.361 OA
ENDROOT
BRANCH   1  11
HETATM   11  C5  UNL     1       1.172   0.230   0.075  1.00  0.00     0.063 A 
HETATM   12  C4  UNL     1       2.327   0.253   0.833  1.00  0.00     0.079 A 
HETATM   13  C3  UNL     1       3.342   0.904   0.125  1.00  0.00     0.126 A 
HETATM   14  N4  UNL     1       2.769   1.252  -1.030  1.00  0.00    -0.285 N 
HETATM   15  N3  UNL     1       1.487   0.858  -1.067  1.00  0.00    -0.300 N 
ATOM     16  H4  UNL     1       3.243   1.751  -1.783  1.00  0.00     0.188 HD
ATOM     17  H3  UNL     1       0.848   1.013  -1.847  1.00  0.00     0.186 HD
BRANCH  13  18
HETATM   18  N1  UNL     1       4.518   1.110   0.564  1.00  0.00    -0.287 N 
HETATM   19  C2  UNL     1       5.594   1.737  -0.063  1.00  0.00     0.365 C 
HETATM   20  O2  UNL     1       5.513   2.704  -0.870  1.00  0.00    -0.238 OA
ATOM     21  H1  UNL     1       4.699   0.768   1.508  1.00  0.00     0.172 HD
BRANCH  19  22
HETATM   22  O1  UNL     1       6.919   1.288   0.195  1.00  0.00    -0.309 OA
HETATM   23  C1  UNL     1       8.038   1.897  -0.419  1.00  0.00     0.215 C 
ENDBRANCH  19  22
ENDBRANCH  13  18
ENDBRANCH   1  11
BRANCH   4  24
HETATM   24  N2  UNL     1      -3.598   0.923  -0.073  1.00  0.00    -0.354 N 
HETATM   25  C10 UNL     1      -4.724   1.271   0.717  1.00  0.00     0.214 C 
HETATM   26  C11 UNL     1      -5.773   2.157   0.215  1.00  0.00     0.117 C 
HETATM   27  O3  UNL     1      -4.809   0.801   1.876  1.00  0.00    -0.274 OA
ATOM     28  H2  UNL     1      -3.514   1.299  -1.017  1.00  0.00     0.162 HD
ENDBRANCH   4  24
TORSDOF 4
