REMARK  6 active torsions:
REMARK  status: ('A' for Active; 'I' for Inactive)
REMARK    1  A    between atoms: C1_2  and  C2_4 
REMARK    2  A    between atoms: N2_8  and  C6_9 
REMARK    3  A    between atoms: C6_9  and  N3_11 
REMARK    4  A    between atoms: C9_14  and  C10_15 
REMARK    5  A    between atoms: C10_15  and  O2_16 
REMARK    6  A    between atoms: N4_18  and  O3_20 
ROOT
HETATM    1  N3  UNL     1       0.194  -0.370   1.263  1.00  0.00    -0.355 N 
HETATM    2  C7  UNL     1       0.438  -1.729   1.747  1.00  0.00     0.126 C 
HETATM    3  C8  UNL     1       1.577  -2.376   1.004  1.00  0.00     0.033 C 
HETATM    4  C9  UNL     1       2.138  -1.465  -0.066  1.00  0.00     0.066 C 
HETATM    5  C11 UNL     1       3.082  -0.453   0.518  1.00  0.00     0.051 C 
HETATM    6  C12 UNL     1       2.536   0.341   1.650  1.00  0.00     0.189 C 
HETATM    7  F1  UNL     1       2.718  -0.188   2.889  1.00  0.00    -0.248 F 
HETATM    8  C13 UNL     1       1.100   0.760   1.355  1.00  0.00     0.162 C 
ENDROOT
BRANCH   1   9
HETATM    9  C6  UNL     1      -1.024  -0.166   0.625  1.00  0.00     0.172 C 
HETATM   10  S1  UNL     1      -1.978  -1.568   0.542  1.00  0.00    -0.041 SA
BRANCH   9  11
HETATM   11  N2  UNL     1      -1.581   0.998   0.065  1.00  0.00    -0.345 N 
HETATM   12  C2  UNL     1      -2.884   0.965  -0.594  1.00  0.00     0.176 C 
HETATM   13  C3  UNL     1      -3.135   2.365  -1.087  1.00  0.00     0.036 C 
HETATM   14  C4  UNL     1      -2.375   3.214  -0.118  1.00  0.00     0.022 C 
HETATM   15  C5  UNL     1      -1.107   2.337   0.041  1.00  0.00     0.126 C 
BRANCH  12  16
HETATM   16  C1  UNL     1      -2.839   0.109  -1.816  1.00  0.00     0.254 C 
HETATM   17  N1  UNL     1      -4.076  -0.130  -2.471  1.00  0.00    -0.060 NA
HETATM   18  O1  UNL     1      -1.806  -0.405  -2.296  1.00  0.00    -0.275 OA
ENDBRANCH  12  16
ENDBRANCH   9  11
ENDBRANCH   1   9
BRANCH   4  19
HETATM   19  C10 UNL     1       2.892  -2.294  -1.042  1.00  0.00     0.139 C 
HETATM   20  N4  UNL     1       2.574  -2.335  -2.276  1.00  0.00    -0.251 N 
ATOM     21  H4  UNL     1       3.130  -2.924  -2.896  1.00  0.00     0.196 HD
BRANCH  19  22
HETATM   22  O2  UNL     1       3.960  -3.034  -0.592  1.00  0.00    -0.348 OA
ATOM     23  H2  UNL     1       4.442  -3.564  -1.216  1.00  0.00     0.219 HD
ENDBRANCH  19  22
BRANCH  20  24
HETATM   24  O3  UNL     1       1.525  -1.632  -2.821  1.00  0.00    -0.288 OA
ATOM     25  H3  UNL     1       1.288  -1.663  -3.740  1.00  0.00     0.244 HD
ENDBRANCH  20  24
ENDBRANCH   4  19
TORSDOF 6
