REMARK  0 active torsions:
REMARK  status: ('A' for Active; 'I' for Inactive)
ROOT
HETATM    1  N1  UNL     1      -1.345   2.563  -2.966  1.00  0.00    -0.195 NA
HETATM    2  C1  UNL     1      -1.148   1.975  -1.987  1.00  0.00     0.091 C 
HETATM    3  C2  UNL     1      -0.916   1.217  -0.755  1.00  0.00     0.121 C 
HETATM    4  C3  UNL     1       0.068   1.884   0.135  1.00  0.00     0.047 C 
HETATM    5  C4  UNL     1       1.514   1.512  -0.078  1.00  0.00     0.008 C 
HETATM    6  C5  UNL     1       1.950   0.391   0.803  1.00  0.00    -0.010 A 
HETATM    7  C6  UNL     1       3.193  -0.347   0.770  1.00  0.00     0.010 A 
HETATM    8  C7  UNL     1       2.129  -0.806  -0.055  1.00  0.00    -0.010 A 
HETATM    9  C8  UNL     1       0.981  -1.730   0.232  1.00  0.00     0.013 C 
HETATM   10  C9  UNL     1      -0.224  -0.890   0.070  1.00  0.00     0.035 C 
HETATM   11  C10 UNL     1      -0.346  -0.142  -1.210  1.00  0.00     0.054 C 
HETATM   12  C11 UNL     1      -1.584  -1.537   0.255  1.00  0.00     0.172 C 
HETATM   13 CL1  UNL     1      -1.562  -2.478   1.723  1.00  0.00    -0.093 Cl
HETATM   14 CL2  UNL     1      -2.046  -2.527  -1.141  1.00  0.00    -0.093 Cl
HETATM   15  C12 UNL     1      -2.460  -0.333   0.318  1.00  0.00     0.130 C 
HETATM   16  N2  UNL     1      -3.729  -0.486   0.907  1.00  0.00    -0.084 NA
HETATM   17  N3  UNL     1      -2.164   0.838  -0.116  1.00  0.00    -0.358 N 
ATOM     18  H3  UNL     1      -2.868   1.567  -0.002  1.00  0.00     0.162 HD
ENDROOT
TORSDOF 0
