REMARK  1 active torsions:
REMARK  status: ('A' for Active; 'I' for Inactive)
REMARK    1  A    between atoms: O1_1  and  C1_3 
ROOT
HETATM    1  C1  UNL     1      -1.914  -0.423  -0.105  1.00  0.00     0.143 C 
HETATM    2  C2  UNL     1      -0.966  -1.318  -0.782  1.00  0.00     0.046 C 
HETATM    3  C3  UNL     1      -0.621  -2.460   0.181  1.00  0.00     0.076 C 
HETATM    4  S1  UNL     1       1.175  -2.806   0.148  1.00  0.00    -0.169 SA
HETATM    5  C4  UNL     1       2.111  -1.432   0.869  1.00  0.00     0.074 C 
HETATM    6  C5  UNL     1       2.707  -0.524  -0.149  1.00  0.00     0.020 C 
HETATM    7  C6  UNL     1       2.459   0.922   0.196  1.00  0.00     0.076 C 
HETATM    8  S2  UNL     1       0.920   1.187   1.083  1.00  0.00    -0.143 SA
HETATM    9  C7  UNL     1      -0.208   2.305   0.350  1.00  0.00     0.187 C 
HETATM   10 CL1  UNL     1      -1.353   2.896   1.607  1.00  0.00    -0.107 Cl
HETATM   11  C8  UNL     1      -1.014   1.864  -0.811  1.00  0.00     0.038 C 
HETATM   12 CL2  UNL     1      -0.025   1.512  -2.258  1.00  0.00    -0.087 Cl
HETATM   13  C9  UNL     1      -2.115   0.935  -0.585  1.00  0.00     0.026 C 
ENDROOT
BRANCH   1  14
HETATM   14  O1  UNL     1      -1.765  -0.419   1.307  1.00  0.00    -0.392 OA
ATOM     15  H1  UNL     1      -2.378   0.160   1.745  1.00  0.00     0.210 HD
ENDBRANCH   1  14
TORSDOF 1
