REMARK  1 active torsions:
REMARK  status: ('A' for Active; 'I' for Inactive)
REMARK    1  A    between atoms: C14_18  and  N2_19 
ROOT
HETATM    1  C1  UNL     1      -2.496   0.940   1.539  1.00  0.00     0.048 C 
HETATM    2  C2  UNL     1      -1.571   0.735   0.315  1.00  0.00     0.088 C 
HETATM    3  C3  UNL     1      -2.257   1.498  -0.805  1.00  0.00     0.048 C 
HETATM    4  O1  UNL     1      -0.334   1.269   0.704  1.00  0.00    -0.338 OA
HETATM    5  C4  UNL     1       0.989   1.020   0.376  1.00  0.00     0.087 A 
HETATM    6  C5  UNL     1       1.632   2.219   0.167  1.00  0.00     0.080 A 
HETATM    7  C6  UNL     1       2.966   2.303  -0.182  1.00  0.00     0.122 A 
HETATM    8  F1  UNL     1       3.553   3.515  -0.376  1.00  0.00    -0.206 F 
HETATM    9  C7  UNL     1       3.645   1.119  -0.317  1.00  0.00     0.085 A 
HETATM   10  C8  UNL     1       3.055  -0.136  -0.119  1.00  0.00     0.133 A 
HETATM   11  F2  UNL     1       3.778  -1.245  -0.310  1.00  0.00    -0.205 F 
HETATM   12  C9  UNL     1       1.749  -0.180   0.224  1.00  0.00     0.053 A 
HETATM   13  C10 UNL     1       1.339  -1.559   0.400  1.00  0.00     0.038 C 
HETATM   14  C11 UNL     1       2.278  -2.532   0.877  1.00  0.00     0.096 C 
HETATM   15  N1  UNL     1       3.021  -3.355   1.298  1.00  0.00    -0.192 NA
HETATM   16  C12 UNL     1       0.508  -2.077  -0.754  1.00  0.00     0.053 C 
HETATM   17  C13 UNL     1      -0.600  -1.115  -1.104  1.00  0.00     0.041 C 
HETATM   18  C14 UNL     1      -1.511  -0.740  -0.009  1.00  0.00     0.217 C 
ENDROOT
BRANCH  18  19
HETATM   19  N2  UNL     1      -2.918  -1.078  -0.363  1.00  0.00    -0.072 N 
ATOM     20  H23 UNL     1      -3.604  -0.830   0.350  1.00  0.00     0.274 HD
ATOM     21  H22 UNL     1      -3.318  -0.500  -1.102  1.00  0.00     0.274 HD
ATOM     22  H21 UNL     1      -2.878  -2.073  -0.582  1.00  0.00     0.274 HD
ENDBRANCH  18  19
TORSDOF 1
