REMARK  11 active torsions:
REMARK  status: ('A' for Active; 'I' for Inactive)
REMARK    1  A    between atoms: O1_2  and  C2_3 
REMARK    2  A    between atoms: C2_3  and  C3_5 
REMARK    3  A    between atoms: C3_5  and  N1_6 
REMARK    4  A    between atoms: C3_5  and  C5_14 
REMARK    5  A    between atoms: N1_6  and  C4_8 
REMARK    6  A    between atoms: C4_8  and  O3_9 
REMARK    7  A    between atoms: C4_8  and  N2_11 
REMARK    8  A    between atoms: N2_11  and  O4_12 
REMARK    9  A    between atoms: C5_14  and  C6_15 
REMARK   10  A    between atoms: C5_14  and  N5_22 
REMARK   11  A    between atoms: C11_38  and  N11_39 
ROOT
HETATM    1  N5  UNL     1       0.720   0.612  -0.883  1.00  0.00    -0.255 N 
HETATM    2  N6  UNL     1       0.842   1.869  -1.248  1.00  0.00    -0.238 N 
ATOM      3  H6  UNL     1       0.128   2.379  -1.768  1.00  0.00     0.208 HD
HETATM    4  N7  UNL     1       1.979   2.394  -0.871  1.00  0.00    -0.279 N 
ATOM      5  H7  UNL     1       2.292   3.349  -1.048  1.00  0.00     0.189 HD
HETATM    6  C8  UNL     1       2.665   1.436  -0.202  1.00  0.00     0.150 A 
HETATM    7  C9  UNL     1       3.867   1.585   0.423  1.00  0.00     0.290 C 
HETATM    8  O5  UNL     1       4.595   2.523   0.064  1.00  0.00    -0.265 OA
HETATM    9  N8  UNL     1       4.395   0.817   1.402  1.00  0.00    -0.154 N 
ATOM     10  H8  UNL     1       5.000   1.296   2.069  1.00  0.00     0.187 HD
HETATM   11  C10 UNL     1       4.215  -0.537   1.610  1.00  0.00     0.680 C 
HETATM   12  N9  UNL     1       5.055  -1.196   2.225  1.00  0.00    -0.234 N 
ATOM     13  H91 UNL     1       4.922  -2.196   2.379  1.00  0.00     0.174 HD
ATOM     14  H92 UNL     1       5.864  -0.666   2.547  1.00  0.00     0.174 HD
HETATM   15  N10 UNL     1       3.118  -1.256   1.173  1.00  0.00    -0.175 N 
ATOM     16  H10 UNL     1       3.000  -2.177   1.596  1.00  0.00     0.186 HD
HETATM   17  C11 UNL     1       2.187  -0.913   0.271  1.00  0.00     0.145 C 
HETATM   18  C12 UNL     1       1.837   0.303  -0.224  1.00  0.00     0.131 A 
ENDROOT
BRANCH   1  19
HETATM   19  C5  UNL     1      -0.469  -0.194  -1.060  1.00  0.00     0.217 C 
BRANCH  19  20
HETATM   20  C3  UNL     1      -1.460   0.144   0.014  1.00  0.00     0.115 C 
BRANCH  20  21
HETATM   21  C2  UNL     1      -1.667   1.475   0.580  1.00  0.00     0.307 C 
HETATM   22  O2  UNL     1      -2.320   2.426   0.162  1.00  0.00    -0.258 OA
BRANCH  21  23
HETATM   23  O1  UNL     1      -1.011   1.707   1.852  1.00  0.00    -0.322 OA
HETATM   24  C1  UNL     1      -1.121   2.854   2.599  1.00  0.00     0.213 C 
ENDBRANCH  21  23
ENDBRANCH  20  21
BRANCH  20  25
HETATM   25  N1  UNL     1      -2.058  -0.848   0.803  1.00  0.00    -0.345 N 
ATOM     26  H1  UNL     1      -2.033  -0.791   1.821  1.00  0.00     0.163 HD
BRANCH  25  27
HETATM   27  C4  UNL     1      -2.692  -1.922   0.158  1.00  0.00     0.344 C 
BRANCH  27  28
HETATM   28  O3  UNL     1      -3.521  -2.578   1.116  1.00  0.00    -0.361 OA
ATOM     29  H3  UNL     1      -3.950  -3.305   0.680  1.00  0.00     0.213 HD
ENDBRANCH  27  28
BRANCH  27  30
HETATM   30  N2  UNL     1      -3.469  -1.638  -1.009  1.00  0.00    -0.050 NA
BRANCH  30  31
HETATM   31  O4  UNL     1      -3.784  -2.876  -1.530  1.00  0.00    -0.292 OA
ATOM     32  H4  UNL     1      -4.300  -2.687  -2.305  1.00  0.00     0.238 HD
ENDBRANCH  30  31
ENDBRANCH  27  30
ENDBRANCH  25  27
ENDBRANCH  20  25
ENDBRANCH  19  20
BRANCH  19  33
HETATM   33  C6  UNL     1      -1.005   0.424  -2.390  1.00  0.00     0.065 A 
HETATM   34  C7  UNL     1      -0.580  -0.147  -3.584  1.00  0.00     0.098 A 
HETATM   35  S1  UNL     1      -1.481   0.780  -4.739  1.00  0.00    -0.009 SA
HETATM   36  N3  UNL     1      -2.289   1.792  -3.663  1.00  0.00    -0.270 N 
HETATM   37  N4  UNL     1      -1.863   1.392  -2.500  1.00  0.00    -0.296 N 
ATOM     38  H3  UNL     1      -2.952   2.538  -3.872  1.00  0.00     0.195 HD
ATOM     39  H4  UNL     1      -2.211   1.849  -1.657  1.00  0.00     0.187 HD
ENDBRANCH  19  33
ENDBRANCH   1  19
BRANCH  17  40
HETATM   40  N11 UNL     1       1.522  -1.897  -0.233  1.00  0.00    -0.383 N 
ATOM     41 2H11 UNL     1       1.785  -2.810   0.139  1.00  0.00     0.157 HD
ATOM     42 1H11 UNL     1       0.814  -1.636  -0.919  1.00  0.00     0.157 HD
ENDBRANCH  17  40
TORSDOF 11
