REMARK  11 active torsions:
REMARK  status: ('A' for Active; 'I' for Inactive)
REMARK    1  A    between atoms: C2_2  and  O1_3 
REMARK    2  A    between atoms: C2_2  and  C3_5 
REMARK    3  A    between atoms: N1_7  and  C5_8 
REMARK    4  A    between atoms: N2_10  and  C7_11 
REMARK    5  A    between atoms: C8_12  and  N3_13 
REMARK    6  A    between atoms: N3_13  and  C9_15 
REMARK    7  A    between atoms: C9_15  and  O2_16 
REMARK    8  A    between atoms: C9_15  and  O3_18 
REMARK    9  A    between atoms: C11_21  and  C12_22 
REMARK   10  A    between atoms: C12_22  and  O4_23 
REMARK   11  A    between atoms: C16_36  and  N9_37 
ROOT
HETATM    1  C12 UNL     1       4.851   0.658  -0.516  1.00  0.00     0.282 C 
HETATM    2  C13 UNL     1       5.562   1.749   0.140  1.00  0.00     0.120 C 
HETATM    3  N4  UNL     1       6.120   2.629   0.683  1.00  0.00    -0.192 NA
HETATM    4  C14 UNL     1       5.185   0.484  -1.920  1.00  0.00     0.120 C 
HETATM    5  N5  UNL     1       5.436   0.334  -3.054  1.00  0.00    -0.192 NA
ENDROOT
BRANCH   1   6
HETATM    6  C11 UNL     1       3.465   0.454  -0.132  1.00  0.00     0.119 A 
HETATM    7  C10 UNL     1       3.081  -0.662   0.632  1.00  0.00     0.066 A 
HETATM    8  C8  UNL     1       1.817  -0.940   1.037  1.00  0.00     0.081 A 
HETATM    9  C7  UNL     1       0.805  -0.055   0.673  1.00  0.00     0.173 A 
HETATM   10  N10 UNL     1       1.157   0.999  -0.046  1.00  0.00    -0.046 N 
HETATM   11  N6  UNL     1       2.427   1.261  -0.442  1.00  0.00    -0.062 N 
HETATM   12  C16 UNL     1       0.344   1.990  -0.499  1.00  0.00     0.714 A 
HETATM   13  C15 UNL     1       2.407   2.405  -1.139  1.00  0.00     0.713 A 
HETATM   14  N7  UNL     1       3.381   3.010  -1.690  1.00  0.00    -0.232 N 
HETATM   15  N8  UNL     1       1.139   2.846  -1.171  1.00  0.00    -0.019 N 
ATOM     16  H72 UNL     1       4.344   2.675  -1.666  1.00  0.00     0.174 HD
ATOM     17  H71 UNL     1       3.366   3.881  -2.221  1.00  0.00     0.174 HD
ATOM     18  H8  UNL     1       0.825   3.699  -1.634  1.00  0.00     0.203 HD
BRANCH   8  19
HETATM   19  N3  UNL     1       1.483  -2.074   1.826  1.00  0.00    -0.339 N 
ATOM     20  H3  UNL     1       0.526  -2.211   2.151  1.00  0.00     0.164 HD
BRANCH  19  21
HETATM   21  C9  UNL     1       2.512  -3.031   2.163  1.00  0.00     0.365 C 
BRANCH  21  22
HETATM   22  O2  UNL     1       3.025  -3.640   1.015  1.00  0.00    -0.355 OA
ATOM     23  H2  UNL     1       3.701  -4.269   1.237  1.00  0.00     0.214 HD
ENDBRANCH  21  22
BRANCH  21  24
HETATM   24  O3  UNL     1       2.029  -4.054   2.972  1.00  0.00    -0.355 OA
ATOM     25  H3  UNL     1       2.705  -4.683   3.194  1.00  0.00     0.214 HD
ENDBRANCH  21  24
ENDBRANCH  19  21
ENDBRANCH   8  19
BRANCH   9  26
HETATM   26  N2  UNL     1      -0.501  -0.395   1.114  1.00  0.00    -0.335 N 
HETATM   27  C5  UNL     1      -1.707  -1.165   1.007  1.00  0.00     0.228 A 
HETATM   28  C6  UNL     1      -1.617  -0.158   2.106  1.00  0.00     0.175 A 
BRANCH  27  29
HETATM   29  N1  UNL     1      -2.712  -0.902   0.005  1.00  0.00    -0.262 N 
HETATM   30  C4  UNL     1      -3.977  -0.484   0.180  1.00  0.00     0.143 A 
HETATM   31  C3  UNL     1      -4.615  -0.348  -1.034  1.00  0.00     0.072 A 
HETATM   32  N12 UNL     1      -3.676  -0.704  -1.952  1.00  0.00    -0.286 N 
HETATM   33  N11 UNL     1      -2.560  -1.025  -1.297  1.00  0.00    -0.239 N 
ATOM     34  H12 UNL     1      -3.803  -0.722  -2.964  1.00  0.00     0.188 HD
ATOM     35  H11 UNL     1      -1.697  -1.328  -1.748  1.00  0.00     0.208 HD
BRANCH  31  36
HETATM   36  C2  UNL     1      -6.024   0.093  -1.263  1.00  0.00     0.166 C 
HETATM   37  C1  UNL     1      -6.082   1.566  -0.927  1.00  0.00     0.046 C 
BRANCH  36  38
HETATM   38  O1  UNL     1      -6.831  -0.583  -0.355  1.00  0.00    -0.390 OA
ATOM     39  H1  UNL     1      -6.795  -1.509  -0.566  1.00  0.00     0.210 HD
ENDBRANCH  36  38
ENDBRANCH  31  36
ENDBRANCH  27  29
ENDBRANCH   9  26
BRANCH  12  40
HETATM   40  N9  UNL     1      -0.924   2.151  -0.346  1.00  0.00    -0.232 N 
ATOM     41  H92 UNL     1      -1.534   2.895  -0.686  1.00  0.00     0.174 HD
ATOM     42  H91 UNL     1      -1.526   1.503   0.163  1.00  0.00     0.174 HD
ENDBRANCH  12  40
ENDBRANCH   1   6
BRANCH   1  43
HETATM   43  O4  UNL     1       5.560  -0.466   0.049  1.00  0.00    -0.359 OA
ATOM     44  H4  UNL     1       6.466  -0.333  -0.202  1.00  0.00     0.213 HD
ENDBRANCH   1  43
TORSDOF 11
