REMARK  13 active torsions:
REMARK  status: ('A' for Active; 'I' for Inactive)
REMARK    1  A    between atoms: C2_2  and  C10_31 
REMARK    2  A    between atoms: N1_3  and  N2_5 
REMARK    3  A    between atoms: N2_5  and  C3_7 
REMARK    4  A    between atoms: C3_7  and  O1_8 
REMARK    5  A    between atoms: C5_12  and  S1_13 
REMARK    6  A    between atoms: S1_13  and  S2_14 
REMARK    7  A    between atoms: S2_14  and  C6_15 
REMARK    8  A    between atoms: C6_15  and  N4_19 
REMARK    9  A    between atoms: N4_19  and  C7_21 
REMARK   10  A    between atoms: C7_21  and  C8_22 
REMARK   11  A    between atoms: C8_22  and  O3_23 
REMARK   12  A    between atoms: C9_27  and  N6_28 
REMARK   13  A    between atoms: C11_37  and  N9_38 
ROOT
HETATM    1  C3  UNL     1      -0.730  -1.418   0.521  1.00  0.00     0.259 C 
HETATM    2  C4  UNL     1       0.665  -1.180  -0.024  1.00  0.00     0.243 C 
HETATM    3  O2  UNL     1       1.494  -0.305   0.293  1.00  0.00    -0.284 OA
HETATM    4  C5  UNL     1       0.815  -2.225  -1.021  1.00  0.00     0.130 C 
HETATM    5  N5  UNL     1      -0.005  -3.208  -0.727  1.00  0.00    -0.350 N 
ATOM      6  H5  UNL     1      -0.098  -4.066  -1.270  1.00  0.00     0.162 HD
HETATM    7  C9  UNL     1      -0.758  -2.910   0.469  1.00  0.00     0.320 C 
ENDROOT
BRANCH   1   8
HETATM    8  N2  UNL     1      -1.638  -0.777  -0.386  1.00  0.00    -0.291 N 
ATOM      9  H2  UNL     1      -1.262  -0.341  -1.228  1.00  0.00     0.184 HD
BRANCH   8  10
HETATM   10  N1  UNL     1      -3.015  -0.726  -0.164  1.00  0.00    -0.304 N 
HETATM   11  C2  UNL     1      -3.532   0.444   0.124  1.00  0.00     0.054 C 
HETATM   12  C1  UNL     1      -2.673   1.628   0.203  1.00  0.00     0.072 C 
ATOM     13  H1  UNL     1      -3.594  -1.563  -0.223  1.00  0.00     0.186 HD
BRANCH  11  14
HETATM   14  C10 UNL     1      -4.958   0.491   0.352  1.00  0.00     0.125 A 
HETATM   15  N7  UNL     1      -5.799  -0.594   0.287  1.00  0.00    -0.236 N 
HETATM   16  O6  UNL     1      -7.015  -0.243   0.536  1.00  0.00    -0.155 OA
ATOM     17  H7  UNL     1      -5.502  -1.546   0.072  1.00  0.00     0.197 HD
HETATM   18  N8  UNL     1      -7.042   1.027   0.768  1.00  0.00    -0.224 N 
HETATM   19  C11 UNL     1      -5.766   1.544   0.665  1.00  0.00     0.152 A 
ATOM     20  H8  UNL     1      -7.878   1.566   0.993  1.00  0.00     0.198 HD
BRANCH  19  21
HETATM   21  N9  UNL     1      -5.496   2.778   0.846  1.00  0.00    -0.382 N 
ATOM     22  H92 UNL     1      -4.553   3.160   0.770  1.00  0.00     0.157 HD
ATOM     23  H91 UNL     1      -6.100   3.566   1.080  1.00  0.00     0.157 HD
ENDBRANCH  19  21
ENDBRANCH  11  14
ENDBRANCH   8  10
ENDBRANCH   1   8
BRANCH   1  24
HETATM   24  O1  UNL     1      -0.755  -0.885   1.804  1.00  0.00    -0.360 OA
ATOM     25  H1  UNL     1      -0.154  -1.309   2.405  1.00  0.00     0.213 HD
ENDBRANCH   1  24
BRANCH   7  26
HETATM   26  N6  UNL     1      -2.094  -3.446   0.453  1.00  0.00    -0.125 N 
HETATM   27  O4  UNL     1      -2.567  -4.123  -0.469  1.00  0.00    -0.535 OA
HETATM   28  O5  UNL     1      -2.902  -3.190   1.533  1.00  0.00    -0.535 OA
ENDBRANCH   7  26
BRANCH   4  29
HETATM   29  S1  UNL     1       1.938  -2.168  -2.403  1.00  0.00    -0.028 SA
BRANCH  29  30
HETATM   30  S2  UNL     1       3.009  -0.341  -2.321  1.00  0.00    -0.015 SA
BRANCH  30  31
HETATM   31  C6  UNL     1       4.487  -0.630  -1.353  1.00  0.00     0.144 C 
HETATM   32  N3  UNL     1       4.763  -1.797  -0.833  1.00  0.00    -0.379 N 
ATOM     33  H32 UNL     1       4.136  -2.591  -0.965  1.00  0.00     0.158 HD
ATOM     34  H31 UNL     1       5.605  -1.962  -0.281  1.00  0.00     0.158 HD
BRANCH  31  35
HETATM   35  N4  UNL     1       5.353   0.466  -1.171  1.00  0.00    -0.368 N 
ATOM     36  H4  UNL     1       5.952   0.776  -1.937  1.00  0.00     0.161 HD
BRANCH  35  37
HETATM   37  C7  UNL     1       5.393   1.147   0.092  1.00  0.00     0.147 C 
BRANCH  37  38
HETATM   38  C8  UNL     1       6.360   2.286   0.127  1.00  0.00     0.183 C 
BRANCH  38  39
HETATM   39  O3  UNL     1       6.076   3.260  -0.809  1.00  0.00    -0.399 OA
ATOM     40  H3  UNL     1       6.691   3.984  -0.787  1.00  0.00     0.209 HD
ENDBRANCH  38  39
ENDBRANCH  37  38
ENDBRANCH  35  37
ENDBRANCH  31  35
ENDBRANCH  30  31
ENDBRANCH  29  30
ENDBRANCH   4  29
TORSDOF 13
