REMARK  11 active torsions:
REMARK  status: ('A' for Active; 'I' for Inactive)
REMARK    1  A    between atoms: S1_2  and  N1_3 
REMARK    2  A    between atoms: S1_2  and  C2_7 
REMARK    3  A    between atoms: C3_8  and  C4_9 
REMARK    4  A    between atoms: C4_9  and  N2_10 
REMARK    5  A    between atoms: C5_13  and  N3_14 
REMARK    6  A    between atoms: N3_14  and  N4_16 
REMARK    7  A    between atoms: N4_16  and  C6_18 
REMARK    8  A    between atoms: C8_25  and  N8_26 
REMARK    9  A    between atoms: C9_31  and  C10_32 
REMARK   10  A    between atoms: C11_35  and  N10_36 
REMARK   11  A    between atoms: N11_39  and  O6_40 
ROOT
HETATM    1  C2  UNL     1      -2.779   0.945  -0.182  1.00  0.00     0.151 A 
HETATM    2  C3  UNL     1      -1.488   0.752   0.382  1.00  0.00     0.054 A 
HETATM    3  C5  UNL     1      -0.431   0.551  -0.457  1.00  0.00     0.082 A 
HETATM    4  C9  UNL     1      -0.600   0.538  -1.852  1.00  0.00     0.104 A 
HETATM    5  C11 UNL     1      -1.888   0.733  -2.328  1.00  0.00     0.145 A 
HETATM    6  N11 UNL     1      -2.921   0.926  -1.521  1.00  0.00    -0.197 N 
ENDROOT
BRANCH   3   7
HETATM    7  N3  UNL     1       0.916   0.264  -0.036  1.00  0.00    -0.296 N 
ATOM      8  H3  UNL     1       1.545   1.015   0.248  1.00  0.00     0.187 HD
BRANCH   7   9
HETATM    9  N4  UNL     1       1.344  -1.075  -0.026  1.00  0.00    -0.264 N 
ATOM     10  H4  UNL     1       0.703  -1.797  -0.353  1.00  0.00     0.190 HD
BRANCH   9  11
HETATM   11  C6  UNL     1       2.651  -1.465   0.428  1.00  0.00     0.244 A 
HETATM   12  N5  UNL     1       3.313  -0.744   1.231  1.00  0.00    -0.295 N 
HETATM   13  C7  UNL     1       4.607  -1.178   1.650  1.00  0.00     0.194 A 
ATOM     14  H5  UNL     1       2.927   0.136   1.574  1.00  0.00     0.172 HD
HETATM   15  N6  UNL     1       5.405  -0.428   2.547  1.00  0.00    -0.063 NA
HETATM   16  N7  UNL     1       5.109  -2.286   1.223  1.00  0.00    -0.315 N 
HETATM   17  C8  UNL     1       4.422  -3.143   0.319  1.00  0.00     0.435 A 
ATOM     18  H7  UNL     1       6.037  -2.559   1.547  1.00  0.00     0.166 HD
HETATM   19  O4  UNL     1       3.165  -2.649  -0.040  1.00  0.00    -0.269 OA
BRANCH  17  20
HETATM   20  N8  UNL     1       4.188  -4.419   0.999  1.00  0.00    -0.034 N 
ATOM     21  H83 UNL     1       5.045  -4.835   1.365  1.00  0.00     0.279 HD
ATOM     22  H82 UNL     1       3.700  -4.310   1.888  1.00  0.00     0.279 HD
ATOM     23  H81 UNL     1       3.695  -5.033   0.351  1.00  0.00     0.279 HD
ENDBRANCH  17  20
ENDBRANCH   9  11
ENDBRANCH   7   9
ENDBRANCH   3   7
BRANCH   2  24
HETATM   24  C4  UNL     1      -1.431   0.847   1.813  1.00  0.00     0.184 C 
BRANCH  24  25
HETATM   25  N2  UNL     1      -0.204   0.720   2.485  1.00  0.00    -0.126 N 
HETATM   26  O2  UNL     1       0.573   1.681   2.743  1.00  0.00    -0.532 OA
HETATM   27  O3  UNL     1       0.255  -0.505   2.967  1.00  0.00    -0.532 OA
ENDBRANCH  24  25
ENDBRANCH   2  24
BRANCH   4  28
HETATM   28  C10 UNL     1       0.487   0.418  -2.809  1.00  0.00     0.271 C 
HETATM   29  N9  UNL     1       0.199   0.361  -4.199  1.00  0.00    -0.057 NA
HETATM   30  O5  UNL     1       1.666   0.362  -2.466  1.00  0.00    -0.271 OA
ENDBRANCH   4  28
BRANCH   1  31
HETATM   31  S1  UNL     1      -4.123   1.232   0.846  1.00  0.00     0.065 S 
HETATM   32  C1  UNL     1      -4.181   2.990   1.219  1.00  0.00     0.143 C 
HETATM   33  O1  UNL     1      -4.223   0.502   2.108  1.00  0.00    -0.244 OA
BRANCH  31  34
HETATM   34  N1  UNL     1      -5.455   0.975  -0.011  1.00  0.00    -0.356 N 
ATOM     35  H12 UNL     1      -6.162   1.661  -0.275  1.00  0.00     0.166 HD
ATOM     36  H11 UNL     1      -5.422  -0.022  -0.223  1.00  0.00     0.166 HD
ENDBRANCH  31  34
ENDBRANCH   1  31
BRANCH   5  37
HETATM   37  N10 UNL     1      -2.059   0.722  -3.613  1.00  0.00    -0.383 N 
ATOM     38 2H10 UNL     1      -1.264   0.573  -4.234  1.00  0.00     0.157 HD
ATOM     39 1H10 UNL     1      -3.006   0.865  -3.963  1.00  0.00     0.157 HD
ENDBRANCH   5  37
BRANCH   6  40
HETATM   40  O6  UNL     1      -4.211   1.119  -1.995  1.00  0.00    -0.280 OA
ATOM     41  H6  UNL     1      -4.311   1.106  -2.940  1.00  0.00     0.245 HD
ENDBRANCH   6  40
TORSDOF 11
