REMARK  10 active torsions:
REMARK  status: ('A' for Active; 'I' for Inactive)
REMARK    1  A    between atoms: N1_2  and  C3_4 
REMARK    2  A    between atoms: C4_7  and  N3_8 
REMARK    3  A    between atoms: N3_8  and  C6_10 
REMARK    4  A    between atoms: C6_10  and  C7_11 
REMARK    5  A    between atoms: C7_11  and  C8_12 
REMARK    6  A    between atoms: C8_12  and  N4_13 
REMARK       I    between atoms: N4_13  and  C9_14 
REMARK    7  A    between atoms: C9_14  and  C10_16 
REMARK    8  A    between atoms: C13_19  and  C14_20 
REMARK    9  A    between atoms: C14_20  and  N5_21 
REMARK   10  A    between atoms: C22_35  and  N9_36 
ROOT
HETATM    1  N5  UNL     1       8.244   0.385  -0.094  1.00  0.00    -0.252 N 
HETATM    2  N6  UNL     1       8.973  -0.592   0.382  1.00  0.00    -0.285 N 
ATOM      3  H6  UNL     1       8.607  -1.096   1.190  1.00  0.00     0.188 HD
HETATM    4  C15 UNL     1      10.165  -0.990  -0.102  1.00  0.00     0.128 A 
HETATM    5  C16 UNL     1      10.940  -2.056   0.450  1.00  0.00     0.119 C 
HETATM    6  N7  UNL     1      11.595  -2.937   0.886  1.00  0.00    -0.190 NA
HETATM    7  C17 UNL     1      10.617  -0.283  -1.191  1.00  0.00     0.048 A 
HETATM    8  C18 UNL     1       9.871   0.773  -1.738  1.00  0.00     0.079 A 
HETATM    9  C19 UNL     1       8.661   1.095  -1.157  1.00  0.00     0.262 A 
HETATM   10  O2  UNL     1       8.026   2.055  -1.675  1.00  0.00    -0.267 OA
ENDROOT
BRANCH   1  11
HETATM   11  C14 UNL     1       6.996   0.743   0.510  1.00  0.00     0.191 C 
BRANCH  11  12
HETATM   12  C13 UNL     1       5.798   0.026  -0.012  1.00  0.00    -0.038 A 
HETATM   13  C12 UNL     1       5.393  -1.175   0.583  1.00  0.00     0.010 A 
HETATM   14  C11 UNL     1       4.250  -1.829   0.146  1.00  0.00     0.019 A 
HETATM   15  C10 UNL     1       3.534  -1.274  -0.874  1.00  0.00     0.046 A 
HETATM   16  C21 UNL     1       3.915  -0.117  -1.458  1.00  0.00     0.019 A 
HETATM   17  C20 UNL     1       5.051   0.547  -1.034  1.00  0.00     0.010 A 
BRANCH  15  18
HETATM   18  C9  UNL     1       2.250  -1.968  -1.302  1.00  0.00     0.321 C 
HETATM   19  N4  UNL     1       1.128  -1.410  -0.922  1.00  0.00    -0.411 NA
HETATM   20  O1  UNL     1       2.475  -3.024  -1.987  1.00  0.00    -0.251 OA
BRANCH  19  21
HETATM   21  C8  UNL     1      -0.082  -0.811  -0.513  1.00  0.00     0.227 C 
BRANCH  21  22
HETATM   22  C7  UNL     1       0.275   0.530   0.167  1.00  0.00     0.079 C 
BRANCH  22  23
HETATM   23  C6  UNL     1      -0.872   1.290   0.604  1.00  0.00     0.084 C 
BRANCH  23  24
HETATM   24  N3  UNL     1      -1.770   0.839   1.591  1.00  0.00    -0.200 N 
HETATM   25  C5  UNL     1      -1.393   0.664   2.999  1.00  0.00     0.174 C 
BRANCH  24  26
HETATM   26  C4  UNL     1      -3.140   0.615   1.284  1.00  0.00     0.712 A 
HETATM   27  N2  UNL     1      -4.094   0.699   2.212  1.00  0.00    -0.021 N 
HETATM   28  C3  UNL     1      -5.393   0.476   1.912  1.00  0.00     0.708 A 
ATOM     29  H2  UNL     1      -3.838   0.937   3.170  1.00  0.00     0.203 HD
HETATM   30  N10 UNL     1      -5.694   0.163   0.650  1.00  0.00    -0.021 N 
HETATM   31  C22 UNL     1      -4.787   0.061  -0.326  1.00  0.00     0.709 A 
ATOM     32  H10 UNL     1      -6.672  -0.008   0.417  1.00  0.00     0.203 HD
HETATM   33  N8  UNL     1      -3.487   0.300   0.029  1.00  0.00    -0.021 N 
ATOM     34  H8  UNL     1      -2.760   0.236  -0.684  1.00  0.00     0.203 HD
BRANCH  28  35
HETATM   35  N1  UNL     1      -6.460   0.607   2.831  1.00  0.00    -0.225 N 
HETATM   36  C1  UNL     1      -7.025   1.953   3.041  1.00  0.00     0.168 C 
HETATM   37  C2  UNL     1      -7.057  -0.464   3.580  1.00  0.00     0.168 C 
ENDBRANCH  28  35
BRANCH  31  38
HETATM   38  N9  UNL     1      -5.132  -0.259  -1.660  1.00  0.00    -0.213 N 
HETATM   39  C23 UNL     1      -6.064  -1.324  -1.936  1.00  0.00     0.167 C 
HETATM   40  C24 UNL     1      -7.118  -0.870  -2.940  1.00  0.00     0.188 C 
HETATM   41  O3  UNL     1      -6.593  -0.115  -3.960  1.00  0.00    -0.388 OA
HETATM   42  C25 UNL     1      -5.808   0.938  -3.578  1.00  0.00     0.188 C 
HETATM   43  C26 UNL     1      -4.589   0.489  -2.761  1.00  0.00     0.167 C 
ENDBRANCH  31  38
ENDBRANCH  24  26
ENDBRANCH  23  24
ENDBRANCH  22  23
ENDBRANCH  21  22
ENDBRANCH  19  21
ENDBRANCH  15  18
ENDBRANCH  11  12
ENDBRANCH   1  11
TORSDOF 10
