REMARK  11 active torsions:
REMARK  status: ('A' for Active; 'I' for Inactive)
REMARK    1  A    between atoms: C3_4  and  C4_5 
REMARK    2  A    between atoms: C4_5  and  N2_6 
REMARK    3  A    between atoms: N2_6  and  C5_7 
REMARK    4  A    between atoms: N5_12  and  C6_13 
REMARK    5  A    between atoms: C6_13  and  N6_14 
REMARK    6  A    between atoms: C9_17  and  N7_18 
REMARK    7  A    between atoms: N7_18  and  C10_21 
REMARK    8  A    between atoms: C10_21  and  C11_22 
REMARK    9  A    between atoms: N9_33  and  C19_34 
REMARK   10  A    between atoms: C20_35  and  O2_36 
REMARK   11  A    between atoms: C20_35  and  C21_38 
ROOT
HETATM    1  C5  UNL     1      -3.002  -0.571  -0.088  1.00  0.00     0.285 A 
HETATM    2  N3  UNL     1      -2.341  -1.219   0.945  1.00  0.00    -0.243 N 
ATOM      3  H3  UNL     1      -2.809  -2.011   1.385  1.00  0.00     0.192 HD
HETATM    4  N4  UNL     1      -1.170  -0.887   1.389  1.00  0.00    -0.228 N 
ATOM      5  H4  UNL     1      -0.737  -1.405   2.153  1.00  0.00     0.209 HD
HETATM    6  N5  UNL     1      -0.532   0.163   0.817  1.00  0.00    -0.185 N 
HETATM    7  C18 UNL     1      -1.136   0.789  -0.157  1.00  0.00     0.357 A 
HETATM    8  O1  UNL     1      -0.547   1.790  -0.708  1.00  0.00    -0.244 OA
HETATM    9  N9  UNL     1      -2.377   0.471  -0.663  1.00  0.00    -0.228 N 
ENDROOT
BRANCH   6  10
HETATM   10  C6  UNL     1       0.745   0.471   1.421  1.00  0.00     0.215 C 
BRANCH  10  11
HETATM   11  N6  UNL     1       1.802  -0.199   0.778  1.00  0.00    -0.355 N 
HETATM   12  C7  UNL     1       2.157   0.092  -0.537  1.00  0.00     0.067 C 
HETATM   13  C8  UNL     1       3.555  -0.376  -0.912  1.00  0.00     0.077 C 
HETATM   14  C9  UNL     1       4.500  -0.527   0.200  1.00  0.00     0.192 C 
HETATM   15  C16 UNL     1       3.947  -1.118   1.487  1.00  0.00     0.053 C 
HETATM   16  C17 UNL     1       2.451  -1.264   1.446  1.00  0.00     0.131 C 
BRANCH  14  17
HETATM   17  N7  UNL     1       5.416   0.554   0.499  1.00  0.00    -0.067 N 
ATOM     18  H72 UNL     1       4.931   1.399   0.803  1.00  0.00     0.277 HD
ATOM     19  H71 UNL     1       5.953   0.382   1.349  1.00  0.00     0.277 HD
BRANCH  17  20
HETATM   20  C10 UNL     1       6.270   0.793  -0.654  1.00  0.00     0.272 C 
BRANCH  20  21
HETATM   21  C11 UNL     1       7.683   0.489  -0.284  1.00  0.00    -0.017 A 
HETATM   22  C12 UNL     1       8.377  -0.469  -1.049  1.00  0.00     0.011 A 
HETATM   23  C13 UNL     1       9.634  -0.830  -0.683  1.00  0.00     0.018 A 
HETATM   24  C14 UNL     1      10.231  -0.283   0.409  1.00  0.00     0.087 A 
HETATM   25  N8  UNL     1       9.560   0.649   1.152  1.00  0.00    -0.375 N 
HETATM   26  C15 UNL     1       8.310   1.014   0.794  1.00  0.00     0.096 A 
ATOM     27  H8  UNL     1      10.001   1.066   1.972  1.00  0.00     0.164 HD
ENDBRANCH  20  21
ENDBRANCH  17  20
ENDBRANCH  14  17
ENDBRANCH  10  11
ENDBRANCH   6  10
BRANCH   9  28
HETATM   28  C19 UNL     1      -2.820   1.249  -1.769  1.00  0.00     0.143 C 
HETATM   29  C20 UNL     1      -3.515   2.469  -1.686  1.00  0.00     0.092 C 
BRANCH  29  30
HETATM   30  O2  UNL     1      -3.363   3.205  -2.796  1.00  0.00    -0.358 OA
ATOM     31  H2  UNL     1      -3.832   4.029  -2.740  1.00  0.00     0.217 HD
ENDBRANCH  29  30
BRANCH  29  32
HETATM   32  C21 UNL     1      -4.351   3.160  -0.739  1.00  0.00    -0.002 A 
HETATM   33  C22 UNL     1      -4.940   4.423  -1.069  1.00  0.00     0.014 A 
HETATM   34  C23 UNL     1      -5.771   5.059  -0.170  1.00  0.00     0.001 A 
HETATM   35  C24 UNL     1      -6.086   4.551   1.065  1.00  0.00     0.000 A 
HETATM   36  C25 UNL     1      -5.530   3.334   1.412  1.00  0.00     0.001 A 
HETATM   37  C26 UNL     1      -4.700   2.706   0.502  1.00  0.00     0.014 A 
ENDBRANCH  29  32
ENDBRANCH   9  28
BRANCH   1  38
HETATM   38  N2  UNL     1      -4.115  -0.982  -0.343  1.00  0.00    -0.380 NA
BRANCH  38  39
HETATM   39  C4  UNL     1      -5.318  -1.163  -0.878  1.00  0.00     0.219 C 
BRANCH  39  40
HETATM   40  C3  UNL     1      -6.047  -2.459  -0.590  1.00  0.00     0.095 A 
HETATM   41  C2  UNL     1      -5.731  -3.384   0.345  1.00  0.00     0.144 A 
HETATM   42  N1  UNL     1      -6.620  -4.395   0.210  1.00  0.00    -0.291 N 
HETATM   43  C1  UNL     1      -6.662  -5.645   0.965  1.00  0.00     0.178 C 
HETATM   44  N11 UNL     1      -7.433  -4.090  -0.758  1.00  0.00    -0.241 N 
HETATM   45  N10 UNL     1      -7.109  -2.913  -1.266  1.00  0.00    -0.283 N 
ATOM     46  H11 UNL     1      -8.207  -4.673  -1.078  1.00  0.00     0.208 HD
ATOM     47  H10 UNL     1      -7.583  -2.437  -2.034  1.00  0.00     0.188 HD
ENDBRANCH  39  40
ENDBRANCH  38  39
ENDBRANCH   1  38
TORSDOF 11
