REMARK  11 active torsions:
REMARK  status: ('A' for Active; 'I' for Inactive)
REMARK    1  A    between atoms: C2_2  and  C3_3 
REMARK    2  A    between atoms: C3_3  and  N1_4 
REMARK    3  A    between atoms: C6_9  and  C7_10 
REMARK    4  A    between atoms: C7_10  and  N3_11 
REMARK    5  A    between atoms: N4_14  and  C10_15 
REMARK    6  A    between atoms: C10_15  and  C11_16 
REMARK    7  A    between atoms: C12_19  and  N6_20 
REMARK    8  A    between atoms: N6_20  and  C13_22 
REMARK    9  A    between atoms: C13_22  and  C14_23 
REMARK   10  A    between atoms: C14_23  and  N7_24 
REMARK   11  A    between atoms: N9_34  and  C21_35 
ROOT
HETATM    1  C11 UNL     1       0.596   0.803  -1.030  1.00  0.00     0.113 A 
HETATM    2  N5  UNL     1       1.191  -0.181  -0.341  1.00  0.00    -0.329 N 
ATOM      3  H5  UNL     1       0.809  -1.122  -0.440  1.00  0.00     0.168 HD
HETATM    4  C12 UNL     1       2.239  -0.027   0.461  1.00  0.00     0.133 A 
HETATM    5  C19 UNL     1       2.743   1.257   0.581  1.00  0.00     0.122 A 
HETATM    6  N8  UNL     1       3.764   1.789   1.278  1.00  0.00    -0.346 N 
ATOM      7  H8  UNL     1       4.393   1.272   1.892  1.00  0.00     0.167 HD
HETATM    8  C20 UNL     1       3.823   3.111   1.036  1.00  0.00     0.192 A 
HETATM    9  N9  UNL     1       2.815   3.415   0.166  1.00  0.00    -0.276 N 
HETATM   10  C25 UNL     1       2.142   2.280  -0.121  1.00  0.00     0.146 A 
HETATM   11  N12 UNL     1       1.078   2.048  -0.918  1.00  0.00    -0.328 N 
ATOM     12  H12 UNL     1       0.644   2.815  -1.431  1.00  0.00     0.169 HD
ENDROOT
BRANCH   1  13
HETATM   13  C10 UNL     1      -0.557   0.554  -1.896  1.00  0.00     0.350 C 
BRANCH  13  14
HETATM   14  N4  UNL     1      -1.827   0.563  -1.253  1.00  0.00     0.125 N 
HETATM   15  C9  UNL     1      -2.220   1.746  -0.604  1.00  0.00     0.305 C 
HETATM   16  C8  UNL     1      -2.273   1.365   0.862  1.00  0.00     0.305 C 
HETATM   17  N3  UNL     1      -2.613  -0.052   0.863  1.00  0.00     0.125 N 
HETATM   18  C26 UNL     1      -2.059  -0.559  -0.382  1.00  0.00     0.543 C 
BRANCH  17  19
HETATM   19  C7  UNL     1      -4.060  -0.151   0.878  1.00  0.00     0.350 C 
BRANCH  19  20
HETATM   20  C6  UNL     1      -4.478  -1.603   0.907  1.00  0.00     0.112 A 
HETATM   21  N1  UNL     1      -5.738  -2.029   0.797  1.00  0.00    -0.344 N 
HETATM   22  C4  UNL     1      -5.767  -3.365   0.864  1.00  0.00     0.109 A 
HETATM   23  C5  UNL     1      -4.461  -3.776   1.024  1.00  0.00     0.106 A 
HETATM   24  N2  UNL     1      -3.701  -2.673   1.045  1.00  0.00    -0.353 N 
ATOM     25  H2  UNL     1      -2.687  -2.657   1.150  1.00  0.00     0.166 HD
BRANCH  21  26
HETATM   26  C3  UNL     1      -6.924  -1.208   0.627  1.00  0.00     0.129 C 
BRANCH  26  27
HETATM   27  C2  UNL     1      -7.222  -0.974  -0.844  1.00  0.00     0.016 C 
HETATM   28  C1  UNL     1      -7.460  -2.281  -1.570  1.00  0.00     0.006 C 
ENDBRANCH  26  27
ENDBRANCH  21  26
ENDBRANCH  19  20
ENDBRANCH  17  19
ENDBRANCH  13  14
ENDBRANCH   1  13
BRANCH   4  29
HETATM   29  N6  UNL     1       2.796  -0.996   1.117  1.00  0.00    -0.373 N 
ATOM     30  H6  UNL     1       3.600  -0.804   1.715  1.00  0.00     0.161 HD
BRANCH  29  31
HETATM   31  C13 UNL     1       2.295  -2.336   1.012  1.00  0.00     0.151 C 
BRANCH  31  32
HETATM   32  C14 UNL     1       3.271  -3.327   0.469  1.00  0.00     0.292 C 
BRANCH  32  33
HETATM   33  N7  UNL     1       4.470  -3.471   1.244  1.00  0.00     0.094 N 
HETATM   34  C15 UNL     1       5.245  -2.272   1.149  1.00  0.00     0.298 C 
HETATM   35  C16 UNL     1       6.716  -2.703   1.126  1.00  0.00     0.198 C 
HETATM   36  O1  UNL     1       6.919  -3.295  -0.111  1.00  0.00    -0.388 OA
HETATM   37  C17 UNL     1       6.096  -4.385  -0.297  1.00  0.00     0.198 C 
HETATM   38  C18 UNL     1       5.186  -4.674   0.871  1.00  0.00     0.298 C 
ENDBRANCH  32  33
ENDBRANCH  31  32
ENDBRANCH  29  31
ENDBRANCH   4  29
BRANCH   9  39
HETATM   39  C21 UNL     1       2.520   4.707  -0.352  1.00  0.00     0.130 A 
HETATM   40  C22 UNL     1       2.713   5.095  -1.654  1.00  0.00     0.069 A 
HETATM   41  C23 UNL     1       2.315   6.412  -1.774  1.00  0.00     0.113 A 
HETATM   42  N10 UNL     1       1.894   6.786  -0.551  1.00  0.00    -0.306 N 
HETATM   43  C24 UNL     1       1.384   8.126  -0.240  1.00  0.00     0.177 C 
HETATM   44  N11 UNL     1       2.014   5.779   0.297  1.00  0.00    -0.284 N 
ATOM     45  H11 UNL     1       1.764   5.807   1.286  1.00  0.00     0.188 HD
ENDBRANCH   9  39
TORSDOF 11
