REMARK  9 active torsions:
REMARK  status: ('A' for Active; 'I' for Inactive)
REMARK    1  A    between atoms: C2_2  and  C3_3 
REMARK    2  A    between atoms: C5_10  and  C6_11 
REMARK    3  A    between atoms: C6_11  and  C7_12 
REMARK    4  A    between atoms: C7_12  and  C8_13 
REMARK    5  A    between atoms: C8_13  and  N3_14 
REMARK    6  A    between atoms: N3_14  and  S1_16 
REMARK    7  A    between atoms: S1_16  and  N4_19 
REMARK    8  A    between atoms: N4_19  and  C9_21 
REMARK    9  A    between atoms: C9_21  and  C10_22 
ROOT
HETATM    1  N3  UNL     1      -0.807   1.475  -1.633  1.00  0.00    -0.303 N 
ATOM      2  H3  UNL     1      -0.694   2.478  -1.484  1.00  0.00     0.173 HD
ENDROOT
BRANCH   1   3
HETATM    3  C8  UNL     1       0.178   0.486  -1.254  1.00  0.00     0.137 C 
BRANCH   3   4
HETATM    4  C7  UNL     1       1.331   1.245  -0.631  1.00  0.00     0.049 C 
BRANCH   4   5
HETATM    5  C6  UNL     1       2.418   0.283  -0.202  1.00  0.00     0.007 C 
BRANCH   5   6
HETATM    6  C5  UNL     1       3.588   0.801   0.089  1.00  0.00     0.059 A 
HETATM    7  C3  UNL     1       4.710   0.126   0.497  1.00  0.00     0.057 A 
HETATM    8  C4  UNL     1       5.680   1.152   0.674  1.00  0.00     0.272 A 
HETATM    9  O1  UNL     1       6.855   0.945   1.047  1.00  0.00    -0.266 OA
HETATM   10  N1  UNL     1       5.143   2.335   0.385  1.00  0.00    -0.265 N 
HETATM   11  N2  UNL     1       3.896   2.126   0.037  1.00  0.00    -0.297 N 
ATOM     12  H1  UNL     1       5.615   3.238   0.427  1.00  0.00     0.190 HD
ATOM     13  H2  UNL     1       3.243   2.860  -0.237  1.00  0.00     0.187 HD
BRANCH   7  14
HETATM   14  C2  UNL     1       4.954  -1.135   0.707  1.00  0.00    -0.012 C 
HETATM   15  C1  UNL     1       4.050  -2.263   0.560  1.00  0.00     0.037 C 
ENDBRANCH   7  14
ENDBRANCH   5   6
ENDBRANCH   4   5
ENDBRANCH   3   4
ENDBRANCH   1   3
BRANCH   1  16
HETATM   16  S1  UNL     1      -2.182   0.767  -2.359  1.00  0.00     0.315 S 
HETATM   17  O2  UNL     1      -2.796   1.701  -3.393  1.00  0.00    -0.183 OA
HETATM   18  O3  UNL     1      -1.776  -0.467  -3.118  1.00  0.00    -0.183 OA
BRANCH  16  19
HETATM   19  N4  UNL     1      -3.373   0.455  -1.187  1.00  0.00    -0.297 N 
ATOM     20  H4  UNL     1      -4.062   1.154  -0.909  1.00  0.00     0.174 HD
BRANCH  19  21
HETATM   21  C9  UNL     1      -3.341  -0.862  -0.616  1.00  0.00     0.190 C 
BRANCH  21  22
HETATM   22  C10 UNL     1      -4.446  -0.955   0.381  1.00  0.00     0.027 A 
HETATM   23  C11 UNL     1      -5.354   0.036   0.715  1.00  0.00     0.028 A 
HETATM   24  C12 UNL     1      -6.223  -0.423   1.674  1.00  0.00     0.019 A 
HETATM   25  C13 UNL     1      -5.847  -1.712   1.934  1.00  0.00     0.088 A 
HETATM   26  N5  UNL     1      -4.777  -2.020   1.150  1.00  0.00    -0.368 N 
ATOM     27  H5  UNL     1      -4.296  -2.919   1.143  1.00  0.00     0.165 HD
ENDBRANCH  21  22
ENDBRANCH  19  21
ENDBRANCH  16  19
ENDBRANCH   1  16
TORSDOF 9
