REMARK  9 active torsions:
REMARK  status: ('A' for Active; 'I' for Inactive)
REMARK    1  A    between atoms: O1_2  and  C2_3 
REMARK    2  A    between atoms: C2_3  and  C3_4 
REMARK    3  A    between atoms: N1_7  and  C6_8 
REMARK    4  A    between atoms: C6_8  and  C7_9 
REMARK    5  A    between atoms: C7_9  and  C8_10 
REMARK    6  A    between atoms: C8_10  and  N2_11 
REMARK       I    between atoms: N2_11  and  C9_13 
REMARK    7  A    between atoms: N4_15  and  C10_17 
REMARK    8  A    between atoms: C11_20  and  N6_21 
REMARK    9  A    between atoms: N8_26  and  O2_27 
ROOT
HETATM    1  N2  UNL     1      -2.224  -1.910  -0.352  1.00  0.00    -0.364 N 
ATOM      2  H2  UNL     1      -2.000  -1.023  -0.803  1.00  0.00     0.162 HD
HETATM    3  C9  UNL     1      -3.562  -2.379  -0.382  1.00  0.00     0.202 C 
HETATM    4  N3  UNL     1      -3.810  -3.750  -0.548  1.00  0.00    -0.063 NA
HETATM    5  N4  UNL     1      -4.517  -1.538  -0.258  1.00  0.00    -0.160 N 
ATOM      6  H4  UNL     1      -5.483  -1.864  -0.278  1.00  0.00     0.187 HD
ENDROOT
BRANCH   1   7
HETATM    7  C8  UNL     1      -1.170  -2.651   0.298  1.00  0.00     0.124 C 
BRANCH   7   8
HETATM    8  C7  UNL     1       0.115  -1.887   0.179  1.00  0.00     0.040 C 
BRANCH   8   9
HETATM    9  C6  UNL     1      -0.032  -0.543   0.856  1.00  0.00     0.129 C 
BRANCH   9  10
HETATM   10  N1  UNL     1       1.238   0.166   0.721  1.00  0.00    -0.366 N 
HETATM   11  C5  UNL     1       2.226   0.071   1.620  1.00  0.00     0.091 A 
HETATM   12  C4  UNL     1       3.403   0.758   1.451  1.00  0.00     0.026 A 
HETATM   13  C3  UNL     1       3.601   1.564   0.350  1.00  0.00    -0.032 A 
HETATM   14  C13 UNL     1       2.548   1.631  -0.556  1.00  0.00     0.026 A 
HETATM   15  C12 UNL     1       1.391   0.939  -0.363  1.00  0.00     0.091 A 
BRANCH  13  16
HETATM   16  C2  UNL     1       4.860   2.311   0.169  1.00  0.00     0.205 C 
BRANCH  16  17
HETATM   17  O1  UNL     1       5.931   1.550  -0.259  1.00  0.00    -0.391 OA
HETATM   18  C1  UNL     1       5.626   0.977  -1.484  1.00  0.00     0.201 C 
ENDBRANCH  16  17
ENDBRANCH  13  16
ENDBRANCH   9  10
ENDBRANCH   8   9
ENDBRANCH   7   8
ENDBRANCH   1   7
BRANCH   5  19
HETATM   19  C10 UNL     1      -4.245  -0.153  -0.092  1.00  0.00     0.741 A 
HETATM   20  N5  UNL     1      -4.088   0.552   1.037  1.00  0.00    -0.018 N 
HETATM   21  C11 UNL     1      -3.841   1.848   0.775  1.00  0.00     0.707 A 
ATOM     22  H5  UNL     1      -4.148   0.156   1.975  1.00  0.00     0.203 HD
HETATM   23  N7  UNL     1      -3.847   1.937  -0.572  1.00  0.00    -0.090 N 
HETATM   24  N8  UNL     1      -4.088   0.750  -1.102  1.00  0.00     0.031 N 
ATOM     25  H7  UNL     1      -3.689   2.794  -1.103  1.00  0.00     0.209 HD
BRANCH  21  26
HETATM   26  N6  UNL     1      -3.639   2.808   1.626  1.00  0.00    -0.233 N 
ATOM     27  H62 UNL     1      -3.634   2.741   2.644  1.00  0.00     0.174 HD
ATOM     28  H61 UNL     1      -3.452   3.791   1.427  1.00  0.00     0.174 HD
ENDBRANCH  21  26
BRANCH  24  29
HETATM   29  O2  UNL     1      -4.178   0.406  -2.427  1.00  0.00    -0.254 OA
ATOM     30  H2  UNL     1      -4.069   1.035  -3.131  1.00  0.00     0.247 HD
ENDBRANCH  24  29
ENDBRANCH   5  19
TORSDOF 9
