REMARK  7 active torsions:
REMARK  status: ('A' for Active; 'I' for Inactive)
REMARK    1  A    between atoms: N1_1  and  C1_4 
REMARK    2  A    between atoms: C3_6  and  C4_7 
REMARK    3  A    between atoms: C4_7  and  C5_8 
REMARK    4  A    between atoms: C5_8  and  C6_9 
REMARK    5  A    between atoms: C9_12  and  C10_13 
REMARK    6  A    between atoms: C10_13  and  C11_14 
REMARK    7  A    between atoms: C11_14  and  N2_15 
ROOT
HETATM    1  C6  UNL     1      -1.565  -1.776   0.440  1.00  0.00     0.023 A 
HETATM    2  C7  UNL     1      -0.297  -1.798   0.056  1.00  0.00     0.003 A 
HETATM    3  C8  UNL     1       0.549  -0.743  -0.308  1.00  0.00     0.021 A 
HETATM    4  C9  UNL     1       1.853  -0.988  -0.681  1.00  0.00    -0.056 A 
HETATM    5  C13 UNL     1       2.344  -2.277  -0.701  1.00  0.00     0.009 A 
HETATM    6  C14 UNL     1       1.501  -3.305  -0.340  1.00  0.00     0.031 A 
HETATM    7  C15 UNL     1       0.181  -3.090   0.040  1.00  0.00     0.046 A 
HETATM    8  N5  UNL     1      -0.764  -3.921   0.412  1.00  0.00    -0.322 N 
ATOM      9  H5  UNL     1      -0.675  -4.934   0.488  1.00  0.00     0.169 HD
HETATM   10  C16 UNL     1      -1.930  -3.163   0.690  1.00  0.00     0.253 A 
HETATM   11  O1  UNL     1      -3.068  -3.593   1.080  1.00  0.00    -0.268 OA
ENDROOT
BRANCH   1  12
HETATM   12  C5  UNL     1      -2.426  -0.594   0.583  1.00  0.00     0.051 C 
BRANCH  12  13
HETATM   13  C4  UNL     1      -3.625  -0.737  -0.350  1.00  0.00     0.063 C 
BRANCH  13  14
HETATM   14  C3  UNL     1      -4.507   0.474  -0.202  1.00  0.00     0.029 A 
HETATM   15  C2  UNL     1      -4.436   1.653  -0.920  1.00  0.00     0.075 A 
HETATM   16  C1  UNL     1      -5.437   2.525  -0.475  1.00  0.00     0.115 A 
HETATM   17  N7  UNL     1      -6.071   1.842   0.489  1.00  0.00    -0.286 N 
HETATM   18  N6  UNL     1      -5.530   0.643   0.652  1.00  0.00    -0.303 N 
ATOM     19  H7  UNL     1      -6.863   2.197   1.025  1.00  0.00     0.188 HD
ATOM     20  H6  UNL     1      -5.845  -0.052   1.329  1.00  0.00     0.186 HD
BRANCH  16  21
HETATM   21  N1  UNL     1      -5.694   3.715  -0.895  1.00  0.00    -0.384 N 
ATOM     22  H12 UNL     1      -5.212   4.235  -1.628  1.00  0.00     0.157 HD
ATOM     23  H11 UNL     1      -6.423   4.350  -0.571  1.00  0.00     0.157 HD
ENDBRANCH  16  21
ENDBRANCH  13  14
ENDBRANCH  12  13
ENDBRANCH   1  12
BRANCH   4  24
HETATM   24  C10 UNL     1       2.742   0.154  -1.066  1.00  0.00     0.058 C 
BRANCH  24  25
HETATM   25  C11 UNL     1       3.433   0.641   0.199  1.00  0.00     0.126 C 
BRANCH  25  26
HETATM   26  N2  UNL     1       4.305   1.740  -0.095  1.00  0.00    -0.367 N 
HETATM   27  C12 UNL     1       5.574   1.703   0.095  1.00  0.00     0.196 C 
HETATM   28  N3  UNL     1       6.206   0.547   0.619  1.00  0.00    -0.067 NA
HETATM   29  N4  UNL     1       6.377   2.827  -0.217  1.00  0.00    -0.067 NA
ATOM     30  H2  UNL     1       3.897   2.594  -0.474  1.00  0.00     0.161 HD
ENDBRANCH  25  26
ENDBRANCH  24  25
ENDBRANCH   4  24
TORSDOF 7
