REMARK  7 active torsions:
REMARK  status: ('A' for Active; 'I' for Inactive)
REMARK    1  A    between atoms: C3_3  and  N1_4 
REMARK    2  A    between atoms: C5_6  and  C6_7 
REMARK    3  A    between atoms: C7_10  and  C8_11 
REMARK    4  A    between atoms: C8_11  and  N3_12 
REMARK    5  A    between atoms: N3_12  and  C9_15 
REMARK    6  A    between atoms: C9_15  and  C10_16 
REMARK    7  A    between atoms: C10_16  and  N4_17 
REMARK       I    between atoms: N4_17  and  C11_19 
ROOT
HETATM    1  C1  UNL     1      -7.499   0.701   1.587  1.00  0.00     0.014 C 
HETATM    2  C2  UNL     1      -6.937   0.703   0.515  1.00  0.00    -0.097 C 
HETATM    3  C3  UNL     1      -6.268   0.689  -0.804  1.00  0.00     0.225 C 
ENDROOT
BRANCH   3   4
HETATM    4  N1  UNL     1      -5.119  -0.220  -0.746  1.00  0.00    -0.298 N 
HETATM    5  C4  UNL     1      -3.906   0.308  -0.376  1.00  0.00     0.113 A 
HETATM    6  C5  UNL     1      -2.839  -0.513  -0.321  1.00  0.00     0.039 A 
HETATM    7  C14 UNL     1      -3.036  -1.843  -0.642  1.00  0.00     0.109 A 
HETATM    8  N8  UNL     1      -4.205  -2.328  -0.994  1.00  0.00    -0.318 N 
HETATM    9  C15 UNL     1      -5.254  -1.517  -1.048  1.00  0.00     0.327 A 
ATOM     10  H8  UNL     1      -4.305  -3.317  -1.223  1.00  0.00     0.170 HD
HETATM   11  O1  UNL     1      -6.375  -2.013  -1.392  1.00  0.00    -0.246 OA
BRANCH   6  12
HETATM   12  C6  UNL     1      -1.468  -0.067   0.022  1.00  0.00     0.120 A 
HETATM   13  N2  UNL     1      -0.436  -0.926   0.255  1.00  0.00    -0.342 N 
HETATM   14  C7  UNL     1       0.704  -0.274   0.513  1.00  0.00     0.052 A 
ATOM     15  H2  UNL     1      -0.522  -1.942   0.235  1.00  0.00     0.167 HD
HETATM   16  C12 UNL     1       0.391   1.053   0.442  1.00  0.00     0.118 A 
HETATM   17  N7  UNL     1      -0.943   1.144   0.140  1.00  0.00    -0.345 N 
HETATM   18  C13 UNL     1      -1.602   2.427  -0.033  1.00  0.00     0.157 C 
BRANCH  14  19
HETATM   19  C8  UNL     1       2.046  -0.898   0.815  1.00  0.00     0.290 C 
BRANCH  19  20
HETATM   20  N3  UNL     1       3.023   0.149   1.006  1.00  0.00    -0.068 N 
ATOM     21  H32 UNL     1       3.077   0.783   0.209  1.00  0.00     0.277 HD
ATOM     22  H31 UNL     1       2.733   0.830   1.708  1.00  0.00     0.277 HD
BRANCH  20  23
HETATM   23  C9  UNL     1       4.293  -0.456   1.316  1.00  0.00     0.252 C 
BRANCH  23  24
HETATM   24  C10 UNL     1       4.883  -1.177   0.147  1.00  0.00     0.150 C 
BRANCH  24  25
HETATM   25  N4  UNL     1       5.080  -0.220  -0.915  1.00  0.00    -0.363 N 
HETATM   26  C11 UNL     1       6.071   0.770  -0.738  1.00  0.00     0.181 C 
HETATM   27  N5  UNL     1       5.895   1.962  -0.328  1.00  0.00    -0.374 N 
HETATM   28  N6  UNL     1       7.414   0.397  -1.051  1.00  0.00    -0.064 NA
ATOM     29  H52 UNL     1       4.936   2.228  -0.105  1.00  0.00     0.158 HD
ATOM     30  H51 UNL     1       6.611   2.677  -0.200  1.00  0.00     0.158 HD
ATOM     31  H4  UNL     1       4.521  -0.258  -1.767  1.00  0.00     0.162 HD
ENDBRANCH  24  25
ENDBRANCH  23  24
ENDBRANCH  20  23
ENDBRANCH  19  20
ENDBRANCH  14  19
ENDBRANCH   6  12
ENDBRANCH   3   4
TORSDOF 7
