REMARK  2 active torsions:
REMARK  status: ('A' for Active; 'I' for Inactive)
REMARK       I    between atoms: C2_5  and  N3_6 
REMARK       I    between atoms: C2_5  and  N7_15 
REMARK       I    between atoms: N3_6  and  C3_8 
REMARK    1  A    between atoms: N5_10  and  N6_12 
REMARK    2  A    between atoms: N7_15  and  N8_17 
ROOT
HETATM    1  N1  UNL     1      -0.211   3.218  -1.182  1.00  0.00    -0.171 NA
HETATM    2  C1  UNL     1      -0.837   2.228  -1.262  1.00  0.00     0.196 C 
HETATM    3  N2  UNL     1      -1.577   1.043  -1.382  1.00  0.00    -0.124 N 
ATOM      4  H2  UNL     1      -2.208   0.925  -2.174  1.00  0.00     0.197 HD
HETATM    5  C2  UNL     1      -1.475   0.108  -0.517  1.00  0.00     0.713 C 
HETATM    6  N3  UNL     1      -0.607   0.255   0.583  1.00  0.00    -0.160 N 
ATOM      7  H3  UNL     1      -1.021   0.336   1.512  1.00  0.00     0.187 HD
HETATM    8  C3  UNL     1       0.796   0.297   0.479  1.00  0.00     0.221 C 
HETATM    9  N4  UNL     1       1.563   0.973   1.459  1.00  0.00    -0.061 NA
HETATM   10  N5  UNL     1       1.427  -0.268  -0.493  1.00  0.00    -0.280 N 
ATOM     11  H5  UNL     1       0.887  -0.759  -1.206  1.00  0.00     0.189 HD
HETATM   12  N7  UNL     1      -2.230  -1.079  -0.656  1.00  0.00    -0.071 N 
ATOM     13  H7  UNL     1      -2.941  -1.123  -1.386  1.00  0.00     0.212 HD
ENDROOT
BRANCH  12  14
HETATM   14  N8  UNL     1      -2.045  -2.188   0.159  1.00  0.00    -0.024 N 
HETATM   15  O1  UNL     1      -2.277  -2.110   1.365  1.00  0.00    -0.516 OA
HETATM   16  O2  UNL     1      -1.607  -3.354  -0.383  1.00  0.00    -0.516 OA
ENDBRANCH  12  14
BRANCH  10  17
HETATM   17  N6  UNL     1       2.803  -0.237  -0.610  1.00  0.00    -0.343 N 
ATOM     18  H62 UNL     1       3.327   0.258   0.112  1.00  0.00     0.176 HD
ATOM     19  H61 UNL     1       3.302  -0.684  -1.379  1.00  0.00     0.176 HD
ENDBRANCH  10  17
TORSDOF 2
