REMARK  4 active torsions:
REMARK  status: ('A' for Active; 'I' for Inactive)
REMARK    1  A    between atoms: N1_2  and  N2_3 
REMARK    2  A    between atoms: N1_2  and  C4_14 
REMARK    3  A    between atoms: N2_3  and  C2_5 
REMARK    4  A    between atoms: C2_5  and  N3_7 
REMARK       I    between atoms: N3_7  and  C3_9 
ROOT
HETATM    1  N2  UNL     1       0.185  -0.093  -0.179  1.00  0.00    -0.271 N 
ATOM      2  H2  UNL     1      -0.277  -0.048  -1.087  1.00  0.00     0.189 HD
ENDROOT
BRANCH   1   3
HETATM    3  N1  UNL     1       1.545  -0.401  -0.120  1.00  0.00    -0.262 N 
HETATM    4  C1  UNL     1       1.922  -1.800  -0.175  1.00  0.00     0.181 C 
BRANCH   3   5
HETATM    5  C4  UNL     1       2.562   0.586  -0.009  1.00  0.00     0.230 A 
HETATM    6  N6  UNL     1       3.226   1.413   0.850  1.00  0.00    -0.266 N 
HETATM    7  N7  UNL     1       3.592   1.451  -0.475  1.00  0.00    -0.266 N 
ATOM      8  H6  UNL     1       3.358   1.758   1.801  1.00  0.00     0.190 HD
ATOM      9  H7  UNL     1       4.170   1.822  -1.229  1.00  0.00     0.190 HD
ENDBRANCH   3   5
ENDBRANCH   1   3
BRANCH   1  10
HETATM   10  C2  UNL     1      -0.568   0.159   0.996  1.00  0.00     0.193 C 
HETATM   11  S1  UNL     1       0.155   0.093   2.455  1.00  0.00    -0.039 SA
BRANCH  10  12
HETATM   12  N3  UNL     1      -1.948   0.470   0.911  1.00  0.00    -0.306 N 
HETATM   13  C3  UNL     1      -2.622   0.539  -0.345  1.00  0.00     0.188 C 
HETATM   14  N4  UNL     1      -2.381   1.426  -1.232  1.00  0.00    -0.373 N 
HETATM   15  N5  UNL     1      -3.616  -0.432  -0.622  1.00  0.00    -0.064 NA
ATOM     16  H42 UNL     1      -1.665   2.125  -1.033  1.00  0.00     0.158 HD
ATOM     17  H41 UNL     1      -2.863   1.475  -2.130  1.00  0.00     0.158 HD
ATOM     18  H3  UNL     1      -2.472   0.649   1.768  1.00  0.00     0.171 HD
ENDBRANCH  10  12
ENDBRANCH   1  10
TORSDOF 4
