REMARK  6 active torsions:
REMARK  status: ('A' for Active; 'I' for Inactive)
REMARK    1  A    between atoms: N1_1  and  C1_4 
REMARK    2  A    between atoms: C4_9  and  N3_10 
REMARK    3  A    between atoms: N3_10  and  S1_12 
REMARK    4  A    between atoms: S1_12  and  C5_14 
REMARK    5  A    between atoms: C5_14  and  N4_15 
REMARK    6  A    between atoms: C5_14  and  N5_19 
ROOT
HETATM    1  N3  UNL     1       0.306   0.021   0.529  1.00  0.00    -0.288 N 
ATOM      2  H3  UNL     1       0.503   0.713   1.252  1.00  0.00     0.178 HD
ENDROOT
BRANCH   1   3
HETATM    3  C4  UNL     1      -0.897  -0.037   0.062  1.00  0.00     0.130 A 
HETATM    4  C3  UNL     1      -1.201  -0.963  -0.918  1.00  0.00     0.067 A 
HETATM    5  C2  UNL     1      -2.490  -1.006  -1.400  1.00  0.00     0.110 A 
HETATM    6  N2  UNL     1      -3.438  -0.159  -0.923  1.00  0.00    -0.202 N 
HETATM    7  C1  UNL     1      -3.107   0.734   0.035  1.00  0.00     0.677 A 
ATOM      8  H2  UNL     1      -4.391  -0.197  -1.285  1.00  0.00     0.183 HD
HETATM    9  N6  UNL     1      -1.853   0.791   0.518  1.00  0.00    -0.176 N 
ATOM     10  H6  UNL     1      -1.624   1.473   1.241  1.00  0.00     0.186 HD
BRANCH   7  11
HETATM   11  N1  UNL     1      -4.029   1.547   0.488  1.00  0.00    -0.234 N 
ATOM     12  H12 UNL     1      -4.980   1.504   0.122  1.00  0.00     0.174 HD
ATOM     13  H11 UNL     1      -3.779   2.221   1.211  1.00  0.00     0.174 HD
ENDBRANCH   7  11
ENDBRANCH   1   3
BRANCH   1  14
HETATM   14  S1  UNL     1       1.582  -0.977   0.021  1.00  0.00     0.175 S 
HETATM   15  O1  UNL     1       1.640  -2.452   0.777  1.00  0.00    -0.232 OA
BRANCH  14  16
HETATM   16  C5  UNL     1       3.170  -0.207   0.144  1.00  0.00     0.490 C 
BRANCH  16  17
HETATM   17  N4  UNL     1       3.286   0.984  -0.644  1.00  0.00    -0.037 N 
ATOM     18  H43 UNL     1       3.048   0.798  -1.618  1.00  0.00     0.277 HD
ATOM     19  H42 UNL     1       2.544   1.645  -0.413  1.00  0.00     0.277 HD
ATOM     20  H41 UNL     1       4.202   1.428  -0.573  1.00  0.00     0.277 HD
ENDBRANCH  16  17
BRANCH  16  21
HETATM   21  N5  UNL     1       3.431   0.161   1.537  1.00  0.00    -0.037 N 
ATOM     22  H53 UNL     1       2.690   0.744   1.926  1.00  0.00     0.277 HD
ATOM     23  H52 UNL     1       3.339  -0.635   2.169  1.00  0.00     0.277 HD
ATOM     24  H51 UNL     1       4.347   0.605   1.608  1.00  0.00     0.277 HD
ENDBRANCH  16  21
ENDBRANCH  14  16
ENDBRANCH   1  14
TORSDOF 6
