REMARK  5 active torsions:
REMARK  status: ('A' for Active; 'I' for Inactive)
REMARK    1  A    between atoms: C3_5  and  N2_6 
REMARK    2  A    between atoms: N2_6  and  C4_8 
REMARK    3  A    between atoms: C4_8  and  C5_9 
REMARK    4  A    between atoms: C5_9  and  C6_10 
REMARK    5  A    between atoms: C6_10  and  N3_11 
ROOT
HETATM    1  N1  UNL     1       4.248  -1.499  -2.549  1.00  0.00    -0.098 NA
HETATM    2  C1  UNL     1       3.571  -1.030  -1.404  1.00  0.00     0.101 A 
HETATM    3  C2  UNL     1       2.282  -1.463  -1.167  1.00  0.00     0.184 A 
HETATM    4  F1  UNL     1       1.663  -2.330  -2.016  1.00  0.00    -0.200 F 
HETATM    5  C3  UNL     1       1.594  -1.009  -0.039  1.00  0.00     0.143 A 
HETATM    6  N4  UNL     1       2.257  -0.154   0.761  1.00  0.00    -0.339 N 
ATOM      7  H4  UNL     1       1.773   0.190   1.590  1.00  0.00     0.167 HD
HETATM    8  C12 UNL     1       3.507   0.278   0.548  1.00  0.00     0.047 A 
HETATM    9  C13 UNL     1       4.147   1.159   1.403  1.00  0.00     0.056 A 
HETATM   10  C14 UNL     1       5.443   1.591   1.160  1.00  0.00     0.058 A 
HETATM   11 CL1  UNL     1       6.221   2.710   2.271  1.00  0.00    -0.082 Cl
HETATM   12  C15 UNL     1       6.143   1.155   0.051  1.00  0.00     0.056 A 
HETATM   13 CL2  UNL     1       7.767   1.735  -0.196  1.00  0.00    -0.083 Cl
HETATM   14  C16 UNL     1       5.513   0.283  -0.798  1.00  0.00     0.041 A 
HETATM   15  C17 UNL     1       4.219  -0.145  -0.550  1.00  0.00     0.020 A 
ENDROOT
BRANCH   5  16
HETATM   16  N2  UNL     1       0.275  -1.462   0.200  1.00  0.00    -0.374 N 
ATOM     17  H2  UNL     1      -0.133  -2.120  -0.464  1.00  0.00     0.161 HD
BRANCH  16  18
HETATM   18  C4  UNL     1      -0.522  -1.053   1.317  1.00  0.00     0.122 C 
BRANCH  18  19
HETATM   19  C5  UNL     1      -0.805   0.425   1.296  1.00  0.00     0.036 C 
BRANCH  19  20
HETATM   20  C6  UNL     1      -1.550   0.813   0.028  1.00  0.00     0.122 C 
BRANCH  20  21
HETATM   21  N3  UNL     1      -2.788   0.105  -0.027  1.00  0.00    -0.192 NA
HETATM   22  O1  UNL     1      -3.376   0.119  -1.229  1.00  0.00    -0.298 OA
HETATM   23  C7  UNL     1      -4.711   0.445  -1.069  1.00  0.00     0.147 C 
HETATM   24  C8  UNL     1      -5.382  -0.684  -0.317  1.00  0.00     0.035 C 
HETATM   25  C11 UNL     1      -4.595   1.456   0.092  1.00  0.00     0.056 C 
HETATM   26  C9  UNL     1      -4.754  -0.658   1.064  1.00  0.00     0.024 C 
HETATM   27  C10 UNL     1      -3.764   0.479   0.949  1.00  0.00     0.088 C 
ENDBRANCH  20  21
ENDBRANCH  19  20
ENDBRANCH  18  19
ENDBRANCH  16  18
ENDBRANCH   5  16
TORSDOF 5
