REMARK  6 active torsions:
REMARK  status: ('A' for Active; 'I' for Inactive)
REMARK    1  A    between atoms: O1_2  and  C2_3 
REMARK    2  A    between atoms: C8_10  and  C9_11 
REMARK    3  A    between atoms: C9_11  and  S1_12 
REMARK    4  A    between atoms: S1_12  and  C10_13 
REMARK    5  A    between atoms: C11_16  and  N2_17 
REMARK    6  A    between atoms: C12_22  and  C13_23 
ROOT
HETATM    1  C10 UNL     1       2.368   0.232  -0.797  1.00  0.00     0.161 A 
HETATM    2  N1  UNL     1       2.775  -0.627  -1.746  1.00  0.00    -0.171 N 
ATOM      3  H1  UNL     1       2.137  -0.830  -2.515  1.00  0.00     0.186 HD
HETATM    4  C11 UNL     1       3.965  -1.231  -1.742  1.00  0.00     0.679 A 
HETATM    5  N3  UNL     1       4.811  -0.961  -0.719  1.00  0.00    -0.178 N 
ATOM      6  H3  UNL     1       5.728  -1.407  -0.686  1.00  0.00     0.185 HD
HETATM    7  C12 UNL     1       4.446  -0.108   0.253  1.00  0.00     0.132 A 
HETATM    8  N4  UNL     1       3.220   0.489   0.210  1.00  0.00    -0.323 N 
ATOM      9  H4  UNL     1       2.947   1.137   0.949  1.00  0.00     0.169 HD
ENDROOT
BRANCH   1  10
HETATM   10  S1  UNL     1       0.746   0.967  -0.933  1.00  0.00    -0.089 SA
BRANCH  10  11
HETATM   11  C9  UNL     1      -0.414  -0.079  -0.100  1.00  0.00     0.124 C 
BRANCH  11  12
HETATM   12  C8  UNL     1      -1.826   0.302  -0.065  1.00  0.00    -0.007 A 
HETATM   13  C2  UNL     1      -2.728  -0.553   0.609  1.00  0.00     0.075 A 
HETATM   14  C3  UNL     1      -4.063  -0.282   0.696  1.00  0.00     0.039 A 
HETATM   15  C4  UNL     1      -4.580   0.852   0.120  1.00  0.00     0.027 A 
HETATM   16  C5  UNL     1      -3.723   1.697  -0.541  1.00  0.00     0.040 A 
HETATM   17 CL1  UNL     1      -4.378   3.167  -1.290  1.00  0.00    -0.084 Cl
HETATM   18  C6  UNL     1      -2.347   1.426  -0.636  1.00  0.00    -0.030 A 
HETATM   19  C7  UNL     1      -1.548   2.424  -1.378  1.00  0.00     0.050 C 
BRANCH  13  20
HETATM   20  O1  UNL     1      -2.204  -1.693   1.188  1.00  0.00    -0.355 OA
HETATM   21  C1  UNL     1      -2.958  -2.638   1.889  1.00  0.00     0.210 C 
ENDBRANCH  13  20
ENDBRANCH  11  12
ENDBRANCH  10  11
ENDBRANCH   1  10
BRANCH   4  22
HETATM   22  N2  UNL     1       4.314  -2.041  -2.664  1.00  0.00    -0.234 N 
ATOM     23  H22 UNL     1       3.677  -2.244  -3.434  1.00  0.00     0.174 HD
ATOM     24  H21 UNL     1       5.224  -2.503  -2.661  1.00  0.00     0.174 HD
ENDBRANCH   4  22
BRANCH   7  25
HETATM   25  C13 UNL     1       5.347   0.214   1.391  1.00  0.00     0.246 C 
HETATM   26 CL2  UNL     1       5.775   1.950   1.375  1.00  0.00    -0.100 Cl
HETATM   27 CL3  UNL     1       4.612  -0.235   2.939  1.00  0.00    -0.100 Cl
ENDBRANCH   7  25
TORSDOF 6
