REMARK  8 active torsions:
REMARK  status: ('A' for Active; 'I' for Inactive)
REMARK    1  A    between atoms: N2_6  and  C4_8 
REMARK    2  A    between atoms: C4_8  and  C5_9 
REMARK    3  A    between atoms: C5_9  and  C6_10 
REMARK    4  A    between atoms: C6_10  and  N3_11 
REMARK    5  A    between atoms: N5_18  and  C8_20 
REMARK    6  A    between atoms: C8_20  and  C9_21 
REMARK    7  A    between atoms: C9_21  and  C10_22 
REMARK    8  A    between atoms: C10_22  and  N6_23 
ROOT
HETATM    1  C1  UNL     1      -1.588  -2.882  -1.571  1.00  0.00     0.064 C 
HETATM    2  C2  UNL     1      -0.991  -1.855  -0.990  1.00  0.00     0.127 A 
HETATM    3  N1  UNL     1      -1.456  -1.386   0.274  1.00  0.00    -0.177 N 
ATOM      4  H1  UNL     1      -2.248  -1.851   0.718  1.00  0.00     0.185 HD
HETATM    5  C3  UNL     1      -0.838  -0.282   0.929  1.00  0.00     0.694 A 
HETATM    6  N2  UNL     1      -1.264   0.135   2.072  1.00  0.00    -0.225 N 
ATOM      7  H2  UNL     1      -0.785   0.929   2.497  1.00  0.00     0.177 HD
HETATM    8  N4  UNL     1       0.263   0.345   0.284  1.00  0.00    -0.022 N 
ATOM      9  H4  UNL     1       0.712   1.136   0.746  1.00  0.00     0.203 HD
HETATM   10  C7  UNL     1       0.767  -0.080  -0.976  1.00  0.00     0.694 A 
HETATM   11  N5  UNL     1       1.780   0.522  -1.535  1.00  0.00    -0.225 N 
ATOM     12  H5  UNL     1       2.203   1.309  -1.044  1.00  0.00     0.177 HD
HETATM   13  N7  UNL     1       0.114  -1.189  -1.590  1.00  0.00    -0.177 N 
ATOM     14  H7  UNL     1       0.452  -1.518  -2.494  1.00  0.00     0.185 HD
ENDROOT
BRANCH   6  15
HETATM   15  C4  UNL     1      -2.361  -0.440   2.783  1.00  0.00     0.139 C 
BRANCH  15  16
HETATM   16  C5  UNL     1      -2.843   0.510   3.876  1.00  0.00     0.047 C 
BRANCH  16  17
HETATM   17  C6  UNL     1      -3.298   1.820   3.297  1.00  0.00     0.231 C 
BRANCH  17  18
HETATM   18  N3  UNL     1      -3.744   2.682   4.376  1.00  0.00    -0.079 N 
ATOM     19  H33 UNL     1      -4.460   2.243   4.954  1.00  0.00     0.274 HD
ATOM     20  H32 UNL     1      -3.033   2.802   5.097  1.00  0.00     0.274 HD
ATOM     21  H31 UNL     1      -4.053   3.571   3.983  1.00  0.00     0.274 HD
ENDBRANCH  17  18
ENDBRANCH  16  17
ENDBRANCH  15  16
ENDBRANCH   6  15
BRANCH  11  22
HETATM   22  C8  UNL     1       2.328   0.141  -2.793  1.00  0.00     0.139 C 
BRANCH  22  23
HETATM   23  C9  UNL     1       3.640   0.903  -2.998  1.00  0.00     0.047 C 
BRANCH  23  24
HETATM   24  C10 UNL     1       4.578   0.528  -1.868  1.00  0.00     0.231 C 
BRANCH  24  25
HETATM   25  N6  UNL     1       4.865  -0.882  -1.828  1.00  0.00    -0.079 N 
ATOM     26  H63 UNL     1       4.005  -1.429  -1.786  1.00  0.00     0.274 HD
ATOM     27  H62 UNL     1       5.225  -1.208  -2.725  1.00  0.00     0.274 HD
ATOM     28  H61 UNL     1       5.496  -1.134  -1.068  1.00  0.00     0.274 HD
ENDBRANCH  24  25
ENDBRANCH  23  24
ENDBRANCH  22  23
ENDBRANCH  11  22
TORSDOF 8
