REMARK  8 active torsions:
REMARK  status: ('A' for Active; 'I' for Inactive)
REMARK    1  A    between atoms: N1_1  and  C1_5 
REMARK    2  A    between atoms: C1_5  and  C2_6 
REMARK    3  A    between atoms: C2_6  and  C3_7 
REMARK    4  A    between atoms: C3_7  and  N2_8 
REMARK    5  A    between atoms: N2_8  and  C4_10 
REMARK    6  A    between atoms: C4_10  and  C5_11 
REMARK    7  A    between atoms: C8_21  and  O1_22 
REMARK    8  A    between atoms: C9_24  and  N7_25 
ROOT
HETATM    1  C5  UNL     1      -0.905   0.287  -0.096  1.00  0.00     0.134 C 
HETATM    2  N3  UNL     1      -1.382   1.566   0.325  1.00  0.00    -0.365 N 
ATOM      3  H3  UNL     1      -0.769   2.253   0.764  1.00  0.00     0.161 HD
HETATM    4  C6  UNL     1      -2.778   1.829   0.094  1.00  0.00     0.141 A 
HETATM    5  N4  UNL     1      -3.471   2.973  -0.158  1.00  0.00    -0.268 N 
ATOM      6  H4  UNL     1      -3.089   3.916  -0.229  1.00  0.00     0.186 HD
HETATM    7  N5  UNL     1      -4.755   2.615  -0.295  1.00  0.00    -0.021 NA
HETATM    8  N6  UNL     1      -4.869   1.308  -0.139  1.00  0.00    -0.282 N 
ATOM      9  H6  UNL     1      -5.741   0.781  -0.196  1.00  0.00     0.184 HD
HETATM   10  C7  UNL     1      -3.652   0.778   0.107  1.00  0.00     0.099 A 
HETATM   11  C8  UNL     1      -3.213  -0.600   0.355  1.00  0.00     0.205 C 
HETATM   12  C9  UNL     1      -1.762  -0.847   0.329  1.00  0.00     0.242 C 
ENDROOT
BRANCH   1  13
HETATM   13  C4  UNL     1       0.541   0.112   0.394  1.00  0.00     0.146 C 
BRANCH  13  14
HETATM   14  N2  UNL     1       1.076  -1.120   0.019  1.00  0.00    -0.400 N 
ATOM     15  H2  UNL     1       0.548  -1.761  -0.574  1.00  0.00     0.158 HD
BRANCH  14  16
HETATM   16  C3  UNL     1       2.354  -1.454   0.476  1.00  0.00     0.057 C 
BRANCH  16  17
HETATM   17  C2  UNL     1       3.566  -0.815  -0.042  1.00  0.00     0.071 C 
BRANCH  17  18
HETATM   18  C1  UNL     1       3.788   0.635   0.097  1.00  0.00     0.234 C 
BRANCH  18  19
HETATM   19  N1  UNL     1       5.151   0.883  -0.487  1.00  0.00    -0.079 N 
ATOM     20  H13 UNL     1       5.887   0.312  -0.072  1.00  0.00     0.274 HD
ATOM     21  H12 UNL     1       5.259   0.539  -1.441  1.00  0.00     0.274 HD
ATOM     22  H11 UNL     1       5.305   1.887  -0.391  1.00  0.00     0.274 HD
ENDBRANCH  18  19
ENDBRANCH  17  18
ENDBRANCH  16  17
ENDBRANCH  14  16
ENDBRANCH  13  14
ENDBRANCH   1  13
BRANCH  12  23
HETATM   23  N7  UNL     1      -1.409  -1.979  -0.546  1.00  0.00    -0.070 N 
ATOM     24  H73 UNL     1      -1.485  -1.763  -1.540  1.00  0.00     0.274 HD
ATOM     25  H72 UNL     1      -0.413  -2.199  -0.542  1.00  0.00     0.274 HD
ATOM     26  H71 UNL     1      -1.998  -2.759  -0.254  1.00  0.00     0.274 HD
ENDBRANCH  12  23
BRANCH  11  27
HETATM   27  O1  UNL     1      -3.928  -1.481  -0.500  1.00  0.00    -0.387 OA
ATOM     28  H1  UNL     1      -3.644  -2.373  -0.339  1.00  0.00     0.210 HD
ENDBRANCH  11  27
TORSDOF 8
