REMARK  9 active torsions:
REMARK  status: ('A' for Active; 'I' for Inactive)
REMARK    1  A    between atoms: N1_1  and  C1_4 
REMARK    2  A    between atoms: C2_10  and  N5_11 
REMARK    3  A    between atoms: N6_13  and  N7_15 
REMARK    4  A    between atoms: N7_15  and  C3_17 
REMARK    5  A    between atoms: C3_17  and  N8_18 
REMARK    6  A    between atoms: C3_17  and  C4_22 
REMARK    7  A    between atoms: C3_17  and  N10_27 
REMARK    8  A    between atoms: C4_22  and  N9_23 
REMARK    9  A    between atoms: N10_27  and  N11_29 
ROOT
HETATM    1  N7  UNL     1      -0.726   0.092   1.149  1.00  0.00    -0.267 N 
ATOM      2  H7  UNL     1      -0.950   0.117   2.144  1.00  0.00     0.186 HD
ENDROOT
BRANCH   1   3
HETATM    3  N6  UNL     1       0.527  -0.354   0.785  1.00  0.00    -0.242 N 
HETATM    4  N5  UNL     1       1.587   0.310   0.806  1.00  0.00    -0.267 N 
ATOM      5  H5  UNL     1       1.584   1.283   1.113  1.00  0.00     0.190 HD
ATOM      6  H6  UNL     1       0.596  -1.321   0.467  1.00  0.00     0.208 HD
BRANCH   4   7
HETATM    7  C2  UNL     1       2.791  -0.312   0.396  1.00  0.00     0.179 A 
HETATM    8  C1  UNL     1       3.812   0.218  -0.362  1.00  0.00     0.159 A 
HETATM    9  N2  UNL     1       4.758  -0.717  -0.512  1.00  0.00    -0.267 N 
HETATM   10  N3  UNL     1       4.355  -1.801   0.127  1.00  0.00    -0.019 NA
ATOM     11  H2  UNL     1       5.632  -0.612  -1.027  1.00  0.00     0.186 HD
HETATM   12  N4  UNL     1       3.172  -1.569   0.677  1.00  0.00    -0.265 N 
ATOM     13  H4  UNL     1       2.635  -2.239   1.227  1.00  0.00     0.186 HD
BRANCH   8  14
HETATM   14  N1  UNL     1       3.826   1.411  -0.833  1.00  0.00    -0.382 N 
ATOM     15  H12 UNL     1       4.582   1.803  -1.394  1.00  0.00     0.157 HD
ATOM     16  H11 UNL     1       3.105   2.124  -0.719  1.00  0.00     0.157 HD
ENDBRANCH   8  14
ENDBRANCH   4   7
ENDBRANCH   1   3
BRANCH   1  17
HETATM   17  C3  UNL     1      -1.741   0.526   0.222  1.00  0.00     0.328 C 
BRANCH  17  18
HETATM   18  N8  UNL     1      -1.291   1.645  -0.562  1.00  0.00    -0.029 N 
ATOM     19  H83 UNL     1      -0.972   2.412   0.030  1.00  0.00     0.279 HD
ATOM     20  H82 UNL     1      -0.413   1.439  -1.038  1.00  0.00     0.279 HD
ATOM     21  H81 UNL     1      -2.009   1.952  -1.218  1.00  0.00     0.279 HD
ENDBRANCH  17  18
BRANCH  17  22
HETATM   22  C4  UNL     1      -2.054  -0.667  -0.692  1.00  0.00     0.317 C 
BRANCH  22  23
HETATM   23  N9  UNL     1      -3.067  -0.277  -1.637  1.00  0.00    -0.073 N 
ATOM     24  H93 UNL     1      -3.901   0.094  -1.182  1.00  0.00     0.274 HD
ATOM     25  H92 UNL     1      -2.808   0.558  -2.162  1.00  0.00     0.274 HD
ATOM     26  H91 UNL     1      -3.275  -1.070  -2.244  1.00  0.00     0.274 HD
ENDBRANCH  22  23
ENDBRANCH  17  22
BRANCH  17  27
HETATM   27  N10 UNL     1      -2.973   0.828   0.922  1.00  0.00    -0.221 N 
ATOM     28  H10 UNL     1      -3.371   1.766   0.874  1.00  0.00     0.191 HD
BRANCH  27  29
HETATM   29  N11 UNL     1      -3.610  -0.160   1.657  1.00  0.00    -0.040 N 
HETATM   30  O1  UNL     1      -4.473  -0.876   1.135  1.00  0.00    -0.517 OA
HETATM   31  O2  UNL     1      -3.281  -0.341   2.962  1.00  0.00    -0.517 OA
ENDBRANCH  27  29
ENDBRANCH  17  27
ENDBRANCH   1  17
TORSDOF 9
