REMARK  15 active torsions:
REMARK  status: ('A' for Active; 'I' for Inactive)
REMARK    1  A    between atoms: C3_6  and  N3_7 
REMARK    2  A    between atoms: N3_7  and  C4_9 
REMARK    3  A    between atoms: C9_14  and  N4_15 
REMARK    4  A    between atoms: N4_15  and  C10_16 
REMARK    5  A    between atoms: N4_15  and  C12_20 
REMARK    6  A    between atoms: C10_16  and  C11_17 
REMARK    7  A    between atoms: C11_17  and  O1_18 
REMARK    8  A    between atoms: C12_20  and  C13_21 
REMARK    9  A    between atoms: C13_21  and  O2_22 
REMARK   10  A    between atoms: C14_24  and  O3_25 
REMARK   11  A    between atoms: C16_31  and  N7_32 
REMARK   12  A    between atoms: C18_40  and  N10_41 
REMARK   13  A    between atoms: N10_41  and  C19_43 
REMARK   14  A    between atoms: C19_43  and  C20_44 
REMARK   15  A    between atoms: C20_44  and  O4_45 
ROOT
HETATM    1  N1  UNL     1       4.661  -2.104  -3.604  1.00  0.00    -0.188 NA
HETATM    2  C1  UNL     1       4.304  -1.566  -2.665  1.00  0.00     0.138 C 
HETATM    3  C2  UNL     1       3.873  -0.896  -1.464  1.00  0.00     0.217 A 
HETATM    4  N2  UNL     1       2.724  -1.242  -0.874  1.00  0.00    -0.166 N 
ATOM      5  H2  UNL     1       2.166  -1.981  -1.302  1.00  0.00     0.186 HD
HETATM    6  C3  UNL     1       2.265  -0.674   0.246  1.00  0.00     0.695 A 
HETATM    7  N9  UNL     1       3.052   0.300   0.764  1.00  0.00    -0.022 N 
ATOM      8  H9  UNL     1       2.748   0.766   1.619  1.00  0.00     0.203 HD
HETATM    9  C18 UNL     1       4.222   0.685   0.203  1.00  0.00     0.694 A 
HETATM   10  N11 UNL     1       4.635   0.080  -0.922  1.00  0.00    -0.166 N 
ATOM     11  H11 UNL     1       5.513   0.354  -1.363  1.00  0.00     0.186 HD
ENDROOT
BRANCH   6  12
HETATM   12  N3  UNL     1       1.196  -0.954   0.805  1.00  0.00    -0.210 N 
ATOM     13  H3  UNL     1       1.057  -0.391   1.644  1.00  0.00     0.179 HD
BRANCH  12  14
HETATM   14  C4  UNL     1       0.128  -1.832   0.598  1.00  0.00     0.207 A 
HETATM   15  C5  UNL     1      -1.125  -1.150   0.199  1.00  0.00     0.037 A 
HETATM   16  C6  UNL     1      -1.612  -1.811  -0.893  1.00  0.00     0.070 A 
HETATM   17  C14 UNL     1      -1.822  -0.071   0.679  1.00  0.00     0.103 A 
HETATM   18  C7  UNL     1      -2.789  -1.423  -1.530  1.00  0.00     0.034 A 
HETATM   19  N5  UNL     1      -0.743  -2.890  -1.225  1.00  0.00    -0.241 N 
HETATM   20  C8  UNL     1      -3.458  -0.337  -1.020  1.00  0.00     0.034 A 
HETATM   21  C9  UNL     1      -3.004   0.359   0.081  1.00  0.00     0.064 A 
HETATM   22  N6  UNL     1      -0.844  -3.796  -2.220  1.00  0.00    -0.300 N 
HETATM   23  C17 UNL     1       0.276  -2.915  -0.366  1.00  0.00     0.133 A 
HETATM   24  C15 UNL     1       0.065  -4.763  -2.400  1.00  0.00     0.155 A 
ATOM     25  H6  UNL     1      -1.639  -3.743  -2.856  1.00  0.00     0.186 HD
HETATM   26  C16 UNL     1       1.131  -4.819  -1.532  1.00  0.00     0.117 A 
HETATM   27  N8  UNL     1       1.199  -3.905  -0.557  1.00  0.00    -0.328 N 
ATOM     28  H8  UNL     1       1.990  -3.950   0.085  1.00  0.00     0.169 HD
BRANCH  21  29
HETATM   29  N4  UNL     1      -3.733   1.458   0.605  1.00  0.00    -0.375 N 
BRANCH  29  30
HETATM   30  C10 UNL     1      -4.632   1.303   1.726  1.00  0.00     0.149 C 
BRANCH  30  31
HETATM   31  C11 UNL     1      -4.809  -0.156   2.007  1.00  0.00     0.183 C 
BRANCH  31  32
HETATM   32  O1  UNL     1      -5.677  -0.384   3.089  1.00  0.00    -0.399 OA
ATOM     33  H1  UNL     1      -5.789  -1.310   3.267  1.00  0.00     0.209 HD
ENDBRANCH  31  32
ENDBRANCH  30  31
ENDBRANCH  29  30
BRANCH  29  34
HETATM   34  C12 UNL     1      -3.515   2.759   0.033  1.00  0.00     0.149 C 
BRANCH  34  35
HETATM   35  C13 UNL     1      -4.709   3.326  -0.682  1.00  0.00     0.183 C 
BRANCH  35  36
HETATM   36  O2  UNL     1      -4.320   4.596  -1.176  1.00  0.00    -0.399 OA
ATOM     37  H2  UNL     1      -5.075   4.954  -1.628  1.00  0.00     0.209 HD
ENDBRANCH  35  36
ENDBRANCH  34  35
ENDBRANCH  29  34
ENDBRANCH  21  29
BRANCH  26  38
HETATM   38  N7  UNL     1       2.052  -5.747  -1.657  1.00  0.00    -0.384 N 
ATOM     39  H72 UNL     1       2.000  -6.444  -2.400  1.00  0.00     0.157 HD
ATOM     40  H71 UNL     1       2.842  -5.789  -1.013  1.00  0.00     0.157 HD
ENDBRANCH  26  38
BRANCH  17  41
HETATM   41  O3  UNL     1      -1.366   0.633   1.784  1.00  0.00    -0.358 OA
ATOM     42  H3  UNL     1      -1.849   1.381   2.117  1.00  0.00     0.217 HD
ENDBRANCH  17  41
ENDBRANCH  12  14
ENDBRANCH   6  12
BRANCH   9  43
HETATM   43  N10 UNL     1       4.914   1.619   0.738  1.00  0.00    -0.223 N 
ATOM     44  H10 UNL     1       4.538   2.040   1.588  1.00  0.00     0.177 HD
BRANCH  43  45
HETATM   45  C19 UNL     1       6.150   2.127   0.268  1.00  0.00     0.164 C 
BRANCH  45  46
HETATM   46  C20 UNL     1       7.007   2.495   1.480  1.00  0.00     0.184 C 
BRANCH  46  47
HETATM   47  O4  UNL     1       6.350   3.459   2.236  1.00  0.00    -0.399 OA
ATOM     48  H4  UNL     1       6.882   3.688   2.989  1.00  0.00     0.209 HD
ENDBRANCH  46  47
ENDBRANCH  45  46
ENDBRANCH  43  45
ENDBRANCH   9  43
TORSDOF 15
