REMARK  8 active torsions:
REMARK  status: ('A' for Active; 'I' for Inactive)
REMARK    1  A    between atoms: N1_2  and  C2_4 
REMARK    2  A    between atoms: N2_6  and  N3_8 
REMARK       I    between atoms: N3_8  and  C4_10 
REMARK    3  A    between atoms: N5_12  and  N6_14 
REMARK    4  A    between atoms: C5_16  and  N7_17 
REMARK    5  A    between atoms: N7_17  and  C6_19 
REMARK    6  A    between atoms: C6_19  and  C7_20 
REMARK    7  A    between atoms: C7_20  and  N8_21 
REMARK    8  A    between atoms: N8_21  and  C8_23 
ROOT
HETATM    1  N3  UNL     1       2.680   0.544   0.529  1.00  0.00    -0.271 N 
ATOM      2  H3  UNL     1       2.802   1.522   0.792  1.00  0.00     0.189 HD
HETATM    3  C4  UNL     1       1.411  -0.087   0.641  1.00  0.00     0.222 C 
HETATM    4  N4  UNL     1       1.393  -1.440   1.024  1.00  0.00    -0.061 NA
HETATM    5  N5  UNL     1       0.381   0.636   0.381  1.00  0.00    -0.272 N 
ATOM      6  H5  UNL     1       0.536   1.608   0.114  1.00  0.00     0.189 HD
ENDROOT
BRANCH   5   7
HETATM    7  N6  UNL     1      -0.931   0.180   0.440  1.00  0.00    -0.294 N 
HETATM    8  C5  UNL     1      -1.537  -0.219  -0.626  1.00  0.00     0.192 C 
ATOM      9  H6  UNL     1      -1.419   0.161   1.335  1.00  0.00     0.187 HD
BRANCH   8  10
HETATM   10  N7  UNL     1      -2.871  -0.672  -0.510  1.00  0.00    -0.384 N 
ATOM     11  H7  UNL     1      -3.249  -1.272  -1.243  1.00  0.00     0.160 HD
BRANCH  10  12
HETATM   12  C6  UNL     1      -3.730  -0.317   0.615  1.00  0.00     0.140 C 
BRANCH  12  13
HETATM   13  C7  UNL     1      -5.088  -0.924   0.497  1.00  0.00     0.141 C 
BRANCH  13  14
HETATM   14  N8  UNL     1      -5.751  -0.496  -0.689  1.00  0.00    -0.368 N 
ATOM     15  H8  UNL     1      -5.913  -1.173  -1.435  1.00  0.00     0.161 HD
BRANCH  14  16
HETATM   16  C8  UNL     1      -6.191   0.834  -0.867  1.00  0.00     0.181 C 
HETATM   17  N9  UNL     1      -5.966   1.768   0.172  1.00  0.00    -0.070 NA
HETATM   18  S1  UNL     1      -6.953   1.322  -2.240  1.00  0.00    -0.044 SA
ENDBRANCH  14  16
ENDBRANCH  13  14
ENDBRANCH  12  13
ENDBRANCH  10  12
ENDBRANCH   8  10
ENDBRANCH   5   7
BRANCH   1  19
HETATM   19  N2  UNL     1       3.754  -0.205   0.051  1.00  0.00    -0.287 N 
HETATM   20  C2  UNL     1       4.818   0.404  -0.339  1.00  0.00     0.087 C 
HETATM   21  C3  UNL     1       4.905   1.885  -0.282  1.00  0.00     0.090 C 
ATOM     22  H2  UNL     1       3.697  -1.223   0.011  1.00  0.00     0.188 HD
BRANCH  20  23
HETATM   23  N1  UNL     1       5.893  -0.379  -0.819  1.00  0.00    -0.383 N 
HETATM   24  C1  UNL     1       6.558  -1.284   0.086  1.00  0.00     0.147 C 
ATOM     25  H1  UNL     1       6.194  -0.305  -1.791  1.00  0.00     0.160 HD
ENDBRANCH  20  23
ENDBRANCH   1  19
TORSDOF 8
