REMARK  7 active torsions:
REMARK  status: ('A' for Active; 'I' for Inactive)
REMARK       I    between atoms: N1_2  and  C2_4 
REMARK    1  A    between atoms: C2_4  and  C3_6 
REMARK    2  A    between atoms: C3_6  and  N2_7 
REMARK       I    between atoms: N2_7  and  C4_9 
REMARK    3  A    between atoms: C4_9  and  C5_11 
REMARK    4  A    between atoms: C5_11  and  N3_12 
REMARK       I    between atoms: N3_12  and  C6_14 
REMARK    5  A    between atoms: C6_14  and  C7_16 
REMARK    6  A    between atoms: C7_16  and  N4_17 
REMARK    7  A    between atoms: N5_24  and  N6_25 
ROOT
HETATM    1  N2  UNL     1      -0.308   0.240  -0.984  1.00  0.00    -0.328 N 
ATOM      2  H2  UNL     1      -0.361   0.403  -1.989  1.00  0.00     0.165 HD
HETATM    3  C4  UNL     1       0.952  -0.009  -0.395  1.00  0.00     0.237 C 
HETATM    4  O2  UNL     1       0.999  -0.206   0.854  1.00  0.00    -0.272 OA
ENDROOT
BRANCH   1   5
HETATM    5  C3  UNL     1      -1.515   0.270  -0.210  1.00  0.00     0.189 C 
HETATM    6  C8  UNL     1      -1.613   1.500   0.677  1.00  0.00     0.081 C 
HETATM    7  C9  UNL     1      -2.493   2.033  -0.399  1.00  0.00     0.082 C 
HETATM    8  C10 UNL     1      -1.917   3.078  -1.301  1.00  0.00     0.028 C 
HETATM    9  N5  UNL     1      -2.693   0.733  -0.923  1.00  0.00    -0.196 NA
BRANCH   5  10
HETATM   10  C2  UNL     1      -1.869  -0.995   0.486  1.00  0.00     0.262 C 
HETATM   11  N1  UNL     1      -3.021  -1.106   1.303  1.00  0.00    -0.362 N 
HETATM   12  C1  UNL     1      -3.408  -2.296   1.994  1.00  0.00     0.149 C 
ATOM     13  H1  UNL     1      -3.614  -0.282   1.405  1.00  0.00     0.162 HD
HETATM   14  O1  UNL     1      -1.153  -2.017   0.371  1.00  0.00    -0.269 OA
ENDBRANCH   5  10
BRANCH   9  15
HETATM   15  N6  UNL     1      -2.668   0.566  -2.294  1.00  0.00    -0.360 NA
ATOM     16  H62 UNL     1      -2.812  -0.371  -2.672  1.00  0.00     0.171 HD
ATOM     17  H61 UNL     1      -3.495   0.891  -2.795  1.00  0.00     0.171 HD
ENDBRANCH   9  15
ENDBRANCH   1   5
BRANCH   3  18
HETATM   18  C5  UNL     1       2.198  -0.042  -1.201  1.00  0.00     0.225 C 
BRANCH  18  19
HETATM   19  N3  UNL     1       3.337  -0.328  -0.371  1.00  0.00    -0.351 N 
HETATM   20  C6  UNL     1       3.503  -1.518   0.370  1.00  0.00     0.243 C 
HETATM   21  O3  UNL     1       2.657  -2.453   0.368  1.00  0.00    -0.272 OA
ATOM     22  H3  UNL     1       4.073   0.375  -0.314  1.00  0.00     0.163 HD
BRANCH  20  23
HETATM   23  C7  UNL     1       4.725  -1.701   1.201  1.00  0.00     0.332 C 
BRANCH  23  24
HETATM   24  N4  UNL     1       5.620  -0.569   1.127  1.00  0.00    -0.071 N 
ATOM     25  H43 UNL     1       5.863  -0.356   0.159  1.00  0.00     0.274 HD
ATOM     26  H42 UNL     1       5.138   0.296   1.369  1.00  0.00     0.274 HD
ATOM     27  H41 UNL     1       6.457  -0.694   1.696  1.00  0.00     0.274 HD
ENDBRANCH  23  24
ENDBRANCH  20  23
ENDBRANCH  18  19
ENDBRANCH   3  18
TORSDOF 7
