REMARK  8 active torsions:
REMARK  status: ('A' for Active; 'I' for Inactive)
REMARK    1  A    between atoms: C1_2  and  C2_4 
REMARK    2  A    between atoms: C2_4  and  C3_5 
REMARK    3  A    between atoms: C3_5  and  N2_6 
REMARK    4  A    between atoms: C3_5  and  C4_10 
REMARK       I    between atoms: C4_10  and  N3_12 
REMARK    5  A    between atoms: N3_12  and  C5_14 
REMARK    6  A    between atoms: C9_18  and  N4_19 
REMARK    7  A    between atoms: C10_23  and  N5_24 
REMARK    8  A    between atoms: N5_24  and  C11_26 
ROOT
HETATM    1  C5  UNL     1      -0.901  -0.055   0.621  1.00  0.00     0.109 C 
HETATM    2  C6  UNL     1      -1.738   1.057   1.172  1.00  0.00     0.027 C 
HETATM    3  C7  UNL     1      -2.910   0.446   1.863  1.00  0.00     0.004 C 
HETATM    4  C8  UNL     1      -3.424  -0.805   1.255  1.00  0.00     0.035 C 
HETATM    5  C9  UNL     1      -3.045  -1.071  -0.154  1.00  0.00     0.208 C 
HETATM    6  C10 UNL     1      -1.663  -0.647  -0.544  1.00  0.00     0.137 C 
ENDROOT
BRANCH   1   7
HETATM    7  N3  UNL     1       0.402   0.333   0.201  1.00  0.00    -0.353 N 
HETATM    8  C4  UNL     1       1.593  -0.237   0.717  1.00  0.00     0.249 C 
HETATM    9  O2  UNL     1       1.475  -1.128   1.587  1.00  0.00    -0.271 OA
ATOM     10  H3  UNL     1       0.483   1.060  -0.509  1.00  0.00     0.163 HD
BRANCH   8  11
HETATM   11  C3  UNL     1       2.951   0.160   0.288  1.00  0.00     0.283 C 
BRANCH  11  12
HETATM   12  C2  UNL     1       3.013   0.033  -1.201  1.00  0.00     0.142 C 
BRANCH  12  13
HETATM   13  C1  UNL     1       4.276   0.444  -1.810  1.00  0.00     0.233 C 
HETATM   14  N1  UNL     1       5.406   0.940  -1.126  1.00  0.00    -0.062 NA
HETATM   15  O1  UNL     1       4.368   0.348  -3.064  1.00  0.00    -0.277 OA
ENDBRANCH  12  13
ENDBRANCH  11  12
BRANCH  11  16
HETATM   16  N2  UNL     1       3.919  -0.603   0.997  1.00  0.00    -0.066 N 
ATOM     17  H23 UNL     1       3.862  -1.584   0.725  1.00  0.00     0.275 HD
ATOM     18  H22 UNL     1       4.857  -0.380   0.663  1.00  0.00     0.275 HD
ATOM     19  H21 UNL     1       3.877  -0.516   2.012  1.00  0.00     0.275 HD
ENDBRANCH  11  16
ENDBRANCH   8  11
ENDBRANCH   1   7
BRANCH   6  20
HETATM   20  N5  UNL     1      -1.726   0.315  -1.649  1.00  0.00    -0.360 N 
ATOM     21  H5  UNL     1      -2.243   1.185  -1.521  1.00  0.00     0.162 HD
BRANCH  20  22
HETATM   22  C11 UNL     1      -1.088   0.069  -2.890  1.00  0.00     0.348 C 
HETATM   23  O3  UNL     1      -0.428  -0.999  -3.106  1.00  0.00    -0.284 OA
ENDBRANCH  20  22
ENDBRANCH   6  20
BRANCH   5  24
HETATM   24  N4  UNL     1      -4.023  -0.453  -1.055  1.00  0.00    -0.073 N 
ATOM     25  H43 UNL     1      -4.976  -0.753  -0.851  1.00  0.00     0.274 HD
ATOM     26  H42 UNL     1      -4.139   0.543  -0.870  1.00  0.00     0.274 HD
ATOM     27  H41 UNL     1      -3.762  -0.636  -2.024  1.00  0.00     0.274 HD
ENDBRANCH   5  24
TORSDOF 8
