REMARK  6 active torsions:
REMARK  status: ('A' for Active; 'I' for Inactive)
REMARK    1  A    between atoms: C2_2  and  N1_3 
REMARK    2  A    between atoms: C2_2  and  C4_8 
REMARK       I    between atoms: N1_3  and  C3_5 
REMARK       I    between atoms: C4_8  and  N3_10 
REMARK    3  A    between atoms: N3_10  and  C5_12 
REMARK    4  A    between atoms: C5_12  and  C6_13 
REMARK    5  A    between atoms: C6_13  and  N4_14 
REMARK    6  A    between atoms: C6_13  and  C7_18 
ROOT
HETATM    1  C5  UNL     1      -1.760  -0.561  -0.369  1.00  0.00     0.069 A 
HETATM    2  C8  UNL     1      -2.004  -0.628  -1.856  1.00  0.00     0.036 A 
HETATM    3  C9  UNL     1      -1.918  -1.852  -1.059  1.00  0.00     0.036 A 
ENDROOT
BRANCH   1   4
HETATM    4  N3  UNL     1      -0.492  -0.068   0.099  1.00  0.00    -0.348 N 
HETATM    5  C4  UNL     1       0.771  -0.332  -0.468  1.00  0.00     0.240 C 
HETATM    6  O2  UNL     1       0.840  -1.065  -1.477  1.00  0.00    -0.271 OA
ATOM      7  H3  UNL     1      -0.509   0.532   0.923  1.00  0.00     0.163 HD
BRANCH   5   8
HETATM    8  C2  UNL     1       2.043   0.213   0.063  1.00  0.00     0.174 C 
HETATM    9  C1  UNL     1       2.191  -0.301   1.477  1.00  0.00     0.042 C 
BRANCH   8  10
HETATM   10  N1  UNL     1       3.187  -0.197  -0.682  1.00  0.00    -0.333 N 
HETATM   11  C3  UNL     1       4.067   0.740  -1.253  1.00  0.00     0.329 C 
HETATM   12  N2  UNL     1       5.213   0.309  -1.999  1.00  0.00    -0.040 NA
HETATM   13  O1  UNL     1       3.843   1.962  -1.106  1.00  0.00    -0.251 OA
ATOM     14  H1  UNL     1       3.372  -1.193  -0.804  1.00  0.00     0.164 HD
ENDBRANCH   8  10
ENDBRANCH   5   8
ENDBRANCH   1   4
BRANCH   1  15
HETATM   15  C6  UNL     1      -2.951  -0.131   0.498  1.00  0.00     0.299 C 
BRANCH  15  16
HETATM   16  N4  UNL     1      -2.731  -0.643   1.828  1.00  0.00    -0.064 N 
ATOM     17  H43 UNL     1      -2.572  -1.650   1.844  1.00  0.00     0.275 HD
ATOM     18  H42 UNL     1      -1.833  -0.359   2.219  1.00  0.00     0.275 HD
ATOM     19  H41 UNL     1      -3.523  -0.357   2.404  1.00  0.00     0.275 HD
ENDBRANCH  15  16
BRANCH  15  20
HETATM   20  C7  UNL     1      -3.106   1.344   0.501  1.00  0.00     0.264 C 
HETATM   21  N5  UNL     1      -3.023   2.023   1.740  1.00  0.00    -0.060 NA
HETATM   22  O3  UNL     1      -3.306   2.011  -0.541  1.00  0.00    -0.274 OA
ENDBRANCH  15  20
ENDBRANCH   1  15
TORSDOF 6
