REMARK  5 active torsions:
REMARK  status: ('A' for Active; 'I' for Inactive)
REMARK    1  A    between atoms: C2_2  and  N1_3 
REMARK    2  A    between atoms: C2_2  and  C3_7 
REMARK    3  A    between atoms: C2_2  and  C6_21 
REMARK    4  A    between atoms: C3_7  and  N2_8 
REMARK       I    between atoms: N2_8  and  C4_10 
REMARK       I    between atoms: C4_10  and  N4_14 
REMARK    5  A    between atoms: N4_14  and  N5_16 
REMARK       I    between atoms: C6_21  and  N8_23 
ROOT
HETATM    1  C3  UNL     1      -0.242  -0.223   0.844  1.00  0.00     0.186 C 
ENDROOT
BRANCH   1   2
HETATM    2  C2  UNL     1      -1.417  -0.446  -0.102  1.00  0.00     0.215 C 
HETATM    3  C1  UNL     1      -1.245  -1.827  -0.736  1.00  0.00     0.058 C 
BRANCH   2   4
HETATM    4  N1  UNL     1      -1.382   0.511  -1.139  1.00  0.00    -0.060 N 
ATOM      5  H13 UNL     1      -0.543   0.441  -1.714  1.00  0.00     0.275 HD
ATOM      6  H12 UNL     1      -2.065   0.324  -1.873  1.00  0.00     0.275 HD
ATOM      7  H11 UNL     1      -1.497   1.432  -0.716  1.00  0.00     0.275 HD
ENDBRANCH   2   4
BRANCH   2   8
HETATM    8  C6  UNL     1      -2.643  -0.488   0.699  1.00  0.00     0.257 C 
HETATM    9  O1  UNL     1      -2.673  -1.356   1.636  1.00  0.00    -0.270 OA
HETATM   10  N8  UNL     1      -3.762   0.361   0.492  1.00  0.00    -0.350 N 
HETATM   11  C7  UNL     1      -4.131   1.430  -0.410  1.00  0.00     0.127 C 
HETATM   12  C9  UNL     1      -5.057   0.517   1.122  1.00  0.00     0.127 C 
HETATM   13  C8  UNL     1      -5.042   1.971   0.701  1.00  0.00     0.040 C 
ENDBRANCH   2   8
ENDBRANCH   1   2
BRANCH   1  14
HETATM   14  N2  UNL     1       1.013  -0.278   0.137  1.00  0.00    -0.222 N 
HETATM   15  C4  UNL     1       2.199  -0.086   0.897  1.00  0.00     0.686 C 
HETATM   16  N3  UNL     1       2.175   0.684   1.934  1.00  0.00    -0.234 N 
HETATM   17  N4  UNL     1       3.425  -0.736   0.528  1.00  0.00    -0.131 N 
ATOM     18  H32 UNL     1       1.304   1.146   2.196  1.00  0.00     0.174 HD
ATOM     19  H31 UNL     1       3.026   0.822   2.479  1.00  0.00     0.174 HD
ATOM     20  H4  UNL     1       3.393  -1.630   0.038  1.00  0.00     0.205 HD
ATOM     21  H2  UNL     1       1.049  -0.448  -0.868  1.00  0.00     0.177 HD
BRANCH  17  22
HETATM   22  N5  UNL     1       4.661  -0.160   0.831  1.00  0.00    -0.262 N 
HETATM   23  C5  UNL     1       5.646  -0.246   0.004  1.00  0.00     0.216 C 
HETATM   24  N6  UNL     1       6.904   0.339   0.309  1.00  0.00    -0.065 NA
HETATM   25  N7  UNL     1       5.466  -0.934  -1.225  1.00  0.00    -0.065 NA
ATOM     26  H5  UNL     1       4.785   0.333   1.715  1.00  0.00     0.190 HD
ENDBRANCH  17  22
ENDBRANCH   1  14
TORSDOF 5
