REMARK  7 active torsions:
REMARK  status: ('A' for Active; 'I' for Inactive)
REMARK    1  A    between atoms: C2_4  and  N2_5 
REMARK    2  A    between atoms: C2_4  and  O1_11 
REMARK    3  A    between atoms: N2_5  and  C3_7 
REMARK    4  A    between atoms: O1_11  and  N3_12 
REMARK    5  A    between atoms: N3_12  and  C7_13 
REMARK    6  A    between atoms: C7_13  and  C14_23 
REMARK    7  A    between atoms: N4_14  and  C8_16 
ROOT
HETATM    1  C7  UNL     1       1.549   0.509  -0.009  1.00  0.00     0.193 C 
HETATM    2  N4  UNL     1       2.331   1.228   0.771  1.00  0.00    -0.332 N 
ATOM      3  H4  UNL     1       1.904   1.952   1.348  1.00  0.00     0.168 HD
ENDROOT
BRANCH   1   4
HETATM    4  N3  UNL     1       0.191   0.671  -0.099  1.00  0.00    -0.258 NA
BRANCH   4   5
HETATM    5  O1  UNL     1      -1.064   0.821  -0.182  1.00  0.00    -0.127 OA
BRANCH   5   6
HETATM    6  C2  UNL     1      -2.248   0.403   0.309  1.00  0.00     0.254 C 
HETATM    7  N1  UNL     1      -2.321  -0.523   1.147  1.00  0.00    -0.358 N 
HETATM    8  C1  UNL     1      -1.402  -1.349   1.798  1.00  0.00     0.150 C 
ATOM      9  H1  UNL     1      -3.283  -0.723   1.421  1.00  0.00     0.162 HD
BRANCH   6  10
HETATM   10  N2  UNL     1      -3.486   1.051  -0.151  1.00  0.00    -0.346 N 
ATOM     11  H2  UNL     1      -3.500   2.067  -0.235  1.00  0.00     0.164 HD
BRANCH  10  12
HETATM   12  C3  UNL     1      -4.664   0.327  -0.484  1.00  0.00     0.022 C 
HETATM   13  C4  UNL     1      -4.478  -0.659  -1.617  1.00  0.00     0.037 C 
HETATM   14  C5  UNL     1      -5.161  -0.381   0.769  1.00  0.00     0.037 C 
HETATM   15  C6  UNL     1      -5.749   1.312  -0.864  1.00  0.00     0.037 C 
ENDBRANCH  10  12
ENDBRANCH   6  10
ENDBRANCH   5   6
ENDBRANCH   4   5
ENDBRANCH   1   4
BRANCH   1  16
HETATM   16  C14 UNL     1       2.302  -0.500  -0.835  1.00  0.00     0.063 C 
HETATM   17  C15 UNL     1       1.988  -1.917  -0.494  1.00  0.00     0.018 C 
HETATM   18  C16 UNL     1       1.942  -0.290  -2.318  1.00  0.00     0.018 C 
ENDBRANCH   1  16
BRANCH   2  19
HETATM   19  C8  UNL     1       3.720   1.049   0.849  1.00  0.00     0.034 A 
HETATM   20  C9  UNL     1       4.306   0.095   1.670  1.00  0.00     0.031 A 
HETATM   21  C10 UNL     1       5.668  -0.096   1.762  1.00  0.00     0.026 A 
HETATM   22  C11 UNL     1       6.511   0.682   1.013  1.00  0.00     0.034 A 
HETATM   23 CL1  UNL     1       8.240   0.429   1.137  1.00  0.00    -0.084 Cl
HETATM   24  C12 UNL     1       5.977   1.645   0.181  1.00  0.00     0.026 A 
HETATM   25  C13 UNL     1       4.617   1.819   0.105  1.00  0.00     0.031 A 
ENDBRANCH   2  19
TORSDOF 7
