REMARK  4 active torsions:
REMARK  status: ('A' for Active; 'I' for Inactive)
REMARK    1  A    between atoms: C2_2  and  C3_3 
REMARK    2  A    between atoms: C3_3  and  C6_6 
REMARK    3  A    between atoms: C8_9  and  N1_10 
REMARK    4  A    between atoms: N1_10  and  C9_12 
ROOT
HETATM    1  C6  UNL     1      -1.098   0.175  -0.671  1.00  0.00     0.025 A 
HETATM    2  C7  UNL     1      -0.392   0.449  -1.822  1.00  0.00     0.079 A 
HETATM    3  S1  UNL     1       1.219   0.368  -1.284  1.00  0.00    -0.064 SA
HETATM    4  C8  UNL     1       0.927  -0.005   0.350  1.00  0.00     0.150 A 
HETATM    5  N3  UNL     1      -0.402  -0.051   0.417  1.00  0.00    -0.339 N 
ATOM      6  H3  UNL     1      -0.870  -0.258   1.299  1.00  0.00     0.168 HD
ENDROOT
BRANCH   4   7
HETATM    7  N1  UNL     1       1.781  -0.206   1.339  1.00  0.00    -0.323 N 
ATOM      8  H1  UNL     1       1.449  -0.423   2.279  1.00  0.00     0.169 HD
BRANCH   7   9
HETATM    9  C9  UNL     1       3.169  -0.113   1.064  1.00  0.00     0.106 A 
HETATM   10  C10 UNL     1       4.000   0.326   2.091  1.00  0.00     0.050 A 
HETATM   11  C11 UNL     1       5.375   0.441   1.886  1.00  0.00     0.024 A 
HETATM   12  C12 UNL     1       5.915   0.120   0.666  1.00  0.00     0.026 A 
HETATM   13 BR1  UNL     1       7.778   0.242   0.292  1.00  0.00    -0.050 Br
HETATM   14  C13 UNL     1       5.060  -0.309  -0.323  1.00  0.00     0.108 A 
HETATM   15  N2  UNL     1       3.715  -0.422  -0.122  1.00  0.00    -0.351 N 
ATOM     16  H2  UNL     1       3.117  -0.745  -0.883  1.00  0.00     0.166 HD
ENDBRANCH   7   9
ENDBRANCH   4   7
BRANCH   1  17
HETATM   17  C3  UNL     1      -2.618   0.154  -0.753  1.00  0.00    -0.005 C 
HETATM   18  C4  UNL     1      -3.053  -0.667  -1.925  1.00  0.00     0.021 C 
HETATM   19  C5  UNL     1      -3.072   1.597  -1.078  1.00  0.00     0.021 C 
BRANCH  17  20
HETATM   20  C2  UNL     1      -3.271  -0.172   0.542  1.00  0.00     0.010 C 
HETATM   21  C1  UNL     1      -3.106  -1.561   1.048  1.00  0.00     0.006 C 
ENDBRANCH  17  20
ENDBRANCH   1  17
TORSDOF 4
