REMARK  4 active torsions:
REMARK  status: ('A' for Active; 'I' for Inactive)
REMARK    1  A    between atoms: C5_5  and  O1_6 
REMARK    2  A    between atoms: O1_6  and  C6_7 
REMARK    3  A    between atoms: C6_7  and  N1_9 
REMARK    4  A    between atoms: N1_9  and  C7_11 
ROOT
HETATM    1  C1  UNL     1      -2.442   0.213   2.531  1.00  0.00     0.037 C 
HETATM    2  C2  UNL     1      -2.713   0.696   1.100  1.00  0.00     0.021 C 
HETATM    3  C3  UNL     1      -2.960   2.194   1.214  1.00  0.00     0.037 C 
HETATM    4  C4  UNL     1      -1.452   0.491   0.333  1.00  0.00     0.064 C 
HETATM    5  C5  UNL     1      -1.355  -0.955  -0.057  1.00  0.00     0.154 C 
HETATM    6  C13 UNL     1      -2.506  -1.350  -0.934  1.00  0.00     0.139 C 
HETATM    7 CL1  UNL     1      -2.816  -3.087  -0.658  1.00  0.00    -0.120 Cl
HETATM    8  C14 UNL     1      -3.747  -0.557  -0.689  1.00  0.00     0.038 C 
HETATM    9  C15 UNL     1      -3.991   0.483  -1.776  1.00  0.00     0.039 C 
HETATM   10  C16 UNL     1      -4.927  -1.535  -0.822  1.00  0.00     0.039 C 
HETATM   11  N2  UNL     1      -3.839  -0.007   0.624  1.00  0.00    -0.404 N 
ATOM     12  H2  UNL     1      -4.679  -0.117   1.192  1.00  0.00     0.154 HD
ENDROOT
BRANCH   5  13
HETATM   13  O1  UNL     1      -0.153  -1.307  -0.666  1.00  0.00    -0.320 OA
BRANCH  13  14
HETATM   14  C6  UNL     1       1.091  -1.169  -0.051  1.00  0.00     0.210 C 
HETATM   15  S1  UNL     1       1.591  -2.173   1.124  1.00  0.00    -0.033 SA
BRANCH  14  16
HETATM   16  N1  UNL     1       1.920  -0.095  -0.502  1.00  0.00    -0.357 N 
ATOM     17  H1  UNL     1       1.602   0.533  -1.240  1.00  0.00     0.162 HD
BRANCH  16  18
HETATM   18  C7  UNL     1       3.216   0.084   0.108  1.00  0.00     0.084 C 
HETATM   19  C8  UNL     1       4.030  -1.171  -0.126  1.00  0.00     0.025 C 
HETATM   20  C9  UNL     1       5.397  -0.817  -0.691  1.00  0.00     0.002 C 
HETATM   21  C10 UNL     1       6.010   0.225   0.235  1.00  0.00     0.000 C 
HETATM   22  C11 UNL     1       5.214   1.485   0.172  1.00  0.00     0.002 C 
HETATM   23  C12 UNL     1       3.882   1.287  -0.519  1.00  0.00     0.025 C 
ENDBRANCH  16  18
ENDBRANCH  14  16
ENDBRANCH  13  14
ENDBRANCH   5  13
TORSDOF 4
