REMARK  7 active torsions:
REMARK  status: ('A' for Active; 'I' for Inactive)
REMARK    1  A    between atoms: C2_2  and  C5_5 
REMARK    2  A    between atoms: C6_6  and  C7_7 
REMARK    3  A    between atoms: C7_7  and  N1_10 
REMARK    4  A    between atoms: N1_10  and  C10_12 
REMARK    5  A    between atoms: C10_12  and  N2_14 
REMARK    6  A    between atoms: N2_14  and  C11_16 
REMARK    7  A    between atoms: C14_19  and  N3_20 
ROOT
HETATM    1  C10 UNL     1       1.316  -0.591  -0.155  1.00  0.00     0.173 C 
HETATM    2  S1  UNL     1       1.577  -2.182  -0.387  1.00  0.00    -0.041 SA
ENDROOT
BRANCH   1   3
HETATM    3  N1  UNL     1      -0.069  -0.212  -0.157  1.00  0.00    -0.348 N 
ATOM      4  H1  UNL     1      -0.300   0.769  -0.002  1.00  0.00     0.163 HD
BRANCH   3   5
HETATM    5  C7  UNL     1      -1.147  -1.137  -0.365  1.00  0.00     0.088 C 
HETATM    6  C8  UNL     1      -1.009  -1.865  -1.691  1.00  0.00     0.053 C 
HETATM    7  C9  UNL     1      -1.145  -2.228   0.716  1.00  0.00     0.053 C 
BRANCH   5   8
HETATM    8  C6  UNL     1      -2.408  -0.395  -0.298  1.00  0.00    -0.075 C 
HETATM    9  C5  UNL     1      -3.455   0.211  -0.224  1.00  0.00    -0.095 C 
BRANCH   9  10
HETATM   10  C2  UNL     1      -4.715   0.962  -0.118  1.00  0.00     0.013 C 
HETATM   11  C1  UNL     1      -4.516   2.226  -0.923  1.00  0.00     0.028 C 
HETATM   12  C3  UNL     1      -5.889   0.140  -0.648  1.00  0.00     0.028 C 
HETATM   13  C4  UNL     1      -5.052   1.274   1.330  1.00  0.00     0.028 C 
ENDBRANCH   9  10
ENDBRANCH   5   8
ENDBRANCH   3   5
ENDBRANCH   1   3
BRANCH   1  14
HETATM   14  N2  UNL     1       2.282   0.390   0.058  1.00  0.00    -0.333 N 
ATOM     15  H2  UNL     1       1.917   1.330   0.210  1.00  0.00     0.168 HD
BRANCH  14  16
HETATM   16  C11 UNL     1       3.690   0.282   0.096  1.00  0.00     0.034 A 
HETATM   17  C12 UNL     1       4.421   1.303   0.723  1.00  0.00     0.032 A 
HETATM   18  C13 UNL     1       5.791   1.262   0.772  1.00  0.00     0.038 A 
HETATM   19  C14 UNL     1       6.526   0.237   0.219  1.00  0.00     0.103 A 
HETATM   20  C15 UNL     1       5.824  -0.765  -0.397  1.00  0.00     0.038 A 
HETATM   21  C16 UNL     1       4.427  -0.731  -0.451  1.00  0.00     0.032 A 
BRANCH  19  22
HETATM   22  N3  UNL     1       7.944   0.219   0.284  1.00  0.00    -0.116 N 
HETATM   23  O1  UNL     1       8.566  -0.730  -0.231  1.00  0.00    -0.532 OA
HETATM   24  O2  UNL     1       8.669   1.197   0.887  1.00  0.00    -0.532 OA
ENDBRANCH  19  22
ENDBRANCH  14  16
ENDBRANCH   1  14
TORSDOF 7
