REMARK  4 active torsions:
REMARK  status: ('A' for Active; 'I' for Inactive)
REMARK    1  A    between atoms: C2_2  and  C4_4 
REMARK    2  A    between atoms: C6_6  and  N1_7 
REMARK    3  A    between atoms: N1_7  and  C7_9 
REMARK    4  A    between atoms: C16_19  and  O1_20 
ROOT
HETATM    1  C7  UNL     1      -0.167  -0.617   0.162  1.00  0.00     0.096 C 
HETATM    2  C8  UNL     1      -0.295  -1.331   1.460  1.00  0.00     0.005 C 
HETATM    3  C9  UNL     1       0.550  -2.611   1.341  1.00  0.00     0.012 C 
HETATM    4  C10 UNL     1      -1.647  -1.738   1.879  1.00  0.00     0.007 C 
HETATM    5  C11 UNL     1      -2.762  -0.807   1.564  1.00  0.00     0.009 C 
HETATM    6  C12 UNL     1      -2.227   0.400   0.839  1.00  0.00     0.035 C 
HETATM    7  C13 UNL     1      -3.239   1.449   0.561  1.00  0.00     0.106 C 
HETATM    8  C14 UNL     1      -4.406   1.339   1.522  1.00  0.00     0.052 C 
HETATM    9  F1  UNL     1      -2.692   2.715   0.774  1.00  0.00    -0.243 F 
HETATM   10  C15 UNL     1      -3.762   1.460  -0.854  1.00  0.00     0.075 C 
HETATM   11  C16 UNL     1      -2.686   1.387  -1.881  1.00  0.00     0.122 C 
HETATM   12  C17 UNL     1      -1.323   1.057  -1.316  1.00  0.00     0.043 C 
HETATM   13  C18 UNL     1      -1.500  -0.103  -0.372  1.00  0.00    -0.014 C 
HETATM   14  C19 UNL     1      -2.152  -1.216  -1.094  1.00  0.00     0.018 C 
ENDROOT
BRANCH   1  15
HETATM   15  N1  UNL     1       0.568  -1.334  -0.847  1.00  0.00    -0.363 N 
ATOM     16  H1  UNL     1       0.069  -2.018  -1.416  1.00  0.00     0.162 HD
BRANCH  15  17
HETATM   17  C6  UNL     1       1.837  -1.153  -1.070  1.00  0.00     0.168 A 
HETATM   18  C5  UNL     1       2.664  -0.275  -0.402  1.00  0.00     0.085 A 
HETATM   19  C4  UNL     1       3.953  -0.382  -0.938  1.00  0.00     0.040 A 
HETATM   20  N2  UNL     1       3.820  -1.321  -1.900  1.00  0.00    -0.263 N 
HETATM   21  O2  UNL     1       2.595  -1.746  -1.953  1.00  0.00    -0.220 OA
ATOM     22  H2  UNL     1       4.576  -1.650  -2.500  1.00  0.00     0.194 HD
BRANCH  19  23
HETATM   23  C2  UNL     1       5.145   0.369  -0.525  1.00  0.00     0.029 C 
HETATM   24  C1  UNL     1       4.986   1.864  -0.728  1.00  0.00     0.016 C 
HETATM   25  C3  UNL     1       5.512   0.144   0.917  1.00  0.00     0.016 C 
ENDBRANCH  19  23
ENDBRANCH  15  17
ENDBRANCH   1  15
BRANCH  11  26
HETATM   26  O1  UNL     1      -2.625   2.549  -2.685  1.00  0.00    -0.395 OA
ATOM     27  H1  UNL     1      -1.939   2.502  -3.340  1.00  0.00     0.210 HD
ENDBRANCH  11  26
TORSDOF 4
