REMARK  2 active torsions:
REMARK  status: ('A' for Active; 'I' for Inactive)
REMARK    1  A    between atoms: C2_2  and  C3_3 
REMARK       I    between atoms: C3_3  and  N1_5 
REMARK    2  A    between atoms: N1_5  and  C4_7 
ROOT
HETATM    1  C4  UNL     1       0.567   0.679   1.544  1.00  0.00     0.161 C 
HETATM    2  S1  UNL     1       0.787   1.232   3.215  1.00  0.00    -0.013 SA
HETATM    3  N2  UNL     1      -0.770   0.614   1.282  1.00  0.00    -0.324 N 
HETATM    4  C5  UNL     1      -1.756   0.707   2.454  1.00  0.00     0.205 C 
HETATM    5  S2  UNL     1      -2.843  -0.723   2.005  1.00  0.00    -0.134 SA
HETATM    6  C6  UNL     1      -2.277  -0.844   0.237  1.00  0.00     0.041 C 
HETATM    7  C7  UNL     1      -3.432  -0.880  -0.702  1.00  0.00     0.033 C 
HETATM    8  C8  UNL     1      -1.347  -1.991   0.164  1.00  0.00     0.033 C 
HETATM    9  C9  UNL     1      -1.625   0.521   0.173  1.00  0.00     0.006 C 
HETATM   10  C10 UNL     1      -1.228   1.053  -1.100  1.00  0.00     0.065 C 
ENDROOT
BRANCH   1  11
HETATM   11  N1  UNL     1       1.785   0.582   0.908  1.00  0.00    -0.307 N 
HETATM   12  C3  UNL     1       2.318   0.210  -0.307  1.00  0.00     0.223 C 
HETATM   13  O1  UNL     1       1.723  -0.221  -1.288  1.00  0.00    -0.273 OA
ATOM     14  H1  UNL     1       2.530   0.881   1.537  1.00  0.00     0.171 HD
BRANCH  12  15
HETATM   15  C2  UNL     1       3.835   0.328  -0.515  1.00  0.00     0.099 C 
HETATM   16  C1  UNL     1       4.211  -0.116  -1.877  1.00  0.00     0.014 C 
ENDBRANCH  12  15
ENDBRANCH   1  11
TORSDOF 2
