REMARK  2 active torsions:
REMARK  status: ('A' for Active; 'I' for Inactive)
REMARK    1  A    between atoms: N2_5  and  C4_6 
REMARK    2  A    between atoms: C12_14  and  O1_15 
ROOT
HETATM    1  C4  UNL     1       0.029  -0.189  -0.433  1.00  0.00     0.225 C 
HETATM    2  C5  UNL     1       0.490   0.636   0.695  1.00  0.00     0.036 C 
HETATM    3  C6  UNL     1       1.035   1.990   0.321  1.00  0.00     0.002 C 
HETATM    4  C7  UNL     1       2.104   2.031  -0.696  1.00  0.00     0.000 C 
HETATM    5  C8  UNL     1       3.490   1.788  -0.223  1.00  0.00     0.000 C 
HETATM    6  C9  UNL     1       3.853   0.433   0.212  1.00  0.00     0.000 C 
HETATM    7  C10 UNL     1       3.360  -0.691  -0.661  1.00  0.00     0.002 C 
HETATM    8  C11 UNL     1       3.001  -1.860   0.184  1.00  0.00     0.032 C 
HETATM    9  C12 UNL     1       1.538  -2.052   0.462  1.00  0.00     0.120 C 
HETATM   10  C13 UNL     1       0.610  -1.560  -0.565  1.00  0.00     0.067 C 
ENDROOT
BRANCH   1  11
HETATM   11  N2  UNL     1      -1.438  -0.281  -0.481  1.00  0.00     0.096 N 
HETATM   12  C3  UNL     1      -1.999  -1.014   0.596  1.00  0.00     0.303 C 
HETATM   13  C2  UNL     1      -3.292  -0.410   1.074  1.00  0.00     0.302 C 
HETATM   14  N1  UNL     1      -4.128  -0.203  -0.089  1.00  0.00     0.087 N 
HETATM   15  C1  UNL     1      -5.410   0.270   0.383  1.00  0.00     0.310 C 
HETATM   16  C15 UNL     1      -3.530   0.660  -1.073  1.00  0.00     0.302 C 
HETATM   17  C14 UNL     1      -2.067   0.976  -0.754  1.00  0.00     0.303 C 
ENDBRANCH   1  11
BRANCH   9  18
HETATM   18  O1  UNL     1       1.387  -3.475   0.521  1.00  0.00    -0.396 OA
ATOM     19  H1  UNL     1       0.461  -3.596   0.697  1.00  0.00     0.210 HD
ENDBRANCH   9  18
TORSDOF 2
