REMARK  2 active torsions:
REMARK  status: ('A' for Active; 'I' for Inactive)
REMARK    1  A    between atoms: C6_7  and  N1_8 
REMARK    2  A    between atoms: C13_15  and  O2_16 
ROOT
HETATM    1  C1  UNL     1      -3.059   2.383  -0.597  1.00  0.00     0.046 C 
HETATM    2  C2  UNL     1      -2.834   1.029   0.091  1.00  0.00     0.058 C 
HETATM    3  C3  UNL     1      -4.106   0.239  -0.089  1.00  0.00     0.046 C 
HETATM    4  O1  UNL     1      -2.601   1.236   1.450  1.00  0.00    -0.380 OA
HETATM    5  C4  UNL     1      -1.289   0.794   1.707  1.00  0.00     0.176 C 
HETATM    6  C5  UNL     1      -1.089  -0.240   0.757  1.00  0.00     0.042 C 
HETATM    7  C6  UNL     1       0.008  -1.052   0.378  1.00  0.00     0.118 C 
HETATM    8  C13 UNL     1      -0.516  -1.605  -0.973  1.00  0.00     0.142 C 
HETATM    9  C14 UNL     1      -1.826  -0.852  -1.274  1.00  0.00     0.042 C 
HETATM   10  C15 UNL     1      -1.639   0.417  -0.520  1.00  0.00     0.030 C 
ENDROOT
BRANCH   7  11
HETATM   11  N1  UNL     1       1.330  -0.640   0.166  1.00  0.00    -0.385 N 
HETATM   12  C7  UNL     1       1.950  -0.044   1.230  1.00  0.00     0.059 C 
HETATM   13  C8  UNL     1       2.757   1.197   1.219  1.00  0.00     0.055 C 
HETATM   14  C9  UNL     1       3.765   1.268   0.023  1.00  0.00     0.085 C 
HETATM   15  C10 UNL     1       3.500   0.147  -0.774  1.00  0.00    -0.181 C 
HETATM   16  C11 UNL     1       3.105  -0.995  -1.501  1.00  0.00     0.099 C 
HETATM   17  C12 UNL     1       1.996  -1.661  -0.600  1.00  0.00     0.133 C 
ENDBRANCH   7  11
BRANCH   8  18
HETATM   18  O2  UNL     1      -0.881  -2.930  -0.892  1.00  0.00    -0.393 OA
ATOM     19  H2  UNL     1      -1.202  -3.269  -1.720  1.00  0.00     0.210 HD
ENDBRANCH   8  18
TORSDOF 2
