REMARK  2 active torsions:
REMARK  status: ('A' for Active; 'I' for Inactive)
REMARK    1  A    between atoms: N1_1  and  C1_5 
REMARK    2  A    between atoms: C10_14  and  N2_15 
ROOT
HETATM    1  C1  UNL     1       2.043   0.397   1.263  1.00  0.00     0.188 C 
HETATM    2  C2  UNL     1       1.070  -0.652   1.675  1.00  0.00     0.043 C 
HETATM    3  C3  UNL     1      -0.000  -0.826   0.575  1.00  0.00    -0.032 C 
HETATM    4  C4  UNL     1       0.575  -1.695  -0.445  1.00  0.00     0.010 C 
HETATM    5  C5  UNL     1       1.268  -1.047  -1.604  1.00  0.00     0.001 C 
HETATM    6  C6  UNL     1       2.406  -0.144  -1.141  1.00  0.00     0.007 C 
HETATM    7  C7  UNL     1       1.945   0.870  -0.139  1.00  0.00     0.016 C 
HETATM    8  C8  UNL     1       0.585   1.350  -0.551  1.00  0.00     0.014 C 
HETATM    9  C9  UNL     1      -0.432   0.550   0.234  1.00  0.00     0.029 C 
HETATM   10  C10 UNL     1      -1.834   0.682  -0.275  1.00  0.00     0.101 C 
HETATM   11  C11 UNL     1      -2.414  -0.557  -0.866  1.00  0.00     0.042 C 
HETATM   12  C12 UNL     1      -2.503  -1.096   0.527  1.00  0.00    -0.009 C 
HETATM   13  C13 UNL     1      -1.235  -1.533   1.148  1.00  0.00     0.014 C 
HETATM   14  C14 UNL     1      -2.746   0.371   0.932  1.00  0.00     0.042 C 
ENDROOT
BRANCH   1  15
HETATM   15  N1  UNL     1       2.006   1.562   2.160  1.00  0.00    -0.075 N 
ATOM     16  H13 UNL     1       1.062   1.941   2.237  1.00  0.00     0.274 HD
ATOM     17  H12 UNL     1       2.147   1.286   3.132  1.00  0.00     0.274 HD
ATOM     18  H11 UNL     1       2.673   2.281   1.878  1.00  0.00     0.274 HD
ENDBRANCH   1  15
BRANCH  10  19
HETATM   19  N2  UNL     1      -2.126   1.907  -0.933  1.00  0.00    -0.145 N 
HETATM   20  O1  UNL     1      -2.504   1.885  -2.143  1.00  0.00    -0.536 OA
HETATM   21  O2  UNL     1      -2.034   3.147  -0.361  1.00  0.00    -0.536 OA
ENDBRANCH  10  19
TORSDOF 2
