REMARK  10 active torsions:
REMARK  status: ('A' for Active; 'I' for Inactive)
REMARK    1  A    between atoms: C2_2  and  C4_10 
REMARK    2  A    between atoms: N1_3  and  N2_5 
REMARK       I    between atoms: N2_5  and  C3_7 
REMARK    3  A    between atoms: C4_10  and  C5_11 
REMARK    4  A    between atoms: C4_10  and  C13_25 
REMARK    5  A    between atoms: C5_11  and  S1_12 
REMARK    6  A    between atoms: S1_12  and  C6_13 
REMARK    7  A    between atoms: C11_21  and  C12_22 
REMARK       I    between atoms: C13_25  and  N6_27 
REMARK    8  A    between atoms: N6_27  and  N7_29 
REMARK       I    between atoms: N7_29  and  C14_31 
REMARK    9  A    between atoms: C14_31  and  C15_33 
REMARK   10  A    between atoms: C15_33  and  N8_36 
ROOT
HETATM    1  C4  UNL     1      -0.720   0.929  -1.395  1.00  0.00     0.136 C 
ENDROOT
BRANCH   1   2
HETATM    2  C2  UNL     1      -0.406   2.356  -1.591  1.00  0.00     0.014 C 
HETATM    3  C1  UNL     1       0.763   2.813  -2.366  1.00  0.00     0.066 C 
HETATM    4  N1  UNL     1      -1.208   3.241  -1.088  1.00  0.00    -0.305 N 
ATOM      5  H1  UNL     1      -2.010   2.902  -0.557  1.00  0.00     0.186 HD
BRANCH   4   6
HETATM    6  N2  UNL     1      -1.059   4.618  -1.217  1.00  0.00    -0.254 N 
HETATM    7  C3  UNL     1      -0.887   5.416  -0.071  1.00  0.00     0.347 C 
HETATM    8  N3  UNL     1      -0.737   6.828  -0.175  1.00  0.00    -0.038 NA
HETATM    9  O1  UNL     1      -0.864   4.887   1.062  1.00  0.00    -0.249 OA
ATOM     10  H2  UNL     1      -1.074   5.049  -2.141  1.00  0.00     0.191 HD
ENDBRANCH   4   6
ENDBRANCH   1   2
BRANCH   1  11
HETATM   11  C5  UNL     1       0.442   0.228  -0.662  1.00  0.00     0.100 C 
BRANCH  11  12
HETATM   12  S1  UNL     1       1.962   0.337  -1.607  1.00  0.00    -0.116 SA
BRANCH  12  13
HETATM   13  C6  UNL     1       3.289  -0.437  -0.704  1.00  0.00     0.043 C 
HETATM   14  N4  UNL     1       3.066  -0.959   0.416  1.00  0.00    -0.382 N 
HETATM   15  C7  UNL     1       4.049  -1.610   1.240  1.00  0.00     0.105 C 
ATOM     16  H4  UNL     1       2.110  -0.918   0.770  1.00  0.00     0.160 HD
HETATM   17  C8  UNL     1       4.104  -3.052   0.815  1.00  0.00     0.100 C 
HETATM   18  C11 UNL     1       5.377  -0.989   0.933  1.00  0.00     0.112 C 
HETATM   19  S2  UNL     1       5.134  -2.952  -0.699  1.00  0.00    -0.161 SA
HETATM   20  C9  UNL     1       5.617  -1.205  -0.569  1.00  0.00     0.068 C 
HETATM   21  C10 UNL     1       4.635  -0.409  -1.357  1.00  0.00     0.080 C 
BRANCH  18  22
HETATM   22  C12 UNL     1       6.509  -1.464   1.719  1.00  0.00     0.238 C 
HETATM   23  N5  UNL     1       6.970  -2.812   1.745  1.00  0.00    -0.062 NA
HETATM   24  O2  UNL     1       7.179  -0.662   2.463  1.00  0.00    -0.276 OA
ENDBRANCH  18  22
ENDBRANCH  12  13
ENDBRANCH  11  12
ENDBRANCH   1  11
BRANCH   1  25
HETATM   25  C13 UNL     1      -1.917   0.710  -0.530  1.00  0.00     0.246 C 
HETATM   26  O3  UNL     1      -2.253   1.577   0.326  1.00  0.00    -0.271 OA
HETATM   27  N6  UNL     1      -2.700  -0.478  -0.650  1.00  0.00    -0.267 N 
ATOM     28  H6  UNL     1      -2.445  -1.194  -1.331  1.00  0.00     0.190 HD
BRANCH  27  29
HETATM   29  N7  UNL     1      -3.811  -0.653   0.166  1.00  0.00    -0.265 N 
HETATM   30  C14 UNL     1      -4.653  -1.767  -0.004  1.00  0.00     0.271 C 
HETATM   31  O4  UNL     1      -4.386  -2.604  -0.899  1.00  0.00    -0.269 OA
ATOM     32  H7  UNL     1      -4.018   0.031   0.894  1.00  0.00     0.190 HD
BRANCH  30  33
HETATM   33  C15 UNL     1      -5.850  -1.986   0.840  1.00  0.00     0.197 C 
HETATM   34  C16 UNL     1      -5.427  -2.140   2.281  1.00  0.00     0.056 C 
HETATM   35  C17 UNL     1      -6.825  -0.831   0.676  1.00  0.00     0.056 C 
BRANCH  33  36
HETATM   36  N8  UNL     1      -6.496  -3.211   0.417  1.00  0.00    -0.062 N 
ATOM     37  H83 UNL     1      -6.715  -3.214  -0.579  1.00  0.00     0.275 HD
ATOM     38  H82 UNL     1      -5.862  -4.010   0.424  1.00  0.00     0.275 HD
ATOM     39  H81 UNL     1      -7.320  -3.362   0.998  1.00  0.00     0.275 HD
ENDBRANCH  33  36
ENDBRANCH  30  33
ENDBRANCH  27  29
ENDBRANCH   1  25
TORSDOF 10
