REMARK  12 active torsions:
REMARK  status: ('A' for Active; 'I' for Inactive)
REMARK    1  A    between atoms: C2_2  and  O1_3 
REMARK    2  A    between atoms: C2_2  and  C20_44 
REMARK    3  A    between atoms: O1_3  and  C3_4 
REMARK    4  A    between atoms: C5_6  and  N1_7 
REMARK    5  A    between atoms: C6_11  and  C7_12 
REMARK    6  A    between atoms: C7_12  and  N2_13 
REMARK    7  A    between atoms: C10_16  and  N3_17 
REMARK    8  A    between atoms: C13_24  and  O2_25 
REMARK    9  A    between atoms: O2_25  and  C14_26 
REMARK   10  A    between atoms: C15_27  and  N4_28 
REMARK   11  A    between atoms: C17_33  and  N5_34 
REMARK   12  A    between atoms: C19_39  and  N6_40 
ROOT
HETATM    1  C3  UNL     1      -0.577   1.491   1.525  1.00  0.00     0.163 C 
HETATM    2  C4  UNL     1       0.772   2.012   2.007  1.00  0.00     0.069 C 
HETATM    3  C5  UNL     1       1.526   2.448   0.766  1.00  0.00     0.204 C 
HETATM    4  C6  UNL     1       2.175   1.206   0.196  1.00  0.00     0.118 C 
HETATM    5  S1  UNL     1       0.807   0.178  -0.458  1.00  0.00    -0.122 SA
HETATM    6  C13 UNL     1      -0.450   0.162   0.847  1.00  0.00     0.213 C 
ENDROOT
BRANCH   6   7
HETATM    7  O2  UNL     1      -1.681  -0.271   0.444  1.00  0.00    -0.363 OA
BRANCH   7   8
HETATM    8  C14 UNL     1      -2.104  -1.431   1.086  1.00  0.00     0.184 C 
HETATM    9  C15 UNL     1      -2.209  -2.501   0.019  1.00  0.00     0.216 C 
HETATM   10  C16 UNL     1      -3.205  -1.996  -1.004  1.00  0.00     0.068 C 
HETATM   11  C17 UNL     1      -4.563  -2.024  -0.341  1.00  0.00     0.187 C 
HETATM   12  C18 UNL     1      -4.608  -1.169   0.888  1.00  0.00     0.068 C 
HETATM   13  C19 UNL     1      -3.417  -1.282   1.773  1.00  0.00     0.216 C 
BRANCH   9  14
HETATM   14  N4  UNL     1      -0.922  -2.600  -0.644  1.00  0.00    -0.072 N 
ATOM     15  H43 UNL     1      -0.598  -1.706  -1.012  1.00  0.00     0.274 HD
ATOM     16  H42 UNL     1      -0.154  -2.766   0.007  1.00  0.00     0.274 HD
ATOM     17  H41 UNL     1      -0.993  -3.321  -1.363  1.00  0.00     0.274 HD
ENDBRANCH   9  14
BRANCH  11  18
HETATM   18  N5  UNL     1      -4.992  -3.373  -0.126  1.00  0.00    -0.075 N 
ATOM     19  H53 UNL     1      -4.981  -3.916  -0.990  1.00  0.00     0.274 HD
ATOM     20  H52 UNL     1      -4.303  -3.910   0.400  1.00  0.00     0.274 HD
ATOM     21  H51 UNL     1      -5.908  -3.392   0.321  1.00  0.00     0.274 HD
ENDBRANCH  11  18
BRANCH  13  22
HETATM   22  N6  UNL     1      -3.567  -2.327   2.776  1.00  0.00    -0.072 N 
ATOM     23  H63 UNL     1      -3.444  -3.259   2.381  1.00  0.00     0.274 HD
ATOM     24  H62 UNL     1      -2.788  -2.342   3.435  1.00  0.00     0.274 HD
ATOM     25  H61 UNL     1      -4.466  -2.225   3.247  1.00  0.00     0.274 HD
ENDBRANCH  13  22
ENDBRANCH   7   8
ENDBRANCH   6   7
BRANCH   1  26
HETATM   26  O1  UNL     1      -1.090   2.494   0.716  1.00  0.00    -0.367 OA
BRANCH  26  27
HETATM   27  C2  UNL     1      -2.249   3.069   1.172  1.00  0.00     0.218 C 
HETATM   28  C1  UNL     1      -2.060   4.546   1.505  1.00  0.00     0.051 C 
BRANCH  27  29
HETATM   29  C20 UNL     1      -3.277   3.017   0.117  1.00  0.00     0.202 C 
HETATM   30  O3  UNL     1      -4.417   3.481   0.322  1.00  0.00    -0.646 OA
HETATM   31  O4  UNL     1      -2.983   2.454  -1.102  1.00  0.00    -0.646 OA
ENDBRANCH  27  29
ENDBRANCH  26  27
ENDBRANCH   1  26
BRANCH   4  32
HETATM   32  C7  UNL     1       3.158   1.544  -0.904  1.00  0.00     0.080 C 
BRANCH  32  33
HETATM   33  N2  UNL     1       3.719   0.361  -1.390  1.00  0.00    -0.373 N 
HETATM   34  C8  UNL     1       4.584  -0.402  -0.591  1.00  0.00     0.129 C 
HETATM   35  C9  UNL     1       5.476  -1.318  -1.436  1.00  0.00     0.053 C 
HETATM   36  C10 UNL     1       4.621  -2.221  -2.255  1.00  0.00     0.189 C 
HETATM   37  C11 UNL     1       3.503  -1.493  -2.905  1.00  0.00     0.077 C 
HETATM   38  C12 UNL     1       3.510   0.001  -2.731  1.00  0.00     0.065 C 
BRANCH  36  39
HETATM   39  N3  UNL     1       5.452  -2.862  -3.269  1.00  0.00    -0.075 N 
ATOM     40  H33 UNL     1       5.963  -2.187  -3.838  1.00  0.00     0.274 HD
ATOM     41  H32 UNL     1       6.255  -3.345  -2.867  1.00  0.00     0.274 HD
ATOM     42  H31 UNL     1       4.866  -3.481  -3.830  1.00  0.00     0.274 HD
ENDBRANCH  36  39
ENDBRANCH  32  33
ENDBRANCH   4  32
BRANCH   3  43
HETATM   43  N1  UNL     1       2.493   3.487   1.037  1.00  0.00    -0.073 N 
ATOM     44  H13 UNL     1       2.054   4.284   1.497  1.00  0.00     0.274 HD
ATOM     45  H12 UNL     1       3.137   3.204   1.776  1.00  0.00     0.274 HD
ATOM     46  H11 UNL     1       3.000   3.780   0.202  1.00  0.00     0.274 HD
ENDBRANCH   3  43
TORSDOF 12
