REMARK  13 active torsions:
REMARK  status: ('A' for Active; 'I' for Inactive)
REMARK    1  A    between atoms: N1_1  and  C1_5 
REMARK    2  A    between atoms: C2_6  and  O1_7 
REMARK    3  A    between atoms: C3_9  and  O2_10 
REMARK    4  A    between atoms: C4_12  and  C5_13 
REMARK    5  A    between atoms: C5_13  and  O3_14 
REMARK    6  A    between atoms: O3_14  and  C6_15 
REMARK    7  A    between atoms: C8_18  and  O5_19 
REMARK    8  A    between atoms: C9_21  and  O6_22 
REMARK    9  A    between atoms: C10_24  and  O7_25 
REMARK   10  A    between atoms: C13_29  and  C14_30 
REMARK   11  A    between atoms: C14_30  and  C15_31 
REMARK   12  A    between atoms: C15_31  and  C16_32 
REMARK   13  A    between atoms: C16_32  and  C17_33 
ROOT
HETATM    1  C1  UNL     1       0.939  -2.053   1.571  1.00  0.00     0.220 C 
HETATM    2  C2  UNL     1       0.183  -1.009   2.325  1.00  0.00     0.181 C 
HETATM    3  C3  UNL     1      -0.992  -0.437   1.514  1.00  0.00     0.179 C 
HETATM    4  C4  UNL     1      -0.499   0.735   0.772  1.00  0.00    -0.027 C 
HETATM    5  C11 UNL     1       0.339   0.354  -0.440  1.00  0.00     0.045 C 
HETATM    6  C12 UNL     1       1.672  -0.188   0.068  1.00  0.00     0.010 C 
HETATM    7  C13 UNL     1       2.686   0.173  -0.982  1.00  0.00     0.052 C 
HETATM    8  S1  UNL     1       3.582  -1.408  -1.258  1.00  0.00    -0.163 SA
HETATM    9  C18 UNL     1       2.929  -2.266   0.199  1.00  0.00     0.081 C 
HETATM   10  C19 UNL     1       1.567  -1.620   0.291  1.00  0.00     0.033 C 
ENDROOT
BRANCH   4  11
HETATM   11  C5  UNL     1      -1.389   1.886   0.508  1.00  0.00     0.143 C 
BRANCH  11  12
HETATM   12  O3  UNL     1      -2.504   1.832  -0.187  1.00  0.00    -0.329 OA
BRANCH  12  13
HETATM   13  C6  UNL     1      -3.609   1.150   0.048  1.00  0.00     0.296 C 
HETATM   14  O4  UNL     1      -4.715   2.015   0.363  1.00  0.00    -0.356 OA
HETATM   15  C7  UNL     1      -5.875   1.292   0.349  1.00  0.00     0.205 C 
HETATM   16  C8  UNL     1      -5.727  -0.197   0.476  1.00  0.00     0.173 C 
HETATM   17  C9  UNL     1      -4.891  -0.777  -0.655  1.00  0.00     0.182 C 
HETATM   18  C10 UNL     1      -4.045   0.371  -1.183  1.00  0.00     0.205 C 
BRANCH  16  19
HETATM   19  O5  UNL     1      -7.008  -0.748   0.340  1.00  0.00    -0.391 OA
ATOM     20  H5  UNL     1      -6.914  -1.690   0.420  1.00  0.00     0.210 HD
ENDBRANCH  16  19
BRANCH  17  21
HETATM   21  O6  UNL     1      -5.725  -1.175  -1.698  1.00  0.00    -0.390 OA
ATOM     22  H6  UNL     1      -5.203  -1.537  -2.404  1.00  0.00     0.210 HD
ENDBRANCH  17  21
BRANCH  18  23
HETATM   23  O7  UNL     1      -2.976  -0.108  -1.861  1.00  0.00    -0.388 OA
ATOM     24  H7  UNL     1      -3.248  -0.595  -2.630  1.00  0.00     0.210 HD
ENDBRANCH  18  23
ENDBRANCH  12  13
ENDBRANCH  11  12
ENDBRANCH   4  11
BRANCH   3  25
HETATM   25  O2  UNL     1      -1.561  -1.467   0.827  1.00  0.00    -0.388 OA
ATOM     26  H2  UNL     1      -2.287  -1.114   0.326  1.00  0.00     0.210 HD
ENDBRANCH   3  25
BRANCH   2  27
HETATM   27  O1  UNL     1      -0.375  -1.627   3.442  1.00  0.00    -0.391 OA
ATOM     28  H1  UNL     1      -0.856  -0.963   3.922  1.00  0.00     0.210 HD
ENDBRANCH   2  27
BRANCH   1  29
HETATM   29  N1  UNL     1       1.979  -2.547   2.477  1.00  0.00    -0.072 N 
ATOM     30  H13 UNL     1       2.574  -1.808   2.851  1.00  0.00     0.274 HD
ATOM     31  H12 UNL     1       1.613  -2.878   3.370  1.00  0.00     0.274 HD
ATOM     32  H11 UNL     1       2.495  -3.260   1.962  1.00  0.00     0.274 HD
ENDBRANCH   1  29
BRANCH   7  33
HETATM   33  C14 UNL     1       3.632   1.169  -0.371  1.00  0.00     0.016 C 
BRANCH  33  34
HETATM   34  C15 UNL     1       4.704   1.716  -1.218  1.00  0.00     0.012 C 
BRANCH  34  35
HETATM   35  C16 UNL     1       5.684   0.767  -1.818  1.00  0.00     0.113 C 
BRANCH  35  36
HETATM   36  C17 UNL     1       6.736   1.492  -2.604  1.00  0.00     0.172 C 
HETATM   37  O8  UNL     1       6.690   2.730  -2.674  1.00  0.00    -0.648 OA
HETATM   38  O9  UNL     1       7.735   0.794  -3.237  1.00  0.00    -0.648 OA
ENDBRANCH  35  36
ENDBRANCH  34  35
ENDBRANCH  33  34
ENDBRANCH   7  33
TORSDOF 13
