REMARK  13 active torsions:
REMARK  status: ('A' for Active; 'I' for Inactive)
REMARK    1  A    between atoms: C2_2  and  C3_3 
REMARK    2  A    between atoms: C3_3  and  C4_4 
REMARK    3  A    between atoms: C10_10  and  O1_11 
REMARK    4  A    between atoms: C11_13  and  O2_14 
REMARK    5  A    between atoms: O2_14  and  C12_15 
REMARK    6  A    between atoms: C14_18  and  O4_19 
REMARK    7  A    between atoms: O4_19  and  C15_20 
REMARK    8  A    between atoms: C17_23  and  O6_24 
REMARK    9  A    between atoms: C17_23  and  C18_26 
REMARK   10  A    between atoms: C18_26  and  O7_27 
REMARK   11  A    between atoms: C19_29  and  O8_30 
REMARK   12  A    between atoms: C20_32  and  O9_33 
REMARK   13  A    between atoms: C21_35  and  O10_36 
ROOT
HETATM    1  C12 UNL     1       0.850   0.143   0.893  1.00  0.00     0.179 C 
HETATM    2  C13 UNL     1       1.571  -0.283   2.141  1.00  0.00     0.205 C 
HETATM    3  O3  UNL     1       2.923  -0.243   1.927  1.00  0.00    -0.356 OA
HETATM    4  C14 UNL     1       3.154   0.267   0.660  1.00  0.00     0.294 C 
HETATM    5  C20 UNL     1       1.929  -0.048  -0.159  1.00  0.00     0.204 C 
ENDROOT
BRANCH   1   6
HETATM    6  O2  UNL     1      -0.281  -0.628   0.641  1.00  0.00    -0.370 OA
BRANCH   6   7
HETATM    7  C11 UNL     1      -1.380   0.221   0.648  1.00  0.00     0.180 C 
HETATM    8  C10 UNL     1      -2.403  -0.224   1.700  1.00  0.00     0.154 C 
HETATM    9  C9  UNL     1      -3.732  -0.080   1.052  1.00  0.00     0.028 C 
HETATM   10  C7  UNL     1      -4.756  -1.093   1.450  1.00  0.00    -0.012 C 
HETATM   11  C22 UNL     1      -3.476  -0.325  -0.444  1.00  0.00     0.028 C 
HETATM   12  C6  UNL     1      -5.960  -0.885   0.560  1.00  0.00     0.005 C 
HETATM   13  C8  UNL     1      -5.068  -1.137   2.904  1.00  0.00     0.010 C 
HETATM   14  C5  UNL     1      -5.827   0.305  -0.334  1.00  0.00     0.006 C 
HETATM   15  C4  UNL     1      -4.590   0.349  -1.166  1.00  0.00    -0.004 C 
HETATM   16  C21 UNL     1      -2.122   0.243  -0.664  1.00  0.00     0.154 C 
BRANCH   8  17
HETATM   17  O1  UNL     1      -2.323   0.638   2.769  1.00  0.00    -0.392 OA
ATOM     18  H1  UNL     1      -1.473   0.546   3.183  1.00  0.00     0.210 HD
ENDBRANCH   8  17
BRANCH  15  19
HETATM   19  C3  UNL     1      -4.776  -0.188  -2.566  1.00  0.00     0.031 C 
BRANCH  19  20
HETATM   20  C2  UNL     1      -5.799   0.583  -3.313  1.00  0.00    -0.037 C 
HETATM   21  C1  UNL     1      -6.896   0.011  -3.791  1.00  0.00     0.007 C 
ENDBRANCH  19  20
ENDBRANCH  15  19
BRANCH  16  22
HETATM   22  O10 UNL     1      -1.425  -0.640  -1.522  1.00  0.00    -0.392 OA
ATOM     23  H10 UNL     1      -1.893  -0.626  -2.349  1.00  0.00     0.210 HD
ENDBRANCH  16  22
ENDBRANCH   6   7
ENDBRANCH   1   6
BRANCH   5  24
HETATM   24  O9  UNL     1       1.883  -1.386  -0.540  1.00  0.00    -0.388 OA
ATOM     25  H9  UNL     1       2.558  -1.505  -1.198  1.00  0.00     0.210 HD
ENDBRANCH   5  24
BRANCH   4  26
HETATM   26  O4  UNL     1       4.344  -0.091   0.111  1.00  0.00    -0.326 OA
BRANCH  26  27
HETATM   27  C15 UNL     1       5.220   0.939  -0.134  1.00  0.00     0.294 C 
HETATM   28  O5  UNL     1       5.701   1.040  -1.408  1.00  0.00    -0.355 OA
HETATM   29  C16 UNL     1       6.983   1.573  -1.341  1.00  0.00     0.213 C 
HETATM   30  C17 UNL     1       7.584   0.895  -0.149  1.00  0.00     0.130 C 
HETATM   31  C19 UNL     1       6.417   0.741   0.783  1.00  0.00     0.212 C 
BRANCH  30  32
HETATM   32  O6  UNL     1       8.560   1.718   0.405  1.00  0.00    -0.383 OA
ATOM     33  H6  UNL     1       8.941   1.288   1.161  1.00  0.00     0.210 HD
ENDBRANCH  30  32
BRANCH  30  34
HETATM   34  C18 UNL     1       8.178  -0.445  -0.539  1.00  0.00     0.207 C 
BRANCH  34  35
HETATM   35  O7  UNL     1       8.702  -1.056   0.609  1.00  0.00    -0.398 OA
ATOM     36  H7  UNL     1       9.074  -1.895   0.365  1.00  0.00     0.209 HD
ENDBRANCH  34  35
ENDBRANCH  30  34
BRANCH  31  37
HETATM   37  O8  UNL     1       6.447  -0.587   1.257  1.00  0.00    -0.387 OA
ATOM     38  H8  UNL     1       7.195  -0.711   1.830  1.00  0.00     0.210 HD
ENDBRANCH  31  37
ENDBRANCH  26  27
ENDBRANCH   4  26
TORSDOF 13
