REMARK  4 active torsions:
REMARK  status: ('A' for Active; 'I' for Inactive)
REMARK    1  A    between atoms: C5_6  and  C6_7 
REMARK    2  A    between atoms: C6_7  and  N2_8 
REMARK    3  A    between atoms: N2_8  and  C7_11 
REMARK    4  A    between atoms: C14_18  and  N3_19 
ROOT
HETATM    1  C7  UNL     1      -0.090  -1.142  -0.175  1.00  0.00     0.213 C 
HETATM    2  C8  UNL     1       0.182  -2.581  -0.490  1.00  0.00     0.018 C 
HETATM    3  C9  UNL     1      -0.207  -2.863  -1.925  1.00  0.00     0.007 C 
HETATM    4  C10 UNL     1      -1.705  -2.978  -2.016  1.00  0.00     0.007 C 
HETATM    5  C11 UNL     1      -2.251  -2.019  -0.929  1.00  0.00     0.011 C 
HETATM    6  C12 UNL     1      -2.068  -2.793   0.367  1.00  0.00     0.007 C 
HETATM    7  C13 UNL     1      -0.714  -3.466   0.398  1.00  0.00     0.007 C 
HETATM    8  C14 UNL     1      -1.390  -0.764  -0.911  1.00  0.00     0.134 C 
ENDROOT
BRANCH   8   9
HETATM    9  N3  UNL     1      -2.000   0.329  -0.408  1.00  0.00    -0.219 N 
HETATM   10  C15 UNL     1      -2.889   0.922   0.141  1.00  0.00     0.679 A 
HETATM   11  N4  UNL     1      -2.782   2.289   0.337  1.00  0.00    -0.179 N 
HETATM   12  N6  UNL     1      -4.044   0.372   0.614  1.00  0.00    -0.202 N 
HETATM   13  C16 UNL     1      -3.699   3.029   0.926  1.00  0.00     0.133 A 
ATOM     14  H4  UNL     1      -1.937   2.753   0.003  1.00  0.00     0.185 HD
HETATM   15  N5  UNL     1      -3.587   4.431   1.123  1.00  0.00    -0.082 NA
HETATM   16  C17 UNL     1      -4.854   2.444   1.392  1.00  0.00     0.063 A 
HETATM   17  C18 UNL     1      -5.007   1.088   1.222  1.00  0.00     0.109 A 
ATOM     18  H6  UNL     1      -4.185  -0.632   0.501  1.00  0.00     0.183 HD
ATOM     19  H3  UNL     1      -1.327   1.070  -0.605  1.00  0.00     0.178 HD
ENDBRANCH   8   9
BRANCH   1  20
HETATM   20  N2  UNL     1       0.970  -0.250  -0.502  1.00  0.00    -0.067 N 
ATOM     21  H22 UNL     1       0.672   0.719  -0.391  1.00  0.00     0.277 HD
ATOM     22  H21 UNL     1       1.151  -0.259  -1.506  1.00  0.00     0.277 HD
BRANCH  20  23
HETATM   23  C6  UNL     1       2.170  -0.495   0.229  1.00  0.00     0.268 C 
BRANCH  23  24
HETATM   24  C5  UNL     1       3.280   0.478  -0.141  1.00  0.00     0.248 C 
HETATM   25  N1  UNL     1       2.958   1.845   0.101  1.00  0.00     0.090 N 
HETATM   26  C1  UNL     1       3.321   2.584  -1.120  1.00  0.00     0.310 C 
HETATM   27  C2  UNL     1       3.846   2.337   1.133  1.00  0.00     0.272 C 
HETATM   28  C3  UNL     1       5.083   1.460   1.067  1.00  0.00     0.032 C 
HETATM   29  C4  UNL     1       4.467   0.114   0.735  1.00  0.00     0.039 C 
ENDBRANCH  23  24
ENDBRANCH  20  23
ENDBRANCH   1  20
TORSDOF 4
