REMARK  13 active torsions:
REMARK  status: ('A' for Active; 'I' for Inactive)
REMARK    1  A    between atoms: C2_2  and  C4_4 
REMARK    2  A    between atoms: C4_4  and  C5_5 
REMARK    3  A    between atoms: C5_5  and  N1_6 
REMARK    4  A    between atoms: C5_5  and  C6_10 
REMARK    5  A    between atoms: C6_10  and  C9_13 
REMARK    6  A    between atoms: C9_13  and  N2_14 
REMARK       I    between atoms: N2_14  and  C10_16 
REMARK    7  A    between atoms: C10_16  and  C11_18 
REMARK    8  A    between atoms: N3_25  and  S1_26 
REMARK    9  A    between atoms: C22_33  and  N4_34 
REMARK       I    between atoms: N4_34  and  C23_36 
REMARK   10  A    between atoms: C23_36  and  C24_38 
REMARK   11  A    between atoms: C24_38  and  N5_39 
REMARK   12  A    between atoms: C24_38  and  C25_43 
REMARK   13  A    between atoms: C25_43  and  C26_44 
ROOT
HETATM    1  C11 UNL     1      -1.796   1.580  -1.360  1.00  0.00     0.108 C 
HETATM    2  C12 UNL     1      -2.135   2.925  -0.746  1.00  0.00     0.017 C 
HETATM    3  C13 UNL     1      -2.223   3.976  -1.773  1.00  0.00     0.001 C 
HETATM    4  C14 UNL     1      -1.521   5.254  -1.588  1.00  0.00     0.000 C 
HETATM    5  C15 UNL     1      -0.980   5.618  -0.266  1.00  0.00     0.005 C 
HETATM    6  C16 UNL     1       0.507   5.905  -0.233  1.00  0.00     0.046 C 
HETATM    7  C17 UNL     1       1.387   4.793  -0.704  1.00  0.00     0.081 C 
HETATM    8  N3  UNL     1       1.563   3.821   0.258  1.00  0.00    -0.270 N 
HETATM    9  C19 UNL     1       1.318   2.464   0.064  1.00  0.00     0.088 C 
HETATM   10  C20 UNL     1       0.683   1.940  -1.149  1.00  0.00     0.059 C 
HETATM   11  C21 UNL     1       1.596   1.049  -1.960  1.00  0.00     0.066 C 
HETATM   12  C22 UNL     1       1.092  -0.326  -1.688  1.00  0.00     0.224 C 
HETATM   13  O5  UNL     1      -0.242  -0.172  -1.445  1.00  0.00    -0.360 OA
HETATM   14  C32 UNL     1      -0.481   1.016  -0.828  1.00  0.00     0.146 C 
ENDROOT
BRANCH   1  15
HETATM   15  C10 UNL     1      -2.868   0.562  -1.137  1.00  0.00     0.228 C 
HETATM   16  N2  UNL     1      -3.333   0.215   0.133  1.00  0.00    -0.340 N 
ATOM     17  H2  UNL     1      -2.870   0.751   0.867  1.00  0.00     0.167 HD
HETATM   18  O1  UNL     1      -3.319   0.042  -2.173  1.00  0.00    -0.273 OA
BRANCH  16  19
HETATM   19  C9  UNL     1      -4.267  -0.676   0.653  1.00  0.00     0.075 C 
BRANCH  19  20
HETATM   20  C6  UNL     1      -4.116  -2.148   0.587  1.00  0.00     0.013 C 
HETATM   21  C7  UNL     1      -3.825  -2.671  -0.765  1.00  0.00     0.023 C 
HETATM   22  C8  UNL     1      -2.877  -2.571   1.442  1.00  0.00     0.023 C 
BRANCH  20  23
HETATM   23  C5  UNL     1      -5.280  -2.851   1.272  1.00  0.00     0.196 C 
BRANCH  23  24
HETATM   24  C4  UNL     1      -6.603  -2.797   0.647  1.00  0.00     0.037 C 
BRANCH  24  25
HETATM   25  C2  UNL     1      -6.882  -3.436  -0.652  1.00  0.00    -0.021 C 
HETATM   26  C1  UNL     1      -6.649  -4.932  -0.658  1.00  0.00     0.009 C 
HETATM   27  C3  UNL     1      -8.433  -3.317  -0.864  1.00  0.00     0.009 C 
ENDBRANCH  24  25
ENDBRANCH  23  24
BRANCH  23  28
HETATM   28  N1  UNL     1      -5.450  -2.151   2.583  1.00  0.00    -0.074 N 
ATOM     29  H13 UNL     1      -5.833  -1.209   2.504  1.00  0.00     0.274 HD
ATOM     30  H12 UNL     1      -6.198  -2.531   3.162  1.00  0.00     0.274 HD
ATOM     31  H11 UNL     1      -4.528  -2.189   3.018  1.00  0.00     0.274 HD
ENDBRANCH  23  28
ENDBRANCH  20  23
ENDBRANCH  19  20
ENDBRANCH  16  19
ENDBRANCH   1  15
BRANCH  12  32
HETATM   32  N4  UNL     1       1.828  -0.890  -0.586  1.00  0.00    -0.333 N 
HETATM   33  C23 UNL     1       2.546  -2.113  -0.673  1.00  0.00     0.250 C 
HETATM   34  O4  UNL     1       2.530  -2.733  -1.782  1.00  0.00    -0.271 OA
ATOM     35  H4  UNL     1       1.834  -0.386   0.301  1.00  0.00     0.165 HD
BRANCH  33  36
HETATM   36  C24 UNL     1       3.307  -2.717   0.422  1.00  0.00     0.275 C 
BRANCH  36  37
HETATM   37  N5  UNL     1       3.347  -1.932   1.614  1.00  0.00    -0.066 N 
ATOM     38  H53 UNL     1       3.696  -0.995   1.412  1.00  0.00     0.275 HD
ATOM     39  H52 UNL     1       2.402  -1.703   1.921  1.00  0.00     0.275 HD
ATOM     40  H51 UNL     1       3.877  -2.353   2.377  1.00  0.00     0.275 HD
ENDBRANCH  36  37
BRANCH  36  41
HETATM   41  C25 UNL     1       4.658  -3.207   0.031  1.00  0.00     0.047 C 
BRANCH  41  42
HETATM   42  C26 UNL     1       5.597  -2.192  -0.515  1.00  0.00    -0.012 C 
HETATM   43  C27 UNL     1       6.900  -2.940  -0.841  1.00  0.00     0.005 C 
HETATM   44  C28 UNL     1       7.697  -3.040   0.442  1.00  0.00     0.000 C 
HETATM   45  C29 UNL     1       8.374  -1.676   0.616  1.00  0.00     0.000 C 
HETATM   46  C30 UNL     1       7.405  -0.653   0.087  1.00  0.00     0.000 C 
HETATM   47  C31 UNL     1       5.968  -1.082   0.413  1.00  0.00     0.005 C 
ENDBRANCH  41  42
ENDBRANCH  36  41
ENDBRANCH  33  36
ENDBRANCH  12  32
BRANCH   8  48
HETATM   48  S1  UNL     1       3.016   4.073   1.192  1.00  0.00     0.231 S 
HETATM   49  C18 UNL     1       2.972   5.599   2.062  1.00  0.00     0.186 C 
HETATM   50  O2  UNL     1       4.140   4.148   0.177  1.00  0.00    -0.206 OA
HETATM   51  O3  UNL     1       3.218   2.930   2.137  1.00  0.00    -0.206 OA
ENDBRANCH   8  48
TORSDOF 13
