REMARK  12 active torsions:
REMARK  status: ('A' for Active; 'I' for Inactive)
REMARK    1  A    between atoms: C2_2  and  C3_3 
REMARK    2  A    between atoms: C3_3  and  C5_5 
REMARK    3  A    between atoms: C5_5  and  C6_6 
REMARK    4  A    between atoms: C8_11  and  C9_12 
REMARK    5  A    between atoms: C9_12  and  C11_14 
REMARK    6  A    between atoms: C13_21  and  C14_22 
REMARK    7  A    between atoms: C14_22  and  C16_24 
REMARK    8  A    between atoms: C19_30  and  C20_31 
REMARK    9  A    between atoms: C23_36  and  O6_37 
REMARK   10  A    between atoms: C28_44  and  O7_45 
REMARK   11  A    between atoms: C29_47  and  C30_48 
REMARK   12  A    between atoms: C30_48  and  C31_49 
ROOT
HETATM    1  C6  UNL     1      -1.594  -0.432  -0.355  1.00  0.00     0.018 C 
HETATM    2  C7  UNL     1      -1.632  -1.696   0.370  1.00  0.00     0.249 C 
HETATM    3  O1  UNL     1      -2.802  -2.161   0.565  1.00  0.00    -0.268 OA
HETATM    4  N1  UNL     1      -0.599  -2.503   0.894  1.00  0.00    -0.335 N 
ATOM      5  H1  UNL     1      -0.480  -3.387   0.399  1.00  0.00     0.164 HD
HETATM    6  C8  UNL     1       0.315  -2.326   1.983  1.00  0.00     0.201 C 
HETATM    7  N2  UNL     1       1.617  -1.853   1.706  1.00  0.00    -0.337 N 
ATOM      8  H2  UNL     1       2.043  -1.365   2.494  1.00  0.00     0.164 HD
HETATM    9  C12 UNL     1       2.446  -1.912   0.580  1.00  0.00     0.242 C 
HETATM   10  O4  UNL     1       3.624  -2.384   0.825  1.00  0.00    -0.271 OA
HETATM   11  C13 UNL     1       2.185  -1.528  -0.798  1.00  0.00     0.180 C 
HETATM   12  N3  UNL     1       2.366  -0.127  -1.122  1.00  0.00    -0.342 N 
ATOM     13  H3  UNL     1       1.969   0.144  -2.022  1.00  0.00     0.163 HD
HETATM   14  C18 UNL     1       2.973   0.909  -0.445  1.00  0.00     0.265 C 
HETATM   15  O5  UNL     1       3.980   1.456  -1.051  1.00  0.00    -0.266 OA
HETATM   16  C19 UNL     1       2.698   1.534   0.867  1.00  0.00     0.083 C 
HETATM   17  N4  UNL     1       1.359   1.756   1.241  1.00  0.00    -0.337 N 
ATOM     18  H4  UNL     1       0.990   1.062   1.891  1.00  0.00     0.167 HD
HETATM   19  C23 UNL     1       0.426   2.765   0.882  1.00  0.00     0.139 C 
HETATM   20  C24 UNL     1      -0.000   3.150  -0.457  1.00  0.00     0.160 C 
HETATM   21  C25 UNL     1      -0.189   4.686  -0.404  1.00  0.00     0.035 C 
HETATM   22  C26 UNL     1      -0.877   4.930  -1.702  1.00  0.00     0.022 C 
HETATM   23  C27 UNL     1      -1.284   3.593  -2.220  1.00  0.00     0.125 C 
HETATM   24  N5  UNL     1      -1.271   2.759  -0.957  1.00  0.00    -0.353 N 
HETATM   25  C28 UNL     1      -2.282   1.914  -0.569  1.00  0.00     0.123 C 
HETATM   26  C29 UNL     1      -2.252   0.723   0.359  1.00  0.00     0.099 C 
ENDROOT
BRANCH   1  27
HETATM   27  C5  UNL     1      -1.749  -0.505  -1.796  1.00  0.00    -0.009 C 
BRANCH  27  28
HETATM   28  C3  UNL     1      -2.835  -0.987  -2.614  1.00  0.00     0.004 C 
HETATM   29  C4  UNL     1      -2.418  -0.850  -4.132  1.00  0.00     0.014 C 
BRANCH  28  30
HETATM   30  C2  UNL     1      -3.287  -2.412  -2.540  1.00  0.00     0.003 C 
HETATM   31  C1  UNL     1      -2.216  -3.422  -2.870  1.00  0.00     0.006 C 
ENDBRANCH  28  30
ENDBRANCH  27  28
ENDBRANCH   1  27
BRANCH  26  32
HETATM   32  C30 UNL     1      -3.554   0.480   1.007  1.00  0.00     0.021 C 
BRANCH  32  33
HETATM   33  C31 UNL     1      -4.162   1.685   1.729  1.00  0.00    -0.022 C 
HETATM   34  C32 UNL     1      -5.515   1.246   2.333  1.00  0.00     0.009 C 
HETATM   35  C33 UNL     1      -3.335   2.151   2.870  1.00  0.00     0.009 C 
ENDBRANCH  32  33
ENDBRANCH  26  32
BRANCH  25  36
HETATM   36  O7  UNL     1      -3.481   2.103  -1.036  1.00  0.00    -0.349 OA
ATOM     37  H7  UNL     1      -4.180   1.519  -0.768  1.00  0.00     0.219 HD
ENDBRANCH  25  36
BRANCH   6  38
HETATM   38  C9  UNL     1      -0.246  -1.598   3.189  1.00  0.00     0.125 C 
HETATM   39  C10 UNL     1       0.810  -1.488   4.232  1.00  0.00     0.025 C 
BRANCH  38  40
HETATM   40  C11 UNL     1      -1.385  -2.358   3.776  1.00  0.00     0.180 C 
HETATM   41  O2  UNL     1      -2.517  -1.854   3.932  1.00  0.00    -0.648 OA
HETATM   42  O3  UNL     1      -1.140  -3.673   4.151  1.00  0.00    -0.648 OA
ENDBRANCH  38  40
ENDBRANCH   6  38
BRANCH  19  43
HETATM   43  O6  UNL     1      -0.144   3.457   1.824  1.00  0.00    -0.348 OA
ATOM     44  H6  UNL     1      -0.768   4.132   1.584  1.00  0.00     0.219 HD
ENDBRANCH  19  43
BRANCH  11  45
HETATM   45  C14 UNL     1       3.046  -2.361  -1.727  1.00  0.00     0.013 C 
HETATM   46  C15 UNL     1       4.512  -2.219  -1.531  1.00  0.00     0.012 C 
BRANCH  45  47
HETATM   47  C16 UNL     1       2.657  -3.814  -1.704  1.00  0.00     0.002 C 
HETATM   48  C17 UNL     1       3.572  -4.550  -2.659  1.00  0.00     0.005 C 
ENDBRANCH  45  47
ENDBRANCH  11  45
BRANCH  16  49
HETATM   49  C20 UNL     1       3.628   2.707   1.160  1.00  0.00     0.033 C 
HETATM   50  C21 UNL     1       3.575   3.825   0.200  1.00  0.00     0.016 C 
HETATM   51  C22 UNL     1       5.055   2.249   1.361  1.00  0.00     0.016 C 
ENDBRANCH  16  49
TORSDOF 12
