REMARK  13 active torsions:
REMARK  status: ('A' for Active; 'I' for Inactive)
REMARK    1  A    between atoms: C2_2  and  C4_4 
REMARK    2  A    between atoms: C4_4  and  N1_5 
REMARK    3  A    between atoms: C4_4  and  C5_9 
REMARK    4  A    between atoms: C5_9  and  N2_10 
REMARK    5  A    between atoms: C5_9  and  C22_35 
REMARK       I    between atoms: N2_10  and  C6_12 
REMARK    6  A    between atoms: C6_12  and  C7_14 
REMARK    7  A    between atoms: C7_14  and  N3_15 
REMARK    8  A    between atoms: N3_15  and  C8_16 
REMARK    9  A    between atoms: N3_15  and  S1_23 
REMARK   10  A    between atoms: C8_16  and  C9_17 
REMARK   11  A    between atoms: S1_23  and  N4_26 
REMARK   12  A    between atoms: C23_36  and  C24_37 
REMARK   13  A    between atoms: N6_43  and  C28_44 
ROOT
HETATM    1  N2  UNL     1      -0.413  -0.758  -0.917  1.00  0.00    -0.348 N 
ATOM      2  H2  UNL     1      -0.159  -1.042   0.029  1.00  0.00     0.163 HD
HETATM    3  C6  UNL     1       0.569  -0.324  -1.797  1.00  0.00     0.247 C 
HETATM    4  O1  UNL     1       0.164   0.030  -2.978  1.00  0.00    -0.271 OA
ENDROOT
BRANCH   1   5
HETATM    5  C5  UNL     1      -1.898  -0.812  -1.370  1.00  0.00     0.156 C 
BRANCH   5   6
HETATM    6  C4  UNL     1      -2.001  -2.279  -1.753  1.00  0.00     0.214 C 
BRANCH   6   7
HETATM    7  C2  UNL     1      -3.428  -2.527  -2.314  1.00  0.00     0.010 C 
HETATM    8  C1  UNL     1      -3.617  -3.945  -2.765  1.00  0.00     0.011 C 
HETATM    9  C3  UNL     1      -3.409  -1.734  -3.654  1.00  0.00     0.011 C 
ENDBRANCH   6   7
BRANCH   6  10
HETATM   10  N1  UNL     1      -1.823  -3.225  -0.715  1.00  0.00    -0.072 N 
ATOM     11  H13 UNL     1      -2.553  -3.191  -0.003  1.00  0.00     0.274 HD
ATOM     12  H12 UNL     1      -1.984  -4.188  -1.009  1.00  0.00     0.274 HD
ATOM     13  H11 UNL     1      -0.886  -3.062  -0.347  1.00  0.00     0.274 HD
ENDBRANCH   6  10
ENDBRANCH   5   6
BRANCH   5  14
HETATM   14  C22 UNL     1      -2.589  -0.344  -0.182  1.00  0.00     0.061 A 
HETATM   15  C23 UNL     1      -3.237   0.885  -0.030  1.00  0.00     0.047 A 
HETATM   16  N5  UNL     1      -3.528   0.990   1.279  1.00  0.00    -0.298 N 
HETATM   17  N6  UNL     1      -3.146  -0.026   1.971  1.00  0.00    -0.248 N 
ATOM     18  H5  UNL     1      -4.005   1.796   1.684  1.00  0.00     0.187 HD
HETATM   19  C32 UNL     1      -2.553  -0.883   1.082  1.00  0.00     0.273 A 
HETATM   20  O5  UNL     1      -2.094  -1.961   1.544  1.00  0.00    -0.266 OA
BRANCH  15  21
HETATM   21  C24 UNL     1      -3.661   1.828  -1.047  1.00  0.00    -0.006 C 
HETATM   22  C25 UNL     1      -2.657   2.396  -1.978  1.00  0.00     0.021 C 
HETATM   23  C26 UNL     1      -4.231   3.088  -0.320  1.00  0.00     0.021 C 
HETATM   24  C27 UNL     1      -4.907   1.318  -1.808  1.00  0.00     0.021 C 
ENDBRANCH  15  21
BRANCH  17  25
HETATM   25  C28 UNL     1      -3.320  -0.178   3.401  1.00  0.00     0.046 C 
HETATM   26  C29 UNL     1      -2.793   1.055   4.139  1.00  0.00     0.040 C 
HETATM   27  C30 UNL     1      -2.553  -1.348   3.975  1.00  0.00     0.040 C 
HETATM   28  C31 UNL     1      -4.783  -0.450   3.749  1.00  0.00     0.040 C 
ENDBRANCH  17  25
ENDBRANCH   5  14
ENDBRANCH   1   5
BRANCH   3  29
HETATM   29  C7  UNL     1       1.999  -0.245  -1.510  1.00  0.00     0.125 C 
HETATM   30  C19 UNL     1       2.749   0.479  -2.634  1.00  0.00     0.042 C 
HETATM   31  C20 UNL     1       3.056  -0.853  -3.263  1.00  0.00     0.006 C 
HETATM   32  C21 UNL     1       2.632  -1.548  -2.013  1.00  0.00     0.042 C 
BRANCH  29  33
HETATM   33  N3  UNL     1       2.395   0.137  -0.210  1.00  0.00    -0.274 N 
BRANCH  33  34
HETATM   34  C8  UNL     1       3.665  -0.237   0.281  1.00  0.00     0.143 C 
BRANCH  34  35
HETATM   35  C9  UNL     1       3.657  -0.927   1.643  1.00  0.00     0.004 C 
HETATM   36  C10 UNL     1       2.871  -2.193   1.684  1.00  0.00     0.006 C 
HETATM   37  C11 UNL     1       3.335  -2.930   2.950  1.00  0.00     0.000 C 
HETATM   38  C12 UNL     1       4.727  -3.511   2.750  1.00  0.00     0.000 C 
HETATM   39  C13 UNL     1       5.476  -2.646   1.770  1.00  0.00     0.000 C 
HETATM   40  C14 UNL     1       5.122  -1.210   1.991  1.00  0.00     0.006 C 
ENDBRANCH  34  35
ENDBRANCH  33  34
BRANCH  33  41
HETATM   41  S1  UNL     1       1.887   1.699   0.234  1.00  0.00     0.323 S 
HETATM   42  O2  UNL     1       0.425   1.857   0.016  1.00  0.00    -0.182 OA
HETATM   43  O3  UNL     1       2.003   1.729   1.799  1.00  0.00    -0.182 OA
BRANCH  41  44
HETATM   44  N4  UNL     1       2.715   3.002  -0.404  1.00  0.00    -0.270 N 
HETATM   45  C15 UNL     1       4.076   3.228  -0.144  1.00  0.00     0.103 C 
HETATM   46  C16 UNL     1       4.485   4.668  -0.454  1.00  0.00     0.213 C 
HETATM   47  O4  UNL     1       3.885   5.016  -1.662  1.00  0.00    -0.385 OA
HETATM   48  C17 UNL     1       2.540   5.203  -1.446  1.00  0.00     0.189 C 
HETATM   49  C18 UNL     1       1.955   4.205  -0.460  1.00  0.00     0.168 C 
ENDBRANCH  41  44
ENDBRANCH  33  41
ENDBRANCH  29  33
ENDBRANCH   3  29
TORSDOF 13
