REMARK  13 active torsions:
REMARK  status: ('A' for Active; 'I' for Inactive)
REMARK    1  A    between atoms: C5_8  and  C6_9 
REMARK       I    between atoms: C6_9  and  N2_11 
REMARK    2  A    between atoms: N2_11  and  C7_13 
REMARK    3  A    between atoms: C7_13  and  C8_14 
REMARK    4  A    between atoms: C9_15  and  C10_16 
REMARK    5  A    between atoms: C12_20  and  N4_21 
REMARK    6  A    between atoms: N4_21  and  C13_23 
REMARK    7  A    between atoms: C17_30  and  C18_31 
REMARK    8  A    between atoms: C19_32  and  C20_33 
REMARK       I    between atoms: C20_33  and  N5_35 
REMARK    9  A    between atoms: N5_35  and  C21_37 
REMARK   10  A    between atoms: C21_37  and  C22_38 
REMARK   11  A    between atoms: C22_38  and  C23_39 
REMARK   12  A    between atoms: C23_39  and  C24_40 
REMARK   13  A    between atoms: C24_40  and  N6_41 
ROOT
HETATM    1  C10 UNL     1       4.381  -0.860  -0.689  1.00  0.00     0.034 A 
HETATM    2  C11 UNL     1       4.799  -1.763   0.271  1.00  0.00     0.110 A 
HETATM    3  N3  UNL     1       3.946  -2.335   1.123  1.00  0.00    -0.350 N 
ATOM      4  H3  UNL     1       4.305  -2.994   1.814  1.00  0.00     0.166 HD
HETATM    5  C12 UNL     1       2.624  -2.068   1.099  1.00  0.00     0.116 A 
HETATM    6  C17 UNL     1       2.127  -1.189   0.184  1.00  0.00     0.010 A 
HETATM    7  C31 UNL     1       3.041  -0.590  -0.712  1.00  0.00     0.037 A 
ENDROOT
BRANCH   6   8
HETATM    8  C18 UNL     1       0.745  -0.829   0.068  1.00  0.00     0.021 C 
HETATM    9  C19 UNL     1      -0.274  -1.214   0.748  1.00  0.00     0.075 C 
BRANCH   9  10
HETATM   10  C20 UNL     1      -1.627  -0.676   0.417  1.00  0.00     0.241 C 
HETATM   11  O4  UNL     1      -1.746   0.139  -0.514  1.00  0.00    -0.269 OA
HETATM   12  N5  UNL     1      -2.754  -1.088   1.150  1.00  0.00    -0.358 N 
ATOM     13  H5  UNL     1      -2.607  -1.761   1.902  1.00  0.00     0.162 HD
BRANCH  12  14
HETATM   14  C21 UNL     1      -4.091  -0.635   0.921  1.00  0.00     0.123 C 
BRANCH  14  15
HETATM   15  C22 UNL     1      -4.228   0.850   1.101  1.00  0.00     0.021 C 
BRANCH  15  16
HETATM   16  C23 UNL     1      -5.629   1.319   0.870  1.00  0.00     0.032 C 
BRANCH  16  17
HETATM   17  C24 UNL     1      -6.160   1.033  -0.515  1.00  0.00     0.273 C 
BRANCH  17  18
HETATM   18  N6  UNL     1      -7.512   1.558  -0.548  1.00  0.00     0.096 N 
HETATM   19  C25 UNL     1      -8.411   0.828   0.295  1.00  0.00     0.297 C 
HETATM   20  C26 UNL     1      -9.808   0.723  -0.212  1.00  0.00     0.100 C 
HETATM   21  C27 UNL     1     -10.540  -0.273   0.699  1.00  0.00     0.033 C 
HETATM   22  N7  UNL     1      -9.794   0.160  -1.524  1.00  0.00    -0.414 N 
HETATM   23  C28 UNL     1      -8.856   0.721  -2.431  1.00  0.00     0.149 C 
ATOM     24  H7  UNL     1     -10.420  -0.599  -1.794  1.00  0.00     0.153 HD
HETATM   25  C29 UNL     1      -7.993   1.810  -1.866  1.00  0.00     0.236 C 
HETATM   26  C30 UNL     1      -8.669   3.162  -1.898  1.00  0.00     0.044 C 
ENDBRANCH  17  18
ENDBRANCH  16  17
ENDBRANCH  15  16
ENDBRANCH  14  15
ENDBRANCH  12  14
ENDBRANCH   9  10
ENDBRANCH   6   8
BRANCH   5  27
HETATM   27  N4  UNL     1       1.849  -2.674   1.971  1.00  0.00    -0.338 N 
ATOM     28  H4  UNL     1       0.848  -2.480   1.962  1.00  0.00     0.167 HD
BRANCH  27  29
HETATM   29  C13 UNL     1       2.361  -3.585   2.919  1.00  0.00     0.099 A 
HETATM   30  C14 UNL     1       2.624  -3.267   4.234  1.00  0.00     0.063 A 
HETATM   31 BR1  UNL     1       2.378  -1.581   5.091  1.00  0.00    -0.046 Br
HETATM   32  C15 UNL     1       3.110  -4.397   4.854  1.00  0.00     0.165 A 
HETATM   33  O3  UNL     1       3.133  -5.334   3.952  1.00  0.00    -0.307 OA
HETATM   34  C16 UNL     1       2.702  -4.912   2.790  1.00  0.00     0.172 A 
HETATM   35 CL1  UNL     1       2.548  -5.800   1.278  1.00  0.00    -0.054 Cl
ENDBRANCH  27  29
ENDBRANCH   5  27
BRANCH   1  36
HETATM   36  C9  UNL     1       5.316  -0.250  -1.602  1.00  0.00    -0.064 C 
HETATM   37  C8  UNL     1       6.109   0.265  -2.351  1.00  0.00    -0.081 C 
BRANCH  37  38
HETATM   38  C7  UNL     1       7.098   0.906  -3.250  1.00  0.00     0.217 C 
BRANCH  38  39
HETATM   39  N2  UNL     1       8.414   0.813  -2.628  1.00  0.00    -0.346 N 
HETATM   40  C6  UNL     1       8.679   1.390  -1.372  1.00  0.00     0.256 C 
HETATM   41  O2  UNL     1       7.668   1.990  -0.846  1.00  0.00    -0.267 OA
ATOM     42  H2  UNL     1       9.161   0.318  -3.115  1.00  0.00     0.163 HD
BRANCH  40  43
HETATM   43  C5  UNL     1       9.930   1.369  -0.655  1.00  0.00     0.087 A 
HETATM   44  C2  UNL     1      10.109   1.959   0.601  1.00  0.00     0.047 A 
HETATM   45  C1  UNL     1       9.059   2.673   1.359  1.00  0.00     0.071 C 
HETATM   46  N1  UNL     1      11.375   1.740   0.939  1.00  0.00    -0.265 N 
HETATM   47  O1  UNL     1      11.992   1.078   0.022  1.00  0.00    -0.242 OA
ATOM     48  H1  UNL     1      11.802   2.055   1.810  1.00  0.00     0.194 HD
HETATM   49  C3  UNL     1      11.149   0.829  -0.970  1.00  0.00     0.090 A 
HETATM   50  C4  UNL     1      11.521   0.091  -2.182  1.00  0.00     0.080 C 
ENDBRANCH  40  43
ENDBRANCH  38  39
ENDBRANCH  37  38
ENDBRANCH   1  36
TORSDOF 13
