REMARK  11 active torsions:
REMARK  status: ('A' for Active; 'I' for Inactive)
REMARK    1  A    between atoms: C2_2  and  C4_4 
REMARK    2  A    between atoms: C4_4  and  C5_5 
REMARK    3  A    between atoms: C7_10  and  C8_11 
REMARK    4  A    between atoms: C8_11  and  C9_12 
REMARK    5  A    between atoms: C8_11  and  C16_21 
REMARK    6  A    between atoms: C9_12  and  C10_13 
REMARK    7  A    between atoms: C10_13  and  C11_14 
REMARK       I    between atoms: C16_21  and  N3_23 
REMARK    8  A    between atoms: N3_23  and  C17_25 
REMARK    9  A    between atoms: C17_25  and  C18_26 
REMARK   10  A    between atoms: C24_35  and  C25_36 
REMARK   11  A    between atoms: C25_36  and  C26_37 
ROOT
HETATM    1  C5  UNL     1       3.065  -1.803   0.585  1.00  0.00     0.177 C 
HETATM    2  N1  UNL     1       2.252  -0.950   1.405  1.00  0.00    -0.343 N 
ATOM      3  H1  UNL     1       2.751  -0.450   2.140  1.00  0.00     0.163 HD
HETATM    4  C6  UNL     1       0.876  -0.704   1.344  1.00  0.00     0.265 C 
HETATM    5  O1  UNL     1       0.247  -0.921   2.434  1.00  0.00    -0.266 OA
HETATM    6  C7  UNL     1       0.068  -0.235   0.209  1.00  0.00     0.093 C 
HETATM    7  N4  UNL     1       0.438  -0.732  -1.079  1.00  0.00    -0.325 N 
ATOM      8  H4  UNL     1       0.293  -1.728  -1.242  1.00  0.00     0.168 HD
HETATM    9  C22 UNL     1       0.986   0.014  -2.155  1.00  0.00     0.224 C 
HETATM   10  O3  UNL     1       1.363  -0.609  -3.216  1.00  0.00    -0.273 OA
HETATM   11  C23 UNL     1       1.191   1.458  -2.229  1.00  0.00     0.135 C 
HETATM   12  C24 UNL     1       2.539   1.751  -2.877  1.00  0.00     0.141 C 
HETATM   13  O4  UNL     1       3.371   2.511  -2.075  1.00  0.00    -0.314 OA
HETATM   14  C27 UNL     1       4.350   2.162  -1.205  1.00  0.00     0.277 C 
HETATM   15  O5  UNL     1       5.586   2.393  -1.309  1.00  0.00    -0.263 OA
HETATM   16  C28 UNL     1       3.963   1.415   0.036  1.00  0.00     0.233 C 
HETATM   17  N5  UNL     1       4.678   0.176   0.135  1.00  0.00    -0.350 N 
ATOM     18  H5  UNL     1       5.669   0.270   0.360  1.00  0.00     0.163 HD
HETATM   19  C29 UNL     1       4.238  -1.130  -0.026  1.00  0.00     0.240 C 
HETATM   20  O6  UNL     1       4.920  -1.890  -0.809  1.00  0.00    -0.271 OA
ENDROOT
BRANCH   6  21
HETATM   21  C8  UNL     1      -1.402  -0.125   0.437  1.00  0.00     0.133 C 
BRANCH  21  22
HETATM   22  C9  UNL     1      -2.155  -1.309   0.840  1.00  0.00     0.021 C 
BRANCH  22  23
HETATM   23  C10 UNL     1      -2.174  -2.498  -0.073  1.00  0.00     0.006 C 
BRANCH  23  24
HETATM   24  C11 UNL     1      -2.771  -2.263  -1.424  1.00  0.00    -0.012 C 
HETATM   25  C12 UNL     1      -4.235  -1.816  -1.286  1.00  0.00     0.020 C 
HETATM   26  C13 UNL     1      -4.934  -2.137  -2.580  1.00  0.00     0.103 C 
HETATM   27  N2  UNL     1      -5.149  -3.576  -2.644  1.00  0.00    -0.250 NA
HETATM   28 BR1  UNL     1      -6.787  -4.007  -1.818  1.00  0.00     0.012 Br
HETATM   29  C14 UNL     1      -4.082  -4.316  -2.003  1.00  0.00     0.103 C 
HETATM   30  C15 UNL     1      -2.763  -3.590  -2.171  1.00  0.00     0.020 C 
ENDBRANCH  23  24
ENDBRANCH  22  23
ENDBRANCH  21  22
BRANCH  21  31
HETATM   31  C16 UNL     1      -1.693   1.016   1.376  1.00  0.00     0.227 C 
HETATM   32  O2  UNL     1      -0.705   1.630   1.849  1.00  0.00    -0.273 OA
HETATM   33  N3  UNL     1      -2.985   1.407   1.731  1.00  0.00    -0.360 N 
ATOM     34  H3  UNL     1      -3.724   0.848   1.304  1.00  0.00     0.162 HD
BRANCH  33  35
HETATM   35  C17 UNL     1      -3.453   2.440   2.577  1.00  0.00     0.131 C 
BRANCH  35  36
HETATM   36  C18 UNL     1      -3.176   3.855   2.229  1.00  0.00    -0.035 C 
HETATM   37  C19 UNL     1      -3.716   4.243   0.868  1.00  0.00     0.016 C 
HETATM   38  C20 UNL     1      -1.819   4.376   2.497  1.00  0.00     0.016 C 
HETATM   39  C21 UNL     1      -4.096   4.698   3.198  1.00  0.00     0.016 C 
ENDBRANCH  35  36
ENDBRANCH  33  35
ENDBRANCH  21  31
ENDBRANCH   6  21
BRANCH   1  40
HETATM   40  C4  UNL     1       3.402  -3.117   1.206  1.00  0.00     0.038 C 
BRANCH  40  41
HETATM   41  C2  UNL     1       4.140  -3.178   2.462  1.00  0.00    -0.020 C 
HETATM   42  C1  UNL     1       3.538  -2.533   3.658  1.00  0.00     0.009 C 
HETATM   43  C3  UNL     1       5.589  -2.736   2.378  1.00  0.00     0.009 C 
ENDBRANCH  40  41
ENDBRANCH   1  40
BRANCH  12  44
HETATM   44  C25 UNL     1       2.225   2.616  -4.110  1.00  0.00     0.048 C 
BRANCH  44  45
HETATM   45  C26 UNL     1       3.501   2.972  -4.843  1.00  0.00     0.117 C 
HETATM   46 CL1  UNL     1       4.270   1.439  -5.355  1.00  0.00    -0.130 Cl
ENDBRANCH  44  45
ENDBRANCH  12  44
TORSDOF 11
