REMARK  12 active torsions:
REMARK  status: ('A' for Active; 'I' for Inactive)
REMARK    1  A    between atoms: O1_2  and  C2_3 
REMARK    2  A    between atoms: C11_14  and  O2_15 
REMARK    3  A    between atoms: O2_15  and  C12_16 
REMARK    4  A    between atoms: C12_16  and  C13_17 
REMARK       I    between atoms: C13_17  and  N1_19 
REMARK    5  A    between atoms: N1_19  and  C14_21 
REMARK    6  A    between atoms: C19_34  and  N6_35 
REMARK    7  A    between atoms: N6_35  and  C20_37 
REMARK    8  A    between atoms: C20_37  and  C21_38 
REMARK    9  A    between atoms: C21_38  and  C22_39 
REMARK   10  A    between atoms: C22_39  and  C23_40 
REMARK   11  A    between atoms: C23_40  and  N7_41 
REMARK   12  A    between atoms: C26_47  and  O4_48 
ROOT
HETATM    1  C2  UNL     1      -4.335  -4.275  -0.536  1.00  0.00     0.102 A 
HETATM    2  C3  UNL     1      -3.009  -4.059  -0.820  1.00  0.00     0.052 A 
HETATM    3  C4  UNL     1      -2.383  -2.837  -0.588  1.00  0.00    -0.017 A 
HETATM    4  C5  UNL     1      -1.078  -2.602  -0.860  1.00  0.00     0.043 A 
HETATM    5  C6  UNL     1      -0.412  -1.372  -0.637  1.00  0.00     0.045 A 
HETATM    6  C7  UNL     1       1.000  -1.275  -0.896  1.00  0.00     0.001 A 
HETATM    7  C8  UNL     1       1.548  -2.115  -1.895  1.00  0.00     0.035 A 
HETATM    8  C9  UNL     1       2.883  -2.159  -2.173  1.00  0.00     0.032 A 
HETATM    9 BR1  UNL     1       3.606  -3.302  -3.529  1.00  0.00    -0.050 Br
HETATM   10  C10 UNL     1       3.763  -1.367  -1.471  1.00  0.00     0.062 A 
HETATM   11 BR2  UNL     1       5.632  -1.426  -1.861  1.00  0.00    -0.047 Br
HETATM   12  C11 UNL     1       3.260  -0.550  -0.504  1.00  0.00     0.095 A 
HETATM   13  C17 UNL     1       1.877  -0.504  -0.216  1.00  0.00    -0.015 A 
HETATM   14  C18 UNL     1       1.480   0.395   0.868  1.00  0.00     0.052 C 
HETATM   15  N5  UNL     1      -1.180  -0.423  -0.123  1.00  0.00    -0.341 N 
ATOM     16  H5  UNL     1      -0.762   0.489   0.061  1.00  0.00     0.167 HD
HETATM   17  C19 UNL     1      -2.509  -0.600   0.176  1.00  0.00     0.112 A 
HETATM   18  C24 UNL     1      -3.129  -1.810  -0.052  1.00  0.00     0.021 A 
HETATM   19  C25 UNL     1      -4.465  -2.029   0.234  1.00  0.00     0.055 A 
HETATM   20  C26 UNL     1      -5.075  -3.245  -0.000  1.00  0.00     0.102 A 
ENDROOT
BRANCH  17  21
HETATM   21  N6  UNL     1      -3.206   0.348   0.673  1.00  0.00    -0.376 N 
ATOM     22  H6  UNL     1      -4.192   0.201   0.890  1.00  0.00     0.161 HD
BRANCH  21  23
HETATM   23  C20 UNL     1      -2.591   1.628   0.926  1.00  0.00     0.121 C 
BRANCH  23  24
HETATM   24  C21 UNL     1      -3.575   2.610   1.535  1.00  0.00     0.021 C 
BRANCH  24  25
HETATM   25  C22 UNL     1      -4.712   2.772   0.532  1.00  0.00     0.029 C 
BRANCH  25  26
HETATM   26  C23 UNL     1      -5.755   3.736   1.041  1.00  0.00     0.229 C 
BRANCH  26  27
HETATM   27  N7  UNL     1      -5.243   5.049   1.292  1.00  0.00    -0.079 N 
ATOM     28  H73 UNL     1      -4.446   5.011   1.927  1.00  0.00     0.274 HD
ATOM     29  H72 UNL     1      -4.781   5.421   0.462  1.00  0.00     0.274 HD
ATOM     30  H71 UNL     1      -5.948   5.701   1.636  1.00  0.00     0.274 HD
ENDBRANCH  26  27
ENDBRANCH  25  26
ENDBRANCH  24  25
ENDBRANCH  23  24
ENDBRANCH  21  23
ENDBRANCH  17  21
BRANCH  12  31
HETATM   31  O2  UNL     1       4.181   0.230   0.178  1.00  0.00    -0.340 OA
BRANCH  31  32
HETATM   32  C12 UNL     1       4.910  -0.207   1.316  1.00  0.00     0.279 C 
BRANCH  32  33
HETATM   33  C13 UNL     1       5.786   0.878   1.805  1.00  0.00     0.260 C 
HETATM   34  O3  UNL     1       6.523   0.717   2.801  1.00  0.00    -0.270 OA
HETATM   35  N1  UNL     1       5.794   2.121   1.136  1.00  0.00    -0.156 N 
ATOM     36  H1  UNL     1       4.928   2.640   0.991  1.00  0.00     0.187 HD
BRANCH  35  37
HETATM   37  C14 UNL     1       6.935   2.594   0.706  1.00  0.00     0.701 A 
HETATM   38  N2  UNL     1       7.053   3.767   0.059  1.00  0.00    -0.178 N 
HETATM   39  C15 UNL     1       8.351   3.977  -0.254  1.00  0.00     0.108 A 
ATOM     40  H2  UNL     1       6.283   4.399  -0.161  1.00  0.00     0.185 HD
HETATM   41  C16 UNL     1       8.905   5.149  -0.968  1.00  0.00     0.091 C 
HETATM   42  N3  UNL     1       9.006   2.915   0.216  1.00  0.00    -0.275 N 
HETATM   43  N4  UNL     1       8.159   2.061   0.805  1.00  0.00    -0.130 N 
ATOM     44  H3  UNL     1      10.013   2.773   0.138  1.00  0.00     0.189 HD
ATOM     45  H4  UNL     1       8.401   1.173   1.245  1.00  0.00     0.205 HD
ENDBRANCH  35  37
ENDBRANCH  32  33
ENDBRANCH  31  32
ENDBRANCH  12  31
BRANCH   1  46
HETATM   46  O1  UNL     1      -4.954  -5.515  -0.775  1.00  0.00    -0.353 OA
HETATM   47  C1  UNL     1      -4.210  -6.594  -1.327  1.00  0.00     0.210 C 
ENDBRANCH   1  46
BRANCH  20  48
HETATM   48  O4  UNL     1      -6.405  -3.481   0.279  1.00  0.00    -0.353 OA
HETATM   49  C27 UNL     1      -7.239  -2.484   0.829  1.00  0.00     0.210 C 
ENDBRANCH  20  48
TORSDOF 12
