REMARK  14 active torsions:
REMARK  status: ('A' for Active; 'I' for Inactive)
REMARK    1  A    between atoms: C7_7  and  C8_8 
REMARK    2  A    between atoms: C8_8  and  N1_9 
REMARK    3  A    between atoms: N1_9  and  C9_10 
REMARK    4  A    between atoms: N1_9  and  C11_16 
REMARK    5  A    between atoms: C9_10  and  C10_11 
REMARK    6  A    between atoms: C10_11  and  N2_12 
REMARK    7  A    between atoms: C11_16  and  C12_17 
REMARK    8  A    between atoms: C11_16  and  C17_26 
REMARK    9  A    between atoms: C12_17  and  N3_18 
REMARK       I    between atoms: C17_26  and  N5_28 
REMARK   10  A    between atoms: N5_28  and  C18_30 
REMARK   11  A    between atoms: C18_30  and  C19_31 
REMARK   12  A    between atoms: C20_32  and  C21_33 
REMARK   13  A    between atoms: C26_42  and  N8_43 
REMARK   14  A    between atoms: N8_43  and  C27_45 
ROOT
HETATM    1  C17 UNL     1      -0.771  -1.548  -0.511  1.00  0.00     0.266 C 
HETATM    2  O1  UNL     1      -0.318  -0.557  -1.170  1.00  0.00    -0.266 OA
HETATM    3  N5  UNL     1       0.115  -2.639  -0.349  1.00  0.00    -0.345 N 
ATOM      4  H5  UNL     1      -0.193  -3.449   0.190  1.00  0.00     0.163 HD
ENDROOT
BRANCH   1   5
HETATM    5  C11 UNL     1      -2.149  -1.452   0.005  1.00  0.00     0.108 C 
BRANCH   5   6
HETATM    6  N1  UNL     1      -2.546  -0.054   0.181  1.00  0.00    -0.356 N 
BRANCH   6   7
HETATM    7  C8  UNL     1      -3.922   0.143   0.115  1.00  0.00     0.069 C 
BRANCH   7   8
HETATM    8  C7  UNL     1      -4.488   1.468  -0.224  1.00  0.00     0.028 C 
HETATM    9  C2  UNL     1      -4.064   2.041  -1.552  1.00  0.00    -0.010 C 
HETATM   10  C1  UNL     1      -3.656   0.971  -2.544  1.00  0.00     0.010 C 
HETATM   11  C3  UNL     1      -5.135   2.857  -2.204  1.00  0.00     0.005 C 
HETATM   12  C4  UNL     1      -6.098   3.503  -1.264  1.00  0.00     0.000 C 
HETATM   13  C5  UNL     1      -6.624   2.643  -0.171  1.00  0.00     0.001 C 
HETATM   14  C6  UNL     1      -6.039   1.258  -0.310  1.00  0.00     0.010 C 
ENDBRANCH   7   8
ENDBRANCH   6   7
BRANCH   6  15
HETATM   15  C9  UNL     1      -1.762   0.554   1.189  1.00  0.00     0.155 C 
BRANCH  15  16
HETATM   16  C10 UNL     1      -1.514   2.014   1.160  1.00  0.00     0.249 C 
BRANCH  16  17
HETATM   17  N2  UNL     1      -0.648   2.406   2.311  1.00  0.00    -0.078 N 
ATOM     18  H23 UNL     1      -1.037   2.101   3.204  1.00  0.00     0.274 HD
ATOM     19  H22 UNL     1       0.220   1.871   2.337  1.00  0.00     0.274 HD
ATOM     20  H21 UNL     1      -0.477   3.411   2.291  1.00  0.00     0.274 HD
ENDBRANCH  16  17
ENDBRANCH  15  16
ENDBRANCH   6  15
ENDBRANCH   5   6
BRANCH   5  21
HETATM   21  C12 UNL     1      -2.507  -2.403   1.065  1.00  0.00     0.335 C 
BRANCH  21  22
HETATM   22  N3  UNL     1      -3.873  -2.604   1.355  1.00  0.00     0.097 N 
HETATM   23  C13 UNL     1      -4.625  -3.326   0.369  1.00  0.00     0.300 C 
HETATM   24  C14 UNL     1      -4.494  -4.825   0.530  1.00  0.00     0.262 C 
HETATM   25  N4  UNL     1      -5.078  -5.151   1.814  1.00  0.00    -0.072 N 
HETATM   26  C15 UNL     1      -4.329  -4.511   2.841  1.00  0.00     0.262 C 
ATOM     27  H42 UNL     1      -6.071  -4.922   1.858  1.00  0.00     0.277 HD
ATOM     28  H41 UNL     1      -5.156  -6.157   1.960  1.00  0.00     0.277 HD
HETATM   29  C16 UNL     1      -4.151  -3.029   2.700  1.00  0.00     0.300 C 
ENDBRANCH  21  22
ENDBRANCH   5  21
ENDBRANCH   1   5
BRANCH   3  30
HETATM   30  C18 UNL     1       1.447  -2.645  -0.923  1.00  0.00     0.217 C 
BRANCH  30  31
HETATM   31  C19 UNL     1       2.234  -1.516  -0.505  1.00  0.00    -0.081 C 
HETATM   32  C20 UNL     1       2.887  -0.551  -0.195  1.00  0.00    -0.065 C 
BRANCH  32  33
HETATM   33  C21 UNL     1       3.654   0.615   0.128  1.00  0.00     0.018 A 
HETATM   34  C22 UNL     1       3.050   1.739   0.608  1.00  0.00     0.023 A 
HETATM   35  C23 UNL     1       3.785   2.863   0.888  1.00  0.00     0.032 A 
HETATM   36  C24 UNL     1       5.158   2.854   0.681  1.00  0.00     0.047 A 
HETATM   37  N6  UNL     1       5.888   3.950   0.946  1.00  0.00    -0.352 N 
HETATM   38  C33 UNL     1       5.761   1.730   0.201  1.00  0.00     0.036 A 
HETATM   39  C25 UNL     1       7.200   3.906   0.730  1.00  0.00     0.182 A 
ATOM     40  H6  UNL     1       5.446   4.797   1.305  1.00  0.00     0.166 HD
HETATM   41  N7  UNL     1       7.804   2.810   0.260  1.00  0.00    -0.338 N 
HETATM   42  C26 UNL     1       7.150   1.676  -0.030  1.00  0.00     0.119 A 
ATOM     43  H7  UNL     1       8.813   2.838   0.115  1.00  0.00     0.168 HD
HETATM   44  C34 UNL     1       5.030   0.614  -0.077  1.00  0.00     0.038 A 
BRANCH  42  45
HETATM   45  N8  UNL     1       7.602   0.603  -0.466  1.00  0.00    -0.339 N 
ATOM     46  H8  UNL     1       6.876  -0.101  -0.598  1.00  0.00     0.167 HD
BRANCH  45  47
HETATM   47  C27 UNL     1       8.849   0.144  -0.811  1.00  0.00     0.072 A 
HETATM   48  C28 UNL     1       9.981   0.914  -0.743  1.00  0.00     0.034 A 
HETATM   49  C29 UNL     1      11.225   0.381  -1.112  1.00  0.00     0.021 A 
HETATM   50  C30 UNL     1      11.303  -0.922  -1.544  1.00  0.00     0.014 A 
HETATM   51 BR1  UNL     1      12.988  -1.646  -2.044  1.00  0.00    -0.051 Br
HETATM   52  C31 UNL     1      10.180  -1.719  -1.622  1.00  0.00     0.063 A 
HETATM   53  C32 UNL     1       8.993  -1.186  -1.262  1.00  0.00     0.144 A 
HETATM   54  F1  UNL     1       7.878  -1.945  -1.331  1.00  0.00    -0.204 F 
ENDBRANCH  45  47
ENDBRANCH  42  45
ENDBRANCH  32  33
ENDBRANCH  30  31
ENDBRANCH   3  30
TORSDOF 14
