REMARK  0 active torsions:
REMARK  status: ('A' for Active; 'I' for Inactive)
ROOT
HETATM    1  C1  UNL     1       5.646   1.012   0.881  1.00  0.00     0.018 C 
HETATM    2  C2  UNL     1       4.760   0.276   0.523  1.00  0.00    -0.075 C 
HETATM    3  C3  UNL     1       3.700  -0.600   0.111  1.00  0.00     0.044 A 
HETATM    4  C4  UNL     1       3.950  -1.880  -0.324  1.00  0.00     0.023 A 
HETATM    5  C5  UNL     1       2.893  -2.690  -0.712  1.00  0.00     0.003 A 
HETATM    6  C6  UNL     1       1.588  -2.245  -0.675  1.00  0.00     0.016 A 
HETATM    7  C7  UNL     1       1.327  -0.985  -0.248  1.00  0.00     0.020 A 
HETATM    8  C8  UNL     1       2.381  -0.162   0.145  1.00  0.00     0.064 A 
HETATM    9  N1  UNL     1       2.111   1.069   0.560  1.00  0.00    -0.353 N 
ATOM     10  H1  UNL     1       2.892   1.660   0.844  1.00  0.00     0.166 HD
HETATM   11  C9  UNL     1       0.884   1.580   0.629  1.00  0.00     0.049 A 
HETATM   12  C10 UNL     1       0.659   2.862   1.066  1.00  0.00     0.047 A 
HETATM   13  C11 UNL     1      -0.610   3.399   1.141  1.00  0.00     0.090 A 
HETATM   14  N2  UNL     1      -1.635   2.608   0.762  1.00  0.00    -0.364 N 
ATOM     15  H2  UNL     1      -2.581   2.985   0.809  1.00  0.00     0.165 HD
HETATM   16  C12 UNL     1      -1.471   1.347   0.326  1.00  0.00     0.059 A 
HETATM   17  C13 UNL     1      -2.513   0.531  -0.063  1.00  0.00     0.018 A 
HETATM   18  C14 UNL     1      -3.808   1.016  -0.010  1.00  0.00     0.016 A 
HETATM   19  C15 UNL     1      -4.898   0.259  -0.382  1.00  0.00     0.001 A 
HETATM   20  C16 UNL     1      -4.666  -1.028  -0.822  1.00  0.00     0.002 A 
HETATM   21  C17 UNL     1      -3.372  -1.550  -0.888  1.00  0.00     0.030 A 
HETATM   22  C18 UNL     1      -2.298  -0.757  -0.504  1.00  0.00     0.045 A 
HETATM   23  N3  UNL     1      -1.021  -1.230  -0.554  1.00  0.00    -0.354 N 
ATOM     24  H3  UNL     1      -0.864  -2.184  -0.880  1.00  0.00     0.166 HD
HETATM   25  C19 UNL     1       0.035  -0.493  -0.192  1.00  0.00     0.060 A 
HETATM   26  C20 UNL     1      -0.194   0.807   0.252  1.00  0.00     0.046 A 
ENDROOT
TORSDOF 0
