REMARK  0 active torsions:
REMARK  status: ('A' for Active; 'I' for Inactive)
ROOT
HETATM    1  N1  UNL     1       4.752  -3.660  -0.960  1.00  0.00    -0.191 NA
HETATM    2  C1  UNL     1       4.009  -2.793  -0.753  1.00  0.00     0.099 C 
HETATM    3  C2  UNL     1       3.110  -1.708  -0.488  1.00  0.00     0.047 A 
HETATM    4  C3  UNL     1       3.379  -0.391  -0.805  1.00  0.00     0.040 A 
HETATM    5  C4  UNL     1       2.504   0.641  -0.543  1.00  0.00     0.099 A 
HETATM    6  N2  UNL     1       1.363   0.297   0.047  1.00  0.00    -0.324 N 
HETATM    7  C5  UNL     1       1.021  -0.980   0.390  1.00  0.00     0.022 A 
HETATM    8  C6  UNL     1       1.890  -2.007   0.129  1.00  0.00     0.048 A 
HETATM    9  C7  UNL     1      -0.147  -1.639   0.995  1.00  0.00     0.098 C 
HETATM   10  C8  UNL     1      -1.419  -1.351   0.338  1.00  0.00    -0.026 A 
HETATM   11  C9  UNL     1      -2.039  -2.591   0.187  1.00  0.00     0.010 A 
HETATM   12  C10 UNL     1      -3.273  -2.742  -0.397  1.00  0.00     0.001 A 
HETATM   13  C11 UNL     1      -3.922  -1.618  -0.851  1.00  0.00     0.002 A 
HETATM   14  C12 UNL     1      -3.360  -0.384  -0.729  1.00  0.00     0.030 A 
HETATM   15  C13 UNL     1      -2.097  -0.251  -0.128  1.00  0.00     0.039 A 
HETATM   16  N3  UNL     1      -1.845   1.153  -0.177  1.00  0.00    -0.354 N 
ATOM     17  H3  UNL     1      -2.650   1.713  -0.458  1.00  0.00     0.166 HD
HETATM   18  C14 UNL     1      -0.672   1.914   0.096  1.00  0.00     0.060 A 
HETATM   19  C15 UNL     1      -1.011   3.203   0.294  1.00  0.00     0.032 A 
HETATM   20  C16 UNL     1      -0.039   4.115   0.609  1.00  0.00     0.002 A 
HETATM   21  C17 UNL     1       1.303   3.725   0.729  1.00  0.00     0.002 A 
HETATM   22  C18 UNL     1       1.670   2.418   0.533  1.00  0.00     0.032 A 
HETATM   23  C19 UNL     1       0.683   1.535   0.217  1.00  0.00     0.065 A 
ENDROOT
TORSDOF 0
