REMARK  5 active torsions:
REMARK  status: ('A' for Active; 'I' for Inactive)
REMARK    1  A    between atoms: C4_6  and  C5_7 
REMARK    2  A    between atoms: C5_7  and  C6_8 
REMARK    3  A    between atoms: C12_17  and  N4_18 
REMARK    4  A    between atoms: C15_21  and  C16_22 
REMARK    5  A    between atoms: C22_28  and  C24_30 
ROOT
HETATM    1  C1  UNL     1      -1.026  -1.539   2.797  1.00  0.00     0.052 C 
HETATM    2  C2  UNL     1       0.126  -1.459   1.883  1.00  0.00    -0.017 A 
HETATM    3  C3  UNL     1       1.320  -2.104   2.297  1.00  0.00     0.098 A 
HETATM    4  N1  UNL     1       2.386  -2.137   1.512  1.00  0.00    -0.354 N 
ATOM      5  H1  UNL     1       3.231  -2.608   1.836  1.00  0.00     0.166 HD
HETATM    6  C4  UNL     1       2.377  -1.567   0.306  1.00  0.00     0.104 A 
HETATM    7  N2  UNL     1       1.241  -0.933  -0.130  1.00  0.00    -0.241 N 
HETATM    8  N3  UNL     1       1.050  -0.351  -1.263  1.00  0.00    -0.276 N 
ATOM      9  H3  UNL     1       1.748  -0.274  -2.003  1.00  0.00     0.189 HD
HETATM   10  C12 UNL     1      -0.231   0.154  -1.335  1.00  0.00     0.130 A 
HETATM   11  C15 UNL     1      -0.837  -0.164  -0.139  1.00  0.00     0.041 A 
HETATM   12  C25 UNL     1       0.135  -0.877   0.645  1.00  0.00     0.079 A 
ENDROOT
BRANCH  11  13
HETATM   13  C16 UNL     1      -2.216  -0.014   0.279  1.00  0.00    -0.058 C 
HETATM   14  C17 UNL     1      -2.814   1.394   0.360  1.00  0.00     0.041 C 
HETATM   15  C18 UNL     1      -4.314   1.162   0.018  1.00  0.00     0.007 C 
HETATM   16  C19 UNL     1      -4.395   0.856  -1.440  1.00  0.00     0.007 C 
HETATM   17  C22 UNL     1      -4.505  -0.200   0.649  1.00  0.00     0.065 C 
HETATM   18  C20 UNL     1      -3.776  -0.515  -1.557  1.00  0.00     0.010 C 
HETATM   19  C21 UNL     1      -3.354  -0.847  -0.144  1.00  0.00     0.033 C 
HETATM   20  C23 UNL     1      -4.300  -0.122   2.124  1.00  0.00     0.025 C 
BRANCH  17  21
HETATM   21  C24 UNL     1      -5.849  -0.784   0.419  1.00  0.00     0.396 C 
HETATM   22  F1  UNL     1      -6.845   0.067   0.978  1.00  0.00    -0.170 F 
HETATM   23  F2  UNL     1      -5.926  -1.910   1.266  1.00  0.00    -0.170 F 
HETATM   24  F3  UNL     1      -6.226  -1.217  -0.791  1.00  0.00    -0.170 F 
ENDBRANCH  17  21
ENDBRANCH  11  13
BRANCH  10  25
HETATM   25  N4  UNL     1      -0.582   0.893  -2.458  1.00  0.00    -0.374 N 
HETATM   26  C13 UNL     1      -0.840   2.295  -2.631  1.00  0.00     0.150 C 
HETATM   27  C14 UNL     1      -0.603   0.151  -3.756  1.00  0.00     0.150 C 
ENDBRANCH  10  25
BRANCH   6  28
HETATM   28  C5  UNL     1       3.562  -1.659  -0.551  1.00  0.00     0.083 C 
BRANCH  28  29
HETATM   29  C6  UNL     1       4.577  -0.599  -0.311  1.00  0.00    -0.007 C 
HETATM   30  C7  UNL     1       5.095  -0.620   1.121  1.00  0.00     0.005 C 
HETATM   31  C8  UNL     1       6.357   0.220   1.117  1.00  0.00     0.000 C 
HETATM   32  C9  UNL     1       6.043   1.630   0.709  1.00  0.00     0.000 C 
HETATM   33  C10 UNL     1       5.318   1.717  -0.583  1.00  0.00     0.000 C 
HETATM   34  C11 UNL     1       4.121   0.769  -0.645  1.00  0.00     0.005 C 
ENDBRANCH  28  29
ENDBRANCH   6  28
TORSDOF 5
