REMARK  7 active torsions:
REMARK  status: ('A' for Active; 'I' for Inactive)
REMARK    1  A    between atoms: N1_4  and  C4_5 
REMARK    2  A    between atoms: C4_5  and  C6_7 
REMARK    3  A    between atoms: C8_9  and  S1_10 
REMARK    4  A    between atoms: S1_10  and  S2_11 
REMARK    5  A    between atoms: S2_11  and  C9_12 
REMARK    6  A    between atoms: C9_12  and  N2_14 
REMARK    7  A    between atoms: C15_20  and  C16_21 
ROOT
HETATM    1  C1  UNL     1       2.019  -0.290   3.978  1.00  0.00     0.021 C 
HETATM    2  C2  UNL     1       1.493  -0.119   2.812  1.00  0.00    -0.036 C 
HETATM    3  C3  UNL     1       1.258  -1.237   1.814  1.00  0.00     0.162 C 
HETATM    4  N1  UNL     1       1.630  -0.456   0.611  1.00  0.00    -0.366 N 
HETATM    5  C8  UNL     1       1.077   0.830   0.781  1.00  0.00     0.090 C 
HETATM    6  C15 UNL     1       0.987   1.067   2.105  1.00  0.00     0.037 C 
ENDROOT
BRANCH   5   7
HETATM    7  S1  UNL     1       0.467   1.985  -0.410  1.00  0.00    -0.032 SA
BRANCH   7   8
HETATM    8  S2  UNL     1       0.214   1.196  -2.326  1.00  0.00    -0.021 SA
BRANCH   8   9
HETATM    9  C9  UNL     1      -1.360   0.497  -2.673  1.00  0.00     0.147 C 
HETATM   10  S3  UNL     1      -1.498  -0.217  -4.173  1.00  0.00    -0.052 SA
BRANCH   9  11
HETATM   11  N2  UNL     1      -2.498   0.468  -1.854  1.00  0.00    -0.366 N 
HETATM   12  C10 UNL     1      -2.534   1.045  -0.541  1.00  0.00     0.124 C 
HETATM   13  C11 UNL     1      -3.986   1.006  -0.058  1.00  0.00     0.020 C 
HETATM   14  C12 UNL     1      -4.374  -0.456   0.040  1.00  0.00     0.003 C 
HETATM   15  C13 UNL     1      -4.285  -1.128  -1.316  1.00  0.00     0.020 C 
HETATM   16  C14 UNL     1      -3.708  -0.181  -2.352  1.00  0.00     0.124 C 
ENDBRANCH   9  11
ENDBRANCH   8   9
ENDBRANCH   7   8
ENDBRANCH   5   7
BRANCH   4  17
HETATM   17  C4  UNL     1       2.386  -0.905  -0.531  1.00  0.00     0.081 C 
HETATM   18  C5  UNL     1       3.257  -2.065   0.037  1.00  0.00     0.032 C 
BRANCH  17  19
HETATM   19  C6  UNL     1       3.423   0.154  -0.909  1.00  0.00     0.020 C 
HETATM   20  C7  UNL     1       4.213  -0.286  -2.105  1.00  0.00     0.007 C 
ENDBRANCH  17  19
ENDBRANCH   4  17
BRANCH   6  21
HETATM   21  C16 UNL     1       0.489   2.276   2.803  1.00  0.00     0.219 C 
HETATM   22 CL1  UNL     1      -0.873   1.953   3.882  1.00  0.00    -0.078 Cl
HETATM   23 CL2  UNL     1       0.021   3.508   1.579  1.00  0.00    -0.078 Cl
HETATM   24 CL3  UNL     1       1.846   3.023   3.718  1.00  0.00    -0.078 Cl
ENDBRANCH   6  21
TORSDOF 7
