REMARK  4 active torsions:
REMARK  status: ('A' for Active; 'I' for Inactive)
REMARK    1  A    between atoms: C2_2  and  O1_3 
REMARK    2  A    between atoms: O1_3  and  C3_4 
REMARK    3  A    between atoms: C3_4  and  C4_6 
REMARK    4  A    between atoms: C7_9  and  C8_10 
ROOT
HETATM    1  C4  UNL     1       3.437  -0.513  -0.381  1.00  0.00     0.152 A 
HETATM    2  C5  UNL     1       2.051  -0.602  -0.190  1.00  0.00     0.058 A 
HETATM    3  C6  UNL     1       1.526  -0.954  -1.382  1.00  0.00     0.012 A 
HETATM    4  C7  UNL     1       0.138  -1.129  -1.738  1.00  0.00    -0.006 A 
HETATM    5  C17 UNL     1      -0.092  -1.438  -3.016  1.00  0.00     0.037 A 
HETATM    6  C18 UNL     1       0.955  -1.593  -3.944  1.00  0.00     0.037 A 
HETATM    7 CL3  UNL     1       0.610  -2.081  -5.624  1.00  0.00    -0.084 Cl
HETATM    8  C19 UNL     1       2.261  -1.412  -3.557  1.00  0.00     0.062 A 
HETATM    9  C20 UNL     1       2.532  -1.079  -2.267  1.00  0.00     0.089 A 
HETATM   10  O3  UNL     1       3.673  -0.808  -1.630  1.00  0.00    -0.304 OA
ENDROOT
BRANCH   4  11
HETATM   11  C8  UNL     1      -0.676  -1.133  -0.560  1.00  0.00     0.100 C 
HETATM   12  N1  UNL     1      -1.525  -0.324   0.052  1.00  0.00    -0.365 N 
HETATM   13  C9  UNL     1      -1.736  -0.716   1.465  1.00  0.00     0.144 C 
HETATM   14  C15 UNL     1      -2.289   0.758  -0.298  1.00  0.00     0.113 C 
HETATM   15  C10 UNL     1      -3.103  -1.251   1.636  1.00  0.00     0.101 C 
HETATM   16 CL1  UNL     1      -3.344  -2.790   0.780  1.00  0.00    -0.123 Cl
HETATM   17  C11 UNL     1      -4.055  -0.177   1.272  1.00  0.00     0.034 C 
HETATM   18  C12 UNL     1      -3.769   0.582   0.027  1.00  0.00    -0.007 C 
HETATM   19  C13 UNL     1      -4.348   1.966   0.178  1.00  0.00     0.018 C 
HETATM   20  C14 UNL     1      -4.486  -0.073  -1.143  1.00  0.00     0.018 C 
HETATM   21  C16 UNL     1      -1.815   2.001   0.482  1.00  0.00     0.057 C 
HETATM   22 CL2  UNL     1      -2.180   1.247  -2.003  1.00  0.00    -0.095 Cl
ENDBRANCH   4  11
BRANCH   1  23
HETATM   23  C3  UNL     1       4.271  -0.123   0.763  1.00  0.00     0.317 C 
HETATM   24  O2  UNL     1       3.817   0.152   1.886  1.00  0.00    -0.257 OA
BRANCH  23  25
HETATM   25  O1  UNL     1       5.607  -0.046   0.572  1.00  0.00    -0.316 OA
BRANCH  25  26
HETATM   26  C2  UNL     1       6.660   0.340   1.295  1.00  0.00     0.175 C 
HETATM   27  C1  UNL     1       6.756   1.833   1.534  1.00  0.00     0.034 C 
ENDBRANCH  25  26
ENDBRANCH  23  25
ENDBRANCH   1  23
TORSDOF 4
