REMARK  2 active torsions:
REMARK  status: ('A' for Active; 'I' for Inactive)
REMARK    1  A    between atoms: N1_2  and  C2_3 
REMARK    2  A    between atoms: C2_3  and  C3_4 
ROOT
HETATM    1  C1  UNL     1      -1.274  -1.460  -0.559  1.00  0.00     0.272 C 
HETATM    2  N1  UNL     1      -0.299  -0.403  -0.231  1.00  0.00    -0.069 N 
HETATM    3  C5  UNL     1      -0.565   0.662  -1.177  1.00  0.00     0.237 C 
HETATM    4  C6  UNL     1      -1.928   1.171  -0.745  1.00  0.00     0.029 C 
HETATM    5  C7  UNL     1      -2.092   0.680   0.677  1.00  0.00     0.029 C 
HETATM    6  C8  UNL     1      -0.700   0.131   1.029  1.00  0.00     0.237 C 
ENDROOT
BRANCH   2   7
HETATM    7  C2  UNL     1       1.001  -0.968  -0.307  1.00  0.00     0.271 C 
BRANCH   7   8
HETATM    8  C3  UNL     1       2.026  -0.438   0.630  1.00  0.00     0.237 A 
HETATM    9  C4  UNL     1       2.495   0.917   0.721  1.00  0.00     0.267 A 
HETATM   10  N2  UNL     1       3.312  -0.088  -0.085  1.00  0.00    -0.066 N 
ATOM     11  H22 UNL     1       4.274  -0.427  -0.101  1.00  0.00     0.277 HD
ATOM     12  H21 UNL     1       3.684  -0.160  -1.032  1.00  0.00     0.277 HD
ENDBRANCH   7   8
ENDBRANCH   2   7
TORSDOF 2
