REMARK  1 active torsions:
REMARK  status: ('A' for Active; 'I' for Inactive)
REMARK    1  A    between atoms: C5_8  and  C6_9 
ROOT
HETATM    1  C1  UNL     1      -2.920   1.891  -0.841  1.00  0.00     0.016 C 
HETATM    2  C2  UNL     1      -2.388   0.913  -0.368  1.00  0.00    -0.053 C 
HETATM    3  C3  UNL     1      -1.758  -0.265   0.219  1.00  0.00     0.497 C 
HETATM    4  N1  UNL     1      -1.552  -0.136   1.644  1.00  0.00    -0.030 N 
ATOM      5  H11 UNL     1      -1.689  -0.995   2.176  1.00  0.00     0.280 HD
ATOM      6  H12 UNL     1      -2.268   0.401   2.133  1.00  0.00     0.280 HD
HETATM    7  C4  UNL     1      -0.214   0.421   1.721  1.00  0.00     0.272 C 
HETATM    8  C5  UNL     1       0.505  -0.403   0.671  1.00  0.00     0.256 C 
HETATM    9  N2  UNL     1      -0.452  -0.457  -0.378  1.00  0.00     0.133 N 
HETATM   10  C9  UNL     1      -0.490  -1.721  -1.082  1.00  0.00     0.314 C 
ENDROOT
BRANCH   8  11
HETATM   11  C6  UNL     1       1.786   0.272   0.334  1.00  0.00     0.021 A 
HETATM   12  C7  UNL     1       2.749  -0.240  -0.649  1.00  0.00     0.007 A 
HETATM   13  C8  UNL     1       1.842   0.918  -1.021  1.00  0.00     0.007 A 
ENDBRANCH   8  11
TORSDOF 1
