REMARK  5 active torsions:
REMARK  status: ('A' for Active; 'I' for Inactive)
REMARK    1  A    between atoms: C3_3  and  N1_4 
REMARK    2  A    between atoms: N1_4  and  C4_6 
REMARK    3  A    between atoms: C4_6  and  C5_7 
REMARK    4  A    between atoms: C5_7  and  N2_8 
REMARK    5  A    between atoms: N2_8  and  C6_10 
ROOT
HETATM    1  N1  UNL     1       0.760  -0.812  -0.025  1.00  0.00    -0.415 N 
ATOM      2  H1  UNL     1       0.687  -1.729  -0.465  1.00  0.00     0.153 HD
ENDROOT
BRANCH   1   3
HETATM    3  C3  UNL     1       1.990  -0.338   0.561  1.00  0.00     0.079 C 
HETATM    4  C2  UNL     1       3.013  -1.418   0.481  1.00  0.00     0.052 C 
HETATM    5  C1  UNL     1       4.416  -0.876   0.464  1.00  0.00     0.234 C 
HETATM    6  N4  UNL     1       4.505  -0.094  -0.775  1.00  0.00    -0.075 N 
HETATM    7  C10 UNL     1       3.777   1.116  -0.526  1.00  0.00     0.234 C 
ATOM      8  H42 UNL     1       5.462   0.063  -1.091  1.00  0.00     0.277 HD
ATOM      9  H41 UNL     1       4.185  -0.600  -1.601  1.00  0.00     0.277 HD
HETATM   10  C9  UNL     1       2.375   0.945  -0.106  1.00  0.00     0.052 C 
ENDBRANCH   1   3
BRANCH   1  11
HETATM   11  C4  UNL     1      -0.335   0.074   0.049  1.00  0.00     0.133 C 
BRANCH  11  12
HETATM   12  C5  UNL     1      -1.482  -0.442  -0.831  1.00  0.00     0.133 C 
BRANCH  12  13
HETATM   13  N2  UNL     1      -2.575   0.428  -0.839  1.00  0.00    -0.412 N 
ATOM     14  H2  UNL     1      -2.784   0.981  -1.670  1.00  0.00     0.153 HD
BRANCH  13  15
HETATM   15  C6  UNL     1      -3.381   0.537   0.298  1.00  0.00     0.127 C 
HETATM   16  C7  UNL     1      -4.197  -0.696   0.635  1.00  0.00     0.258 C 
HETATM   17  N3  UNL     1      -5.358   0.131   0.798  1.00  0.00    -0.071 N 
HETATM   18  C8  UNL     1      -4.710   1.227   0.135  1.00  0.00     0.258 C 
ATOM     19  H32 UNL     1      -6.261  -0.199   0.456  1.00  0.00     0.277 HD
ATOM     20  H31 UNL     1      -5.749   0.269   1.730  1.00  0.00     0.277 HD
ENDBRANCH  13  15
ENDBRANCH  12  13
ENDBRANCH  11  12
ENDBRANCH   1  11
TORSDOF 5
