REMARK  5 active torsions:
REMARK  status: ('A' for Active; 'I' for Inactive)
REMARK    1  A    between atoms: C3_5  and  O1_6 
REMARK    2  A    between atoms: O1_6  and  C4_7 
REMARK    3  A    between atoms: C4_7  and  C5_8 
REMARK    4  A    between atoms: C5_8  and  N2_9 
REMARK    5  A    between atoms: N2_9  and  C6_12 
ROOT
HETATM    1  C1  UNL     1      -3.287   1.555   1.542  1.00  0.00     0.064 C 
HETATM    2  C2  UNL     1      -2.951   0.544   0.748  1.00  0.00     0.114 A 
HETATM    3  N1  UNL     1      -1.711  -0.133   0.871  1.00  0.00    -0.308 N 
ATOM      4  H1  UNL     1      -1.034   0.143   1.583  1.00  0.00     0.171 HD
HETATM    5  C3  UNL     1      -1.459  -1.103   0.064  1.00  0.00     0.239 A 
HETATM    6  N3  UNL     1      -2.360  -1.543  -0.957  1.00  0.00    -0.155 N 
ATOM      7  H3  UNL     1      -2.096  -2.320  -1.563  1.00  0.00     0.188 HD
HETATM    8  C8  UNL     1      -3.620  -0.907  -1.135  1.00  0.00     0.680 A 
HETATM    9  N4  UNL     1      -4.449  -1.288  -2.050  1.00  0.00    -0.234 N 
ATOM     10  H41 UNL     1      -5.352  -0.832  -2.178  1.00  0.00     0.174 HD
ATOM     11  H42 UNL     1      -4.247  -2.057  -2.689  1.00  0.00     0.174 HD
HETATM   12  N5  UNL     1      -3.901   0.164  -0.246  1.00  0.00    -0.178 N 
ATOM     13  H5  UNL     1      -4.787   0.664  -0.319  1.00  0.00     0.185 HD
ENDROOT
BRANCH   5  14
HETATM   14  O1  UNL     1      -0.211  -1.718   0.254  1.00  0.00    -0.320 OA
BRANCH  14  15
HETATM   15  C4  UNL     1       0.935  -0.994   0.665  1.00  0.00     0.206 C 
BRANCH  15  16
HETATM   16  C5  UNL     1       1.206   0.049  -0.370  1.00  0.00     0.259 C 
BRANCH  16  17
HETATM   17  N2  UNL     1       2.330   0.871  -0.111  1.00  0.00    -0.073 N 
ATOM     18  H22 UNL     1       2.324   1.684  -0.727  1.00  0.00     0.277 HD
ATOM     19  H21 UNL     1       2.230   1.334   0.792  1.00  0.00     0.277 HD
BRANCH  17  20
HETATM   20  C6  UNL     1       3.599   0.193  -0.189  1.00  0.00     0.228 C 
HETATM   21  C7  UNL     1       4.765   1.088   0.084  1.00  0.00     0.034 C 
ENDBRANCH  17  20
ENDBRANCH  16  17
ENDBRANCH  15  16
ENDBRANCH  14  15
ENDBRANCH   5  14
TORSDOF 5
