REMARK  7 active torsions:
REMARK  status: ('A' for Active; 'I' for Inactive)
REMARK    1  A    between atoms: N1_2  and  C2_5 
REMARK    2  A    between atoms: C2_5  and  C3_6 
REMARK    3  A    between atoms: C3_6  and  N2_7 
REMARK    4  A    between atoms: N2_7  and  C4_9 
REMARK    5  A    between atoms: C5_12  and  C6_13 
REMARK    6  A    between atoms: C6_13  and  C7_14 
REMARK    7  A    between atoms: C7_14  and  N4_15 
ROOT
HETATM    1  C4  UNL     1       0.080  -0.434   0.171  1.00  0.00     0.694 A 
HETATM    2  N3  UNL     1      -0.960   0.282   0.575  1.00  0.00    -0.178 N 
ATOM      3  H3  UNL     1      -0.903   1.241   0.919  1.00  0.00     0.185 HD
HETATM    4  C5  UNL     1      -2.101  -0.424   0.471  1.00  0.00     0.114 A 
HETATM    5  N5  UNL     1      -1.748  -1.641  -0.023  1.00  0.00    -0.274 N 
ATOM      6  H5  UNL     1      -2.377  -2.419  -0.223  1.00  0.00     0.189 HD
HETATM    7  N6  UNL     1      -0.428  -1.627  -0.197  1.00  0.00    -0.131 N 
ATOM      8  H6  UNL     1       0.121  -2.408  -0.557  1.00  0.00     0.205 HD
ENDROOT
BRANCH   1   9
HETATM    9  N2  UNL     1       1.341  -0.123   0.112  1.00  0.00    -0.223 N 
ATOM     10  H2  UNL     1       1.629   0.808   0.414  1.00  0.00     0.177 HD
BRANCH   9  11
HETATM   11  C3  UNL     1       2.343  -1.031  -0.358  1.00  0.00     0.165 C 
BRANCH  11  12
HETATM   12  C2  UNL     1       3.739  -0.734   0.067  1.00  0.00     0.252 C 
BRANCH  12  13
HETATM   13  N1  UNL     1       4.241   0.550  -0.360  1.00  0.00    -0.077 N 
HETATM   14  C1  UNL     1       3.608   1.666   0.282  1.00  0.00     0.267 C 
ATOM     15  H12 UNL     1       4.181   0.639  -1.374  1.00  0.00     0.276 HD
ATOM     16  H11 UNL     1       5.253   0.596  -0.243  1.00  0.00     0.276 HD
ENDBRANCH  12  13
ENDBRANCH  11  12
ENDBRANCH   9  11
ENDBRANCH   1   9
BRANCH   4  17
HETATM   17  C6  UNL     1      -3.498  -0.010   0.811  1.00  0.00     0.105 C 
BRANCH  17  18
HETATM   18  C7  UNL     1      -4.187   0.612  -0.367  1.00  0.00     0.237 C 
BRANCH  18  19
HETATM   19  N4  UNL     1      -3.555   1.783  -0.882  1.00  0.00    -0.079 N 
ATOM     20  H43 UNL     1      -3.432   2.473  -0.141  1.00  0.00     0.274 HD
ATOM     21  H42 UNL     1      -2.579   1.588  -1.106  1.00  0.00     0.274 HD
ATOM     22  H41 UNL     1      -4.024   2.206  -1.683  1.00  0.00     0.274 HD
ENDBRANCH  18  19
ENDBRANCH  17  18
ENDBRANCH   4  17
TORSDOF 7
