REMARK  7 active torsions:
REMARK  status: ('A' for Active; 'I' for Inactive)
REMARK    1  A    between atoms: C2_2  and  N1_3 
REMARK    2  A    between atoms: C2_2  and  N2_7 
REMARK    3  A    between atoms: N2_7  and  C3_9 
REMARK    4  A    between atoms: C3_9  and  C4_10 
REMARK    5  A    between atoms: C4_10  and  C5_11 
REMARK    6  A    between atoms: C5_11  and  N3_12 
REMARK    7  A    between atoms: C8_15  and  N4_16 
ROOT
HETATM    1  C4  UNL     1      -0.659  -0.262  -0.118  1.00  0.00     0.049 C 
ENDROOT
BRANCH   1   2
HETATM    2  C3  UNL     1      -1.695   0.149  -1.125  1.00  0.00     0.117 C 
BRANCH   2   3
HETATM    3  N2  UNL     1      -2.961  -0.478  -0.935  1.00  0.00    -0.396 N 
ATOM      4  H2  UNL     1      -3.326  -1.177  -1.581  1.00  0.00     0.155 HD
BRANCH   3   5
HETATM    5  C2  UNL     1      -3.691  -0.053   0.238  1.00  0.00     0.273 C 
HETATM    6  C1  UNL     1      -4.038   1.419   0.121  1.00  0.00     0.062 C 
BRANCH   5   7
HETATM    7  N1  UNL     1      -4.952  -0.774   0.219  1.00  0.00    -0.059 N 
ATOM      8  H13 UNL     1      -5.611  -0.456   0.930  1.00  0.00     0.276 HD
ATOM      9  H12 UNL     1      -5.529  -0.558  -0.594  1.00  0.00     0.276 HD
ATOM     10  H11 UNL     1      -4.719  -1.764   0.298  1.00  0.00     0.276 HD
ENDBRANCH   5   7
ENDBRANCH   3   5
ENDBRANCH   2   3
ENDBRANCH   1   2
BRANCH   1  11
HETATM   11  C5  UNL     1       0.655   0.460  -0.339  1.00  0.00     0.274 C 
BRANCH  11  12
HETATM   12  N3  UNL     1       1.690   0.067   0.564  1.00  0.00     0.090 N 
HETATM   13  C6  UNL     1       2.207  -1.233   0.352  1.00  0.00     0.274 C 
HETATM   14  C7  UNL     1       3.608  -1.183   0.910  1.00  0.00     0.064 C 
HETATM   15  C8  UNL     1       4.055   0.209   0.542  1.00  0.00     0.213 C 
HETATM   16  C9  UNL     1       2.752   0.984   0.617  1.00  0.00     0.305 C 
BRANCH  15  17
HETATM   17  N4  UNL     1       4.580   0.183  -0.801  1.00  0.00    -0.073 N 
ATOM     18  H43 UNL     1       5.320  -0.509  -0.918  1.00  0.00     0.274 HD
ATOM     19  H42 UNL     1       3.917  -0.205  -1.472  1.00  0.00     0.274 HD
ATOM     20  H41 UNL     1       4.882   1.125  -1.050  1.00  0.00     0.274 HD
ENDBRANCH  15  17
ENDBRANCH  11  12
ENDBRANCH   1  11
TORSDOF 7
