REMARK  2 active torsions:
REMARK  status: ('A' for Active; 'I' for Inactive)
REMARK    1  A    between atoms: C5_7  and  N2_8 
REMARK    2  A    between atoms: N2_8  and  C6_10 
ROOT
HETATM    1  C1  UNL     1       6.696  -0.516   0.692  1.00  0.00     0.056 C 
HETATM    2  C2  UNL     1       5.227  -0.158   0.547  1.00  0.00    -0.018 A 
HETATM    3  C3  UNL     1       4.336  -0.747  -0.288  1.00  0.00     0.045 A 
HETATM    4  C4  UNL     1       3.032  -0.279  -0.276  1.00  0.00     0.059 A 
HETATM    5  N1  UNL     1       1.943  -0.645  -0.964  1.00  0.00    -0.335 N 
ATOM      6  H1  UNL     1       1.993  -1.400  -1.648  1.00  0.00     0.168 HD
HETATM    7  C5  UNL     1       0.802  -0.015  -0.745  1.00  0.00     0.148 A 
HETATM    8  S1  UNL     1       1.175   1.137   0.443  1.00  0.00    -0.045 SA
HETATM    9  C11 UNL     1       2.832   0.747   0.612  1.00  0.00     0.076 A 
HETATM   10  S2  UNL     1       4.341   1.036   1.368  1.00  0.00    -0.085 SA
ENDROOT
BRANCH   7  11
HETATM   11  N2  UNL     1      -0.350  -0.265  -1.345  1.00  0.00    -0.342 N 
ATOM     12  H2  UNL     1      -0.455  -0.992  -2.053  1.00  0.00     0.164 HD
BRANCH  11  13
HETATM   13  C6  UNL     1      -1.451   0.575  -0.917  1.00  0.00     0.249 C 
HETATM   14  C7  UNL     1      -2.776  -0.123  -1.140  1.00  0.00     0.084 C 
HETATM   15  C8  UNL     1      -3.519   0.243   0.123  1.00  0.00     0.054 C 
HETATM   16  C9  UNL     1      -4.166  -0.993   0.716  1.00  0.00     0.036 C 
HETATM   17  C10 UNL     1      -4.574   1.319  -0.163  1.00  0.00     0.036 C 
HETATM   18  N3  UNL     1      -2.547   0.831   0.984  1.00  0.00    -0.089 NA
HETATM   19  O1  UNL     1      -1.334   0.738   0.457  1.00  0.00    -0.260 OA
ENDBRANCH  11  13
ENDBRANCH   7  11
TORSDOF 2
