REMARK  1 active torsions:
REMARK  status: ('A' for Active; 'I' for Inactive)
REMARK    1  A    between atoms: C11_16  and  N3_17 
ROOT
HETATM    1  C1  UNL     1       4.393   1.821   0.689  1.00  0.00     0.017 C 
HETATM    2  C2  UNL     1       3.476   1.065   0.449  1.00  0.00    -0.088 C 
HETATM    3  C3  UNL     1       2.425   0.198   0.173  1.00  0.00     0.085 C 
HETATM    4  C4  UNL     1       1.175   0.514   0.576  1.00  0.00     0.043 C 
HETATM    5  S1  UNL     1       1.054   2.097   1.443  1.00  0.00    -0.079 SA
HETATM    6  C5  UNL     1      -0.129   3.039   0.456  1.00  0.00     0.061 A 
HETATM    7  C6  UNL     1      -1.380   2.897  -0.001  1.00  0.00     0.025 A 
HETATM    8  C7  UNL     1      -2.429   1.860   0.090  1.00  0.00     0.168 C 
HETATM    9  N1  UNL     1      -2.079   0.576  -0.443  1.00  0.00    -0.382 N 
ATOM     10  H1  UNL     1      -2.701   0.330  -1.213  1.00  0.00     0.160 HD
HETATM   11  C8  UNL     1      -1.127  -0.461  -0.224  1.00  0.00     0.080 A 
HETATM   12  C9  UNL     1      -1.790  -1.635  -0.524  1.00  0.00     0.051 A 
HETATM   13  C10 UNL     1      -3.185  -1.610  -1.029  1.00  0.00     0.071 C 
HETATM   14  N2  UNL     1      -1.066  -2.753  -0.336  1.00  0.00    -0.194 N 
ATOM     15  H2  UNL     1      -1.515  -3.644  -0.548  1.00  0.00     0.184 HD
HETATM   16  C11 UNL     1       0.187  -2.789   0.104  1.00  0.00     0.676 A 
HETATM   17  N4  UNL     1       0.834  -1.636   0.398  1.00  0.00    -0.188 N 
ATOM     18  H4  UNL     1       1.796  -1.657   0.737  1.00  0.00     0.184 HD
HETATM   19  C12 UNL     1       0.196  -0.466   0.238  1.00  0.00     0.095 A 
HETATM   20  S2  UNL     1      -0.618   4.470  -0.488  1.00  0.00    -0.083 SA
ENDROOT
BRANCH  16  21
HETATM   21  N3  UNL     1       0.845  -3.872   0.272  1.00  0.00    -0.234 N 
ATOM     22  H32 UNL     1       0.358  -4.740   0.051  1.00  0.00     0.174 HD
ATOM     23  H31 UNL     1       1.807  -3.900   0.610  1.00  0.00     0.174 HD
ENDBRANCH  16  21
TORSDOF 1
