REMARK  2 active torsions:
REMARK  status: ('A' for Active; 'I' for Inactive)
REMARK    1  A    between atoms: C4_6  and  N2_7 
REMARK    2  A    between atoms: N3_10  and  C5_11 
ROOT
HETATM    1  C1  UNL     1       5.751   0.586  -0.793  1.00  0.00     0.089 C 
HETATM    2  C2  UNL     1       4.338   0.194  -0.478  1.00  0.00     0.079 A 
HETATM    3  N1  UNL     1       3.219   0.837  -0.867  1.00  0.00    -0.340 N 
ATOM      4  H1  UNL     1       3.180   1.684  -1.433  1.00  0.00     0.167 HD
HETATM    5  C3  UNL     1       2.163   0.163  -0.376  1.00  0.00     0.122 A 
HETATM    6  C4  UNL     1       0.779   0.351  -0.451  1.00  0.00     0.135 A 
HETATM    7  N3  UNL     1      -0.091  -0.468   0.130  1.00  0.00    -0.303 N 
HETATM    8  C11 UNL     1       0.394  -1.529   0.822  1.00  0.00     0.181 A 
HETATM    9  S1  UNL     1      -0.596  -2.575   1.558  1.00  0.00    -0.040 SA
HETATM   10  N4  UNL     1       1.729  -1.752   0.922  1.00  0.00    -0.317 N 
ATOM     11  H4  UNL     1       2.069  -2.557   1.448  1.00  0.00     0.170 HD
HETATM   12  C12 UNL     1       2.608  -0.921   0.333  1.00  0.00     0.140 A 
HETATM   13  N5  UNL     1       3.963  -0.867   0.246  1.00  0.00    -0.330 N 
ATOM     14  H5  UNL     1       4.602  -1.539   0.671  1.00  0.00     0.168 HD
ENDROOT
BRANCH   7  15
HETATM   15  C5  UNL     1      -1.475  -0.277   0.056  1.00  0.00     0.094 C 
HETATM   16  C6  UNL     1      -2.081   0.418  -1.095  1.00  0.00     0.026 C 
HETATM   17  C7  UNL     1      -3.570  -0.005  -1.104  1.00  0.00     0.002 C 
HETATM   18  C8  UNL     1      -4.175   0.691   0.106  1.00  0.00     0.000 C 
HETATM   19  C9  UNL     1      -3.523   0.232   1.366  1.00  0.00     0.002 C 
HETATM   20  C10 UNL     1      -2.012   0.413   1.319  1.00  0.00     0.026 C 
ENDBRANCH   7  15
BRANCH   6  21
HETATM   21  N2  UNL     1       0.355   1.349  -1.103  1.00  0.00    -0.383 N 
ATOM     22  H22 UNL     1       1.023   1.978  -1.549  1.00  0.00     0.157 HD
ATOM     23  H21 UNL     1      -0.654   1.486  -1.158  1.00  0.00     0.157 HD
ENDBRANCH   6  21
TORSDOF 2
