REMARK  2 active torsions:
REMARK  status: ('A' for Active; 'I' for Inactive)
REMARK    1  A    between atoms: N1_1  and  C1_4 
REMARK    2  A    between atoms: C2_7  and  C3_8 
ROOT
HETATM    1  C1  UNL     1      -1.998   2.468  -0.488  1.00  0.00     0.677 A 
HETATM    2  N2  UNL     1      -0.863   1.853  -0.224  1.00  0.00    -0.194 N 
ATOM      3  H2  UNL     1      -0.007   2.389  -0.363  1.00  0.00     0.184 HD
HETATM    4  C2  UNL     1      -0.723   0.594   0.208  1.00  0.00     0.046 A 
HETATM    5  C9  UNL     1      -1.890  -0.184   0.411  1.00  0.00     0.053 A 
HETATM    6  C10 UNL     1      -3.060   0.455   0.137  1.00  0.00     0.107 A 
HETATM    7  N3  UNL     1      -3.122   1.756  -0.305  1.00  0.00    -0.185 N 
ATOM      8  H3  UNL     1      -4.028   2.183  -0.495  1.00  0.00     0.185 HD
HETATM    9  S1  UNL     1      -4.241  -0.738   0.482  1.00  0.00    -0.049 SA
HETATM   10  C11 UNL     1      -3.220  -2.013   0.965  1.00  0.00     0.121 A 
HETATM   11  N4  UNL     1      -3.129  -3.310   1.411  1.00  0.00    -0.277 N 
ATOM     12  H4  UNL     1      -3.900  -3.953   1.591  1.00  0.00     0.189 HD
HETATM   13  N5  UNL     1      -1.844  -3.554   1.559  1.00  0.00    -0.241 N 
ATOM     14  H5  UNL     1      -1.457  -4.441   1.880  1.00  0.00     0.208 HD
HETATM   15  N6  UNL     1      -1.127  -2.500   1.237  1.00  0.00    -0.283 N 
ATOM     16  H6  UNL     1      -0.109  -2.444   1.270  1.00  0.00     0.188 HD
HETATM   17  C12 UNL     1      -1.977  -1.476   0.845  1.00  0.00     0.099 A 
ENDROOT
BRANCH   4  18
HETATM   18  C3  UNL     1       0.635   0.062   0.441  1.00  0.00     0.037 C 
HETATM   19  C4  UNL     1       1.619   1.203   0.314  1.00  0.00     0.011 C 
HETATM   20  C5  UNL     1       3.053   0.752   0.455  1.00  0.00     0.001 C 
HETATM   21  C6  UNL     1       3.371  -0.142  -0.713  1.00  0.00     0.000 C 
HETATM   22  C7  UNL     1       2.142  -0.429  -1.526  1.00  0.00     0.001 C 
HETATM   23  C8  UNL     1       1.046  -0.955  -0.603  1.00  0.00     0.011 C 
ENDBRANCH   4  18
BRANCH   1  24
HETATM   24  N1  UNL     1      -2.073   3.672  -0.899  1.00  0.00    -0.234 N 
ATOM     25  H12 UNL     1      -1.219   4.213  -1.038  1.00  0.00     0.174 HD
ATOM     26  H11 UNL     1      -2.952   4.148  -1.103  1.00  0.00     0.174 HD
ENDBRANCH   1  24
TORSDOF 2
