REMARK  3 active torsions:
REMARK  status: ('A' for Active; 'I' for Inactive)
REMARK    1  A    between atoms: C10_12  and  O3_13 
REMARK    2  A    between atoms: O3_13  and  O4_14 
REMARK    3  A    between atoms: C14_19  and  O5_20 
ROOT
HETATM    1  C1  UNL     1      -1.294   0.575  -1.889  1.00  0.00     0.021 C 
HETATM    2  C2  UNL     1      -1.383   0.580  -0.450  1.00  0.00     0.018 C 
HETATM    3  C3  UNL     1      -1.198   1.959   0.060  1.00  0.00     0.015 C 
HETATM    4  C4  UNL     1       0.173   2.471   0.194  1.00  0.00     0.001 C 
HETATM    5  C5  UNL     1       1.285   2.151  -0.704  1.00  0.00     0.000 C 
HETATM    6  C6  UNL     1       2.573   1.660  -0.026  1.00  0.00     0.000 C 
HETATM    7  C7  UNL     1       2.774   0.271   0.298  1.00  0.00     0.003 C 
HETATM    8  C8  UNL     1       2.042  -0.895  -0.260  1.00  0.00     0.038 C 
HETATM    9  C9  UNL     1       1.398  -1.796   0.795  1.00  0.00     0.189 C 
HETATM   10  O1  UNL     1       1.016  -0.896   1.813  1.00  0.00    -0.230 OA
HETATM   11  O2  UNL     1       0.353  -0.006   1.203  1.00  0.00    -0.196 OA
HETATM   12  C10 UNL     1      -0.734  -0.267   0.545  1.00  0.00     0.242 C 
HETATM   13  C11 UNL     1      -0.865  -1.580  -0.191  1.00  0.00     0.086 C 
HETATM   14  C12 UNL     1      -2.329  -1.592  -0.111  1.00  0.00     0.014 C 
HETATM   15  C13 UNL     1      -2.755  -0.084  -0.207  1.00  0.00     0.015 C 
HETATM   16  C14 UNL     1       0.100  -2.470   0.369  1.00  0.00     0.159 C 
ENDROOT
BRANCH  12  17
HETATM   17  O3  UNL     1      -1.618  -0.325   1.687  1.00  0.00    -0.199 OA
BRANCH  17  18
HETATM   18  O4  UNL     1      -1.178  -1.041   2.638  1.00  0.00    -0.247 OA
ATOM     19  H4  UNL     1      -1.759  -1.079   3.389  1.00  0.00     0.253 HD
ENDBRANCH  17  18
ENDBRANCH  12  17
BRANCH  16  20
HETATM   20  O5  UNL     1       0.506  -3.462  -0.563  1.00  0.00    -0.392 OA
ATOM     21  H5  UNL     1      -0.303  -3.882  -0.829  1.00  0.00     0.210 HD
ENDBRANCH  16  20
TORSDOF 3
