REMARK  3 active torsions:
REMARK  status: ('A' for Active; 'I' for Inactive)
REMARK    1  A    between atoms: N1_1  and  C1_4 
REMARK    2  A    between atoms: C4_7  and  N2_8 
REMARK    3  A    between atoms: N3_10  and  C5_12 
ROOT
HETATM    1  N2  UNL     1       0.824   1.507  -0.722  1.00  0.00    -0.301 N 
ATOM      2  H2  UNL     1       1.018   2.446  -1.069  1.00  0.00     0.186 HD
HETATM    3  N3  UNL     1      -0.350   1.130  -0.822  1.00  0.00    -0.331 N 
ATOM      4  H3  UNL     1      -0.996   1.799  -1.241  1.00  0.00     0.180 HD
ENDROOT
BRANCH   1   5
HETATM    5  C4  UNL     1       1.917   0.819  -0.198  1.00  0.00     0.089 A 
HETATM    6  C3  UNL     1       2.310   1.051   1.100  1.00  0.00     0.038 A 
HETATM    7  C2  UNL     1       3.387   0.395   1.665  1.00  0.00     0.050 A 
HETATM    8  C1  UNL     1       4.077  -0.508   0.909  1.00  0.00     0.100 A 
HETATM    9  N5  UNL     1       3.692  -0.738  -0.371  1.00  0.00    -0.329 N 
HETATM   10  C12 UNL     1       2.641  -0.101  -0.930  1.00  0.00     0.146 A 
ATOM     11  H5  UNL     1       4.213  -1.414  -0.929  1.00  0.00     0.168 HD
HETATM   12  N4  UNL     1       2.320  -0.414  -2.277  1.00  0.00    -0.080 NA
BRANCH   8  13
HETATM   13  N1  UNL     1       5.078  -1.109   1.454  1.00  0.00    -0.385 N 
ATOM     14  H12 UNL     1       5.368  -0.936   2.417  1.00  0.00     0.157 HD
ATOM     15  H11 UNL     1       5.594  -1.784   0.889  1.00  0.00     0.157 HD
ENDBRANCH   8  13
ENDBRANCH   1   5
BRANCH   3  16
HETATM   16  C5  UNL     1      -0.917  -0.113  -0.430  1.00  0.00     0.105 C 
HETATM   17  C6  UNL     1      -1.940  -0.519  -1.459  1.00  0.00     0.027 C 
HETATM   18  C7  UNL     1      -3.252   0.209  -1.289  1.00  0.00     0.003 C 
HETATM   19  C8  UNL     1      -3.787   0.117   0.107  1.00  0.00     0.015 C 
HETATM   20  C9  UNL     1      -2.785   0.458   1.152  1.00  0.00     0.054 C 
HETATM   21  S1  UNL     1      -3.012  -0.636   2.607  1.00  0.00    -0.163 SA
HETATM   22  C11 UNL     1      -1.441  -0.134   0.972  1.00  0.00     0.033 C 
HETATM   23  C10 UNL     1      -1.857  -1.476   1.457  1.00  0.00     0.082 C 
ENDBRANCH   3  16
TORSDOF 3
