REMARK  2 active torsions:
REMARK  status: ('A' for Active; 'I' for Inactive)
REMARK    1  A    between atoms: N2_3  and  C2_5 
REMARK    2  A    between atoms: C10_15  and  C11_16 
ROOT
HETATM    1  N1  UNL     1      -2.949   5.073  -0.491  1.00  0.00    -0.171 NA
HETATM    2  C1  UNL     1      -2.438   4.287   0.205  1.00  0.00     0.196 C 
HETATM    3  N2  UNL     1      -1.837   3.353   1.034  1.00  0.00    -0.126 N 
ATOM      4  H2  UNL     1      -1.824   3.488   2.045  1.00  0.00     0.197 HD
ENDROOT
BRANCH   3   5
HETATM    5  C2  UNL     1      -1.241   2.206   0.450  1.00  0.00     0.684 C 
HETATM    6  N3  UNL     1      -0.226   2.348  -0.278  1.00  0.00    -0.211 N 
HETATM    7  C3  UNL     1       0.544   1.331  -0.973  1.00  0.00     0.176 C 
ATOM      8  H3  UNL     1       0.101   3.307  -0.397  1.00  0.00     0.179 HD
HETATM    9  C4  UNL     1       1.954   1.325  -0.859  1.00  0.00    -0.156 C 
HETATM   10  C9  UNL     1       0.080  -0.103  -0.582  1.00  0.00     0.070 C 
HETATM   11  C5  UNL     1       3.321   1.172  -0.559  1.00  0.00     0.086 C 
HETATM   12  C6  UNL     1       3.483  -0.269   0.038  1.00  0.00     0.038 C 
HETATM   13  C7  UNL     1       2.263  -0.692   0.793  1.00  0.00    -0.029 C 
HETATM   14  C8  UNL     1       0.930  -0.812   0.381  1.00  0.00    -0.021 C 
HETATM   15  C10 UNL     1      -1.369  -0.100  -0.294  1.00  0.00     0.150 C 
HETATM   16  N4  UNL     1      -1.754   0.894   0.659  1.00  0.00    -0.216 N 
ATOM     17  H4  UNL     1      -2.364   0.675   1.447  1.00  0.00     0.178 HD
BRANCH  15  18
HETATM   18  C11 UNL     1      -1.873  -1.463   0.040  1.00  0.00     0.006 A 
HETATM   19  C12 UNL     1      -2.445  -2.357  -0.832  1.00  0.00     0.017 A 
HETATM   20  C13 UNL     1      -2.838  -3.535  -0.339  1.00  0.00     0.008 A 
HETATM   21  C14 UNL     1      -2.640  -3.760   0.997  1.00  0.00     0.050 A 
HETATM   22  S1  UNL     1      -1.910  -2.311   1.516  1.00  0.00    -0.104 SA
ENDBRANCH  15  18
ENDBRANCH   3   5
TORSDOF 2
