REMARK  5 active torsions:
REMARK  status: ('A' for Active; 'I' for Inactive)
REMARK    1  A    between atoms: C1_4  and  C2_5 
REMARK    2  A    between atoms: C4_7  and  N2_8 
REMARK    3  A    between atoms: N2_8  and  C5_10 
REMARK    4  A    between atoms: C5_10  and  C6_11 
REMARK    5  A    between atoms: C6_11  and  N3_12 
ROOT
HETATM    1  N2  UNL     1       0.232  -0.162   0.020  1.00  0.00    -0.415 N 
ATOM      2  H2  UNL     1       0.345  -0.484  -0.941  1.00  0.00     0.153 HD
ENDROOT
BRANCH   1   3
HETATM    3  C4  UNL     1      -0.981  -0.330   0.745  1.00  0.00     0.086 A 
HETATM    4  C2  UNL     1      -2.315   0.098   0.381  1.00  0.00     0.048 A 
HETATM    5  C3  UNL     1      -1.939  -1.364   0.191  1.00  0.00     0.037 A 
BRANCH   4   6
HETATM    6  C1  UNL     1      -2.676   0.777  -0.878  1.00  0.00     0.059 C 
HETATM    7  N1  UNL     1      -2.011   1.777  -1.344  1.00  0.00    -0.411 N 
ATOM      8  H12 UNL     1      -1.205   2.100  -0.809  1.00  0.00     0.155 HD
ATOM      9  H11 UNL     1      -2.261   2.246  -2.214  1.00  0.00     0.155 HD
ENDBRANCH   4   6
ENDBRANCH   1   3
BRANCH   1  10
HETATM   10  C5  UNL     1       1.277   0.490   0.736  1.00  0.00     0.141 C 
BRANCH  10  11
HETATM   11  C6  UNL     1       2.636   0.160   0.143  1.00  0.00     0.248 C 
BRANCH  11  12
HETATM   12  N3  UNL     1       2.756   0.718  -1.167  1.00  0.00    -0.078 N 
ATOM     13  H33 UNL     1       1.994   0.423  -1.777  1.00  0.00     0.274 HD
ATOM     14  H32 UNL     1       2.573   1.721  -1.171  1.00  0.00     0.274 HD
ATOM     15  H31 UNL     1       3.669   0.496  -1.565  1.00  0.00     0.274 HD
ENDBRANCH  11  12
ENDBRANCH  10  11
ENDBRANCH   1  10
TORSDOF 5
