REMARK  5 active torsions:
REMARK  status: ('A' for Active; 'I' for Inactive)
REMARK    1  A    between atoms: C2_2  and  C3_3 
REMARK    2  A    between atoms: C3_3  and  N1_4 
REMARK    3  A    between atoms: C4_6  and  N2_7 
REMARK    4  A    between atoms: N2_7  and  C5_9 
REMARK    5  A    between atoms: C7_11  and  N3_12 
ROOT
HETATM    1  N2  UNL     1       0.527   0.592   1.012  1.00  0.00    -0.380 N 
ATOM      2  H2  UNL     1       0.120   1.182   1.738  1.00  0.00     0.160 HD
ENDROOT
BRANCH   1   3
HETATM    3  C4  UNL     1      -0.327  -0.182   0.198  1.00  0.00     0.171 C 
HETATM    4  N1  UNL     1      -1.398   0.323  -0.299  1.00  0.00    -0.383 N 
ATOM      5  H1  UNL     1      -1.634   1.296  -0.102  1.00  0.00     0.160 HD
BRANCH   4   6
HETATM    6  C3  UNL     1      -2.264  -0.458  -1.124  1.00  0.00     0.147 C 
BRANCH   6   7
HETATM    7  C2  UNL     1      -3.697  -0.220  -0.835  1.00  0.00    -0.018 C 
HETATM    8  C1  UNL     1      -4.104   0.630   0.091  1.00  0.00     0.008 C 
ENDBRANCH   6   7
ENDBRANCH   4   6
ENDBRANCH   1   3
BRANCH   1   9
HETATM    9  C5  UNL     1       1.966   0.573   0.846  1.00  0.00     0.114 A 
HETATM   10  C6  UNL     1       2.458   1.015  -0.516  1.00  0.00     0.062 A 
HETATM   11  C7  UNL     1       2.576  -0.389  -0.112  1.00  0.00     0.208 A 
BRANCH  11  12
HETATM   12  N3  UNL     1       3.857  -1.003   0.185  1.00  0.00    -0.073 N 
ATOM     13  H33 UNL     1       4.533  -0.262   0.370  1.00  0.00     0.274 HD
ATOM     14  H32 UNL     1       3.793  -1.455   1.097  1.00  0.00     0.274 HD
ATOM     15  H31 UNL     1       4.275  -1.662  -0.472  1.00  0.00     0.274 HD
ENDBRANCH  11  12
ENDBRANCH   1   9
TORSDOF 5
