REMARK  5 active torsions:
REMARK  status: ('A' for Active; 'I' for Inactive)
REMARK    1  A    between atoms: N2_4  and  N3_6 
REMARK    2  A    between atoms: C1_8  and  N4_9 
REMARK    3  A    between atoms: N4_9  and  C2_11 
REMARK    4  A    between atoms: C2_11  and  C3_12 
REMARK    5  A    between atoms: C3_12  and  C4_13 
ROOT
HETATM    1  N3  UNL     1       3.209  -0.159   0.339  1.00  0.00    -0.283 N 
ATOM      2  H3  UNL     1       2.936   0.817   0.453  1.00  0.00     0.189 HD
HETATM    3  C1  UNL     1       2.291  -1.037   0.396  1.00  0.00     0.194 C 
ENDROOT
BRANCH   3   4
HETATM    4  N4  UNL     1       0.958  -0.598   0.613  1.00  0.00    -0.385 N 
ATOM      5  H4  UNL     1       0.342  -1.105   1.248  1.00  0.00     0.160 HD
BRANCH   4   6
HETATM    6  C2  UNL     1       0.495   0.566  -0.074  1.00  0.00     0.120 C 
BRANCH   6   7
HETATM    7  C3  UNL     1      -0.915   0.937   0.226  1.00  0.00     0.024 C 
BRANCH   7   8
HETATM    8  C4  UNL     1      -1.916  -0.116  -0.122  1.00  0.00    -0.013 A 
HETATM    9  C5  UNL     1      -3.362   0.309   0.206  1.00  0.00     0.005 A 
HETATM   10  C6  UNL     1      -2.918   0.048  -1.184  1.00  0.00     0.005 A 
ENDBRANCH   7   8
ENDBRANCH   6   7
ENDBRANCH   4   6
ENDBRANCH   3   4
BRANCH   1  11
HETATM   11  N2  UNL     1       4.559  -0.430   0.133  1.00  0.00    -0.248 N 
HETATM   12  N1  UNL     1       5.342   0.299  -0.540  1.00  0.00    -0.331 N 
ATOM     13  H12 UNL     1       4.941   1.140  -0.954  1.00  0.00     0.178 HD
ATOM     14  H11 UNL     1       6.331   0.100  -0.691  1.00  0.00     0.178 HD
ATOM     15  H2  UNL     1       4.943  -1.276   0.555  1.00  0.00     0.207 HD
ENDBRANCH   1  11
TORSDOF 5
