REMARK  7 active torsions:
REMARK  status: ('A' for Active; 'I' for Inactive)
REMARK    1  A    between atoms: C2_2  and  C3_3 
REMARK    2  A    between atoms: C3_3  and  N1_4 
REMARK    3  A    between atoms: N1_4  and  C4_6 
REMARK    4  A    between atoms: C4_6  and  N2_8 
REMARK    5  A    between atoms: N2_8  and  N3_10 
REMARK    6  A    between atoms: N3_10  and  C5_12 
REMARK    7  A    between atoms: C5_12  and  N4_14 
ROOT
HETATM    1  N2  UNL     1       1.134  -0.918   1.119  1.00  0.00    -0.274 N 
ATOM      2  H2  UNL     1       1.396  -1.855   1.427  1.00  0.00     0.189 HD
ENDROOT
BRANCH   1   3
HETATM    3  C4  UNL     1       2.128  -0.061   0.583  1.00  0.00     0.186 C 
HETATM    4  S1  UNL     1       1.691   1.430   0.105  1.00  0.00    -0.040 SA
BRANCH   3   5
HETATM    5  N1  UNL     1       3.469  -0.469   0.469  1.00  0.00    -0.363 N 
ATOM      6  H1  UNL     1       3.724  -1.404   0.787  1.00  0.00     0.162 HD
BRANCH   5   7
HETATM    7  C3  UNL     1       4.492   0.375  -0.075  1.00  0.00     0.148 C 
BRANCH   7   8
HETATM    8  C2  UNL     1       4.325   0.579  -1.529  1.00  0.00    -0.018 C 
HETATM    9  C1  UNL     1       5.260   0.213  -2.395  1.00  0.00     0.008 C 
ENDBRANCH   7   8
ENDBRANCH   5   7
ENDBRANCH   3   5
ENDBRANCH   1   3
BRANCH   1  10
HETATM   10  N3  UNL     1      -0.201  -0.506   1.235  1.00  0.00    -0.274 N 
ATOM     11  H3  UNL     1      -0.574  -0.280   2.157  1.00  0.00     0.189 HD
BRANCH  10  12
HETATM   12  C5  UNL     1      -1.041  -0.396   0.106  1.00  0.00     0.188 C 
HETATM   13  S2  UNL     1      -0.448  -0.759  -1.361  1.00  0.00    -0.039 SA
BRANCH  12  14
HETATM   14  N4  UNL     1      -2.379   0.021   0.254  1.00  0.00    -0.357 N 
HETATM   15  C6  UNL     1      -3.036   0.370   1.497  1.00  0.00     0.125 C 
HETATM   16  C7  UNL     1      -4.378  -0.350   1.275  1.00  0.00     0.021 C 
HETATM   17  C8  UNL     1      -4.724   0.118  -0.120  1.00  0.00     0.021 C 
HETATM   18  C9  UNL     1      -3.393   0.193  -0.801  1.00  0.00     0.125 C 
ENDBRANCH  12  14
ENDBRANCH  10  12
ENDBRANCH   1  10
TORSDOF 7
