REMARK  3 active torsions:
REMARK  status: ('A' for Active; 'I' for Inactive)
REMARK    1  A    between atoms: C1_2  and  N2_4 
REMARK       I    between atoms: N2_4  and  C2_6 
REMARK    2  A    between atoms: C2_6  and  C3_8 
REMARK    3  A    between atoms: C4_9  and  C5_10 
ROOT
HETATM    1  C3  UNL     1      -0.096   0.388  -0.061  1.00  0.00     0.097 C 
HETATM    2  C4  UNL     1      -1.080   0.081   1.008  1.00  0.00     0.104 C 
HETATM    3  C6  UNL     1      -2.201  -0.602   0.275  1.00  0.00     0.006 C 
HETATM    4  C7  UNL     1      -2.785   0.193  -0.879  1.00  0.00     0.011 C 
HETATM    5  C8  UNL     1      -1.789  -0.477  -1.782  1.00  0.00    -0.004 A 
HETATM    6  C9  UNL     1      -1.447  -1.424  -0.722  1.00  0.00     0.000 A 
HETATM    7  C10 UNL     1      -0.401  -0.551  -1.234  1.00  0.00     0.009 A 
ENDROOT
BRANCH   1   8
HETATM    8  C2  UNL     1       1.276   0.037   0.390  1.00  0.00     0.229 C 
HETATM    9  N2  UNL     1       2.410   0.221  -0.418  1.00  0.00    -0.306 N 
ATOM     10  H2  UNL     1       2.300   0.611  -1.354  1.00  0.00     0.170 HD
HETATM   11  O1  UNL     1       1.410  -0.440   1.536  1.00  0.00    -0.273 OA
BRANCH   9  12
HETATM   12  C1  UNL     1       3.686  -0.120   0.037  1.00  0.00     0.187 C 
HETATM   13  N1  UNL     1       4.810   0.076  -0.799  1.00  0.00    -0.070 NA
HETATM   14  S1  UNL     1       3.913  -0.741   1.515  1.00  0.00    -0.044 SA
ENDBRANCH   9  12
ENDBRANCH   1   8
BRANCH   2  15
HETATM   15  C5  UNL     1      -1.519   1.255   1.785  1.00  0.00     0.178 C 
HETATM   16  O2  UNL     1      -1.117   2.431   1.588  1.00  0.00    -0.648 OA
HETATM   17  O3  UNL     1      -2.440   1.102   2.815  1.00  0.00    -0.648 OA
ENDBRANCH   2  15
TORSDOF 3
