REMARK  12 active torsions:
REMARK  status: ('A' for Active; 'I' for Inactive)
REMARK    1  A    between atoms: C2_2  and  N2_6 
REMARK    2  A    between atoms: C4_13  and  S1_14 
REMARK    3  A    between atoms: S1_14  and  C5_15 
REMARK    4  A    between atoms: C5_15  and  C6_16 
REMARK    5  A    between atoms: C6_16  and  S2_17 
REMARK    6  A    between atoms: C6_16  and  C16_31 
REMARK    7  A    between atoms: S2_17  and  C7_18 
REMARK    8  A    between atoms: C7_18  and  C8_19 
REMARK    9  A    between atoms: C8_19  and  O1_20 
REMARK   10  A    between atoms: C8_19  and  C9_22 
REMARK   11  A    between atoms: C9_22  and  C10_23 
REMARK   12  A    between atoms: C10_23  and  C11_25 
ROOT
HETATM    1  C6  UNL     1       1.022   0.917   0.124  1.00  0.00     0.126 C 
ENDROOT
BRANCH   1   2
HETATM    2  C5  UNL     1       1.544   1.711  -1.067  1.00  0.00     0.104 C 
BRANCH   2   3
HETATM    3  S1  UNL     1       2.945   0.942  -1.865  1.00  0.00    -0.102 SA
BRANCH   3   4
HETATM    4  C4  UNL     1       4.385   0.880  -0.815  1.00  0.00     0.130 A 
HETATM    5  N4  UNL     1       4.508   1.325   0.424  1.00  0.00    -0.286 N 
HETATM    6  N3  UNL     1       5.606   1.196   1.048  1.00  0.00    -0.278 N 
ATOM      7  H4  UNL     1       3.715   1.775   0.882  1.00  0.00     0.188 HD
HETATM    8  C3  UNL     1       6.635   0.608   0.441  1.00  0.00     0.167 A 
ATOM      9  H3  UNL     1       5.699   1.539   2.004  1.00  0.00     0.189 HD
HETATM   10  N2  UNL     1       7.850   0.367   0.877  1.00  0.00    -0.326 N 
HETATM   11  S3  UNL     1       5.941   0.238  -1.101  1.00  0.00    -0.026 SA
ATOM     12  H2  UNL     1       8.163   0.630   1.812  1.00  0.00     0.169 HD
BRANCH  10  13
HETATM   13  C2  UNL     1       8.706  -0.300  -0.075  1.00  0.00     0.072 C 
HETATM   14  C1  UNL     1       9.505  -1.500   0.275  1.00  0.00     0.088 C 
HETATM   15  N1  UNL     1       8.793   0.139  -1.285  1.00  0.00    -0.389 N 
ATOM     16  H12 UNL     1       9.398  -0.332  -1.958  1.00  0.00     0.157 HD
ATOM     17  H11 UNL     1       8.244   0.964  -1.526  1.00  0.00     0.157 HD
ENDBRANCH  10  13
ENDBRANCH   3   4
ENDBRANCH   2   3
ENDBRANCH   1   2
BRANCH   1  18
HETATM   18  S2  UNL     1      -0.397   1.762   0.844  1.00  0.00    -0.153 SA
BRANCH  18  19
HETATM   19  C7  UNL     1      -1.757   1.889  -0.292  1.00  0.00     0.107 C 
BRANCH  19  20
HETATM   20  C8  UNL     1      -2.505   0.627  -0.603  1.00  0.00     0.134 C 
BRANCH  20  21
HETATM   21  O1  UNL     1      -3.502   1.008  -1.551  1.00  0.00    -0.394 OA
ATOM     22  H1  UNL     1      -3.976   0.209  -1.748  1.00  0.00     0.210 HD
ENDBRANCH  20  21
BRANCH  20  23
HETATM   23  C9  UNL     1      -3.317   0.265   0.651  1.00  0.00     0.118 C 
BRANCH  23  24
HETATM   24  C10 UNL     1      -4.101  -0.968   0.458  1.00  0.00     0.185 C 
HETATM   25  O2  UNL     1      -3.438  -2.054   0.489  1.00  0.00    -0.290 OA
BRANCH  24  26
HETATM   26  C11 UNL     1      -5.532  -1.006   0.242  1.00  0.00     0.121 A 
HETATM   27  C12 UNL     1      -6.269  -2.178   0.073  1.00  0.00     0.043 A 
HETATM   28  C13 UNL     1      -7.568  -1.833  -0.104  1.00  0.00     0.035 A 
HETATM   29  C14 UNL     1      -7.616  -0.456  -0.043  1.00  0.00     0.050 A 
HETATM   30  C15 UNL     1      -8.871   0.344  -0.192  1.00  0.00     0.076 C 
HETATM   31  O3  UNL     1      -6.391  -0.039   0.161  1.00  0.00    -0.312 OA
ENDBRANCH  24  26
ENDBRANCH  23  24
ENDBRANCH  20  23
ENDBRANCH  19  20
ENDBRANCH  18  19
ENDBRANCH   1  18
BRANCH   1  32
HETATM   32  C16 UNL     1       0.741  -0.480  -0.156  1.00  0.00     0.137 C 
HETATM   33  C17 UNL     1       0.329  -1.360   0.967  1.00  0.00     0.092 C 
HETATM   34  O4  UNL     1       0.823  -0.982  -1.271  1.00  0.00    -0.297 OA
ENDBRANCH   1  32
TORSDOF 12
