REMARK  6 active torsions:
REMARK  status: ('A' for Active; 'I' for Inactive)
REMARK       I    between atoms: C2_2  and  N1_4 
REMARK    1  A    between atoms: N1_4  and  C3_6 
REMARK    2  A    between atoms: C6_9  and  C7_10 
REMARK    3  A    between atoms: C7_10  and  C8_11 
REMARK    4  A    between atoms: C8_11  and  C9_12 
REMARK    5  A    between atoms: C9_12  and  C10_13 
REMARK    6  A    between atoms: C10_13  and  N2_14 
ROOT
HETATM    1  C7  UNL     1       0.394   0.914  -0.747  1.00  0.00     0.005 C 
ENDROOT
BRANCH   1   2
HETATM    2  C6  UNL     1       1.463   0.996   0.254  1.00  0.00    -0.011 C 
HETATM    3  C5  UNL     1       1.889  -0.235   0.934  1.00  0.00     0.007 C 
HETATM    4  C4  UNL     1       3.408  -0.380   1.021  1.00  0.00     0.025 C 
HETATM    5  C3  UNL     1       3.950  -0.315  -0.363  1.00  0.00     0.084 C 
HETATM    6  C18 UNL     1       3.615   0.974  -1.070  1.00  0.00     0.029 C 
HETATM    7  C16 UNL     1       2.629   1.812  -0.305  1.00  0.00    -0.013 C 
HETATM    8  C17 UNL     1       3.269   2.690   0.745  1.00  0.00     0.010 C 
BRANCH   5   9
HETATM    9  N1  UNL     1       5.385  -0.549  -0.342  1.00  0.00    -0.357 N 
HETATM   10  C2  UNL     1       5.990  -1.655  -0.975  1.00  0.00     0.213 C 
HETATM   11  C1  UNL     1       7.462  -1.833  -0.914  1.00  0.00     0.117 C 
HETATM   12  O1  UNL     1       5.303  -2.485  -1.586  1.00  0.00    -0.274 OA
ATOM     13  H1  UNL     1       5.980   0.116   0.152  1.00  0.00     0.162 HD
ENDBRANCH   5   9
ENDBRANCH   1   2
BRANCH   1  14
HETATM   14  C8  UNL     1      -0.949   0.475  -0.322  1.00  0.00     0.002 C 
BRANCH  14  15
HETATM   15  C9  UNL     1      -1.149  -0.860   0.247  1.00  0.00     0.015 C 
BRANCH  15  16
HETATM   16  C10 UNL     1      -2.557  -1.277   0.537  1.00  0.00     0.106 C 
BRANCH  16  17
HETATM   17  N2  UNL     1      -3.289  -0.570   1.471  1.00  0.00    -0.216 NA
HETATM   18  C11 UNL     1      -3.783   0.740   1.263  1.00  0.00     0.109 C 
HETATM   19  C12 UNL     1      -4.578   0.872  -0.026  1.00  0.00     0.047 C 
HETATM   20  C13 UNL     1      -5.751  -0.082   0.042  1.00  0.00     0.040 A 
HETATM   21  C14 UNL     1      -6.885   0.293  -0.868  1.00  0.00     0.034 A 
HETATM   22  C15 UNL     1      -6.103  -0.940  -1.095  1.00  0.00     0.034 A 
HETATM   23  N3  UNL     1      -6.073  -0.530   1.362  1.00  0.00    -0.318 N 
HETATM   24  S1  UNL     1      -4.738  -1.508   1.979  1.00  0.00     0.193 S 
ATOM     25  H3  UNL     1      -6.935  -0.319   1.866  1.00  0.00     0.172 HD
HETATM   26  O2  UNL     1      -4.695  -2.868   1.309  1.00  0.00    -0.218 OA
ENDBRANCH  16  17
ENDBRANCH  15  16
ENDBRANCH  14  15
ENDBRANCH   1  14
TORSDOF 6
