REMARK  6 active torsions:
REMARK  status: ('A' for Active; 'I' for Inactive)
REMARK    1  A    between atoms: C1_2  and  C2_3 
REMARK       I    between atoms: C1_2  and  N2_15 
REMARK    2  A    between atoms: C2_3  and  C3_4 
REMARK    3  A    between atoms: C3_4  and  C4_5 
REMARK       I    between atoms: C4_5  and  N1_7 
REMARK    4  A    between atoms: N1_7  and  C5_9 
REMARK    5  A    between atoms: N2_15  and  C11_17 
REMARK    6  A    between atoms: C11_17  and  C12_18 
ROOT
HETATM    1  C3  UNL     1       0.629   0.004   0.261  1.00  0.00     0.112 C 
ENDROOT
BRANCH   1   2
HETATM    2  C2  UNL     1       1.363  -1.227   0.681  1.00  0.00     0.112 C 
BRANCH   2   3
HETATM    3  C1  UNL     1       2.773  -1.125   0.136  1.00  0.00     0.217 C 
HETATM    4  O1  UNL     1       3.071  -0.103  -0.494  1.00  0.00    -0.274 OA
HETATM    5  N2  UNL     1       3.639  -2.184   0.376  1.00  0.00    -0.361 N 
ATOM      6  H2  UNL     1       3.230  -2.939   0.927  1.00  0.00     0.162 HD
BRANCH   5   7
HETATM    7  C11 UNL     1       4.983  -2.409  -0.003  1.00  0.00     0.130 C 
BRANCH   7   8
HETATM    8  C12 UNL     1       5.227  -2.572  -1.442  1.00  0.00     0.040 A 
HETATM    9  C13 UNL     1       5.021  -1.629  -2.550  1.00  0.00     0.046 A 
HETATM   10  C14 UNL     1       6.427  -1.976  -2.154  1.00  0.00     0.176 A 
HETATM   11  F1  UNL     1       7.129  -0.999  -1.486  1.00  0.00    -0.249 F 
ENDBRANCH   7   8
ENDBRANCH   5   7
ENDBRANCH   2   3
ENDBRANCH   1   2
BRANCH   1  12
HETATM   12  C4  UNL     1      -0.770   0.027   0.727  1.00  0.00     0.218 C 
HETATM   13  O2  UNL     1      -1.207  -0.926   1.403  1.00  0.00    -0.274 OA
HETATM   14  N1  UNL     1      -1.631   1.105   0.427  1.00  0.00    -0.356 N 
ATOM     15  H1  UNL     1      -1.270   1.883  -0.126  1.00  0.00     0.162 HD
BRANCH  14  16
HETATM   16  C5  UNL     1      -3.017   1.148   0.878  1.00  0.00     0.084 C 
HETATM   17  C6  UNL     1      -3.909   1.036  -0.314  1.00  0.00     0.025 C 
HETATM   18  C7  UNL     1      -5.378   1.010   0.064  1.00  0.00     0.002 C 
HETATM   19  C8  UNL     1      -5.702   2.122   1.036  1.00  0.00     0.000 C 
HETATM   20  C9  UNL     1      -4.540   3.056   1.230  1.00  0.00     0.002 C 
HETATM   21  C10 UNL     1      -3.253   2.418   1.599  1.00  0.00     0.025 C 
ENDBRANCH  14  16
ENDBRANCH   1  12
TORSDOF 6
