REMARK  6 active torsions:
REMARK  status: ('A' for Active; 'I' for Inactive)
REMARK    1  A    between atoms: C1_2  and  C2_3 
REMARK       I    between atoms: C1_2  and  N1_9 
REMARK    2  A    between atoms: C2_3  and  C3_4 
REMARK    3  A    between atoms: N1_9  and  C7_10 
REMARK    4  A    between atoms: C7_10  and  C8_11 
REMARK    5  A    between atoms: C8_11  and  N2_12 
REMARK       I    between atoms: N2_12  and  C9_14 
REMARK    6  A    between atoms: C9_14  and  C10_16 
ROOT
HETATM    1  C7  UNL     1       0.096  -0.195  -0.122  1.00  0.00     0.178 C 
ENDROOT
BRANCH   1   2
HETATM    2  N1  UNL     1       1.373  -0.471   0.319  1.00  0.00    -0.386 NA
HETATM    3  C1  UNL     1       2.623  -0.740   0.751  1.00  0.00     0.291 C 
HETATM    4  O1  UNL     1       2.995  -1.058   1.916  1.00  0.00    -0.257 OA
BRANCH   3   5
HETATM    5  C2  UNL     1       3.751  -0.670  -0.272  1.00  0.00     0.124 C 
BRANCH   5   6
HETATM    6  C3  UNL     1       5.100  -0.681   0.379  1.00  0.00     0.001 C 
HETATM    7  C4  UNL     1       6.268  -0.639  -0.585  1.00  0.00     0.042 C 
HETATM    8  C5  UNL     1       6.938   0.344   0.358  1.00  0.00     0.170 C 
HETATM    9  F1  UNL     1       7.726  -0.353   1.266  1.00  0.00    -0.249 F 
HETATM   10  C6  UNL     1       5.555   0.708   0.844  1.00  0.00     0.042 C 
ENDBRANCH   5   6
ENDBRANCH   3   5
ENDBRANCH   1   2
BRANCH   1  11
HETATM   11  C8  UNL     1      -0.811  -1.420  -0.120  1.00  0.00     0.182 C 
BRANCH  11  12
HETATM   12  N2  UNL     1      -2.174  -1.164  -0.464  1.00  0.00    -0.355 N 
HETATM   13  C9  UNL     1      -3.036  -0.385   0.376  1.00  0.00     0.222 C 
HETATM   14  O2  UNL     1      -2.593   0.071   1.432  1.00  0.00    -0.273 OA
ATOM     15  H2  UNL     1      -2.545  -1.547  -1.334  1.00  0.00     0.162 HD
BRANCH  13  16
HETATM   16  C10 UNL     1      -4.417  -0.160  -0.041  1.00  0.00     0.078 C 
HETATM   17  C11 UNL     1      -5.111   0.648   1.067  1.00  0.00     0.014 C 
HETATM   18  C12 UNL     1      -6.224   1.350   0.352  1.00  0.00     0.001 C 
HETATM   19  C13 UNL     1      -5.476   1.858  -0.887  1.00  0.00     0.001 C 
HETATM   20  C14 UNL     1      -4.611   0.654  -1.286  1.00  0.00     0.014 C 
ENDBRANCH  13  16
ENDBRANCH  11  12
ENDBRANCH   1  11
TORSDOF 6
