REMARK  4 active torsions:
REMARK  status: ('A' for Active; 'I' for Inactive)
REMARK    1  A    between atoms: C2_2  and  C3_3 
REMARK    2  A    between atoms: C2_2  and  C9_12 
REMARK    3  A    between atoms: C3_3  and  N1_5 
REMARK    4  A    between atoms: N1_5  and  C4_7 
ROOT
HETATM    1  C3  UNL     1       0.705   1.491  -0.737  1.00  0.00     0.082 C 
HETATM    2  S1  UNL     1       1.183   3.073  -1.047  1.00  0.00    -0.065 SA
ENDROOT
BRANCH   1   3
HETATM    3  C2  UNL     1       1.799   0.525  -0.780  1.00  0.00     0.077 C 
HETATM    4  C1  UNL     1       1.541  -0.788  -1.424  1.00  0.00     0.022 C 
BRANCH   3   5
HETATM    5  C9  UNL     1       2.426   0.427   0.576  1.00  0.00    -0.024 A 
HETATM    6  C10 UNL     1       3.692   0.906   0.922  1.00  0.00     0.034 A 
HETATM    7  C11 UNL     1       3.926   0.633   2.254  1.00  0.00     0.142 A 
HETATM    8  O1  UNL     1       2.870   0.023   2.703  1.00  0.00    -0.334 OA
HETATM    9  C12 UNL     1       1.959  -0.118   1.742  1.00  0.00     0.149 A 
ENDBRANCH   3   5
ENDBRANCH   1   3
BRANCH   1  10
HETATM   10  N1  UNL     1      -0.649   1.329  -0.476  1.00  0.00    -0.379 N 
ATOM     11  H1  UNL     1      -1.209   2.181  -0.483  1.00  0.00     0.160 HD
BRANCH  10  12
HETATM   12  C4  UNL     1      -1.352   0.126  -0.201  1.00  0.00     0.082 C 
HETATM   13  C5  UNL     1      -1.999  -0.505  -1.411  1.00  0.00     0.025 C 
HETATM   14  C6  UNL     1      -2.724  -1.665  -0.706  1.00  0.00     0.002 C 
HETATM   15  C7  UNL     1      -3.309  -0.967   0.505  1.00  0.00     0.002 C 
HETATM   16  C8  UNL     1      -2.612   0.369   0.643  1.00  0.00     0.025 C 
ENDBRANCH  10  12
ENDBRANCH   1  10
TORSDOF 4
