REMARK  3 active torsions:
REMARK  status: ('A' for Active; 'I' for Inactive)
REMARK    1  A    between atoms: C2_3  and  C3_4 
REMARK    2  A    between atoms: C2_3  and  C4_7 
REMARK    3  A    between atoms: C5_11  and  N4_12 
ROOT
HETATM    1  N1  UNL     1      -2.232   2.440  -0.701  1.00  0.00    -0.196 NA
HETATM    2  C1  UNL     1      -1.817   1.497  -0.173  1.00  0.00     0.077 C 
HETATM    3  C2  UNL     1      -1.269   0.294   0.516  1.00  0.00     0.240 C 
ENDROOT
BRANCH   3   4
HETATM    4  C3  UNL     1      -1.551  -0.896  -0.274  1.00  0.00     0.252 C 
HETATM    5  N2  UNL     1      -2.889  -1.285  -0.524  1.00  0.00    -0.061 NA
HETATM    6  O1  UNL     1      -0.650  -1.609  -0.755  1.00  0.00    -0.275 OA
ENDBRANCH   3   4
BRANCH   3   7
HETATM    7  C4  UNL     1       0.136   0.589   0.835  1.00  0.00     0.417 C 
HETATM    8  N3  UNL     1       1.027   0.873  -0.257  1.00  0.00     0.010 N 
HETATM    9  C5  UNL     1       2.079   0.265   0.538  1.00  0.00     0.582 C 
ATOM     10  H32 UNL     1       0.825   0.549  -1.203  1.00  0.00     0.284 HD
ATOM     11  H31 UNL     1       1.124   1.818  -0.629  1.00  0.00     0.284 HD
HETATM   12  N5  UNL     1       1.036  -0.394   1.303  1.00  0.00     0.010 N 
ATOM     13  H52 UNL     1       1.150  -0.565   2.302  1.00  0.00     0.284 HD
ATOM     14  H51 UNL     1       0.840  -1.386   1.173  1.00  0.00     0.284 HD
BRANCH   9  15
HETATM   15  N4  UNL     1       2.899  -0.612  -0.258  1.00  0.00    -0.025 N 
ATOM     16  H43 UNL     1       2.338  -1.316  -0.737  1.00  0.00     0.278 HD
ATOM     17  H42 UNL     1       3.278  -0.131  -1.074  1.00  0.00     0.278 HD
ATOM     18  H41 UNL     1       3.638  -1.039   0.300  1.00  0.00     0.278 HD
ENDBRANCH   9  15
ENDBRANCH   3   7
TORSDOF 3
