REMARK  3 active torsions:
REMARK  status: ('A' for Active; 'I' for Inactive)
REMARK       I    between atoms: C1_4  and  N3_6 
REMARK    1  A    between atoms: N3_6  and  N4_8 
REMARK    2  A    between atoms: C2_10  and  C3_11 
REMARK       I    between atoms: C3_11  and  N5_13 
REMARK    3  A    between atoms: N5_13  and  N6_15 
ROOT
HETATM    1  N4  UNL     1      -0.206   0.344   0.507  1.00  0.00    -0.304 N 
ATOM      2  H4  UNL     1       0.498   0.460   1.236  1.00  0.00     0.186 HD
HETATM    3  C2  UNL     1       0.208   0.128  -0.675  1.00  0.00     0.182 C 
ENDROOT
BRANCH   1   4
HETATM    4  N3  UNL     1      -1.530   0.435   0.885  1.00  0.00    -0.274 N 
HETATM    5  C1  UNL     1      -2.577   0.013   0.044  1.00  0.00     0.200 C 
HETATM    6  N1  UNL     1      -3.470   0.799  -0.461  1.00  0.00    -0.372 N 
HETATM    7  N2  UNL     1      -2.656  -1.383  -0.273  1.00  0.00    -0.062 NA
ATOM      8  H12 UNL     1      -4.229   0.493  -1.070  1.00  0.00     0.158 HD
ATOM      9  H11 UNL     1      -3.414   1.792  -0.235  1.00  0.00     0.158 HD
ATOM     10  H3  UNL     1      -1.757   0.820   1.802  1.00  0.00     0.189 HD
ENDBRANCH   1   4
BRANCH   3  11
HETATM   11  C3  UNL     1       1.627   0.052  -0.959  1.00  0.00     0.276 C 
HETATM   12  O1  UNL     1       2.023  -0.159  -2.111  1.00  0.00    -0.265 OA
HETATM   13  N5  UNL     1       2.617   0.214   0.058  1.00  0.00    -0.272 N 
ATOM     14  H5  UNL     1       2.306   0.388   1.014  1.00  0.00     0.189 HD
BRANCH  13  15
HETATM   15  N6  UNL     1       3.968   0.147  -0.188  1.00  0.00    -0.342 N 
ATOM     16  H62 UNL     1       4.261  -0.028  -1.149  1.00  0.00     0.176 HD
ATOM     17  H61 UNL     1       4.675   0.263   0.538  1.00  0.00     0.176 HD
ENDBRANCH  13  15
ENDBRANCH   3  11
TORSDOF 3
