REMARK  1 active torsions:
REMARK  status: ('A' for Active; 'I' for Inactive)
REMARK       I    between atoms: C1_2  and  N2_4 
REMARK       I    between atoms: N2_4  and  C2_5 
REMARK    1  A    between atoms: N2_4  and  C3_14 
REMARK       I    between atoms: C2_5  and  N3_6 
REMARK       I    between atoms: C2_5  and  N4_10 
ROOT
HETATM    1  N1  UNL     1      -0.212   2.324   0.399  1.00  0.00    -0.040 NA
HETATM    2  C1  UNL     1      -0.716   1.061   0.054  1.00  0.00     0.335 C 
HETATM    3  O1  UNL     1      -2.002   1.013  -0.055  1.00  0.00    -0.251 OA
HETATM    4  N2  UNL     1      -0.016  -0.129  -0.182  1.00  0.00    -0.255 N 
HETATM    5  C2  UNL     1      -0.758  -1.338  -0.543  1.00  0.00     0.487 C 
HETATM    6  N3  UNL     1      -1.678  -1.726   0.498  1.00  0.00    -0.033 N 
ATOM      7  H31 UNL     1      -2.195  -2.568   0.246  1.00  0.00     0.278 HD
ATOM      8  H32 UNL     1      -2.307  -0.962   0.743  1.00  0.00     0.278 HD
ATOM      9  H33 UNL     1      -1.203  -1.834   1.394  1.00  0.00     0.278 HD
HETATM   10  N4  UNL     1      -1.452  -1.055  -1.768  1.00  0.00    -0.033 N 
ATOM     11  H41 UNL     1      -1.969  -1.897  -2.020  1.00  0.00     0.278 HD
ATOM     12  H42 UNL     1      -0.835  -0.726  -2.511  1.00  0.00     0.278 HD
ATOM     13  H43 UNL     1      -2.042  -0.225  -1.712  1.00  0.00     0.278 HD
ENDROOT
BRANCH   4  14
HETATM   14  C3  UNL     1       1.406  -0.245  -0.083  1.00  0.00     0.318 A 
HETATM   15  C4  UNL     1       2.003   0.331   1.196  1.00  0.00     0.289 A 
HETATM   16  N5  UNL     1       2.321   0.833  -0.107  1.00  0.00    -0.049 N 
ATOM     17  H52 UNL     1       3.208   0.970  -0.592  1.00  0.00     0.279 HD
ATOM     18  H51 UNL     1       2.271   1.767  -0.514  1.00  0.00     0.279 HD
ENDBRANCH   4  14
TORSDOF 1
