REMARK  9 active torsions:
REMARK  status: ('A' for Active; 'I' for Inactive)
REMARK    1  A    between atoms: C2_2  and  C3_3 
REMARK    2  A    between atoms: C3_3  and  C4_4 
REMARK    3  A    between atoms: C7_7  and  C8_8 
REMARK    4  A    between atoms: C8_8  and  N3_13 
REMARK    5  A    between atoms: N3_13  and  C10_15 
REMARK    6  A    between atoms: C10_15  and  C11_16 
REMARK    7  A    between atoms: C11_16  and  C12_17 
REMARK    8  A    between atoms: C12_17  and  C13_18 
REMARK    9  A    between atoms: C13_18  and  N4_19 
ROOT
HETATM    1  C8  UNL     1       0.135  -0.374  -0.124  1.00  0.00     0.109 C 
HETATM    2  N1  UNL     1      -0.784   0.434  -0.389  1.00  0.00    -0.281 N 
ATOM      3  H1  UNL     1      -1.669   0.217   0.070  1.00  0.00     0.179 HD
HETATM    4  C9  UNL     1      -0.828   1.525  -1.157  1.00  0.00     0.183 C 
HETATM    5  N2  UNL     1      -0.900   2.485  -1.829  1.00  0.00    -0.172 NA
ENDROOT
BRANCH   1   6
HETATM    6  C7  UNL     1       1.533  -0.367  -0.604  1.00  0.00     0.152 C 
HETATM    7  C6  UNL     1       1.963   0.953  -1.103  1.00  0.00     0.034 C 
HETATM    8  C5  UNL     1       3.518   1.077  -1.032  1.00  0.00     0.017 C 
HETATM    9  C4  UNL     1       3.790   1.113   0.459  1.00  0.00     0.081 C 
HETATM   10  C15 UNL     1       3.518  -0.253   0.965  1.00  0.00     0.222 C 
HETATM   11  N7  UNL     1       2.473  -0.972   0.319  1.00  0.00    -0.349 N 
HETATM   12  O1  UNL     1       4.188  -0.734   1.916  1.00  0.00    -0.273 OA
ATOM     13  H7  UNL     1       2.380  -1.968   0.517  1.00  0.00     0.163 HD
BRANCH   9  14
HETATM   14  C3  UNL     1       5.135   1.645   0.820  1.00  0.00     0.040 C 
BRANCH  14  15
HETATM   15  C2  UNL     1       6.255   0.871   0.259  1.00  0.00    -0.036 C 
HETATM   16  C1  UNL     1       7.132   1.426  -0.553  1.00  0.00     0.007 C 
ENDBRANCH  14  15
ENDBRANCH   9  14
ENDBRANCH   1   6
BRANCH   1  17
HETATM   17  N3  UNL     1      -0.261  -1.490   0.755  1.00  0.00    -0.378 N 
ATOM     18  H3  UNL     1       0.441  -2.158   1.072  1.00  0.00     0.160 HD
BRANCH  17  19
HETATM   19  C10 UNL     1      -1.627  -1.642   1.167  1.00  0.00     0.121 C 
BRANCH  19  20
HETATM   20  C11 UNL     1      -2.581  -2.025   0.087  1.00  0.00     0.021 C 
BRANCH  20  21
HETATM   21  C12 UNL     1      -4.002  -2.166   0.591  1.00  0.00     0.021 C 
BRANCH  21  22
HETATM   22  C13 UNL     1      -4.504  -0.862   1.187  1.00  0.00     0.122 C 
BRANCH  22  23
HETATM   23  N4  UNL     1      -4.483   0.199   0.197  1.00  0.00    -0.367 N 
HETATM   24  C14 UNL     1      -5.505   0.447  -0.553  1.00  0.00     0.196 C 
HETATM   25  N5  UNL     1      -6.693  -0.319  -0.430  1.00  0.00    -0.067 NA
HETATM   26  N6  UNL     1      -5.500   1.481  -1.528  1.00  0.00    -0.067 NA
ATOM     27  H4  UNL     1      -3.640   0.763   0.091  1.00  0.00     0.161 HD
ENDBRANCH  22  23
ENDBRANCH  21  22
ENDBRANCH  20  21
ENDBRANCH  19  20
ENDBRANCH  17  19
ENDBRANCH   1  17
TORSDOF 9
