REMARK  8 active torsions:
REMARK  status: ('A' for Active; 'I' for Inactive)
REMARK    1  A    between atoms: C2_2  and  C3_3 
REMARK    2  A    between atoms: C3_3  and  C4_4 
REMARK    3  A    between atoms: C4_4  and  C5_5 
REMARK    4  A    between atoms: C5_5  and  C6_6 
REMARK    5  A    between atoms: C6_6  and  C7_7 
REMARK    6  A    between atoms: C7_7  and  C8_8 
REMARK    7  A    between atoms: C8_8  and  C9_9 
REMARK    8  A    between atoms: C12_15  and  C13_16 
ROOT
HETATM    1  C9  UNL     1      -0.071  -0.943  -0.653  1.00  0.00     0.104 A 
HETATM    2  N1  UNL     1      -0.460  -0.606  -1.889  1.00  0.00    -0.308 N 
ATOM      3  H1  UNL     1       0.146  -0.555  -2.708  1.00  0.00     0.170 HD
HETATM    4  C10 UNL     1      -1.800  -0.342  -1.875  1.00  0.00     0.273 A 
HETATM    5  O1  UNL     1      -2.435  -0.001  -2.893  1.00  0.00    -0.266 OA
HETATM    6  C11 UNL     1      -2.261  -0.517  -0.610  1.00  0.00     0.102 A 
HETATM    7  C12 UNL     1      -3.460  -0.383  -0.115  1.00  0.00     0.038 C 
HETATM    8  N4  UNL     1      -1.154  -0.890   0.118  1.00  0.00    -0.338 N 
ATOM      9  H4  UNL     1      -1.163  -1.098   1.116  1.00  0.00     0.167 HD
ENDROOT
BRANCH   7  10
HETATM   10  C13 UNL     1      -4.592   0.010  -0.910  1.00  0.00     0.038 C 
HETATM   11  C14 UNL     1      -5.792   0.121  -0.302  1.00  0.00     0.105 A 
HETATM   12  N2  UNL     1      -6.100  -0.104   1.054  1.00  0.00    -0.304 N 
HETATM   13  C16 UNL     1      -7.051   0.508  -0.953  1.00  0.00     0.276 A 
HETATM   14  C15 UNL     1      -7.506   0.128   1.281  1.00  0.00     0.327 A 
ATOM     15  H2  UNL     1      -5.430  -0.388   1.768  1.00  0.00     0.171 HD
HETATM   16  O2  UNL     1      -8.031  -0.005   2.409  1.00  0.00    -0.247 OA
HETATM   17  N3  UNL     1      -8.062   0.502   0.030  1.00  0.00    -0.274 N 
ATOM     18  H3  UNL     1      -9.042   0.731  -0.133  1.00  0.00     0.173 HD
HETATM   19  O3  UNL     1      -7.163   0.787  -2.171  1.00  0.00    -0.266 OA
ENDBRANCH   7  10
BRANCH   1  20
HETATM   20  C8  UNL     1       1.177  -1.266  -0.314  1.00  0.00     0.022 C 
BRANCH  20  21
HETATM   21  C7  UNL     1       1.510  -1.619   1.050  1.00  0.00     0.031 C 
BRANCH  21  22
HETATM   22  C6  UNL     1       2.834  -1.166   1.568  1.00  0.00     0.004 C 
BRANCH  22  23
HETATM   23  C5  UNL     1       3.030   0.291   1.624  1.00  0.00     0.000 C 
BRANCH  23  24
HETATM   24  C4  UNL     1       3.041   1.089   0.384  1.00  0.00     0.000 C 
BRANCH  24  25
HETATM   25  C3  UNL     1       4.148   0.722  -0.587  1.00  0.00    -0.000 C 
BRANCH  25  26
HETATM   26  C2  UNL     1       5.507   0.916   0.057  1.00  0.00    -0.005 C 
HETATM   27  C1  UNL     1       6.539   0.519  -1.001  1.00  0.00     0.005 C 
ENDBRANCH  25  26
ENDBRANCH  24  25
ENDBRANCH  23  24
ENDBRANCH  22  23
ENDBRANCH  21  22
ENDBRANCH  20  21
ENDBRANCH   1  20
TORSDOF 8
