REMARK  8 active torsions:
REMARK  status: ('A' for Active; 'I' for Inactive)
REMARK    1  A    between atoms: C3_3  and  C4_4 
REMARK    2  A    between atoms: C4_4  and  C5_5 
REMARK    3  A    between atoms: C5_5  and  C6_6 
REMARK    4  A    between atoms: C6_6  and  N1_7 
REMARK    5  A    between atoms: N3_14  and  C10_15 
REMARK    6  A    between atoms: C10_15  and  C11_16 
REMARK    7  A    between atoms: C11_16  and  C12_17 
REMARK    8  A    between atoms: C12_17  and  N4_18 
REMARK       I    between atoms: N4_18  and  C13_20 
ROOT
HETATM    1  C1  UNL     1      -7.307   2.102   0.961  1.00  0.00     0.012 C 
HETATM    2  C2  UNL     1      -6.753   1.412   0.144  1.00  0.00    -0.117 C 
HETATM    3  C3  UNL     1      -6.074   0.556  -0.833  1.00  0.00     0.093 C 
ENDROOT
BRANCH   3   4
HETATM    4  C4  UNL     1      -4.829  -0.062  -0.166  1.00  0.00     0.017 C 
BRANCH   4   5
HETATM    5  C5  UNL     1      -3.915   1.032   0.277  1.00  0.00     0.046 C 
BRANCH   5   6
HETATM    6  C6  UNL     1      -2.674   0.651   0.979  1.00  0.00     0.063 C 
BRANCH   6   7
HETATM    7  N1  UNL     1      -1.723  -0.167   0.351  1.00  0.00    -0.371 N 
HETATM    8  C7  UNL     1      -1.951  -1.517   0.115  1.00  0.00     0.082 C 
HETATM    9  C8  UNL     1      -1.614  -2.059  -1.253  1.00  0.00     0.169 C 
HETATM   10  N2  UNL     1      -0.188  -2.410  -1.338  1.00  0.00    -0.338 N 
HETATM   11  C9  UNL     1       0.992  -1.889  -0.710  1.00  0.00     0.318 C 
ATOM     12  H2  UNL     1       0.001  -3.184  -1.975  1.00  0.00     0.164 HD
HETATM   13  O1  UNL     1       1.957  -2.691  -0.798  1.00  0.00    -0.247 OA
HETATM   14  N3  UNL     1       1.296  -0.678  -0.020  1.00  0.00    -0.333 N 
HETATM   15  C14 UNL     1       0.615   0.587   0.078  1.00  0.00     0.147 C 
HETATM   16  C15 UNL     1      -0.796   0.512  -0.507  1.00  0.00     0.147 C 
BRANCH  14  17
HETATM   17  C10 UNL     1       2.483  -0.750   0.749  1.00  0.00     0.129 C 
BRANCH  17  18
HETATM   18  C11 UNL     1       3.776  -0.452   0.114  1.00  0.00     0.039 C 
BRANCH  18  19
HETATM   19  C12 UNL     1       3.995   0.867  -0.509  1.00  0.00     0.123 C 
BRANCH  19  20
HETATM   20  N4  UNL     1       5.340   0.935  -1.041  1.00  0.00    -0.365 N 
HETATM   21  C13 UNL     1       6.453   0.979  -0.192  1.00  0.00     0.181 C 
HETATM   22  N5  UNL     1       7.040   2.140  -0.078  1.00  0.00    -0.374 N 
HETATM   23  N6  UNL     1       7.021  -0.070   0.546  1.00  0.00    -0.064 NA
ATOM     24  H52 UNL     1       6.627   2.903  -0.615  1.00  0.00     0.158 HD
ATOM     25  H51 UNL     1       7.851   2.172   0.540  1.00  0.00     0.158 HD
ATOM     26  H4  UNL     1       5.479   0.951  -2.051  1.00  0.00     0.162 HD
ENDBRANCH  19  20
ENDBRANCH  18  19
ENDBRANCH  17  18
ENDBRANCH  14  17
ENDBRANCH   6   7
ENDBRANCH   5   6
ENDBRANCH   4   5
ENDBRANCH   3   4
TORSDOF 8
