REMARK  2 active torsions:
REMARK  status: ('A' for Active; 'I' for Inactive)
REMARK    1  A    between atoms: N1_11  and  N2_13 
REMARK       I    between atoms: N2_13  and  C10_15 
REMARK    2  A    between atoms: C10_15  and  C11_17 
ROOT
HETATM    1  O1  UNL     1       0.842   0.847   1.418  1.00  0.00    -0.291 OA
HETATM    2  C1  UNL     1       0.104  -0.095   1.050  1.00  0.00     0.173 C 
HETATM    3  C2  UNL     1      -1.233  -0.215   1.682  1.00  0.00     0.085 C 
HETATM    4  C3  UNL     1      -1.993   1.034   1.346  1.00  0.00     0.008 C 
HETATM    5  C4  UNL     1      -3.005   0.926   0.282  1.00  0.00     0.000 C 
HETATM    6  C5  UNL     1      -2.821  -0.184  -0.715  1.00  0.00     0.000 C 
HETATM    7  C6  UNL     1      -1.662   0.126  -1.603  1.00  0.00     0.000 C 
HETATM    8  C7  UNL     1      -0.884  -1.118  -1.967  1.00  0.00     0.006 C 
HETATM    9  C8  UNL     1      -0.280  -1.829  -0.802  1.00  0.00     0.062 C 
HETATM   10  C9  UNL     1       0.617  -0.999   0.031  1.00  0.00     0.071 C 
HETATM   11  N1  UNL     1       1.897  -1.110  -0.184  1.00  0.00    -0.299 N 
ATOM     12  H1  UNL     1       2.205  -1.757  -0.910  1.00  0.00     0.186 HD
ENDROOT
BRANCH  11  13
HETATM   13  N2  UNL     1       2.873  -0.402   0.514  1.00  0.00    -0.266 N 
HETATM   14  C10 UNL     1       3.804   0.375  -0.205  1.00  0.00     0.290 C 
HETATM   15  O2  UNL     1       3.741   0.418  -1.449  1.00  0.00    -0.267 OA
ATOM     16  H2  UNL     1       2.913  -0.445   1.532  1.00  0.00     0.190 HD
BRANCH  14  17
HETATM   17  C11 UNL     1       4.852   1.135   0.509  1.00  0.00     0.271 C 
HETATM   18 CL1  UNL     1       5.888   0.038   1.450  1.00  0.00    -0.073 Cl
HETATM   19 CL2  UNL     1       4.167   2.375   1.580  1.00  0.00    -0.073 Cl
HETATM   20 CL3  UNL     1       5.921   1.942  -0.682  1.00  0.00    -0.073 Cl
ENDBRANCH  14  17
ENDBRANCH  11  13
TORSDOF 2
