REMARK  7 active torsions:
REMARK  status: ('A' for Active; 'I' for Inactive)
REMARK    1  A    between atoms: C3_3  and  N1_4 
REMARK    2  A    between atoms: N1_4  and  C4_5 
REMARK    3  A    between atoms: N1_4  and  N5_16 
REMARK    4  A    between atoms: C4_5  and  C5_6 
REMARK    5  A    between atoms: C7_10  and  N3_11 
REMARK    6  A    between atoms: N5_16  and  N6_18 
REMARK    7  A    between atoms: N6_18  and  N7_20 
ROOT
HETATM    1  C1  UNL     1      -3.065   2.381   0.796  1.00  0.00     0.014 C 
HETATM    2  C2  UNL     1      -2.381   1.701   0.079  1.00  0.00    -0.096 C 
HETATM    3  C3  UNL     1      -1.516   0.884  -0.775  1.00  0.00     0.237 C 
ENDROOT
BRANCH   3   4
HETATM    4  N1  UNL     1      -1.233  -0.357  -0.122  1.00  0.00    -0.296 N 
BRANCH   4   5
HETATM    5  C4  UNL     1      -0.177  -1.197  -0.667  1.00  0.00     0.204 C 
BRANCH   5   6
HETATM    6  C5  UNL     1       1.133  -0.429  -0.536  1.00  0.00     0.061 A 
HETATM    7  C6  UNL     1       1.780   0.324  -1.477  1.00  0.00     0.133 A 
HETATM    8  N2  UNL     1       2.884   0.821  -0.890  1.00  0.00    -0.200 N 
HETATM    9  C7  UNL     1       2.921   0.387   0.391  1.00  0.00     0.676 A 
ATOM     10  H2  UNL     1       3.576   1.423  -1.336  1.00  0.00     0.183 HD
HETATM   11  N4  UNL     1       1.844  -0.381   0.600  1.00  0.00    -0.193 N 
ATOM     12  H4  UNL     1       1.605  -0.849   1.474  1.00  0.00     0.184 HD
BRANCH   9  13
HETATM   13  N3  UNL     1       3.838   0.671   1.247  1.00  0.00    -0.234 N 
ATOM     14  H32 UNL     1       4.658   1.256   1.088  1.00  0.00     0.174 HD
ATOM     15  H31 UNL     1       3.866   0.344   2.213  1.00  0.00     0.174 HD
ENDBRANCH   9  13
ENDBRANCH   5   6
ENDBRANCH   4   5
BRANCH   4  16
HETATM   16  N5  UNL     1      -1.935  -0.778   0.984  1.00  0.00    -0.230 N 
ATOM     17  H5  UNL     1      -2.079  -0.122   1.752  1.00  0.00     0.209 HD
BRANCH  16  18
HETATM   18  N6  UNL     1      -2.419  -1.971   1.089  1.00  0.00    -0.235 N 
ATOM     19  H6  UNL     1      -2.266  -2.613   0.311  1.00  0.00     0.209 HD
BRANCH  18  20
HETATM   20  N7  UNL     1      -3.124  -2.438   2.169  1.00  0.00    -0.330 N 
ATOM     21  H72 UNL     1      -3.268  -1.782   2.937  1.00  0.00     0.178 HD
ATOM     22  H71 UNL     1      -3.506  -3.380   2.252  1.00  0.00     0.178 HD
ENDBRANCH  18  20
ENDBRANCH  16  18
ENDBRANCH   4  16
ENDBRANCH   3   4
TORSDOF 7
