REMARK  6 active torsions:
REMARK  status: ('A' for Active; 'I' for Inactive)
REMARK    1  A    between atoms: C2_2  and  N1_3 
REMARK    2  A    between atoms: N1_3  and  C3_5 
REMARK    3  A    between atoms: C4_10  and  N4_11 
REMARK    4  A    between atoms: N4_11  and  C5_13 
REMARK    5  A    between atoms: C5_13  and  C6_14 
REMARK    6  A    between atoms: C6_14  and  N5_15 
ROOT
HETATM    1  C3  UNL     1      -1.581  -0.198   0.463  1.00  0.00     0.707 A 
HETATM    2  N2  UNL     1      -0.994   0.637  -0.414  1.00  0.00    -0.117 N 
ATOM      3  H2  UNL     1      -1.483   1.298  -1.017  1.00  0.00     0.206 HD
HETATM    4  N3  UNL     1       0.301   0.468  -0.372  1.00  0.00    -0.117 N 
ATOM      5  H3  UNL     1       0.981   0.977  -0.937  1.00  0.00     0.206 HD
HETATM    6  C4  UNL     1       0.596  -0.482   0.533  1.00  0.00     0.707 A 
HETATM    7  N6  UNL     1      -0.584  -0.883   1.042  1.00  0.00    -0.020 N 
ATOM      8  H6  UNL     1      -0.702  -1.599   1.759  1.00  0.00     0.203 HD
ENDROOT
BRANCH   6   9
HETATM    9  N4  UNL     1       1.787  -0.919   0.848  1.00  0.00    -0.223 N 
ATOM     10  H4  UNL     1       1.902  -1.647   1.553  1.00  0.00     0.177 HD
BRANCH   9  11
HETATM   11  C5  UNL     1       2.926  -0.361   0.190  1.00  0.00     0.165 C 
BRANCH  11  12
HETATM   12  C6  UNL     1       4.185  -0.465   1.027  1.00  0.00     0.249 C 
BRANCH  12  13
HETATM   13  N5  UNL     1       5.260   0.136   0.245  1.00  0.00    -0.078 N 
ATOM     14  H53 UNL     1       5.359  -0.274  -0.684  1.00  0.00     0.274 HD
ATOM     15  H52 UNL     1       5.054   1.089  -0.056  1.00  0.00     0.274 HD
ATOM     16  H51 UNL     1       6.107   0.066   0.808  1.00  0.00     0.274 HD
ENDBRANCH  12  13
ENDBRANCH  11  12
ENDBRANCH   9  11
ENDBRANCH   6   9
BRANCH   1  17
HETATM   17  N1  UNL     1      -2.852  -0.304   0.690  1.00  0.00    -0.225 N 
ATOM     18  H1  UNL     1      -3.197  -0.971   1.380  1.00  0.00     0.177 HD
BRANCH  17  19
HETATM   19  C2  UNL     1      -3.778   0.533  -0.044  1.00  0.00     0.134 C 
HETATM   20  C1  UNL     1      -5.185   0.103   0.314  1.00  0.00     0.027 C 
ENDBRANCH  17  19
ENDBRANCH   1  17
TORSDOF 6
