REMARK  3 active torsions:
REMARK  status: ('A' for Active; 'I' for Inactive)
REMARK    1  A    between atoms: N1_3  and  O1_4 
REMARK    2  A    between atoms: C5_9  and  C6_10 
REMARK    3  A    between atoms: N2_11  and  C7_13 
ROOT
HETATM    1  C6  UNL     1      -0.202   0.122  -0.010  1.00  0.00     0.104 C 
HETATM    2  N2  UNL     1       0.763  -0.651  -0.350  1.00  0.00    -0.347 N 
ATOM      3  H2  UNL     1       0.554  -1.590  -0.689  1.00  0.00     0.167 HD
ENDROOT
BRANCH   2   4
HETATM    4  C7  UNL     1       2.100  -0.234  -0.266  1.00  0.00     0.174 A 
HETATM    5  N3  UNL     1       2.517   0.840  -0.960  1.00  0.00    -0.346 N 
HETATM    6  C8  UNL     1       3.788   1.288  -0.919  1.00  0.00     0.107 A 
ATOM      7  H3  UNL     1       1.843   1.337  -1.542  1.00  0.00     0.167 HD
HETATM    8  C9  UNL     1       4.686   0.600  -0.125  1.00  0.00     0.108 A 
HETATM    9  N4  UNL     1       4.292  -0.477   0.578  1.00  0.00    -0.329 N 
HETATM   10  C10 UNL     1       3.012  -0.904   0.519  1.00  0.00     0.289 A 
ATOM     11  H4  UNL     1       4.965  -0.975   1.160  1.00  0.00     0.168 HD
HETATM   12  O2  UNL     1       2.660  -1.919   1.188  1.00  0.00    -0.264 OA
ENDBRANCH   2   4
BRANCH   1  13
HETATM   13  C5  UNL     1      -1.601  -0.348  -0.110  1.00  0.00     0.023 A 
HETATM   14  C2  UNL     1      -2.771   0.405   0.233  1.00  0.00     0.044 A 
HETATM   15  C1  UNL     1      -2.781   1.818   0.761  1.00  0.00     0.071 C 
HETATM   16  N1  UNL     1      -3.825  -0.301   0.026  1.00  0.00    -0.260 N 
HETATM   17  C3  UNL     1      -3.445  -1.597  -0.478  1.00  0.00     0.208 A 
HETATM   18  C4  UNL     1      -1.976  -1.534  -0.533  1.00  0.00     0.045 A 
HETATM   19 CL1  UNL     1      -0.921  -2.825  -1.071  1.00  0.00    -0.086 Cl
BRANCH  16  20
HETATM   20  O1  UNL     1      -5.112   0.163   0.268  1.00  0.00    -0.287 OA
ATOM     21  H1  UNL     1      -5.891  -0.359   0.115  1.00  0.00     0.244 HD
ENDBRANCH  16  20
ENDBRANCH   1  13
TORSDOF 3
