REMARK  4 active torsions:
REMARK  status: ('A' for Active; 'I' for Inactive)
REMARK    1  A    between atoms: N1_2  and  C2_3 
REMARK    2  A    between atoms: N1_2  and  C7_11 
REMARK    3  A    between atoms: C2_3  and  C3_4 
REMARK    4  A    between atoms: N2_8  and  O1_9 
ROOT
HETATM    1  C7  UNL     1       1.355  -0.389  -0.031  1.00  0.00     0.118 A 
HETATM    2  C8  UNL     1       1.686   0.293  -1.158  1.00  0.00     0.126 A 
HETATM    3  N3  UNL     1       2.764   1.140  -1.202  1.00  0.00    -0.340 N 
ATOM      4  H3  UNL     1       2.988   1.638  -2.064  1.00  0.00     0.167 HD
HETATM    5  C9  UNL     1       3.514   1.310  -0.123  1.00  0.00     0.181 A 
HETATM    6 CL1  UNL     1       4.899   2.396  -0.188  1.00  0.00    -0.045 Cl
HETATM    7  N4  UNL     1       3.203   0.648   0.997  1.00  0.00    -0.298 N 
ATOM      8  H4  UNL     1       3.790   0.791   1.819  1.00  0.00     0.171 HD
HETATM    9  C10 UNL     1       2.169  -0.188   1.099  1.00  0.00     0.276 A 
HETATM   10  O2  UNL     1       1.904  -0.799   2.174  1.00  0.00    -0.266 OA
ENDROOT
BRANCH   1  11
HETATM   11  N1  UNL     1       0.308  -1.307   0.042  1.00  0.00    -0.353 N 
HETATM   12  C1  UNL     1       0.825  -2.732   0.086  1.00  0.00     0.156 C 
BRANCH  11  13
HETATM   13  C2  UNL     1      -1.083  -1.204   0.174  1.00  0.00     0.122 C 
BRANCH  13  14
HETATM   14  C3  UNL     1      -1.825   0.009  -0.085  1.00  0.00     0.073 A 
HETATM   15  C4  UNL     1      -2.478   0.667   0.904  1.00  0.00     0.012 A 
HETATM   16  C5  UNL     1      -3.134   1.841   0.331  1.00  0.00     0.077 A 
HETATM   17  C6  UNL     1      -2.792   1.731  -1.101  1.00  0.00     0.100 A 
HETATM   18  N2  UNL     1      -2.053   0.693  -1.301  1.00  0.00    -0.239 N 
BRANCH  18  19
HETATM   19  O1  UNL     1      -1.609   0.323  -2.575  1.00  0.00    -0.283 OA
ATOM     20  H1  UNL     1      -1.762   0.783  -3.392  1.00  0.00     0.245 HD
ENDBRANCH  18  19
ENDBRANCH  13  14
ENDBRANCH  11  13
ENDBRANCH   1  11
TORSDOF 4
