REMARK  7 active torsions:
REMARK  status: ('A' for Active; 'I' for Inactive)
REMARK    1  A    between atoms: C3_3  and  C4_4 
REMARK    2  A    between atoms: C4_4  and  C15_18 
REMARK    3  A    between atoms: C5_5  and  C6_6 
REMARK    4  A    between atoms: C6_6  and  C7_7 
REMARK    5  A    between atoms: C8_9  and  C9_10 
REMARK    6  A    between atoms: C14_15  and  O2_16 
REMARK    7  A    between atoms: C18_21  and  C19_22 
ROOT
HETATM    1  C4  UNL     1      -0.518  -0.838  -0.773  1.00  0.00    -0.025 C 
HETATM    2  C5  UNL     1      -1.505   0.026  -0.743  1.00  0.00     0.026 C 
ENDROOT
BRANCH   1   3
HETATM    3  C3  UNL     1      -0.500  -1.755  -1.935  1.00  0.00     0.008 C 
HETATM    4  C2  UNL     1       0.290  -2.666  -2.301  1.00  0.00    -0.030 C 
HETATM    5  C1  UNL     1       1.525  -3.197  -1.732  1.00  0.00     0.036 C 
ENDBRANCH   1   3
BRANCH   1   6
HETATM    6  C15 UNL     1       0.579  -0.813   0.136  1.00  0.00    -0.026 A 
HETATM    7  C16 UNL     1       1.419   0.313   0.096  1.00  0.00     0.013 A 
HETATM    8  C17 UNL     1       2.442   0.412   1.007  1.00  0.00     0.013 A 
HETATM    9  C18 UNL     1       2.707  -0.517   1.963  1.00  0.00    -0.026 A 
HETATM   10  C24 UNL     1       1.891  -1.631   2.018  1.00  0.00     0.013 A 
HETATM   11  C25 UNL     1       0.853  -1.767   1.120  1.00  0.00     0.013 A 
BRANCH   9  12
HETATM   12  C19 UNL     1       3.820  -0.375   2.923  1.00  0.00    -0.030 A 
HETATM   13  C20 UNL     1       4.659   0.641   2.954  1.00  0.00    -0.011 A 
HETATM   14  C21 UNL     1       5.628   0.427   4.046  1.00  0.00     0.055 A 
HETATM   15  C22 UNL     1       5.221  -0.860   4.636  1.00  0.00    -0.022 A 
HETATM   16  C23 UNL     1       4.175  -1.296   3.965  1.00  0.00     0.008 A 
ENDBRANCH   9  12
ENDBRANCH   1   6
BRANCH   2  17
HETATM   17  C6  UNL     1      -1.941   1.045   0.120  1.00  0.00     0.003 C 
HETATM   18  C8  UNL     1      -3.017   1.796  -0.186  1.00  0.00     0.028 C 
BRANCH  17  19
HETATM   19  C7  UNL     1      -1.386   1.288   1.449  1.00  0.00     0.269 C 
HETATM   20  O1  UNL     1      -1.883   2.295   2.091  1.00  0.00    -0.301 OA
ENDBRANCH  17  19
BRANCH  18  21
HETATM   21  C9  UNL     1      -3.830   1.678  -1.349  1.00  0.00    -0.002 A 
HETATM   22  C10 UNL     1      -4.488   0.507  -1.654  1.00  0.00     0.014 A 
HETATM   23  C11 UNL     1      -5.255   0.425  -2.791  1.00  0.00     0.001 A 
HETATM   24  C12 UNL     1      -5.408   1.477  -3.667  1.00  0.00     0.003 A 
HETATM   25  C13 UNL     1      -4.752   2.644  -3.361  1.00  0.00     0.037 A 
HETATM   26  C14 UNL     1      -3.976   2.761  -2.233  1.00  0.00     0.075 A 
BRANCH  26  27
HETATM   27  O2  UNL     1      -3.309   3.934  -1.913  1.00  0.00    -0.360 OA
ATOM     28  H2  UNL     1      -3.408   4.666  -2.510  1.00  0.00     0.217 HD
ENDBRANCH  26  27
ENDBRANCH  18  21
ENDBRANCH   2  17
TORSDOF 7
