REMARK  6 active torsions:
REMARK  status: ('A' for Active; 'I' for Inactive)
REMARK    1  A    between atoms: C3_3  and  C5_5 
REMARK    2  A    between atoms: C5_5  and  C6_6 
REMARK    3  A    between atoms: C6_6  and  C7_7 
REMARK    4  A    between atoms: C7_7  and  C8_8 
REMARK    5  A    between atoms: C13_13  and  C14_14 
REMARK    6  A    between atoms: C14_14  and  C15_15 
ROOT
HETATM    1  C14 UNL     1       1.000  -0.537   0.820  1.00  0.00    -0.116 C 
ENDROOT
BRANCH   1   2
HETATM    2  C13 UNL     1      -0.257  -0.564   0.332  1.00  0.00     0.064 C 
HETATM    3  C12 UNL     1      -0.580  -0.350  -0.971  1.00  0.00    -0.044 C 
HETATM    4  C8  UNL     1      -1.940  -0.386  -1.480  1.00  0.00    -0.055 C 
HETATM    5  C11 UNL     1       0.305  -0.034  -2.098  1.00  0.00     0.043 C 
HETATM    6  C9  UNL     1      -1.934  -0.352  -2.799  1.00  0.00    -0.019 C 
HETATM    7  C10 UNL     1      -0.546  -0.293  -3.311  1.00  0.00     0.032 C 
BRANCH   4   8
HETATM    8  C7  UNL     1      -3.182  -0.449  -0.630  1.00  0.00     0.039 C 
BRANCH   8   9
HETATM    9  C6  UNL     1      -4.365  -0.461  -1.521  1.00  0.00     0.009 C 
BRANCH   9  10
HETATM   10  C5  UNL     1      -5.672  -0.535  -0.758  1.00  0.00     0.034 C 
BRANCH  10  11
HETATM   11  C3  UNL     1      -5.857   0.578   0.168  1.00  0.00    -0.088 C 
HETATM   12  C2  UNL     1      -6.000   0.363   1.455  1.00  0.00    -0.029 C 
HETATM   13  C1  UNL     1      -5.981  -1.032   1.962  1.00  0.00     0.036 C 
HETATM   14  C4  UNL     1      -5.880   1.989  -0.309  1.00  0.00     0.043 C 
ENDBRANCH  10  11
ENDBRANCH   9  10
ENDBRANCH   8   9
ENDBRANCH   4   8
ENDBRANCH   1   2
BRANCH   1  15
HETATM   15  C15 UNL     1       2.215  -0.511   1.292  1.00  0.00     0.045 C 
HETATM   16  C16 UNL     1       3.206  -0.204   0.170  1.00  0.00     0.091 C 
HETATM   17  C17 UNL     1       4.576   0.052   0.610  1.00  0.00    -0.038 A 
HETATM   18  C18 UNL     1       5.463   0.483  -0.397  1.00  0.00     0.015 A 
HETATM   19  C23 UNL     1       5.106  -0.114   1.852  1.00  0.00     0.025 A 
HETATM   20  C19 UNL     1       6.784   0.717  -0.138  1.00  0.00    -0.061 A 
HETATM   21  C20 UNL     1       7.685   1.173  -1.246  1.00  0.00     0.048 C 
HETATM   22  C21 UNL     1       7.313   0.544   1.124  1.00  0.00     0.007 A 
HETATM   23  C22 UNL     1       6.452   0.126   2.109  1.00  0.00     0.017 A 
HETATM   24  C24 UNL     1       4.202  -0.511   2.923  1.00  0.00     0.233 C 
HETATM   25  O1  UNL     1       4.632  -0.686   4.080  1.00  0.00    -0.283 OA
HETATM   26  C25 UNL     1       2.767  -0.698   2.593  1.00  0.00     0.236 C 
HETATM   27  O2  UNL     1       2.000  -1.051   3.551  1.00  0.00    -0.283 OA
ENDBRANCH   1  15
TORSDOF 6
