REMARK  15 active torsions:
REMARK  status: ('A' for Active; 'I' for Inactive)
REMARK    1  A    between atoms: C4_4  and  O1_5 
REMARK    2  A    between atoms: O1_5  and  C5_6 
REMARK    3  A    between atoms: C5_6  and  C6_7 
REMARK    4  A    between atoms: C6_7  and  O2_8 
REMARK    5  A    between atoms: O2_8  and  C7_9 
REMARK    6  A    between atoms: C7_9  and  C8_10 
REMARK    7  A    between atoms: C8_10  and  C9_11 
REMARK    8  A    between atoms: C9_11  and  N1_12 
REMARK    9  A    between atoms: N1_12  and  C10_14 
REMARK   10  A    between atoms: C10_14  and  C11_15 
REMARK   11  A    between atoms: C11_15  and  C12_16 
REMARK   12  A    between atoms: C12_16  and  C13_17 
REMARK   13  A    between atoms: C13_17  and  N2_18 
REMARK   14  A    between atoms: N2_18  and  C14_20 
REMARK   15  A    between atoms: C14_20  and  C15_21 
ROOT
HETATM    1  N1  UNL     1      -0.674  -0.789   1.186  1.00  0.00    -0.382 N 
ATOM      2  H1  UNL     1      -1.066  -1.016   2.100  1.00  0.00     0.163 HD
ENDROOT
BRANCH   1   3
HETATM    3  C9  UNL     1      -1.463  -0.957   0.072  1.00  0.00     0.062 C 
BRANCH   3   4
HETATM    4  C8  UNL     1      -1.986   0.306  -0.543  1.00  0.00     0.070 C 
BRANCH   4   5
HETATM    5  C7  UNL     1      -2.799   1.022   0.514  1.00  0.00     0.172 C 
BRANCH   5   6
HETATM    6  O2  UNL     1      -3.348   2.188   0.199  1.00  0.00    -0.389 OA
BRANCH   6   7
HETATM    7  C6  UNL     1      -4.238   2.415  -0.754  1.00  0.00     0.194 C 
BRANCH   7   8
HETATM    8  C5  UNL     1      -5.551   1.721  -0.534  1.00  0.00     0.201 C 
BRANCH   8   9
HETATM    9  O1  UNL     1      -5.396   0.335  -0.476  1.00  0.00    -0.349 OA
BRANCH   9  10
HETATM   10  C4  UNL     1      -6.484  -0.513  -0.295  1.00  0.00     0.068 A 
HETATM   11  C3  UNL     1      -7.776  -0.051  -0.165  1.00  0.00     0.037 A 
HETATM   12  C2  UNL     1      -8.820  -0.931   0.012  1.00  0.00     0.003 A 
HETATM   13  C1  UNL     1      -8.636  -2.296   0.069  1.00  0.00     0.000 A 
HETATM   14  C21 UNL     1      -7.341  -2.763  -0.060  1.00  0.00     0.003 A 
HETATM   15  C20 UNL     1      -6.291  -1.873  -0.239  1.00  0.00     0.037 A 
ENDBRANCH   9  10
ENDBRANCH   8   9
ENDBRANCH   7   8
ENDBRANCH   6   7
ENDBRANCH   5   6
ENDBRANCH   4   5
ENDBRANCH   3   4
ENDBRANCH   1   3
BRANCH   1  16
HETATM   16  C10 UNL     1       0.633  -0.324   1.122  1.00  0.00     0.060 C 
BRANCH  16  17
HETATM   17  C11 UNL     1       0.958   1.061   0.752  1.00  0.00     0.049 C 
BRANCH  17  18
HETATM   18  C12 UNL     1       2.370   1.494   0.877  1.00  0.00     0.049 C 
BRANCH  18  19
HETATM   19  C13 UNL     1       3.445   0.910   0.042  1.00  0.00     0.056 C 
BRANCH  19  20
HETATM   20  N2  UNL     1       3.683  -0.467   0.125  1.00  0.00    -0.402 N 
ATOM     21  H2  UNL     1       2.956  -1.083   0.490  1.00  0.00     0.158 HD
BRANCH  20  22
HETATM   22  C14 UNL     1       4.928  -1.019  -0.294  1.00  0.00     0.123 C 
BRANCH  22  23
HETATM   23  C15 UNL     1       6.141  -0.857   0.532  1.00  0.00     0.003 C 
HETATM   24  C16 UNL     1       6.680   0.489   0.833  1.00  0.00     0.006 C 
HETATM   25  C17 UNL     1       7.226   0.956  -0.505  1.00  0.00     0.000 C 
HETATM   26  C18 UNL     1       7.593  -0.322  -1.246  1.00  0.00     0.000 C 
HETATM   27  C19 UNL     1       7.325  -1.448  -0.276  1.00  0.00     0.006 C 
ENDBRANCH  22  23
ENDBRANCH  20  22
ENDBRANCH  19  20
ENDBRANCH  18  19
ENDBRANCH  17  18
ENDBRANCH  16  17
ENDBRANCH   1  16
TORSDOF 15
