REMARK  15 active torsions:
REMARK  status: ('A' for Active; 'I' for Inactive)
REMARK    1  A    between atoms: C1_1  and  C2_2 
REMARK    2  A    between atoms: C1_1  and  C10_11 
REMARK    3  A    between atoms: C2_2  and  C3_3 
REMARK    4  A    between atoms: C3_3  and  C4_4 
REMARK    5  A    between atoms: C4_4  and  C5_5 
REMARK    6  A    between atoms: C10_11  and  C11_12 
REMARK    7  A    between atoms: C11_12  and  N1_13 
REMARK    8  A    between atoms: N1_13  and  C12_15 
REMARK    9  A    between atoms: C12_15  and  C13_16 
REMARK   10  A    between atoms: C13_16  and  C14_17 
REMARK   11  A    between atoms: C14_17  and  C15_18 
REMARK   12  A    between atoms: C15_18  and  N2_19 
REMARK   13  A    between atoms: N2_19  and  C16_21 
REMARK   14  A    between atoms: C16_21  and  C17_22 
REMARK   15  A    between atoms: C17_22  and  N3_23 
ROOT
HETATM    1  N1  UNL     1       0.092  -0.988  -0.888  1.00  0.00    -0.421 N 
ATOM      2  H1  UNL     1       0.318  -0.025  -0.640  1.00  0.00     0.153 HD
ENDROOT
BRANCH   1   3
HETATM    3  C11 UNL     1       0.764  -2.106  -0.298  1.00  0.00     0.113 C 
BRANCH   3   4
HETATM    4  C10 UNL     1       1.826  -1.478   0.641  1.00  0.00     0.019 C 
BRANCH   4   5
HETATM    5  C1  UNL     1       2.715  -0.598  -0.223  1.00  0.00     0.002 C 
BRANCH   5   6
HETATM    6  C2  UNL     1       3.769   0.040   0.648  1.00  0.00     0.000 C 
BRANCH   6   7
HETATM    7  C3  UNL     1       4.604   0.929  -0.257  1.00  0.00     0.002 C 
BRANCH   7   8
HETATM    8  C4  UNL     1       5.691   1.610   0.496  1.00  0.00     0.032 C 
BRANCH   8   9
HETATM    9  C5  UNL     1       6.643   0.620   1.123  1.00  0.00     0.121 C 
HETATM   10  C6  UNL     1       7.295  -0.259   0.075  1.00  0.00     0.032 C 
HETATM   11  C7  UNL     1       7.955   0.669  -0.926  1.00  0.00     0.004 C 
HETATM   12  C8  UNL     1       9.014   1.454  -0.166  1.00  0.00     0.026 C 
HETATM   13  C9  UNL     1       8.455   2.065   1.074  1.00  0.00     0.168 C 
HETATM   14  O1  UNL     1       7.637   1.266   1.826  1.00  0.00    -0.386 OA
ENDBRANCH   8   9
ENDBRANCH   7   8
ENDBRANCH   6   7
ENDBRANCH   5   6
ENDBRANCH   4   5
ENDBRANCH   3   4
ENDBRANCH   1   3
BRANCH   1  15
HETATM   15  C12 UNL     1      -0.904  -1.307  -1.835  1.00  0.00     0.113 C 
BRANCH  15  16
HETATM   16  C13 UNL     1      -2.141  -1.950  -1.290  1.00  0.00     0.021 C 
BRANCH  16  17
HETATM   17  C14 UNL     1      -2.776  -1.010  -0.276  1.00  0.00     0.021 C 
BRANCH  17  18
HETATM   18  C15 UNL     1      -4.050  -1.633   0.209  1.00  0.00     0.114 C 
BRANCH  18  19
HETATM   19  N2  UNL     1      -4.719  -0.797   1.186  1.00  0.00    -0.417 N 
ATOM     20  H2  UNL     1      -4.288   0.043   1.572  1.00  0.00     0.153 HD
BRANCH  19  21
HETATM   21  C16 UNL     1      -6.014  -1.228   1.568  1.00  0.00     0.158 C 
BRANCH  21  22
HETATM   22  C17 UNL     1      -7.101  -1.101   0.563  1.00  0.00     0.077 C 
BRANCH  22  23
HETATM   23  N3  UNL     1      -7.465   0.146   0.082  1.00  0.00    -0.392 N 
HETATM   24  C18 UNL     1      -6.647   0.922  -0.743  1.00  0.00     0.122 C 
HETATM   25  C19 UNL     1      -6.895   2.369  -0.254  1.00  0.00     0.021 C 
HETATM   26  C20 UNL     1      -8.382   2.252   0.099  1.00  0.00     0.021 C 
HETATM   27  C21 UNL     1      -8.398   0.918   0.808  1.00  0.00     0.122 C 
ENDBRANCH  22  23
ENDBRANCH  21  22
ENDBRANCH  19  21
ENDBRANCH  18  19
ENDBRANCH  17  18
ENDBRANCH  16  17
ENDBRANCH  15  16
ENDBRANCH   1  15
TORSDOF 15
