REMARK  17 active torsions:
REMARK  status: ('A' for Active; 'I' for Inactive)
REMARK    1  A    between atoms: N1_1  and  C1_5 
REMARK    2  A    between atoms: C1_5  and  C2_6 
REMARK    3  A    between atoms: C2_6  and  C3_7 
REMARK    4  A    between atoms: C3_7  and  C4_8 
REMARK    5  A    between atoms: C4_8  and  N2_9 
REMARK    6  A    between atoms: N2_9  and  C5_12 
REMARK    7  A    between atoms: C5_12  and  O1_13 
REMARK    8  A    between atoms: O1_13  and  C6_14 
REMARK    9  A    between atoms: C6_14  and  C7_15 
REMARK   10  A    between atoms: C7_15  and  C8_16 
REMARK   11  A    between atoms: C8_16  and  C9_17 
REMARK   12  A    between atoms: C14_22  and  C15_23 
REMARK   13  A    between atoms: C15_23  and  C16_24 
REMARK   14  A    between atoms: C17_25  and  C18_26 
REMARK   15  A    between atoms: C18_26  and  C19_27 
REMARK   16  A    between atoms: C19_27  and  C20_28 
REMARK   17  A    between atoms: C20_28  and  C21_29 
ROOT
HETATM    1  C7  UNL     1      -0.248  -0.933   2.327  1.00  0.00     0.027 C 
ENDROOT
BRANCH   1   2
HETATM    2  C6  UNL     1      -1.611  -1.221   1.802  1.00  0.00     0.170 C 
BRANCH   2   3
HETATM    3  O1  UNL     1      -2.474  -0.130   1.836  1.00  0.00    -0.364 OA
BRANCH   3   4
HETATM    4  C5  UNL     1      -3.694  -0.504   1.328  1.00  0.00     0.399 C 
BRANCH   4   5
HETATM    5  N2  UNL     1      -4.666   0.551   1.316  1.00  0.00    -0.054 N 
ATOM      6  H22 UNL     1      -4.304   1.366   0.820  1.00  0.00     0.279 HD
ATOM      7  H21 UNL     1      -4.773   0.950   2.248  1.00  0.00     0.279 HD
BRANCH   5   8
HETATM    8  C4  UNL     1      -5.935   0.164   0.787  1.00  0.00     0.235 C 
BRANCH   8   9
HETATM    9  C3  UNL     1      -5.891  -0.128  -0.682  1.00  0.00     0.029 C 
BRANCH   9  10
HETATM   10  C2  UNL     1      -7.235  -0.531  -1.198  1.00  0.00     0.029 C 
BRANCH  10  11
HETATM   11  C1  UNL     1      -8.291   0.518  -1.007  1.00  0.00     0.229 C 
BRANCH  11  12
HETATM   12  N1  UNL     1      -7.975   1.756  -1.678  1.00  0.00    -0.079 N 
ATOM     13  H13 UNL     1      -7.059   2.103  -1.393  1.00  0.00     0.274 HD
ATOM     14  H12 UNL     1      -7.791   1.598  -2.669  1.00  0.00     0.274 HD
ATOM     15  H11 UNL     1      -8.693   2.469  -1.548  1.00  0.00     0.274 HD
ENDBRANCH  11  12
ENDBRANCH  10  11
ENDBRANCH   9  10
ENDBRANCH   8   9
ENDBRANCH   5   8
ENDBRANCH   4   5
ENDBRANCH   3   4
ENDBRANCH   2   3
ENDBRANCH   1   2
BRANCH   1  16
HETATM   16  C8  UNL     1       0.574   0.095   1.685  1.00  0.00     0.011 C 
BRANCH  16  17
HETATM   17  C9  UNL     1       0.992  -0.026   0.279  1.00  0.00     0.012 C 
HETATM   18  C10 UNL     1      -0.043  -0.057  -0.766  1.00  0.00    -0.026 C 
HETATM   19  C11 UNL     1       0.433  -0.077  -2.037  1.00  0.00    -0.030 C 
HETATM   20  C12 UNL     1       1.902  -0.066  -2.197  1.00  0.00     0.027 C 
HETATM   21  C13 UNL     1       2.441  -1.192  -1.344  1.00  0.00     0.009 C 
HETATM   22  C14 UNL     1       1.966  -1.181   0.068  1.00  0.00    -0.003 C 
BRANCH  22  23
HETATM   23  C15 UNL     1       3.131  -1.081   1.034  1.00  0.00     0.032 C 
BRANCH  23  24
HETATM   24  C16 UNL     1       3.896   0.169   0.873  1.00  0.00    -0.030 C 
HETATM   25  C17 UNL     1       5.191   0.194   0.557  1.00  0.00    -0.031 C 
BRANCH  25  26
HETATM   26  C18 UNL     1       5.960   1.443   0.395  1.00  0.00     0.027 C 
BRANCH  26  27
HETATM   27  C19 UNL     1       6.551   1.610  -0.971  1.00  0.00     0.011 C 
BRANCH  27  28
HETATM   28  C20 UNL     1       7.501   0.531  -1.373  1.00  0.00     0.069 C 
BRANCH  28  29
HETATM   29  C21 UNL     1       8.665   0.413  -0.474  1.00  0.00     0.231 C 
HETATM   30  O2  UNL     1       9.508  -0.432  -0.707  1.00  0.00    -0.307 OA
ENDBRANCH  28  29
ENDBRANCH  27  28
ENDBRANCH  26  27
ENDBRANCH  25  26
ENDBRANCH  23  24
ENDBRANCH  22  23
ENDBRANCH  16  17
ENDBRANCH   1  16
TORSDOF 17
