REMARK  16 active torsions:
REMARK  status: ('A' for Active; 'I' for Inactive)
REMARK       I    between atoms: C1_2  and  N2_4 
REMARK    1  A    between atoms: N2_4  and  C2_6 
REMARK    2  A    between atoms: C2_6  and  C3_7 
REMARK    3  A    between atoms: C3_7  and  C4_8 
REMARK    4  A    between atoms: C4_8  and  C5_9 
REMARK    5  A    between atoms: C5_9  and  C6_10 
REMARK    6  A    between atoms: C6_10  and  C7_11 
REMARK    7  A    between atoms: C8_12  and  C9_13 
REMARK    8  A    between atoms: C9_13  and  C10_14 
REMARK    9  A    between atoms: C11_15  and  C12_16 
REMARK   10  A    between atoms: C12_16  and  C13_17 
REMARK   11  A    between atoms: C14_18  and  C15_19 
REMARK   12  A    between atoms: C15_19  and  C16_20 
REMARK   13  A    between atoms: C16_20  and  C17_21 
REMARK   14  A    between atoms: C17_21  and  C18_22 
REMARK   15  A    between atoms: C18_22  and  O3_24 
REMARK   16  A    between atoms: O3_24  and  C19_25 
ROOT
HETATM    1  C10 UNL     1       0.028  -2.175   1.006  1.00  0.00    -0.027 C 
HETATM    2  C11 UNL     1      -1.147  -2.526   1.468  1.00  0.00    -0.027 C 
ENDROOT
BRANCH   1   3
HETATM    3  C9  UNL     1       0.941  -3.004   0.161  1.00  0.00     0.053 C 
BRANCH   3   4
HETATM    4  C8  UNL     1       2.236  -3.220   0.825  1.00  0.00    -0.027 C 
HETATM    5  C7  UNL     1       3.383  -2.853   0.361  1.00  0.00    -0.030 C 
BRANCH   5   6
HETATM    6  C6  UNL     1       3.612  -2.158  -0.908  1.00  0.00     0.027 C 
BRANCH   6   7
HETATM    7  C5  UNL     1       4.285  -0.817  -0.555  1.00  0.00     0.004 C 
BRANCH   7   8
HETATM    8  C4  UNL     1       3.322  -0.094   0.331  1.00  0.00     0.002 C 
BRANCH   8   9
HETATM    9  C3  UNL     1       3.818   1.254   0.796  1.00  0.00     0.020 C 
BRANCH   9  10
HETATM   10  C2  UNL     1       4.069   2.137  -0.394  1.00  0.00     0.124 C 
BRANCH  10  11
HETATM   11  N2  UNL     1       4.526   3.461  -0.043  1.00  0.00    -0.345 N 
HETATM   12  C1  UNL     1       5.731   3.648   0.642  1.00  0.00     0.328 C 
HETATM   13  N1  UNL     1       6.163   4.953   0.988  1.00  0.00    -0.040 NA
HETATM   14  O1  UNL     1       6.453   2.699   0.968  1.00  0.00    -0.251 OA
ATOM     15  H2  UNL     1       3.962   4.272  -0.298  1.00  0.00     0.163 HD
ENDBRANCH  10  11
ENDBRANCH   9  10
ENDBRANCH   8   9
ENDBRANCH   7   8
ENDBRANCH   6   7
ENDBRANCH   5   6
ENDBRANCH   3   4
ENDBRANCH   1   3
BRANCH   2  16
HETATM   16  C12 UNL     1      -1.842  -3.815   1.267  1.00  0.00     0.053 C 
BRANCH  16  17
HETATM   17  C13 UNL     1      -3.143  -3.543   0.568  1.00  0.00    -0.027 C 
HETATM   18  C14 UNL     1      -3.492  -2.325   0.235  1.00  0.00    -0.030 C 
BRANCH  18  19
HETATM   19  C15 UNL     1      -4.809  -2.097  -0.467  1.00  0.00     0.027 C 
BRANCH  19  20
HETATM   20  C16 UNL     1      -4.505  -1.477  -1.785  1.00  0.00     0.013 C 
BRANCH  20  21
HETATM   21  C17 UNL     1      -3.794  -0.172  -1.629  1.00  0.00     0.111 C 
BRANCH  21  22
HETATM   22  C18 UNL     1      -4.628   0.817  -0.950  1.00  0.00     0.259 C 
HETATM   23  O2  UNL     1      -5.818   0.622  -0.669  1.00  0.00    -0.265 OA
BRANCH  22  24
HETATM   24  O3  UNL     1      -4.070   2.043  -0.596  1.00  0.00    -0.316 OA
BRANCH  24  25
HETATM   25  C19 UNL     1      -4.816   3.049   0.062  1.00  0.00     0.132 A 
HETATM   26  C20 UNL     1      -4.596   4.452  -0.559  1.00  0.00     0.035 A 
HETATM   27  C21 UNL     1      -4.074   4.089   0.782  1.00  0.00     0.035 A 
ENDBRANCH  24  25
ENDBRANCH  22  24
ENDBRANCH  21  22
ENDBRANCH  20  21
ENDBRANCH  19  20
ENDBRANCH  18  19
ENDBRANCH  16  17
ENDBRANCH   2  16
TORSDOF 16
