REMARK  5 active torsions:
REMARK  status: ('A' for Active; 'I' for Inactive)
REMARK    1  A    between atoms: C1_2  and  C2_3 
REMARK       I    between atoms: C1_2  and  N2_16 
REMARK    2  A    between atoms: C2_3  and  O2_4 
REMARK    3  A    between atoms: C2_3  and  C3_6 
REMARK    4  A    between atoms: C11_19  and  C12_20 
REMARK    5  A    between atoms: C12_20  and  O3_21 
ROOT
HETATM    1  C2  UNL     1      -0.752   1.343   0.096  1.00  0.00     0.240 C 
ENDROOT
BRANCH   1   2
HETATM    2  C1  UNL     1       0.314   0.828   0.995  1.00  0.00     0.250 C 
HETATM    3  O1  UNL     1       0.163   0.946   2.261  1.00  0.00    -0.270 OA
HETATM    4  N2  UNL     1       1.505   0.208   0.565  1.00  0.00    -0.350 N 
HETATM    5  C9  UNL     1       2.445  -0.268   1.550  1.00  0.00     0.126 C 
HETATM    6  C14 UNL     1       1.804   0.052  -0.815  1.00  0.00     0.126 C 
HETATM    7  C10 UNL     1       3.780   0.354   1.239  1.00  0.00     0.027 C 
HETATM    8  C11 UNL     1       4.246   0.043  -0.158  1.00  0.00     0.012 C 
HETATM    9  C13 UNL     1       3.232   0.288  -1.211  1.00  0.00     0.027 C 
BRANCH   8  10
HETATM   10  C12 UNL     1       4.786  -1.369  -0.193  1.00  0.00     0.168 C 
BRANCH  10  11
HETATM   11  O3  UNL     1       5.847  -1.528   0.673  1.00  0.00    -0.400 OA
ATOM     12  H3  UNL     1       6.186  -2.415   0.651  1.00  0.00     0.209 HD
ENDBRANCH  10  11
ENDBRANCH   8  10
ENDBRANCH   1   2
BRANCH   1  13
HETATM   13  O2  UNL     1      -1.698   2.030   0.901  1.00  0.00    -0.384 OA
ATOM     14  H2  UNL     1      -2.379   2.359   0.326  1.00  0.00     0.210 HD
ENDBRANCH   1  13
BRANCH   1  15
HETATM   15  C3  UNL     1      -1.483   0.206  -0.602  1.00  0.00     0.225 C 
HETATM   16  C4  UNL     1      -2.162  -0.647   0.456  1.00  0.00     0.053 C 
HETATM   17  C5  UNL     1      -3.555  -0.177   0.367  1.00  0.00     0.080 C 
HETATM   18  S1  UNL     1      -4.836  -1.440   0.550  1.00  0.00    -0.162 SA
HETATM   19  C8  UNL     1      -3.654  -0.080  -1.171  1.00  0.00     0.201 C 
HETATM   20  C6  UNL     1      -5.863  -0.833  -0.862  1.00  0.00     0.076 C 
HETATM   21  C7  UNL     1      -5.026   0.328  -1.433  1.00  0.00     0.044 C 
HETATM   22  N1  UNL     1      -2.568   0.756  -1.438  1.00  0.00    -0.063 N 
ATOM     23  H12 UNL     1      -2.754   1.747  -1.286  1.00  0.00     0.278 HD
ATOM     24  H11 UNL     1      -2.335   0.839  -2.428  1.00  0.00     0.278 HD
ENDBRANCH   1  15
TORSDOF 5
