REMARK  3 active torsions:
REMARK  status: ('A' for Active; 'I' for Inactive)
REMARK    1  A    between atoms: C4_7  and  C5_8 
REMARK    2  A    between atoms: C5_8  and  C6_9 
REMARK    3  A    between atoms: C6_9  and  N3_12 
ROOT
HETATM    1  C1  UNL     1       3.026  -4.670   1.189  1.00  0.00     0.233 C 
HETATM    2  N1  UNL     1       2.616  -3.606   0.991  1.00  0.00    -0.395 NA
HETATM    3  C2  UNL     1       2.137  -2.336   0.744  1.00  0.00     0.261 A 
HETATM    4  N2  UNL     1       0.896  -1.861   1.016  1.00  0.00    -0.312 N 
ATOM      5  H2  UNL     1       0.150  -2.406   1.450  1.00  0.00     0.170 HD
HETATM    6  C3  UNL     1       0.780  -0.574   0.637  1.00  0.00     0.086 A 
HETATM    7  C4  UNL     1      -0.240   0.365   0.702  1.00  0.00     0.043 A 
HETATM    8  N4  UNL     1      -0.007   1.616   0.240  1.00  0.00    -0.356 N 
HETATM    9  C9  UNL     1      -0.970   2.688   0.258  1.00  0.00     0.156 C 
HETATM   10  C10 UNL     1       1.201   1.982  -0.292  1.00  0.00     0.009 A 
HETATM   11  C11 UNL     1       1.437   3.381  -0.801  1.00  0.00     0.068 C 
HETATM   12  C12 UNL     1       2.227   1.074  -0.370  1.00  0.00     0.057 A 
HETATM   13  C13 UNL     1       2.001  -0.205   0.100  1.00  0.00     0.068 A 
HETATM   14  N5  UNL     1       2.790  -1.308   0.186  1.00  0.00    -0.309 N 
HETATM   15  C14 UNL     1       4.166  -1.297  -0.289  1.00  0.00     0.161 C 
ENDROOT
BRANCH   7  16
HETATM   16  C5  UNL     1      -1.551  -0.009   1.208  1.00  0.00     0.097 C 
BRANCH  16  17
HETATM   17  C6  UNL     1      -2.518  -0.644   0.299  1.00  0.00     0.121 C 
HETATM   18  C7  UNL     1      -2.136  -1.936  -0.348  1.00  0.00     0.046 C 
HETATM   19  C8  UNL     1      -3.058   0.239  -0.802  1.00  0.00     0.046 C 
BRANCH  17  20
HETATM   20  N3  UNL     1      -3.701  -0.972   1.133  1.00  0.00    -0.071 N 
ATOM     21  H33 UNL     1      -3.479  -1.537   1.952  1.00  0.00     0.275 HD
ATOM     22  H32 UNL     1      -4.080  -0.170   1.637  1.00  0.00     0.275 HD
ATOM     23  H31 UNL     1      -4.371  -1.412   0.503  1.00  0.00     0.275 HD
ENDBRANCH  17  20
ENDBRANCH  16  17
ENDBRANCH   7  16
TORSDOF 3
