REMARK  4 active torsions:
REMARK  status: ('A' for Active; 'I' for Inactive)
REMARK    1  A    between atoms: C2_2  and  C3_3 
REMARK    2  A    between atoms: C3_3  and  N1_4 
REMARK    3  A    between atoms: N2_6  and  C5_7 
REMARK    4  A    between atoms: C5_7  and  N3_9 
ROOT
HETATM    1  N1  UNL     1       1.305  -0.483  -0.699  1.00  0.00    -0.318 N 
HETATM    2  C4  UNL     1       0.357   0.582  -0.605  1.00  0.00     0.214 C 
HETATM    3  N2  UNL     1      -0.956   0.214  -0.156  1.00  0.00    -0.118 N 
HETATM    4  C7  UNL     1      -1.332  -1.164  -0.046  1.00  0.00     0.689 C 
HETATM    5  N4  UNL     1      -2.529  -1.429   0.241  1.00  0.00    -0.230 N 
ATOM      6  H4  UNL     1      -3.156  -0.636   0.377  1.00  0.00     0.177 HD
HETATM    7  C8  UNL     1      -3.089  -2.719   0.393  1.00  0.00     0.165 C 
HETATM    8  N5  UNL     1      -0.380  -2.197  -0.264  1.00  0.00    -0.165 N 
ATOM      9  H5  UNL     1      -0.651  -3.177  -0.184  1.00  0.00     0.186 HD
HETATM   10  C9  UNL     1       0.945  -1.844  -0.592  1.00  0.00     0.193 C 
HETATM   11  S2  UNL     1       2.117  -2.952  -0.860  1.00  0.00    -0.040 SA
ENDROOT
BRANCH   3  12
HETATM   12  C5  UNL     1      -1.838   1.308   0.159  1.00  0.00     0.194 C 
HETATM   13  S1  UNL     1      -1.146   2.820  -0.063  1.00  0.00    -0.040 SA
BRANCH  12  14
HETATM   14  N3  UNL     1      -3.141   1.270   0.611  1.00  0.00    -0.370 N 
HETATM   15  C6  UNL     1      -3.810   2.577   0.851  1.00  0.00     0.148 C 
ATOM     16  H3  UNL     1      -3.624   0.386   0.773  1.00  0.00     0.161 HD
ENDBRANCH  12  14
ENDBRANCH   3  12
BRANCH   1  17
HETATM   17  C3  UNL     1       2.712  -0.127  -0.923  1.00  0.00     0.132 C 
BRANCH  17  18
HETATM   18  C2  UNL     1       3.307   0.546   0.279  1.00  0.00     0.016 C 
HETATM   19  C1  UNL     1       4.762   0.910   0.047  1.00  0.00     0.006 C 
ENDBRANCH  17  18
ENDBRANCH   1  17
TORSDOF 4
