REMARK  3 active torsions:
REMARK  status: ('A' for Active; 'I' for Inactive)
REMARK       I    between atoms: N1_2  and  C2_4 
REMARK       I    between atoms: C2_4  and  N2_6 
REMARK    1  A    between atoms: C5_9  and  C6_10 
REMARK    2  A    between atoms: C6_10  and  N3_11 
REMARK       I    between atoms: N3_11  and  C7_13 
REMARK       I    between atoms: C7_13  and  N4_15 
REMARK    3  A    between atoms: N4_15  and  C8_17 
ROOT
HETATM    1  N3  UNL     1       0.747  -0.660   0.425  1.00  0.00    -0.343 N 
ATOM      2  H3  UNL     1       1.106   0.195   0.850  1.00  0.00     0.164 HD
HETATM    3  C7  UNL     1      -0.594  -0.682  -0.021  1.00  0.00     0.316 C 
HETATM    4  O2  UNL     1      -0.998  -1.758  -0.541  1.00  0.00    -0.247 OA
HETATM    5  N4  UNL     1      -1.427   0.456   0.117  1.00  0.00    -0.334 N 
ATOM      6  H4  UNL     1      -1.031   1.291   0.548  1.00  0.00     0.165 HD
ENDROOT
BRANCH   1   7
HETATM    7  C6  UNL     1       1.636  -1.803   0.304  1.00  0.00     0.130 C 
BRANCH   7   8
HETATM    8  C5  UNL     1       2.971  -1.419   0.878  1.00  0.00     0.023 C 
HETATM    9  C4  UNL     1       3.971  -2.559   0.795  1.00  0.00     0.028 C 
HETATM   10  C3  UNL     1       5.277  -1.825   1.021  1.00  0.00     0.128 C 
HETATM   11  N2  UNL     1       5.077  -0.542   0.380  1.00  0.00    -0.334 N 
HETATM   12  C2  UNL     1       6.078   0.425   0.099  1.00  0.00     0.317 C 
HETATM   13  C17 UNL     1       3.665  -0.359   0.048  1.00  0.00     0.134 C 
HETATM   14  N1  UNL     1       5.788   1.661  -0.535  1.00  0.00    -0.347 N 
HETATM   15  O1  UNL     1       7.287   0.179   0.426  1.00  0.00    -0.247 OA
HETATM   16  C1  UNL     1       6.826   2.625  -0.809  1.00  0.00     0.151 C 
ATOM     17  H1  UNL     1       4.827   1.872  -0.802  1.00  0.00     0.163 HD
ENDBRANCH   7   8
ENDBRANCH   1   7
BRANCH   5  18
HETATM   18  C8  UNL     1      -2.794   0.503  -0.313  1.00  0.00     0.035 C 
HETATM   19  C9  UNL     1      -2.814   0.240  -1.804  1.00  0.00     0.031 C 
HETATM   20  C10 UNL     1      -3.701   1.285  -2.427  1.00  0.00     0.007 C 
HETATM   21  C11 UNL     1      -4.494   1.812  -1.248  1.00  0.00    -0.012 C 
HETATM   22  C12 UNL     1      -5.494   0.741  -0.875  1.00  0.00     0.009 C 
HETATM   23  C16 UNL     1      -3.390   1.889  -0.184  1.00  0.00     0.035 C 
HETATM   24  C13 UNL     1      -5.139   0.016   0.381  1.00  0.00    -0.016 C 
HETATM   25  C14 UNL     1      -6.009  -1.217   0.494  1.00  0.00     0.010 C 
HETATM   26  C15 UNL     1      -3.696  -0.449   0.417  1.00  0.00     0.035 C 
ENDBRANCH   5  18
TORSDOF 3
