REMARK  7 active torsions:
REMARK  status: ('A' for Active; 'I' for Inactive)
REMARK    1  A    between atoms: C3_3  and  C4_4 
REMARK    2  A    between atoms: C4_4  and  C5_5 
REMARK       I    between atoms: C5_5  and  N1_7 
REMARK    3  A    between atoms: N1_7  and  N2_9 
REMARK    4  A    between atoms: N2_9  and  C6_11 
REMARK    5  A    between atoms: C6_11  and  N3_13 
REMARK    6  A    between atoms: N3_13  and  C7_15 
REMARK    7  A    between atoms: C7_15  and  C8_16 
ROOT
HETATM    1  C1  UNL     1       9.144   2.117  -0.965  1.00  0.00     0.112 C 
HETATM    2  C2  UNL     1       8.121   1.149  -0.567  1.00  0.00    -0.111 C 
HETATM    3  C3  UNL     1       7.274   0.355  -0.217  1.00  0.00    -0.098 C 
ENDROOT
BRANCH   3   4
HETATM    4  C4  UNL     1       6.267  -0.609   0.225  1.00  0.00     0.198 C 
BRANCH   4   5
HETATM    5  C5  UNL     1       4.933  -0.039  -0.018  1.00  0.00     0.247 C 
HETATM    6  O1  UNL     1       4.805   1.090  -0.530  1.00  0.00    -0.271 OA
HETATM    7  N1  UNL     1       3.781  -0.775   0.332  1.00  0.00    -0.267 N 
ATOM      8  H1  UNL     1       3.905  -1.697   0.751  1.00  0.00     0.190 HD
BRANCH   7   9
HETATM    9  N2  UNL     1       2.462  -0.300   0.131  1.00  0.00    -0.274 N 
ATOM     10  H2  UNL     1       2.307   0.598  -0.327  1.00  0.00     0.189 HD
BRANCH   9  11
HETATM   11  C6  UNL     1       1.372  -1.064   0.562  1.00  0.00     0.186 C 
HETATM   12  S1  UNL     1       1.615  -2.490   1.289  1.00  0.00    -0.040 SA
BRANCH  11  13
HETATM   13  N3  UNL     1       0.045  -0.598   0.365  1.00  0.00    -0.365 N 
ATOM     14  H3  UNL     1      -0.097   0.301  -0.096  1.00  0.00     0.161 HD
BRANCH  13  15
HETATM   15  C7  UNL     1      -1.104  -1.347   0.792  1.00  0.00     0.131 C 
BRANCH  15  16
HETATM   16  C8  UNL     1      -2.370  -0.627   0.413  1.00  0.00    -0.023 C 
HETATM   17  C9  UNL     1      -2.457   0.731   1.029  1.00  0.00     0.015 C 
HETATM   18  C10 UNL     1      -3.722   1.442   0.595  1.00  0.00    -0.013 C 
HETATM   19  C11 UNL     1      -3.759   1.530  -0.915  1.00  0.00     0.009 C 
HETATM   20  C15 UNL     1      -4.915   0.624   1.055  1.00  0.00     0.009 C 
HETATM   21  C12 UNL     1      -3.710   0.159  -1.524  1.00  0.00    -0.013 C 
HETATM   22  C13 UNL     1      -4.881  -0.647  -1.036  1.00  0.00     0.009 C 
HETATM   23  C17 UNL     1      -2.413  -0.505  -1.092  1.00  0.00     0.015 C 
HETATM   24  C14 UNL     1      -4.813  -0.751   0.460  1.00  0.00    -0.013 C 
HETATM   25  C16 UNL     1      -3.573  -1.466   0.868  1.00  0.00     0.015 C 
ENDBRANCH  15  16
ENDBRANCH  13  15
ENDBRANCH  11  13
ENDBRANCH   9  11
ENDBRANCH   7   9
ENDBRANCH   4   5
ENDBRANCH   3   4
TORSDOF 7
