REMARK  17 active torsions:
REMARK  status: ('A' for Active; 'I' for Inactive)
REMARK    1  A    between atoms: N2_5  and  C4_6 
REMARK    2  A    between atoms: C4_6  and  N3_8 
REMARK       I    between atoms: N3_8  and  C5_10 
REMARK       I    between atoms: C5_10  and  N7_33 
REMARK       I    between atoms: N4_11  and  C6_13 
REMARK    3  A    between atoms: C6_13  and  C7_15 
REMARK    4  A    between atoms: C7_15  and  C8_16 
REMARK    5  A    between atoms: C8_16  and  C9_17 
REMARK    6  A    between atoms: C9_17  and  C10_18 
REMARK    7  A    between atoms: C10_18  and  C11_19 
REMARK    8  A    between atoms: C11_19  and  C12_20 
REMARK    9  A    between atoms: C12_20  and  C13_21 
REMARK   10  A    between atoms: C13_21  and  C14_22 
REMARK   11  A    between atoms: C14_22  and  C15_23 
REMARK   12  A    between atoms: C15_23  and  C16_24 
REMARK   13  A    between atoms: C16_24  and  C17_25 
REMARK   14  A    between atoms: C17_25  and  C18_26 
REMARK   15  A    between atoms: C18_26  and  C19_27 
REMARK   16  A    between atoms: C19_27  and  N5_28 
REMARK       I    between atoms: N5_28  and  C20_30 
REMARK   17  A    between atoms: N7_33  and  N8_35 
ROOT
HETATM    1  N3  UNL     1       6.232  -1.785  -2.441  1.00  0.00    -0.165 N 
ATOM      2  H3  UNL     1       5.979  -2.524  -3.098  1.00  0.00     0.186 HD
HETATM    3  C5  UNL     1       5.807  -0.486  -2.767  1.00  0.00     0.702 C 
HETATM    4  N4  UNL     1       4.571  -0.145  -2.589  1.00  0.00    -0.158 N 
ATOM      5  H4  UNL     1       4.298   0.807  -2.834  1.00  0.00     0.187 HD
HETATM    6  C6  UNL     1       3.576  -1.008  -2.076  1.00  0.00     0.235 C 
HETATM    7  O1  UNL     1       3.679  -2.246  -2.375  1.00  0.00    -0.273 OA
HETATM    8  N7  UNL     1       6.676   0.487  -3.342  1.00  0.00    -0.118 N 
ATOM      9  H7  UNL     1       7.683   0.415  -3.195  1.00  0.00     0.207 HD
ENDROOT
BRANCH   6  10
HETATM   10  C7  UNL     1       2.435  -0.538  -1.216  1.00  0.00     0.103 C 
BRANCH  10  11
HETATM   11  C8  UNL     1       1.469  -1.643  -1.005  1.00  0.00     0.009 C 
BRANCH  11  12
HETATM   12  C9  UNL     1       0.260  -1.332  -0.185  1.00  0.00     0.000 C 
BRANCH  12  13
HETATM   13  C10 UNL     1      -0.529  -0.197  -0.775  1.00  0.00     0.000 C 
BRANCH  13  14
HETATM   14  C11 UNL     1      -1.780   0.138  -0.062  1.00  0.00     0.000 C 
BRANCH  14  15
HETATM   15  C12 UNL     1      -2.793  -0.975  -0.025  1.00  0.00     0.000 C 
BRANCH  15  16
HETATM   16  C13 UNL     1      -4.009  -0.374   0.709  1.00  0.00     0.000 C 
BRANCH  16  17
HETATM   17  C14 UNL     1      -5.124  -1.359   0.793  1.00  0.00     0.000 C 
BRANCH  17  18
HETATM   18  C15 UNL     1      -6.300  -0.730   1.492  1.00  0.00     0.000 C 
BRANCH  18  19
HETATM   19  C16 UNL     1      -6.811   0.485   0.793  1.00  0.00     0.000 C 
BRANCH  19  20
HETATM   20  C17 UNL     1      -8.027   1.109   1.485  1.00  0.00     0.002 C 
BRANCH  20  21
HETATM   21  C18 UNL     1      -8.416   2.342   0.697  1.00  0.00     0.020 C 
BRANCH  21  22
HETATM   22  C19 UNL     1      -9.595   3.063   1.246  1.00  0.00     0.124 C 
BRANCH  22  23
HETATM   23  N5  UNL     1     -10.818   2.314   1.293  1.00  0.00    -0.345 N 
HETATM   24  C20 UNL     1     -11.416   1.796   0.123  1.00  0.00     0.328 C 
HETATM   25  N6  UNL     1     -12.618   1.062   0.187  1.00  0.00    -0.040 NA
HETATM   26  O2  UNL     1     -10.872   1.991  -0.985  1.00  0.00    -0.251 OA
ATOM     27  H5  UNL     1     -11.267   2.152   2.194  1.00  0.00     0.163 HD
ENDBRANCH  22  23
ENDBRANCH  21  22
ENDBRANCH  20  21
ENDBRANCH  19  20
ENDBRANCH  18  19
ENDBRANCH  17  18
ENDBRANCH  16  17
ENDBRANCH  15  16
ENDBRANCH  14  15
ENDBRANCH  13  14
ENDBRANCH  12  13
ENDBRANCH  11  12
ENDBRANCH  10  11
ENDBRANCH   6  10
BRANCH   1  28
HETATM   28  C4  UNL     1       6.959  -2.174  -1.322  1.00  0.00     0.188 C 
HETATM   29  S1  UNL     1       7.293  -3.845  -1.235  1.00  0.00    -0.040 SA
BRANCH  28  30
HETATM   30  N2  UNL     1       7.422  -1.374  -0.293  1.00  0.00    -0.355 N 
HETATM   31  C3  UNL     1       8.193  -2.050   0.797  1.00  0.00     0.144 C 
HETATM   32  C2  UNL     1       9.423  -1.150   0.994  1.00  0.00     0.136 C 
HETATM   33  N1  UNL     1       8.950   0.033   1.627  1.00  0.00    -0.414 N 
HETATM   34  C1  UNL     1       9.896   1.101   1.742  1.00  0.00     0.143 C 
HETATM   35  C22 UNL     1       7.608   0.406   1.374  1.00  0.00     0.136 C 
HETATM   36  C21 UNL     1       7.278   0.030  -0.100  1.00  0.00     0.144 C 
ENDBRANCH  28  30
ENDBRANCH   1  28
BRANCH   8  37
HETATM   37  N8  UNL     1       6.162   1.537  -4.105  1.00  0.00    -0.235 N 
HETATM   38  N9  UNL     1       5.014   1.540  -4.641  1.00  0.00    -0.330 N 
ATOM     39  H92 UNL     1       4.439   0.711  -4.495  1.00  0.00     0.178 HD
ATOM     40  H91 UNL     1       4.638   2.307  -5.198  1.00  0.00     0.178 HD
ATOM     41  H8  UNL     1       6.751   2.358  -4.240  1.00  0.00     0.208 HD
ENDBRANCH   8  37
TORSDOF 17
