REMARK  15 active torsions:
REMARK  status: ('A' for Active; 'I' for Inactive)
REMARK    1  A    between atoms: C2_2  and  C3_3 
REMARK    2  A    between atoms: C3_3  and  C4_4 
REMARK    3  A    between atoms: C3_3  and  C6_6 
REMARK    4  A    between atoms: C6_6  and  C7_7 
REMARK       I    between atoms: C7_7  and  N1_9 
REMARK    5  A    between atoms: C12_14  and  C13_15 
REMARK       I    between atoms: C13_15  and  N2_17 
REMARK    6  A    between atoms: N2_17  and  C14_19 
REMARK    7  A    between atoms: C14_19  and  C15_20 
REMARK    8  A    between atoms: C14_19  and  C19_28 
REMARK    9  A    between atoms: C14_19  and  C22_35 
REMARK   10  A    between atoms: C15_20  and  C16_21 
REMARK   11  A    between atoms: C16_21  and  C17_22 
REMARK   12  A    between atoms: C17_22  and  N3_23 
REMARK   13  A    between atoms: C19_28  and  C20_29 
REMARK   14  A    between atoms: C20_29  and  C21_30 
REMARK   15  A    between atoms: C22_35  and  N8_36 
ROOT
HETATM    1  C14 UNL     1      -2.085   0.918  -0.133  1.00  0.00     0.057 C 
ENDROOT
BRANCH   1   2
HETATM    2  N2  UNL     1      -0.893   1.489   0.391  1.00  0.00    -0.348 N 
HETATM    3  C13 UNL     1       0.395   0.996   0.631  1.00  0.00     0.241 C 
HETATM    4  O2  UNL     1       0.778  -0.175   0.416  1.00  0.00    -0.271 OA
ATOM      5  H2  UNL     1      -0.999   2.470   0.648  1.00  0.00     0.163 HD
BRANCH   3   6
HETATM    6  C12 UNL     1       1.492   1.849   1.192  1.00  0.00     0.183 C 
HETATM    7  N1  UNL     1       2.732   1.117   1.372  1.00  0.00    -0.334 N 
HETATM    8  C7  UNL     1       3.036  -0.002   2.185  1.00  0.00     0.221 C 
HETATM    9  C8  UNL     1       3.646   1.813   0.494  1.00  0.00     0.089 C 
HETATM   10  O1  UNL     1       2.162  -0.531   2.914  1.00  0.00    -0.273 OA
HETATM   11  C9  UNL     1       3.315   3.274   0.825  1.00  0.00     0.032 C 
HETATM   12  C11 UNL     1       2.790   2.030  -0.741  1.00  0.00     0.032 C 
HETATM   13  C10 UNL     1       1.961   2.887   0.225  1.00  0.00     0.021 C 
BRANCH   8  14
HETATM   14  C6  UNL     1       4.398  -0.571   2.192  1.00  0.00     0.107 C 
BRANCH  14  15
HETATM   15  C3  UNL     1       4.559  -1.716   1.235  1.00  0.00    -0.007 C 
BRANCH  15  16
HETATM   16  C2  UNL     1       3.656  -2.879   1.497  1.00  0.00     0.000 C 
HETATM   17  C1  UNL     1       3.926  -3.899   0.391  1.00  0.00     0.005 C 
ENDBRANCH  15  16
BRANCH  15  18
HETATM   18  C4  UNL     1       5.987  -2.196   1.273  1.00  0.00     0.000 C 
HETATM   19  C5  UNL     1       6.948  -1.070   1.016  1.00  0.00     0.005 C 
ENDBRANCH  15  18
ENDBRANCH  14  15
ENDBRANCH   8  14
ENDBRANCH   3   6
ENDBRANCH   1   2
BRANCH   1  20
HETATM   20  C15 UNL     1      -2.064   0.497  -1.548  1.00  0.00     0.034 C 
BRANCH  20  21
HETATM   21  C16 UNL     1      -1.096  -0.510  -2.005  1.00  0.00     0.022 C 
BRANCH  21  22
HETATM   22  C17 UNL     1      -1.381  -0.803  -3.506  1.00  0.00     0.122 C 
BRANCH  22  23
HETATM   23  N3  UNL     1      -2.707  -1.306  -3.705  1.00  0.00    -0.367 N 
HETATM   24  C18 UNL     1      -3.032  -2.540  -3.739  1.00  0.00     0.196 C 
HETATM   25  N4  UNL     1      -2.125  -3.620  -3.584  1.00  0.00    -0.067 NA
HETATM   26  N5  UNL     1      -4.401  -2.861  -3.948  1.00  0.00    -0.067 NA
ATOM     27  H3  UNL     1      -3.453  -0.622  -3.830  1.00  0.00     0.161 HD
ENDBRANCH  22  23
ENDBRANCH  21  22
ENDBRANCH  20  21
ENDBRANCH   1  20
BRANCH   1  28
HETATM   28  C19 UNL     1      -2.276  -0.380   0.689  1.00  0.00     0.040 C 
BRANCH  28  29
HETATM   29  C20 UNL     1      -3.481  -1.168   0.327  1.00  0.00     0.075 C 
BRANCH  29  30
HETATM   30  C21 UNL     1      -3.573  -2.408   1.181  1.00  0.00     0.086 C 
HETATM   31  N6  UNL     1      -4.561  -2.641   1.965  1.00  0.00    -0.391 N 
ATOM     32  H62 UNL     1      -5.317  -1.957   2.012  1.00  0.00     0.157 HD
ATOM     33  H61 UNL     1      -4.623  -3.479   2.542  1.00  0.00     0.157 HD
HETATM   34  N7  UNL     1      -2.525  -3.356   1.116  1.00  0.00    -0.088 NA
ENDBRANCH  29  30
ENDBRANCH  28  29
ENDBRANCH   1  28
BRANCH   1  35
HETATM   35  C22 UNL     1      -3.295   1.733   0.216  1.00  0.00     0.266 C 
BRANCH  35  36
HETATM   36  N8  UNL     1      -3.489   3.054  -0.152  1.00  0.00    -0.076 N 
HETATM   37  C23 UNL     1      -2.766   3.654  -1.215  1.00  0.00     0.271 C 
HETATM   38  C24 UNL     1      -3.254   3.873   1.037  1.00  0.00     0.271 C 
HETATM   39  C25 UNL     1      -4.920   3.353  -0.461  1.00  0.00     0.271 C 
ENDBRANCH  35  36
ENDBRANCH   1  35
TORSDOF 15
