REMARK  3 active torsions:
REMARK  status: ('A' for Active; 'I' for Inactive)
REMARK    1  A    between atoms: N1_1  and  N2_4 
REMARK       I    between atoms: N2_4  and  C1_6 
REMARK    2  A    between atoms: C1_6  and  C2_8 
REMARK    3  A    between atoms: C2_8  and  N3_9 
REMARK       I    between atoms: N3_9  and  C3_11 
ROOT
HETATM    1  C2  UNL     1      -0.018  -0.051   0.092  1.00  0.00     0.293 C 
HETATM    2  N5  UNL     1      -0.212  -1.488   0.187  1.00  0.00    -0.248 N 
ATOM      3  H5  UNL     1      -0.157  -2.241  -0.499  1.00  0.00     0.178 HD
HETATM    4  S1  UNL     1      -0.563  -1.466   1.843  1.00  0.00     0.322 S 
HETATM    5  O3  UNL     1      -2.005  -1.659   2.209  1.00  0.00    -0.183 OA
HETATM    6  O4  UNL     1       0.374  -2.324   2.656  1.00  0.00    -0.183 OA
HETATM    7  N6  UNL     1      -0.042   0.110   1.490  1.00  0.00    -0.248 N 
ATOM      8  H6  UNL     1       0.179   0.906   2.089  1.00  0.00     0.178 HD
ENDROOT
BRANCH   1   9
HETATM    9  C1  UNL     1      -1.181   0.637  -0.579  1.00  0.00     0.308 C 
HETATM   10  N2  UNL     1      -2.289   1.067   0.162  1.00  0.00    -0.271 N 
ATOM     11  H2  UNL     1      -2.334   0.929   1.172  1.00  0.00     0.189 HD
HETATM   12  O1  UNL     1      -1.121   0.810  -1.809  1.00  0.00    -0.265 OA
BRANCH  10  13
HETATM   13  N1  UNL     1      -3.346   1.701  -0.539  1.00  0.00    -0.342 N 
ATOM     14  H12 UNL     1      -3.286   1.832  -1.549  1.00  0.00     0.176 HD
ATOM     15  H11 UNL     1      -4.153   2.014   0.001  1.00  0.00     0.176 HD
ENDBRANCH  10  13
ENDBRANCH   1   9
BRANCH   1  16
HETATM   16  N3  UNL     1       1.195   0.215  -0.643  1.00  0.00    -0.292 N 
HETATM   17  C3  UNL     1       2.490  -0.241  -0.307  1.00  0.00     0.332 C 
HETATM   18  N4  UNL     1       3.607   0.100  -1.126  1.00  0.00    -0.040 NA
HETATM   19  O2  UNL     1       2.701  -0.946   0.699  1.00  0.00    -0.251 OA
ATOM     20  H3  UNL     1       1.110   0.786  -1.484  1.00  0.00     0.168 HD
ENDBRANCH   1  16
TORSDOF 3
