REMARK  5 active torsions:
REMARK  status: ('A' for Active; 'I' for Inactive)
REMARK       I    between atoms: C2_2  and  N1_4 
REMARK    1  A    between atoms: N1_4  and  C3_6 
REMARK    2  A    between atoms: C3_6  and  N2_7 
REMARK    3  A    between atoms: C3_6  and  C4_11 
REMARK       I    between atoms: C4_11  and  N3_13 
REMARK    4  A    between atoms: N3_13  and  N4_15 
REMARK       I    between atoms: N4_15  and  C5_16 
REMARK       I    between atoms: C5_16  and  N5_18 
REMARK    5  A    between atoms: N5_18  and  N6_20 
ROOT
HETATM    1  C4  UNL     1      -0.085  -0.284   0.006  1.00  0.00     0.296 C 
HETATM    2  O2  UNL     1       0.218   0.599  -0.893  1.00  0.00    -0.267 OA
HETATM    3  N3  UNL     1       1.066  -0.837   0.690  1.00  0.00    -0.194 N 
ATOM      4  H3  UNL     1       0.918  -1.506   1.446  1.00  0.00     0.205 HD
ENDROOT
BRANCH   1   5
HETATM    5  C3  UNL     1      -1.449  -0.659   0.255  1.00  0.00     0.379 C 
BRANCH   5   6
HETATM    6  N1  UNL     1      -2.400   0.420   0.097  1.00  0.00    -0.326 N 
HETATM    7  C2  UNL     1      -3.818   0.174   0.332  1.00  0.00     0.215 C 
HETATM    8  C1  UNL     1      -4.719   1.360   0.102  1.00  0.00     0.117 C 
HETATM    9  O1  UNL     1      -4.273  -0.889   0.662  1.00  0.00    -0.274 OA
ATOM     10  H1  UNL     1      -2.080   1.349  -0.178  1.00  0.00     0.165 HD
ENDBRANCH   5   6
BRANCH   5  11
HETATM   11  N2  UNL     1      -1.770  -1.652  -0.850  1.00  0.00    -0.049 N 
ATOM     12  H23 UNL     1      -2.742  -1.960  -0.853  1.00  0.00     0.277 HD
ATOM     13  H22 UNL     1      -1.770  -1.240  -1.783  1.00  0.00     0.277 HD
ATOM     14  H21 UNL     1      -1.100  -2.413  -0.739  1.00  0.00     0.277 HD
ENDBRANCH   5  11
ENDBRANCH   1   5
BRANCH   3  15
HETATM   15  N4  UNL     1       2.276  -0.509   0.372  1.00  0.00    -0.261 NA
HETATM   16  C5  UNL     1       3.576  -0.184  -0.014  1.00  0.00     0.430 C 
HETATM   17  O3  UNL     1       4.196  -0.508  -1.098  1.00  0.00    -0.227 OA
HETATM   18  N5  UNL     1       4.460   0.626   0.813  1.00  0.00    -0.245 N 
ATOM     19  H5  UNL     1       4.176   0.957   1.735  1.00  0.00     0.192 HD
BRANCH  18  20
HETATM   20  N6  UNL     1       5.732   0.931   0.275  1.00  0.00    -0.340 N 
ATOM     21  H62 UNL     1       6.002   0.593  -0.649  1.00  0.00     0.177 HD
ATOM     22  H61 UNL     1       6.351   1.498   0.854  1.00  0.00     0.177 HD
ENDBRANCH  18  20
ENDBRANCH   3  15
TORSDOF 5
