REMARK  4 active torsions:
REMARK  status: ('A' for Active; 'I' for Inactive)
REMARK    1  A    between atoms: N1_1  and  N2_4 
REMARK    2  A    between atoms: N2_4  and  C1_6 
REMARK    3  A    between atoms: C1_6  and  C2_8 
REMARK    4  A    between atoms: C2_8  and  N3_9 
ROOT
HETATM    1  C2  UNL     1       0.129   0.294  -0.608  1.00  0.00     0.236 C 
HETATM    2  N6  UNL     1       0.633   0.892  -1.829  1.00  0.00    -0.315 N 
ATOM      3  H6  UNL     1       0.629   0.633  -2.816  1.00  0.00     0.166 HD
HETATM    4  C4  UNL     1       1.129   1.978  -1.086  1.00  0.00     0.295 C 
HETATM    5  O1  UNL     1       1.977   2.919  -1.263  1.00  0.00    -0.264 OA
HETATM    6  C5  UNL     1       0.270   1.608   0.015  1.00  0.00     0.272 C 
HETATM    7  O2  UNL     1      -0.124   2.227   1.026  1.00  0.00    -0.282 OA
ENDROOT
BRANCH   1   8
HETATM    8  C1  UNL     1       0.979  -0.782  -0.073  1.00  0.00     0.149 C 
HETATM    9  S1  UNL     1       0.385  -2.296   0.067  1.00  0.00    -0.059 SA
BRANCH   8  10
HETATM   10  N2  UNL     1       2.301  -0.546   0.321  1.00  0.00    -0.296 N 
ATOM     11  H2  UNL     1       2.679   0.397   0.233  1.00  0.00     0.187 HD
BRANCH  10  12
HETATM   12  N1  UNL     1       3.131  -1.566   0.836  1.00  0.00    -0.344 N 
ATOM     13  H12 UNL     1       2.737  -2.503   0.917  1.00  0.00     0.176 HD
ATOM     14  H11 UNL     1       4.095  -1.394   1.123  1.00  0.00     0.176 HD
ENDBRANCH  10  12
ENDBRANCH   8  10
ENDBRANCH   1   8
BRANCH   1  15
HETATM   15  N3  UNL     1      -1.250  -0.120  -0.859  1.00  0.00    -0.328 N 
HETATM   16  C3  UNL     1      -2.166  -0.239  -0.001  1.00  0.00     0.199 C 
HETATM   17  N4  UNL     1      -3.452  -0.665  -0.498  1.00  0.00    -0.067 NA
HETATM   18  N5  UNL     1      -2.086  -0.006   1.386  1.00  0.00    -0.067 NA
ATOM     19  H3  UNL     1      -1.496  -0.334  -1.825  1.00  0.00     0.165 HD
ENDBRANCH   1  15
TORSDOF 4
