REMARK  5 active torsions:
REMARK  status: ('A' for Active; 'I' for Inactive)
REMARK       I    between atoms: C1_4  and  N2_5 
REMARK       I    between atoms: C1_4  and  N5_10 
REMARK    1  A    between atoms: N5_10  and  C3_12 
REMARK    2  A    between atoms: C3_12  and  C4_13 
REMARK    3  A    between atoms: C3_12  and  C5_15 
REMARK    4  A    between atoms: C5_15  and  N6_16 
REMARK    5  A    between atoms: C5_15  and  C6_20 
ROOT
HETATM    1  N1  UNL     1       0.874  -0.176   1.121  1.00  0.00    -0.234 N 
ATOM      2  H11 UNL     1      -0.088  -0.127   1.455  1.00  0.00     0.174 HD
ATOM      3  H12 UNL     1       1.609   0.025   1.799  1.00  0.00     0.174 HD
HETATM    4  C1  UNL     1       1.084  -0.473  -0.089  1.00  0.00     0.678 C 
HETATM    5  N2  UNL     1       2.446  -0.543  -0.562  1.00  0.00    -0.166 N 
ATOM      6  H2  UNL     1       2.739  -1.340  -1.127  1.00  0.00     0.186 HD
HETATM    7  C2  UNL     1       3.299   0.383  -0.283  1.00  0.00     0.215 C 
HETATM    8  N3  UNL     1       2.963   1.534   0.505  1.00  0.00    -0.066 NA
HETATM    9  N4  UNL     1       4.624   0.302  -0.751  1.00  0.00    -0.066 NA
HETATM   10  N5  UNL     1       0.068  -0.751  -1.025  1.00  0.00    -0.190 N 
ATOM     11  H5  UNL     1       0.343  -0.678  -2.004  1.00  0.00     0.184 HD
ENDROOT
BRANCH  10  12
HETATM   12  C3  UNL     1      -1.281  -1.118  -0.798  1.00  0.00     0.103 C 
BRANCH  12  13
HETATM   13  C4  UNL     1      -1.507  -2.166   0.220  1.00  0.00     0.286 C 
HETATM   14  O1  UNL     1      -0.587  -2.731   0.774  1.00  0.00    -0.300 OA
ENDBRANCH  12  13
BRANCH  12  15
HETATM   15  C5  UNL     1      -2.348  -0.088  -0.915  1.00  0.00     0.324 C 
BRANCH  15  16
HETATM   16  N6  UNL     1      -3.611  -0.811  -0.598  1.00  0.00    -0.061 N 
ATOM     17  H63 UNL     1      -3.770  -1.639  -1.172  1.00  0.00     0.275 HD
ATOM     18  H62 UNL     1      -3.598  -1.294   0.300  1.00  0.00     0.275 HD
ATOM     19  H61 UNL     1      -4.343  -0.105  -0.678  1.00  0.00     0.275 HD
ENDBRANCH  15  16
BRANCH  15  20
HETATM   20  C6  UNL     1      -2.238   1.126  -0.127  1.00  0.00     0.267 C 
HETATM   21  N7  UNL     1      -1.332   2.162  -0.471  1.00  0.00    -0.060 NA
HETATM   22  O2  UNL     1      -2.959   1.285   0.888  1.00  0.00    -0.274 OA
ENDBRANCH  15  20
ENDBRANCH  12  15
ENDBRANCH  10  12
TORSDOF 5
