REMARK  4 active torsions:
REMARK  status: ('A' for Active; 'I' for Inactive)
REMARK    1  A    between atoms: C1_2  and  C2_4 
REMARK    2  A    between atoms: C2_4  and  N2_5 
REMARK    3  A    between atoms: C2_4  and  N3_9 
REMARK    4  A    between atoms: N3_9  and  C3_11 
ROOT
HETATM    1  C3  UNL     1       0.735  -0.072   0.364  1.00  0.00     0.187 A 
HETATM    2  N4  UNL     1       1.141  -0.489  -0.845  1.00  0.00    -0.277 N 
ATOM      3  H4  UNL     1       0.447  -0.836  -1.507  1.00  0.00     0.189 HD
HETATM    4  N5  UNL     1       2.412  -0.464  -1.205  1.00  0.00    -0.250 N 
ATOM      5  H5  UNL     1       2.667  -0.793  -2.136  1.00  0.00     0.192 HD
HETATM    6  C4  UNL     1       3.381  -0.020  -0.385  1.00  0.00     0.341 A 
HETATM    7  O2  UNL     1       4.590  -0.003  -0.748  1.00  0.00    -0.245 OA
HETATM    8  N6  UNL     1       2.978   0.401   0.833  1.00  0.00    -0.271 N 
ATOM      9  H6  UNL     1       3.685   0.745   1.483  1.00  0.00     0.174 HD
HETATM   10  C5  UNL     1       1.707   0.391   1.232  1.00  0.00     0.294 A 
HETATM   11  O3  UNL     1       1.357   0.795   2.389  1.00  0.00    -0.264 OA
ENDROOT
BRANCH   1  12
HETATM   12  N3  UNL     1      -0.478  -0.078   0.756  1.00  0.00    -0.336 N 
ATOM     13  H3  UNL     1      -0.633   0.269   1.702  1.00  0.00     0.163 HD
BRANCH  12  14
HETATM   14  C2  UNL     1      -1.646  -0.499   0.064  1.00  0.00     0.373 C 
BRANCH  14  15
HETATM   15  C1  UNL     1      -2.712   0.526   0.038  1.00  0.00     0.281 C 
HETATM   16  N1  UNL     1      -2.498   1.764  -0.617  1.00  0.00    -0.059 NA
HETATM   17  O1  UNL     1      -3.802   0.305   0.593  1.00  0.00    -0.273 OA
ENDBRANCH  14  15
BRANCH  14  18
HETATM   18  N2  UNL     1      -2.175  -1.651   0.811  1.00  0.00    -0.050 N 
ATOM     19  H23 UNL     1      -2.516  -1.404   1.740  1.00  0.00     0.277 HD
ATOM     20  H22 UNL     1      -3.057  -2.000   0.437  1.00  0.00     0.277 HD
ATOM     21  H21 UNL     1      -1.440  -2.358   0.829  1.00  0.00     0.277 HD
ENDBRANCH  14  18
ENDBRANCH  12  14
ENDBRANCH   1  12
TORSDOF 4
