REMARK  4 active torsions:
REMARK  status: ('A' for Active; 'I' for Inactive)
REMARK    1  A    between atoms: N2_4  and  N3_6 
REMARK       I    between atoms: N3_6  and  C1_8 
REMARK       I    between atoms: C1_8  and  N6_14 
REMARK       I    between atoms: N4_9  and  C2_11 
REMARK    2  A    between atoms: N6_14  and  N7_16 
REMARK    3  A    between atoms: C3_18  and  C4_19 
REMARK       I    between atoms: C4_19  and  N8_21 
REMARK    4  A    between atoms: N8_21  and  N9_23 
ROOT
HETATM    1  N3  UNL     1      -1.963   1.371  -1.219  1.00  0.00    -0.117 N 
ATOM      2  H3  UNL     1      -1.871   1.362  -2.235  1.00  0.00     0.207 HD
HETATM    3  C1  UNL     1      -1.647   0.194  -0.517  1.00  0.00     0.716 C 
HETATM    4  N4  UNL     1      -2.159  -0.910  -0.898  1.00  0.00    -0.141 N 
ATOM      5  H4  UNL     1      -2.779  -0.868  -1.707  1.00  0.00     0.189 HD
HETATM    6  C2  UNL     1      -1.963  -2.173  -0.328  1.00  0.00     0.347 C 
HETATM    7  N5  UNL     1      -2.426  -2.550   0.961  1.00  0.00    -0.039 NA
HETATM    8  O1  UNL     1      -1.338  -3.044  -0.986  1.00  0.00    -0.250 OA
HETATM    9  N6  UNL     1      -0.781   0.247   0.587  1.00  0.00    -0.131 N 
ATOM     10  H6  UNL     1      -0.755  -0.518   1.261  1.00  0.00     0.205 HD
ENDROOT
BRANCH   1  11
HETATM   11  N2  UNL     1      -2.395   2.550  -0.612  1.00  0.00    -0.235 N 
HETATM   12  N1  UNL     1      -2.231   3.633  -1.216  1.00  0.00    -0.330 N 
ATOM     13  H12 UNL     1      -1.788   3.637  -2.135  1.00  0.00     0.178 HD
ATOM     14  H11 UNL     1      -2.547   4.495  -0.772  1.00  0.00     0.178 HD
ATOM     15  H2  UNL     1      -2.836   2.530   0.307  1.00  0.00     0.208 HD
ENDBRANCH   1  11
BRANCH   9  16
HETATM   16  N7  UNL     1       0.043   1.360   0.749  1.00  0.00    -0.292 N 
HETATM   17  C3  UNL     1       1.300   1.400   0.626  1.00  0.00     0.183 C 
ATOM     18  H7  UNL     1      -0.419   2.236   0.993  1.00  0.00     0.186 HD
BRANCH  17  19
HETATM   19  C4  UNL     1       2.066   0.212   0.281  1.00  0.00     0.276 C 
HETATM   20  O2  UNL     1       1.415  -0.869   0.109  1.00  0.00    -0.265 OA
HETATM   21  N8  UNL     1       3.478   0.243   0.140  1.00  0.00    -0.272 N 
ATOM     22  H8  UNL     1       3.985   1.117   0.281  1.00  0.00     0.189 HD
BRANCH  21  23
HETATM   23  N9  UNL     1       4.160  -0.900  -0.186  1.00  0.00    -0.342 N 
ATOM     24  H92 UNL     1       3.638  -1.765  -0.324  1.00  0.00     0.176 HD
ATOM     25  H91 UNL     1       5.175  -0.878  -0.287  1.00  0.00     0.176 HD
ENDBRANCH  21  23
ENDBRANCH  17  19
ENDBRANCH   9  16
TORSDOF 4
