REMARK  2 active torsions:
REMARK  status: ('A' for Active; 'I' for Inactive)
REMARK    1  A    between atoms: O1_2  and  C2_3 
REMARK    2  A    between atoms: C6_11  and  N2_12 
REMARK       I    between atoms: N2_12  and  C7_14 
ROOT
HETATM    1  C2  UNL     1      -0.604   0.496  -0.698  1.00  0.00     0.172 C 
HETATM    2  C3  UNL     1      -1.915  -0.159  -1.096  1.00  0.00     0.053 C 
HETATM    3  C4  UNL     1      -2.603  -0.701   0.113  1.00  0.00     0.086 C 
HETATM    4 BR1  UNL     1      -2.704  -2.630   0.102  1.00  0.00    -0.089 Br
HETATM    5  C5  UNL     1      -2.005  -0.257   1.410  1.00  0.00     0.250 C 
HETATM    6  N1  UNL     1      -0.599  -0.450   1.520  1.00  0.00    -0.051 N 
ATOM      7  H11 UNL     1      -0.393  -1.294   2.055  1.00  0.00     0.279 HD
ATOM      8  H12 UNL     1      -0.188   0.249   2.138  1.00  0.00     0.279 HD
HETATM    9  C6  UNL     1       0.088  -0.473   0.248  1.00  0.00     0.315 C 
ENDROOT
BRANCH   9  10
HETATM   10  N2  UNL     1       1.493  -0.225   0.365  1.00  0.00    -0.332 N 
HETATM   11  C7  UNL     1       2.469  -1.180   0.002  1.00  0.00     0.215 C 
HETATM   12  C8  UNL     1       3.920  -0.923   0.124  1.00  0.00     0.117 C 
HETATM   13  O2  UNL     1       2.091  -2.288  -0.439  1.00  0.00    -0.274 OA
ATOM     14  H2  UNL     1       1.802   0.678   0.725  1.00  0.00     0.164 HD
ENDBRANCH   9  10
BRANCH   1  15
HETATM   15  O1  UNL     1      -0.802   1.713  -0.069  1.00  0.00    -0.387 OA
HETATM   16  C1  UNL     1      -0.219   2.780  -0.730  1.00  0.00     0.202 C 
ENDBRANCH   1  15
TORSDOF 2
