REMARK  3 active torsions:
REMARK  status: ('A' for Active; 'I' for Inactive)
REMARK    1  A    between atoms: N2_13  and  N3_15 
REMARK    2  A    between atoms: N3_15  and  C10_17 
REMARK    3  A    between atoms: C11_20  and  O1_21 
ROOT
HETATM    1  C1  UNL     1      -0.422   1.435   2.246  1.00  0.00     0.022 C 
HETATM    2  C2  UNL     1      -0.829   0.142   1.592  1.00  0.00     0.074 C 
HETATM    3  C3  UNL     1      -2.282  -0.012   1.437  1.00  0.00    -0.010 C 
HETATM    4  N1  UNL     1      -3.070   0.675   2.157  1.00  0.00    -0.405 N 
ATOM      5  H11 UNL     1      -4.079   0.568   2.049  1.00  0.00     0.155 HD
ATOM      6  H12 UNL     1      -2.726   1.339   2.850  1.00  0.00     0.155 HD
HETATM    7  C4  UNL     1      -2.784  -0.982   0.425  1.00  0.00     0.061 C 
HETATM    8  C5  UNL     1      -2.252  -0.557  -0.925  1.00  0.00    -0.038 C 
HETATM    9  C6  UNL     1      -2.877   0.752  -1.310  1.00  0.00     0.015 C 
HETATM   10  C7  UNL     1      -2.683  -1.579  -1.985  1.00  0.00     0.015 C 
HETATM   11  C8  UNL     1      -0.751  -0.531  -0.928  1.00  0.00     0.064 C 
HETATM   12  C9  UNL     1      -0.157   0.056   0.274  1.00  0.00     0.013 C 
HETATM   13  N2  UNL     1       1.041   0.539   0.196  1.00  0.00    -0.306 N 
ATOM     14  H2  UNL     1       1.455   0.948   1.034  1.00  0.00     0.186 HD
ENDROOT
BRANCH  13  15
HETATM   15  N3  UNL     1       1.783   0.527  -0.962  1.00  0.00    -0.280 N 
ATOM     16  H3  UNL     1       1.335   0.695  -1.863  1.00  0.00     0.189 HD
BRANCH  15  17
HETATM   17  C10 UNL     1       3.078   0.297  -0.896  1.00  0.00     0.165 A 
HETATM   18  N4  UNL     1       3.813   0.061   0.187  1.00  0.00    -0.316 N 
HETATM   19  C11 UNL     1       5.095  -0.147   0.045  1.00  0.00     0.148 A 
ATOM     20  H4  UNL     1       3.383   0.043   1.112  1.00  0.00     0.170 HD
HETATM   21  C12 UNL     1       5.610  -0.108  -1.221  1.00  0.00     0.109 A 
HETATM   22  S1  UNL     1       4.222   0.226  -2.159  1.00  0.00    -0.060 SA
BRANCH  19  23
HETATM   23  O1  UNL     1       5.976  -0.408   1.133  1.00  0.00    -0.346 OA
ATOM     24  H1  UNL     1       6.908  -0.559   1.030  1.00  0.00     0.219 HD
ENDBRANCH  19  23
ENDBRANCH  15  17
ENDBRANCH  13  15
TORSDOF 3
