REMARK  4 active torsions:
REMARK  status: ('A' for Active; 'I' for Inactive)
REMARK    1  A    between atoms: N1_9  and  N2_11 
REMARK    2  A    between atoms: N2_11  and  C9_13 
REMARK    3  A    between atoms: C10_16  and  O1_17 
REMARK    4  A    between atoms: C11_19  and  C12_20 
ROOT
HETATM    1  C9  UNL     1       1.958  -0.846   0.391  1.00  0.00     0.166 A 
HETATM    2  N3  UNL     1       3.051  -0.803   1.151  1.00  0.00    -0.315 N 
ATOM      3  H3  UNL     1       3.033  -1.170   2.103  1.00  0.00     0.170 HD
HETATM    4  C10 UNL     1       4.141  -0.287   0.664  1.00  0.00     0.161 A 
HETATM    5  C11 UNL     1       4.102   0.189  -0.619  1.00  0.00     0.074 A 
HETATM    6  S1  UNL     1       2.487  -0.131  -1.067  1.00  0.00    -0.047 SA
ENDROOT
BRANCH   1   7
HETATM    7  N2  UNL     1       0.771  -1.327   0.707  1.00  0.00    -0.280 N 
ATOM      8  H2  UNL     1       0.581  -1.734   1.623  1.00  0.00     0.189 HD
BRANCH   7   9
HETATM    9  N1  UNL     1      -0.197  -1.249  -0.269  1.00  0.00    -0.306 N 
HETATM   10  C8  UNL     1      -1.207  -0.432  -0.240  1.00  0.00     0.011 C 
HETATM   11  C2  UNL     1      -2.144  -0.488  -1.372  1.00  0.00     0.029 C 
HETATM   12  C6  UNL     1      -1.315   0.466   0.917  1.00  0.00     0.029 C 
HETATM   13  C1  UNL     1      -3.035  -1.710  -1.326  1.00  0.00     0.016 C 
HETATM   14  C3  UNL     1      -2.973   0.776  -1.448  1.00  0.00     0.010 C 
HETATM   15  C4  UNL     1      -3.499   1.051  -0.056  1.00  0.00     0.001 C 
HETATM   16  C5  UNL     1      -2.300   1.576   0.741  1.00  0.00     0.010 C 
HETATM   17  C7  UNL     1      -1.712  -0.283   2.193  1.00  0.00     0.016 C 
ATOM     18  H1  UNL     1      -0.116  -1.876  -1.070  1.00  0.00     0.186 HD
ENDBRANCH   7   9
ENDBRANCH   1   7
BRANCH   4  19
HETATM   19  O1  UNL     1       5.364  -0.190   1.386  1.00  0.00    -0.345 OA
ATOM     20  H1  UNL     1       6.160   0.187   1.030  1.00  0.00     0.219 HD
ENDBRANCH   4  19
BRANCH   5  21
HETATM   21  C12 UNL     1       5.170   0.815  -1.413  1.00  0.00     0.104 C 
HETATM   22  N4  UNL     1       6.334   0.969  -0.889  1.00  0.00    -0.407 N 
ATOM     23  H42 UNL     1       6.498   0.655   0.068  1.00  0.00     0.155 HD
ATOM     24  H41 UNL     1       7.075   1.403  -1.440  1.00  0.00     0.155 HD
ENDBRANCH   5  21
TORSDOF 4
