REMARK  11 active torsions:
REMARK  status: ('A' for Active; 'I' for Inactive)
REMARK    1  A    between atoms: C2_2  and  O1_3 
REMARK    2  A    between atoms: O1_3  and  C3_4 
REMARK       I    between atoms: C3_4  and  N1_6 
REMARK    3  A    between atoms: N2_8  and  C4_10 
REMARK    4  A    between atoms: C4_10  and  N3_12 
REMARK       I    between atoms: N3_12  and  C5_14 
REMARK       I    between atoms: C5_14  and  N5_19 
REMARK    5  A    between atoms: N4_15  and  O3_17 
REMARK    6  A    between atoms: N5_19  and  N6_21 
REMARK    7  A    between atoms: C6_23  and  C7_24 
REMARK    8  A    between atoms: C9_26  and  O4_27 
REMARK    9  A    between atoms: C10_29  and  O5_30 
REMARK   10  A    between atoms: C12_32  and  O6_33 
REMARK   11  A    between atoms: C13_35  and  O7_36 
ROOT
HETATM    1  N3  UNL     1       3.204   0.737   1.496  1.00  0.00    -0.162 N 
ATOM      2  H3  UNL     1       3.666   0.505   2.375  1.00  0.00     0.187 HD
HETATM    3  C5  UNL     1       2.146  -0.071   1.004  1.00  0.00     0.718 C 
HETATM    4  N4  UNL     1       2.153  -0.482  -0.200  1.00  0.00    -0.097 N 
ATOM      5  H4  UNL     1       2.948  -0.200  -0.774  1.00  0.00     0.213 HD
HETATM    6  N5  UNL     1       1.084  -0.408   1.884  1.00  0.00    -0.131 N 
ATOM      7  H5  UNL     1       1.339  -0.789   2.795  1.00  0.00     0.205 HD
ENDROOT
BRANCH   6   8
HETATM    8  N6  UNL     1      -0.256  -0.267   1.618  1.00  0.00    -0.297 N 
HETATM    9  C6  UNL     1      -1.059  -1.204   1.305  1.00  0.00     0.122 C 
ATOM     10  H6  UNL     1      -0.643   0.675   1.677  1.00  0.00     0.186 HD
BRANCH   9  11
HETATM   11  C7  UNL     1      -2.474  -1.013   1.031  1.00  0.00     0.020 A 
HETATM   12  C8  UNL     1      -3.271  -2.142   0.740  1.00  0.00     0.055 A 
HETATM   13  C9  UNL     1      -4.618  -2.016   0.503  1.00  0.00     0.102 A 
HETATM   14  C10 UNL     1      -5.210  -0.774   0.550  1.00  0.00     0.137 A 
HETATM   15  C12 UNL     1      -4.416   0.344   0.839  1.00  0.00     0.136 A 
HETATM   16  C13 UNL     1      -3.046   0.229   1.079  1.00  0.00     0.116 A 
BRANCH  13  17
HETATM   17  O4  UNL     1      -5.415  -3.115   0.215  1.00  0.00    -0.358 OA
ATOM     18  H4  UNL     1      -6.347  -3.028   0.051  1.00  0.00     0.217 HD
ENDBRANCH  13  17
BRANCH  14  19
HETATM   19  O5  UNL     1      -6.549  -0.623   0.319  1.00  0.00    -0.351 OA
HETATM   20  C11 UNL     1      -7.165  -0.393  -0.910  1.00  0.00     0.210 C 
ENDBRANCH  14  19
BRANCH  15  21
HETATM   21  O6  UNL     1      -4.977   1.608   0.895  1.00  0.00    -0.356 OA
ATOM     22  H6  UNL     1      -4.439   2.366   1.091  1.00  0.00     0.218 HD
ENDBRANCH  15  21
BRANCH  16  23
HETATM   23  O7  UNL     1      -2.320   1.375   1.354  1.00  0.00    -0.352 OA
HETATM   24  C14 UNL     1      -1.741   2.144   0.286  1.00  0.00     0.210 C 
ENDBRANCH  16  23
ENDBRANCH   9  11
ENDBRANCH   6   8
BRANCH   1  25
HETATM   25  C4  UNL     1       3.608   1.869   0.750  1.00  0.00     0.205 C 
HETATM   26  S1  UNL     1       2.875   2.258  -0.664  1.00  0.00    -0.039 SA
BRANCH  25  27
HETATM   27  N2  UNL     1       4.660   2.725   1.178  1.00  0.00    -0.271 N 
HETATM   28  N1  UNL     1       5.821   2.689   0.666  1.00  0.00    -0.243 N 
HETATM   29  C3  UNL     1       6.170   1.791  -0.379  1.00  0.00     0.379 C 
ATOM     30  H1  UNL     1       6.532   3.330   1.019  1.00  0.00     0.192 HD
HETATM   31  O2  UNL     1       6.766   2.173  -1.412  1.00  0.00    -0.237 OA
ATOM     32  H2  UNL     1       4.474   3.394   1.925  1.00  0.00     0.189 HD
BRANCH  29  33
HETATM   33  O1  UNL     1       5.838   0.468  -0.240  1.00  0.00    -0.303 OA
BRANCH  33  34
HETATM   34  C2  UNL     1       6.118  -0.530  -1.186  1.00  0.00     0.176 C 
HETATM   35  C1  UNL     1       5.464  -0.245  -2.525  1.00  0.00     0.034 C 
ENDBRANCH  33  34
ENDBRANCH  29  33
ENDBRANCH  25  27
ENDBRANCH   1  25
BRANCH   4  36
HETATM   36  O3  UNL     1       1.216  -1.254  -0.799  1.00  0.00    -0.276 OA
ATOM     37  H3  UNL     1       1.221  -1.561  -1.698  1.00  0.00     0.245 HD
ENDBRANCH   4  36
TORSDOF 11
