REMARK  7 active torsions:
REMARK  status: ('A' for Active; 'I' for Inactive)
REMARK    1  A    between atoms: O1_2  and  C2_3 
REMARK    2  A    between atoms: C2_3  and  C3_5 
REMARK    3  A    between atoms: C5_10  and  O3_11 
REMARK    4  A    between atoms: C5_10  and  C17_28 
REMARK    5  A    between atoms: O3_11  and  C6_12 
REMARK    6  A    between atoms: C11_18  and  O5_19 
REMARK    7  A    between atoms: C15_25  and  O7_26 
ROOT
HETATM    1  C6  UNL     1      -0.580  -0.217   0.305  1.00  0.00     0.107 A 
HETATM    2  C7  UNL     1      -1.249  -1.408   0.312  1.00  0.00     0.049 A 
HETATM    3  C8  UNL     1      -2.629  -1.490   0.393  1.00  0.00    -0.024 A 
HETATM    4  C9  UNL     1      -3.341  -2.809   0.399  1.00  0.00     0.051 C 
HETATM    5  C10 UNL     1      -3.382  -0.346   0.471  1.00  0.00     0.101 A 
HETATM    6  O4  UNL     1      -4.690  -0.376   0.552  1.00  0.00    -0.286 OA
HETATM    7  C11 UNL     1      -5.462   0.674   0.632  1.00  0.00     0.187 A 
HETATM    8  C12 UNL     1      -4.910   1.929   0.636  1.00  0.00     0.119 A 
HETATM    9  C13 UNL     1      -3.522   2.025   0.552  1.00  0.00     0.192 A 
HETATM   10  O6  UNL     1      -2.960   3.149   0.554  1.00  0.00    -0.287 OA
HETATM   11  C14 UNL     1      -2.746   0.894   0.467  1.00  0.00     0.085 A 
HETATM   12  C15 UNL     1      -1.367   0.940   0.384  1.00  0.00     0.118 A 
ENDROOT
BRANCH   1  13
HETATM   13  O3  UNL     1       0.757  -0.093   0.229  1.00  0.00    -0.307 OA
BRANCH  13  14
HETATM   14  C5  UNL     1       1.792  -0.993   0.158  1.00  0.00     0.269 C 
HETATM   15  C3  UNL     1       3.091  -0.209   0.107  1.00  0.00     0.168 C 
HETATM   16  C4  UNL     1       3.140   0.692   1.325  1.00  0.00     0.045 C 
HETATM   17  S1  UNL     1       4.197  -1.649   0.467  1.00  0.00    -0.019 SA
HETATM   18  N1  UNL     1       2.978  -2.497   1.471  1.00  0.00    -0.069 NA
HETATM   19  N2  UNL     1       1.933  -1.606   1.480  1.00  0.00    -0.083 NA
BRANCH  15  20
HETATM   20  C2  UNL     1       3.434   0.445  -1.121  1.00  0.00     0.283 C 
HETATM   21  O2  UNL     1       2.642   0.610  -2.059  1.00  0.00    -0.263 OA
BRANCH  20  22
HETATM   22  O1  UNL     1       4.727   0.928  -1.275  1.00  0.00    -0.325 OA
HETATM   23  C1  UNL     1       5.168   1.587  -2.441  1.00  0.00     0.213 C 
ENDBRANCH  20  22
ENDBRANCH  15  20
BRANCH  14  24
HETATM   24  C17 UNL     1       1.697  -2.087  -0.799  1.00  0.00     0.231 C 
HETATM   25  O8  UNL     1       1.809  -3.331  -0.487  1.00  0.00    -0.645 OA
HETATM   26  O9  UNL     1       1.470  -1.904  -2.163  1.00  0.00    -0.645 OA
ENDBRANCH  14  24
ENDBRANCH  13  14
ENDBRANCH   1  13
BRANCH  12  27
HETATM   27  O7  UNL     1      -0.698   2.153   0.376  1.00  0.00    -0.352 OA
HETATM   28  C16 UNL     1      -0.427   2.714  -0.923  1.00  0.00     0.210 C 
ENDBRANCH  12  27
BRANCH   7  29
HETATM   29  O5  UNL     1      -6.864   0.530   0.715  1.00  0.00    -0.341 OA
ATOM     30  H5  UNL     1      -7.426   1.294   0.773  1.00  0.00     0.220 HD
ENDBRANCH   7  29
TORSDOF 7
