REMARK  11 active torsions:
REMARK  status: ('A' for Active; 'I' for Inactive)
REMARK    1  A    between atoms: O1_2  and  C2_3 
REMARK    2  A    between atoms: C3_4  and  C4_5 
REMARK    3  A    between atoms: C4_5  and  O2_6 
REMARK    4  A    between atoms: C4_5  and  N1_8 
REMARK    5  A    between atoms: N1_8  and  N2_10 
REMARK    6  A    between atoms: C5_12  and  C6_13 
REMARK    7  A    between atoms: C6_13  and  O3_16 
REMARK    8  A    between atoms: C11_21  and  N3_22 
REMARK    9  A    between atoms: C13_26  and  O7_27 
REMARK   10  A    between atoms: C15_30  and  O8_31 
REMARK   11  A    between atoms: C17_34  and  O9_35 
ROOT
HETATM    1  C2  UNL     1       0.774  -0.454  -0.771  1.00  0.00     0.100 A 
HETATM    2  C3  UNL     1       0.226  -0.221   0.386  1.00  0.00     0.101 A 
HETATM    3  C9  UNL     1       1.074   0.334   1.493  1.00  0.00     0.202 A 
HETATM    4  O4  UNL     1       0.509   0.545   2.594  1.00  0.00    -0.286 OA
HETATM    5  C10 UNL     1       2.474   0.598   1.241  1.00  0.00     0.060 A 
HETATM    6  C11 UNL     1       3.261   1.131   2.243  1.00  0.00     0.120 A 
HETATM    7  C12 UNL     1       4.611   1.403   1.910  1.00  0.00     0.074 A 
HETATM    8  C13 UNL     1       5.109   1.150   0.669  1.00  0.00     0.082 A 
HETATM    9  C14 UNL     1       4.305   0.614  -0.315  1.00  0.00     0.043 A 
HETATM   10  C15 UNL     1       4.837   0.405  -1.579  1.00  0.00     0.082 A 
HETATM   11  C16 UNL     1       4.045  -0.087  -2.564  1.00  0.00     0.075 A 
HETATM   12  C17 UNL     1       2.713  -0.389  -2.328  1.00  0.00     0.082 A 
HETATM   13  C18 UNL     1       2.188  -0.187  -1.069  1.00  0.00     0.044 A 
HETATM   14  C19 UNL     1       2.977   0.329  -0.039  1.00  0.00     0.012 A 
ENDROOT
BRANCH   2  15
HETATM   15  C4  UNL     1      -1.147  -0.445   0.699  1.00  0.00     0.172 C 
BRANCH  15  16
HETATM   16  O2  UNL     1      -1.514  -0.276   1.944  1.00  0.00    -0.344 OA
ATOM     17  H2  UNL     1      -2.429  -0.425   2.153  1.00  0.00     0.219 HD
ENDBRANCH  15  16
BRANCH  15  18
HETATM   18  N1  UNL     1      -2.209  -0.811  -0.121  1.00  0.00    -0.280 N 
ATOM     19  H1  UNL     1      -2.050  -0.956  -1.118  1.00  0.00     0.189 HD
BRANCH  18  20
HETATM   20  N2  UNL     1      -3.531  -0.987   0.422  1.00  0.00    -0.311 N 
HETATM   21  C5  UNL     1      -4.385  -0.130  -0.008  1.00  0.00     0.117 C 
ATOM     22  H2  UNL     1      -3.767  -1.724   1.086  1.00  0.00     0.185 HD
BRANCH  21  23
HETATM   23  C6  UNL     1      -5.778  -0.204   0.474  1.00  0.00     0.084 C 
HETATM   24  C7  UNL     1      -6.704  -0.590  -0.661  1.00  0.00     0.051 C 
HETATM   25  C8  UNL     1      -6.125   1.187   1.002  1.00  0.00     0.051 C 
BRANCH  23  26
HETATM   26  O3  UNL     1      -5.877  -1.156   1.468  1.00  0.00    -0.385 OA
ATOM     27  H3  UNL     1      -6.774  -1.204   1.778  1.00  0.00     0.211 HD
ENDBRANCH  23  26
ENDBRANCH  21  23
ENDBRANCH  18  20
ENDBRANCH  15  18
ENDBRANCH   2  15
BRANCH   1  28
HETATM   28  O1  UNL     1       0.047  -0.996  -1.863  1.00  0.00    -0.354 OA
HETATM   29  C1  UNL     1       0.088  -2.467  -1.803  1.00  0.00     0.210 C 
ENDBRANCH   1  28
BRANCH  12  30
HETATM   30  O9  UNL     1       1.936  -0.875  -3.366  1.00  0.00    -0.360 OA
ATOM     31  H9  UNL     1       1.023  -1.082  -3.204  1.00  0.00     0.217 HD
ENDBRANCH  12  30
BRANCH   6  32
HETATM   32  N3  UNL     1       2.853   1.432   3.548  1.00  0.00    -0.115 N 
HETATM   33  O5  UNL     1       2.140   0.762   4.279  1.00  0.00    -0.532 OA
HETATM   34  O6  UNL     1       3.399   2.587   4.160  1.00  0.00    -0.532 OA
ENDBRANCH   6  32
BRANCH  10  35
HETATM   35  O8  UNL     1       6.177   0.717  -1.768  1.00  0.00    -0.360 OA
ATOM     36  H8  UNL     1       6.541   0.574  -2.634  1.00  0.00     0.217 HD
ENDBRANCH  10  35
BRANCH   8  37
HETATM   37  O7  UNL     1       6.426   1.426   0.375  1.00  0.00    -0.360 OA
ATOM     38  H7  UNL     1       6.774   1.249  -0.491  1.00  0.00     0.217 HD
ENDBRANCH   8  37
TORSDOF 11
