REMARK  7 active torsions:
REMARK  status: ('A' for Active; 'I' for Inactive)
REMARK    1  A    between atoms: N1_1  and  C1_4 
REMARK    2  A    between atoms: C2_9  and  C3_10 
REMARK    3  A    between atoms: C3_10  and  C4_11 
REMARK    4  A    between atoms: C4_11  and  C5_12 
REMARK    5  A    between atoms: C5_12  and  C6_13 
REMARK    6  A    between atoms: N6_20  and  C9_21 
REMARK    7  A    between atoms: C9_21  and  C10_22 
ROOT
HETATM    1  C1  UNL     1      -1.887  -1.921   0.812  1.00  0.00     0.694 A 
HETATM    2  N2  UNL     1      -0.720  -2.121   1.472  1.00  0.00    -0.131 N 
ATOM      3  H2  UNL     1      -0.544  -2.849   2.165  1.00  0.00     0.205 HD
HETATM    4  N3  UNL     1       0.144  -1.222   1.070  1.00  0.00    -0.274 N 
ATOM      5  H3  UNL     1       1.103  -1.150   1.411  1.00  0.00     0.189 HD
HETATM    6  C2  UNL     1      -0.396  -0.409   0.152  1.00  0.00     0.115 A 
HETATM    7  N6  UNL     1      -1.677  -0.869   0.006  1.00  0.00    -0.170 N 
ENDROOT
BRANCH   6   8
HETATM    8  C3  UNL     1       0.211   0.734  -0.565  1.00  0.00     0.079 C 
BRANCH   8   9
HETATM    9  C4  UNL     1       1.643   0.959  -0.248  1.00  0.00     0.013 C 
BRANCH   9  10
HETATM   10  C5  UNL     1       2.592  -0.134  -0.598  1.00  0.00     0.059 C 
BRANCH  10  11
HETATM   11  C6  UNL     1       3.974   0.276  -0.216  1.00  0.00     0.027 A 
HETATM   12  C7  UNL     1       5.122  -0.493  -0.394  1.00  0.00     0.045 A 
HETATM   13  C8  UNL     1       6.193   0.227   0.081  1.00  0.00     0.109 A 
HETATM   14  N4  UNL     1       5.715   1.397   0.533  1.00  0.00    -0.312 N 
HETATM   15  N5  UNL     1       4.401   1.417   0.353  1.00  0.00    -0.305 N 
ATOM     16  H4  UNL     1       6.270   2.146   0.946  1.00  0.00     0.186 HD
ATOM     17  H5  UNL     1       3.795   2.195   0.612  1.00  0.00     0.186 HD
ENDBRANCH  10  11
ENDBRANCH   9  10
ENDBRANCH   8   9
ENDBRANCH   6   8
BRANCH   7  18
HETATM   18  C9  UNL     1      -2.610  -0.267  -0.888  1.00  0.00     0.153 C 
BRANCH  18  19
HETATM   19  C10 UNL     1      -3.414   0.864  -0.339  1.00  0.00     0.005 A 
HETATM   20  C11 UNL     1      -4.321   0.792   0.800  1.00  0.00     0.007 A 
HETATM   21  C12 UNL     1      -4.911   0.877  -0.582  1.00  0.00     0.007 A 
ENDBRANCH  18  19
ENDBRANCH   7  18
BRANCH   1  22
HETATM   22  N1  UNL     1      -2.942  -2.644   0.973  1.00  0.00    -0.233 N 
ATOM     23  H12 UNL     1      -3.102  -3.444   1.586  1.00  0.00     0.174 HD
ATOM     24  H11 UNL     1      -3.820  -2.494   0.476  1.00  0.00     0.174 HD
ENDBRANCH   1  22
TORSDOF 7
