REMARK  8 active torsions:
REMARK  status: ('A' for Active; 'I' for Inactive)
REMARK    1  A    between atoms: C1_1  and  C2_2 
REMARK    2  A    between atoms: C1_1  and  C5_15 
REMARK    3  A    between atoms: C2_2  and  C3_3 
REMARK    4  A    between atoms: C3_3  and  N1_4 
REMARK    5  A    between atoms: N1_4  and  C4_6 
REMARK    6  A    between atoms: C5_15  and  C6_16 
REMARK    7  A    between atoms: C6_16  and  N6_17 
REMARK    8  A    between atoms: N6_17  and  C7_19 
ROOT
HETATM    1  C2  UNL     1      -2.953  -2.057  -1.259  1.00  0.00     0.020 C 
ENDROOT
BRANCH   1   2
HETATM    2  C1  UNL     1      -1.485  -1.866  -1.115  1.00  0.00     0.003 C 
BRANCH   2   3
HETATM    3  C5  UNL     1      -1.030  -0.628  -0.422  1.00  0.00     0.019 C 
BRANCH   3   4
HETATM    4  C6  UNL     1       0.515  -0.562  -0.403  1.00  0.00     0.114 C 
BRANCH   4   5
HETATM    5  N6  UNL     1       0.855   0.646   0.281  1.00  0.00    -0.417 N 
ATOM      6  H6  UNL     1       0.147   1.275   0.659  1.00  0.00     0.153 HD
BRANCH   5   7
HETATM    7  C7  UNL     1       2.247   0.912   0.399  1.00  0.00     0.076 C 
HETATM    8  C8  UNL     1       3.014  -0.098   1.180  1.00  0.00     0.024 C 
HETATM    9  C9  UNL     1       4.475   0.089   1.149  1.00  0.00     0.002 C 
HETATM   10  C10 UNL     1       5.007   1.300   0.480  1.00  0.00     0.000 C 
HETATM   11  C11 UNL     1       4.212   1.831  -0.665  1.00  0.00     0.002 C 
HETATM   12  C12 UNL     1       2.945   1.054  -0.933  1.00  0.00     0.024 C 
ENDBRANCH   5   7
ENDBRANCH   4   5
ENDBRANCH   3   4
ENDBRANCH   2   3
ENDBRANCH   1   2
BRANCH   1  13
HETATM   13  C3  UNL     1      -3.770  -2.132  -0.028  1.00  0.00     0.138 C 
BRANCH  13  14
HETATM   14  N1  UNL     1      -3.794  -0.995   0.821  1.00  0.00    -0.223 N 
ATOM     15  H1  UNL     1      -3.156  -1.007   1.617  1.00  0.00     0.177 HD
BRANCH  14  16
HETATM   16  C4  UNL     1      -4.527   0.040   0.695  1.00  0.00     0.709 A 
HETATM   17  N2  UNL     1      -5.441   0.315  -0.245  1.00  0.00    -0.115 N 
HETATM   18  N3  UNL     1      -5.964   1.488  -0.002  1.00  0.00    -0.213 N 
ATOM     19  H2  UNL     1      -5.689  -0.293  -1.025  1.00  0.00     0.207 HD
HETATM   20  N4  UNL     1      -5.412   1.990   1.080  1.00  0.00    -0.213 N 
ATOM     21  H3  UNL     1      -6.685   1.941  -0.563  1.00  0.00     0.210 HD
HETATM   22  N5  UNL     1      -4.532   1.106   1.510  1.00  0.00    -0.115 N 
ATOM     23  H4  UNL     1      -5.624   2.892   1.506  1.00  0.00     0.210 HD
ATOM     24  H5  UNL     1      -3.945   1.216   2.337  1.00  0.00     0.207 HD
ENDBRANCH  14  16
ENDBRANCH  13  14
ENDBRANCH   1  13
TORSDOF 8
