REMARK  7 active torsions:
REMARK  status: ('A' for Active; 'I' for Inactive)
REMARK    1  A    between atoms: C6_7  and  N2_8 
REMARK    2  A    between atoms: N2_8  and  C7_10 
REMARK    3  A    between atoms: C7_10  and  C8_11 
REMARK    4  A    between atoms: C8_11  and  C9_12 
REMARK    5  A    between atoms: C9_12  and  N3_13 
REMARK    6  A    between atoms: N3_13  and  C10_15 
REMARK    7  A    between atoms: C10_15  and  C11_16 
ROOT
HETATM    1  N1  UNL     1       5.746   3.583   1.541  1.00  0.00    -0.191 NA
HETATM    2  C1  UNL     1       5.439   2.569   1.063  1.00  0.00     0.099 C 
HETATM    3  C2  UNL     1       5.029   1.308   0.482  1.00  0.00     0.046 A 
HETATM    4  C3  UNL     1       5.961   0.321   0.188  1.00  0.00     0.023 A 
HETATM    5  C4  UNL     1       5.572  -0.880  -0.365  1.00  0.00     0.004 A 
HETATM    6  C5  UNL     1       4.240  -1.111  -0.633  1.00  0.00     0.029 A 
HETATM    7  C6  UNL     1       3.268  -0.156  -0.358  1.00  0.00     0.029 A 
HETATM    8  C14 UNL     1       3.718   1.027   0.196  1.00  0.00     0.051 A 
ENDROOT
BRANCH   7   9
HETATM    9  N2  UNL     1       1.899  -0.399  -0.636  1.00  0.00    -0.390 N 
ATOM     10  H2  UNL     1       1.620  -1.273  -1.082  1.00  0.00     0.159 HD
BRANCH   9  11
HETATM   11  C7  UNL     1       0.905   0.573  -0.295  1.00  0.00     0.125 C 
BRANCH  11  12
HETATM   12  C8  UNL     1      -0.516   0.117  -0.636  1.00  0.00     0.064 C 
BRANCH  12  13
HETATM   13  C9  UNL     1      -0.786  -1.121   0.137  1.00  0.00     0.061 C 
BRANCH  13  14
HETATM   14  N3  UNL     1      -2.019  -1.711  -0.020  1.00  0.00    -0.380 N 
ATOM     15  H3  UNL     1      -2.007  -2.553  -0.595  1.00  0.00     0.164 HD
BRANCH  14  16
HETATM   16  C10 UNL     1      -3.257  -1.376   0.453  1.00  0.00     0.092 C 
BRANCH  16  17
HETATM   17  C11 UNL     1      -3.976  -0.160   0.008  1.00  0.00     0.225 C 
HETATM   18  C12 UNL     1      -5.392  -0.118   0.670  1.00  0.00     0.066 C 
HETATM   19  C13 UNL     1      -5.062   1.319   0.959  1.00  0.00     0.235 C 
HETATM   20  N4  UNL     1      -3.662   1.093   0.688  1.00  0.00    -0.066 N 
ATOM     21  H42 UNL     1      -2.992   1.096   1.457  1.00  0.00     0.278 HD
ATOM     22  H41 UNL     1      -3.120   1.808   0.204  1.00  0.00     0.278 HD
ENDBRANCH  16  17
ENDBRANCH  14  16
ENDBRANCH  13  14
ENDBRANCH  12  13
ENDBRANCH  11  12
ENDBRANCH   9  11
ENDBRANCH   7   9
TORSDOF 7
