REMARK  7 active torsions:
REMARK  status: ('A' for Active; 'I' for Inactive)
REMARK    1  A    between atoms: N1_1  and  C1_4 
REMARK    2  A    between atoms: C4_9  and  N3_10 
REMARK    3  A    between atoms: N3_10  and  C5_11 
REMARK    4  A    between atoms: N3_10  and  C7_17 
REMARK    5  A    between atoms: C5_11  and  C6_12 
REMARK    6  A    between atoms: C6_12  and  N4_13 
REMARK    7  A    between atoms: C7_17  and  C8_18 
ROOT
HETATM    1  N3  UNL     1       0.691   0.596  -0.460  1.00  0.00    -0.365 N 
ENDROOT
BRANCH   1   2
HETATM    2  C4  UNL     1       1.663  -0.361  -0.089  1.00  0.00     0.105 A 
HETATM    3  N2  UNL     1       2.667  -0.571  -0.976  1.00  0.00    -0.352 N 
HETATM    4  C3  UNL     1       3.649  -1.446  -0.731  1.00  0.00     0.092 A 
ATOM      5  H2  UNL     1       2.674  -0.049  -1.852  1.00  0.00     0.166 HD
HETATM    6  C2  UNL     1       3.666  -2.167   0.439  1.00  0.00     0.046 A 
HETATM    7  C1  UNL     1       2.666  -1.982   1.359  1.00  0.00     0.030 A 
HETATM    8  C13 UNL     1       1.664  -1.061   1.066  1.00  0.00     0.077 A 
BRANCH   7   9
HETATM    9  N1  UNL     1       2.682  -2.653   2.444  1.00  0.00    -0.399 N 
ATOM     10  H12 UNL     1       3.416  -3.328   2.659  1.00  0.00     0.156 HD
ATOM     11  H11 UNL     1       1.938  -2.515   3.128  1.00  0.00     0.156 HD
ENDBRANCH   7   9
ENDBRANCH   1   2
BRANCH   1  12
HETATM   12  C5  UNL     1       0.972   1.964  -0.181  1.00  0.00     0.151 C 
BRANCH  12  13
HETATM   13  C6  UNL     1       0.180   2.650   0.858  1.00  0.00     0.249 C 
BRANCH  13  14
HETATM   14  N4  UNL     1       0.669   4.028   0.963  1.00  0.00    -0.078 N 
ATOM     15  H43 UNL     1       1.673   4.079   1.134  1.00  0.00     0.274 HD
ATOM     16  H42 UNL     1       0.658   4.520   0.069  1.00  0.00     0.274 HD
ATOM     17  H41 UNL     1       0.122   4.502   1.681  1.00  0.00     0.274 HD
ENDBRANCH  13  14
ENDBRANCH  12  13
ENDBRANCH   1  12
BRANCH   1  18
HETATM   18  C7  UNL     1      -0.472   0.145  -1.124  1.00  0.00     0.129 C 
BRANCH  18  19
HETATM   19  C8  UNL     1      -1.805   0.314  -0.517  1.00  0.00     0.004 C 
HETATM   20  C9  UNL     1      -2.034  -0.305   0.817  1.00  0.00     0.006 C 
HETATM   21  C10 UNL     1      -3.477  -0.801   0.794  1.00  0.00     0.000 C 
HETATM   22  C11 UNL     1      -3.451  -1.486  -0.569  1.00  0.00     0.000 C 
HETATM   23  C12 UNL     1      -2.780  -0.469  -1.431  1.00  0.00     0.006 C 
ENDBRANCH  18  19
ENDBRANCH   1  18
TORSDOF 7
