REMARK  7 active torsions:
REMARK  status: ('A' for Active; 'I' for Inactive)
REMARK    1  A    between atoms: N1_1  and  C1_5 
REMARK    2  A    between atoms: C1_5  and  C2_6 
REMARK    3  A    between atoms: C1_5  and  C9_19 
REMARK    4  A    between atoms: C2_6  and  N2_7 
REMARK    5  A    between atoms: N2_7  and  N3_9 
REMARK    6  A    between atoms: C3_11  and  C4_12 
REMARK    7  A    between atoms: C9_19  and  C10_20 
ROOT
HETATM    1  C2  UNL     1       0.217  -1.351  -0.787  1.00  0.00     0.172 C 
ENDROOT
BRANCH   1   2
HETATM    2  C1  UNL     1      -1.191  -1.030  -0.423  1.00  0.00     0.206 C 
BRANCH   2   3
HETATM    3  N1  UNL     1      -1.750  -1.927   0.568  1.00  0.00    -0.073 N 
ATOM      4  H13 UNL     1      -1.668  -2.897   0.264  1.00  0.00     0.274 HD
ATOM      5  H12 UNL     1      -1.160  -1.959   1.400  1.00  0.00     0.274 HD
ATOM      6  H11 UNL     1      -2.714  -1.707   0.817  1.00  0.00     0.274 HD
ENDBRANCH   2   3
BRANCH   2   7
HETATM    7  C9  UNL     1      -1.429   0.381   0.009  1.00  0.00     0.073 C 
BRANCH   7   8
HETATM    8  C10 UNL     1      -2.928   0.571   0.107  1.00  0.00    -0.056 A 
HETATM    9  C11 UNL     1      -3.662   1.000  -0.977  1.00  0.00     0.007 A 
HETATM   10  C12 UNL     1      -5.039   1.170  -0.872  1.00  0.00     0.001 A 
HETATM   11  C13 UNL     1      -5.716   0.920   0.301  1.00  0.00     0.000 A 
HETATM   12  C14 UNL     1      -4.974   0.490   1.381  1.00  0.00     0.001 A 
HETATM   13  C15 UNL     1      -3.608   0.321   1.278  1.00  0.00     0.007 A 
ENDBRANCH   7   8
ENDBRANCH   2   7
ENDBRANCH   1   2
BRANCH   1  14
HETATM   14  N2  UNL     1       1.121  -1.305   0.322  1.00  0.00    -0.335 N 
ATOM     15  H2  UNL     1       1.580  -2.169   0.610  1.00  0.00     0.180 HD
BRANCH  14  16
HETATM   16  N3  UNL     1       1.398  -0.162   1.013  1.00  0.00    -0.314 N 
HETATM   17  C3  UNL     1       2.355   0.613   1.124  1.00  0.00     0.136 C 
ATOM     18  H3  UNL     1       0.609   0.130   1.589  1.00  0.00     0.185 HD
BRANCH  17  19
HETATM   19  C4  UNL     1       3.657   0.561   0.480  1.00  0.00     0.049 A 
HETATM   20  C5  UNL     1       4.022  -0.420  -0.395  1.00  0.00     0.031 A 
HETATM   21  C6  UNL     1       5.298  -0.367  -0.952  1.00  0.00     0.004 A 
HETATM   22  C7  UNL     1       6.165   0.648  -0.627  1.00  0.00     0.017 A 
HETATM   23  C8  UNL     1       5.783   1.628   0.255  1.00  0.00     0.088 A 
HETATM   24  N4  UNL     1       4.556   1.547   0.769  1.00  0.00    -0.365 N 
ATOM     25  H4  UNL     1       4.268   2.273   1.425  1.00  0.00     0.165 HD
ENDBRANCH  17  19
ENDBRANCH  14  16
ENDBRANCH   1  14
TORSDOF 7
