REMARK  7 active torsions:
REMARK  status: ('A' for Active; 'I' for Inactive)
REMARK    1  A    between atoms: C1_2  and  N1_3 
REMARK    2  A    between atoms: N1_3  and  C2_5 
REMARK    3  A    between atoms: C3_10  and  S2_11 
REMARK    4  A    between atoms: S2_11  and  C4_12 
REMARK    5  A    between atoms: C9_19  and  N5_20 
REMARK    6  A    between atoms: N5_20  and  C10_22 
REMARK    7  A    between atoms: C10_22  and  C11_23 
ROOT
HETATM    1  C2  UNL     1      -0.102  -1.889  -1.785  1.00  0.00     0.165 A 
HETATM    2  N2  UNL     1       1.076  -2.513  -1.607  1.00  0.00    -0.280 N 
ATOM      3  H2  UNL     1       1.350  -3.248  -2.259  1.00  0.00     0.188 HD
HETATM    4  N3  UNL     1       1.894  -2.202  -0.608  1.00  0.00    -0.278 N 
ATOM      5  H3  UNL     1       2.775  -2.709  -0.522  1.00  0.00     0.189 HD
HETATM    6  C3  UNL     1       1.609  -1.247   0.295  1.00  0.00     0.161 A 
HETATM    7  N4  UNL     1       0.438  -0.599   0.151  1.00  0.00    -0.319 N 
ATOM      8  H4  UNL     1       0.183   0.133   0.814  1.00  0.00     0.169 HD
HETATM    9  C9  UNL     1      -0.410  -0.907  -0.867  1.00  0.00     0.149 A 
ENDROOT
BRANCH   9  10
HETATM   10  N5  UNL     1      -1.536  -0.292  -1.015  1.00  0.00    -0.373 N 
ATOM     11  H5  UNL     1      -2.135  -0.562  -1.796  1.00  0.00     0.161 HD
BRANCH  10  12
HETATM   12  C10 UNL     1      -1.994   0.760  -0.132  1.00  0.00     0.126 C 
BRANCH  12  13
HETATM   13  C11 UNL     1      -3.483   0.937  -0.339  1.00  0.00     0.006 C 
HETATM   14  C12 UNL     1      -4.256  -0.306  -0.040  1.00  0.00     0.025 C 
HETATM   15  C13 UNL     1      -5.012  -0.217   1.267  1.00  0.00     0.114 C 
HETATM   16  N6  UNL     1      -5.842   0.940   1.391  1.00  0.00    -0.421 N 
HETATM   17  C14 UNL     1      -5.451   2.069   0.612  1.00  0.00     0.114 C 
ATOM     18  H6  UNL     1      -6.662   0.957   1.998  1.00  0.00     0.153 HD
HETATM   19  C15 UNL     1      -3.943   2.115   0.502  1.00  0.00     0.025 C 
ENDBRANCH  12  13
ENDBRANCH  10  12
ENDBRANCH   9  10
BRANCH   1  20
HETATM   20  N1  UNL     1      -0.915  -2.172  -2.744  1.00  0.00    -0.339 N 
ATOM     21  H1  UNL     1      -1.786  -1.643  -2.792  1.00  0.00     0.167 HD
BRANCH  20  22
HETATM   22  C1  UNL     1      -0.700  -3.145  -3.722  1.00  0.00     0.171 C 
HETATM   23  S1  UNL     1      -0.491  -2.649  -5.280  1.00  0.00    -0.074 SA
ENDBRANCH  20  22
ENDBRANCH   1  20
BRANCH   6  24
HETATM   24  S2  UNL     1       2.753  -0.870   1.624  1.00  0.00    -0.088 SA
BRANCH  24  25
HETATM   25  C4  UNL     1       3.870   0.420   1.010  1.00  0.00     0.055 C 
HETATM   26  C5  UNL     1       4.741  -0.093  -0.109  1.00  0.00     0.015 C 
HETATM   27  C6  UNL     1       6.042   0.655   0.015  1.00  0.00     0.001 C 
HETATM   28  C7  UNL     1       5.905   1.563   1.213  1.00  0.00     0.001 C 
HETATM   29  C8  UNL     1       4.843   0.881   2.053  1.00  0.00     0.015 C 
ENDBRANCH  24  25
ENDBRANCH   6  24
TORSDOF 7
