REMARK  5 active torsions:
REMARK  status: ('A' for Active; 'I' for Inactive)
REMARK    1  A    between atoms: C3_6  and  N3_7 
REMARK    2  A    between atoms: N3_7  and  C4_9 
REMARK    3  A    between atoms: C11_17  and  C12_18 
REMARK    4  A    between atoms: C12_18  and  N4_19 
REMARK       I    between atoms: N4_19  and  C13_21 
REMARK       I    between atoms: C13_21  and  N5_23 
REMARK    5  A    between atoms: N5_23  and  C14_25 
ROOT
HETATM    1  N1  UNL     1      -1.238   4.897  -0.072  1.00  0.00    -0.190 NA
HETATM    2  C1  UNL     1      -1.001   3.782   0.227  1.00  0.00     0.119 C 
HETATM    3  C2  UNL     1      -0.708   2.383   0.577  1.00  0.00     0.130 A 
HETATM    4  N2  UNL     1      -1.566   1.413   0.397  1.00  0.00    -0.327 N 
ATOM      5  H2  UNL     1      -2.487   1.599  -0.001  1.00  0.00     0.168 HD
HETATM    6  C3  UNL     1      -1.212   0.174   0.745  1.00  0.00     0.146 A 
HETATM    7  S1  UNL     1       0.371   0.379   1.341  1.00  0.00    -0.054 SA
HETATM    8  C11 UNL     1       0.511   2.064   1.115  1.00  0.00     0.041 A 
ENDROOT
BRANCH   8   9
HETATM    9  C12 UNL     1       1.650   2.990   1.437  1.00  0.00     0.173 C 
BRANCH   9  10
HETATM   10  N4  UNL     1       2.728   2.213   1.963  1.00  0.00    -0.338 N 
HETATM   11  C13 UNL     1       3.375   1.259   1.143  1.00  0.00     0.316 C 
HETATM   12  O1  UNL     1       3.010   1.097  -0.067  1.00  0.00    -0.247 OA
HETATM   13  N5  UNL     1       4.431   0.498   1.701  1.00  0.00    -0.336 N 
ATOM     14  H5  UNL     1       4.710   0.642   2.671  1.00  0.00     0.164 HD
ATOM     15  H4  UNL     1       3.030   2.346   2.928  1.00  0.00     0.164 HD
BRANCH  13  16
HETATM   16  C14 UNL     1       5.106  -0.478   0.892  1.00  0.00     0.112 C 
HETATM   17  C15 UNL     1       5.755   0.074  -0.337  1.00  0.00     0.053 C 
HETATM   18  C16 UNL     1       5.397  -0.956  -1.386  1.00  0.00     0.169 C 
HETATM   19  O2  UNL     1       4.122  -1.376  -1.024  1.00  0.00    -0.389 OA
HETATM   20  C17 UNL     1       4.078  -1.442   0.342  1.00  0.00     0.192 C 
ENDBRANCH  13  16
ENDBRANCH   9  10
ENDBRANCH   8   9
BRANCH   6  21
HETATM   21  N3  UNL     1      -1.933  -0.925   0.641  1.00  0.00    -0.365 N 
ATOM     22  H3  UNL     1      -1.545  -1.818   0.944  1.00  0.00     0.162 HD
BRANCH  21  23
HETATM   23  C4  UNL     1      -3.250  -0.868   0.108  1.00  0.00     0.088 C 
HETATM   24  C5  UNL     1      -4.109  -2.055   0.519  1.00  0.00     0.030 C 
HETATM   25  C6  UNL     1      -4.878  -2.302  -0.768  1.00  0.00    -0.012 C 
HETATM   26  C7  UNL     1      -5.637  -1.059  -1.147  1.00  0.00     0.005 C 
HETATM   27  C10 UNL     1      -3.703  -2.222  -1.758  1.00  0.00     0.011 C 
HETATM   28  C8  UNL     1      -4.621  -0.092  -1.744  1.00  0.00     0.007 C 
HETATM   29  C9  UNL     1      -3.321  -0.779  -1.387  1.00  0.00     0.009 C 
ENDBRANCH  21  23
ENDBRANCH   6  21
TORSDOF 5
