REMARK  8 active torsions:
REMARK  status: ('A' for Active; 'I' for Inactive)
REMARK    1  A    between atoms: N1_1  and  C1_5 
REMARK    2  A    between atoms: C1_5  and  C2_6 
REMARK    3  A    between atoms: C1_5  and  C10_18 
REMARK    4  A    between atoms: C2_6  and  S1_7 
REMARK    5  A    between atoms: S1_7  and  C3_8 
REMARK    6  A    between atoms: C3_8  and  N2_10 
REMARK    7  A    between atoms: N2_10  and  C4_12 
REMARK       I    between atoms: C10_18  and  N3_20 
REMARK    8  A    between atoms: C14_24  and  C15_25 
ROOT
HETATM    1  C1  UNL     1      -1.384   0.372   0.456  1.00  0.00     0.284 C 
ENDROOT
BRANCH   1   2
HETATM    2  N1  UNL     1      -1.207  -0.760  -0.357  1.00  0.00    -0.066 N 
ATOM      3  H13 UNL     1      -0.211  -0.924  -0.501  1.00  0.00     0.275 HD
ATOM      4  H12 UNL     1      -1.462  -1.598   0.165  1.00  0.00     0.275 HD
ATOM      5  H11 UNL     1      -1.686  -0.760  -1.257  1.00  0.00     0.275 HD
ENDBRANCH   1   2
BRANCH   1   6
HETATM    6  C2  UNL     1      -0.672   0.372   1.793  1.00  0.00     0.124 C 
BRANCH   6   7
HETATM    7  S1  UNL     1       1.094   0.262   1.648  1.00  0.00    -0.098 SA
BRANCH   7   8
HETATM    8  C3  UNL     1       1.730  -1.301   1.195  1.00  0.00     0.134 C 
HETATM    9  S2  UNL     1       0.808  -2.635   1.209  1.00  0.00    -0.053 SA
BRANCH   8  10
HETATM   10  N2  UNL     1       3.117  -1.406   0.848  1.00  0.00    -0.371 N 
ATOM     11  H2  UNL     1       3.486  -2.321   0.589  1.00  0.00     0.161 HD
BRANCH  10  12
HETATM   12  C4  UNL     1       4.024  -0.264   0.848  1.00  0.00     0.083 C 
HETATM   13  C5  UNL     1       3.698   0.760  -0.177  1.00  0.00     0.025 C 
HETATM   14  C6  UNL     1       4.577   0.796  -1.385  1.00  0.00     0.002 C 
HETATM   15  C7  UNL     1       6.013   0.554  -1.073  1.00  0.00     0.000 C 
HETATM   16  C8  UNL     1       6.107  -0.845  -0.457  1.00  0.00     0.002 C 
HETATM   17  C9  UNL     1       5.435  -0.745   0.881  1.00  0.00     0.025 C 
ENDBRANCH  10  12
ENDBRANCH   8  10
ENDBRANCH   7   8
ENDBRANCH   6   7
ENDBRANCH   1   6
BRANCH   1  18
HETATM   18  C10 UNL     1      -2.774   0.813   0.584  1.00  0.00     0.252 C 
HETATM   19  O1  UNL     1      -3.019   1.608   1.562  1.00  0.00    -0.271 OA
HETATM   20  N3  UNL     1      -3.850   0.455  -0.250  1.00  0.00    -0.336 N 
HETATM   21  C11 UNL     1      -3.782  -0.371  -1.422  1.00  0.00     0.127 C 
HETATM   22  C14 UNL     1      -5.248   0.861  -0.058  1.00  0.00     0.188 C 
HETATM   23  C12 UNL     1      -4.973   0.096  -2.277  1.00  0.00     0.022 C 
HETATM   24  C13 UNL     1      -6.005   0.283  -1.199  1.00  0.00     0.038 C 
BRANCH  22  25
HETATM   25  C15 UNL     1      -5.759   0.390   1.259  1.00  0.00     0.196 C 
HETATM   26  O2  UNL     1      -6.928   0.713   1.579  1.00  0.00    -0.646 OA
HETATM   27  O3  UNL     1      -5.014  -0.366   2.114  1.00  0.00    -0.646 OA
ENDBRANCH  22  25
ENDBRANCH   1  18
TORSDOF 8
