REMARK  6 active torsions:
REMARK  status: ('A' for Active; 'I' for Inactive)
REMARK    1  A    between atoms: C5_5  and  N1_6 
REMARK       I    between atoms: N1_6  and  C6_8 
REMARK    2  A    between atoms: C6_8  and  C7_10 
REMARK    3  A    between atoms: C7_10  and  N2_11 
REMARK    4  A    between atoms: N2_11  and  C8_13 
REMARK    5  A    between atoms: C8_13  and  N3_15 
REMARK    6  A    between atoms: N3_15  and  N4_17 
ROOT
HETATM    1  N1  UNL     1      -1.551  -0.061  -0.107  1.00  0.00    -0.353 N 
ATOM      2  H1  UNL     1      -1.387   0.695   0.558  1.00  0.00     0.163 HD
HETATM    3  C6  UNL     1      -0.456  -0.816  -0.580  1.00  0.00     0.235 C 
HETATM    4  O1  UNL     1      -0.619  -1.762  -1.406  1.00  0.00    -0.272 OA
ENDROOT
BRANCH   3   5
HETATM    5  C7  UNL     1       0.914  -0.485  -0.092  1.00  0.00     0.224 C 
BRANCH   5   6
HETATM    6  N2  UNL     1       1.832  -1.397  -0.724  1.00  0.00    -0.357 N 
ATOM      7  H2  UNL     1       1.488  -2.104  -1.374  1.00  0.00     0.162 HD
BRANCH   6   8
HETATM    8  C8  UNL     1       3.214  -1.306  -0.438  1.00  0.00     0.182 C 
HETATM    9  S1  UNL     1       4.301  -2.319  -1.130  1.00  0.00    -0.040 SA
BRANCH   8  10
HETATM   10  N3  UNL     1       3.649  -0.310   0.470  1.00  0.00    -0.295 N 
ATOM     11  H3  UNL     1       2.982   0.326   0.908  1.00  0.00     0.183 HD
BRANCH  10  12
HETATM   12  N4  UNL     1       5.014  -0.221   0.751  1.00  0.00    -0.225 NA
HETATM   13  C9  UNL     1       5.295   0.419   2.009  1.00  0.00     0.140 C 
HETATM   14  C10 UNL     1       6.671   1.073   1.879  1.00  0.00     0.183 C 
HETATM   15  O2  UNL     1       7.491   0.338   1.055  1.00  0.00    -0.389 OA
HETATM   16  C11 UNL     1       7.102   0.307  -0.264  1.00  0.00     0.183 C 
HETATM   17  C12 UNL     1       5.602   0.595  -0.318  1.00  0.00     0.140 C 
ENDBRANCH  10  12
ENDBRANCH   8  10
ENDBRANCH   6   8
ENDBRANCH   5   6
ENDBRANCH   3   5
BRANCH   1  18
HETATM   18  C5  UNL     1      -2.891  -0.337  -0.544  1.00  0.00     0.103 C 
HETATM   19  C4  UNL     1      -3.703  -0.765   0.605  1.00  0.00     0.046 C 
HETATM   20  C2  UNL     1      -5.142  -0.579   0.391  1.00  0.00     0.003 C 
HETATM   21  C1  UNL     1      -5.784  -1.894  -0.038  1.00  0.00     0.026 C 
HETATM   22  C3  UNL     1      -5.862  -0.038   1.627  1.00  0.00     0.026 C 
HETATM   23  S2  UNL     1      -5.265   0.675  -0.889  1.00  0.00    -0.148 SA
HETATM   24  C13 UNL     1      -3.502   0.797  -1.268  1.00  0.00     0.022 C 
HETATM   25  C14 UNL     1      -2.941   2.146  -0.901  1.00  0.00     0.029 C 
HETATM   26  C15 UNL     1      -3.362   0.670  -2.788  1.00  0.00     0.029 C 
ENDBRANCH   1  18
TORSDOF 6
