REMARK  7 active torsions:
REMARK  status: ('A' for Active; 'I' for Inactive)
REMARK    1  A    between atoms: O1_2  and  C2_3 
REMARK    2  A    between atoms: C2_3  and  C5_6 
REMARK    3  A    between atoms: C5_6  and  C6_7 
REMARK    4  A    between atoms: C11_12  and  O2_13 
REMARK    5  A    between atoms: C13_17  and  O3_18 
REMARK    6  A    between atoms: C18_24  and  O4_25 
REMARK    7  A    between atoms: C18_24  and  O5_27 
ROOT
HETATM    1  C6  UNL     1       0.109   0.044   0.059  1.00  0.00     0.036 C 
HETATM    2  C7  UNL     1      -0.850   1.053   0.721  1.00  0.00     0.238 C 
HETATM    3  C8  UNL     1      -0.307   2.189   1.478  1.00  0.00     0.037 C 
HETATM    4  C9  UNL     1      -0.355   3.511   0.688  1.00  0.00     0.007 C 
HETATM    5  C10 UNL     1      -1.789   3.591   0.179  1.00  0.00     0.064 C 
HETATM    6  C11 UNL     1      -1.880   2.553  -0.908  1.00  0.00     0.357 C 
HETATM    7  N1  UNL     1      -1.427   1.309  -0.518  1.00  0.00     0.130 N 
HETATM    8  C12 UNL     1      -0.296   0.711  -1.198  1.00  0.00     0.266 C 
HETATM    9  C13 UNL     1      -0.808  -0.047  -2.348  1.00  0.00     0.152 C 
HETATM   10  C14 UNL     1      -2.178  -0.674  -2.194  1.00  0.00     0.034 C 
HETATM   11  C15 UNL     1      -2.085  -2.016  -1.443  1.00  0.00     0.013 C 
HETATM   12  C16 UNL     1      -1.780  -1.557  -0.043  1.00  0.00     0.058 A 
HETATM   13  C17 UNL     1      -0.316  -1.355   0.011  1.00  0.00     0.070 A 
HETATM   14  C18 UNL     1      -0.980  -2.195   0.961  1.00  0.00     0.170 A 
ENDROOT
BRANCH   1  15
HETATM   15  C5  UNL     1       1.470   0.393   0.563  1.00  0.00     0.051 C 
BRANCH  15  16
HETATM   16  C2  UNL     1       2.680  -0.319   0.187  1.00  0.00     0.054 C 
HETATM   17  C3  UNL     1       3.080  -0.131  -1.288  1.00  0.00     0.045 C 
HETATM   18  C4  UNL     1       2.769  -1.778   0.520  1.00  0.00     0.045 C 
BRANCH  16  19
HETATM   19  O1  UNL     1       3.735   0.304   0.848  1.00  0.00    -0.386 OA
HETATM   20  C1  UNL     1       3.713   0.316   2.201  1.00  0.00     0.202 C 
ENDBRANCH  16  19
ENDBRANCH  15  16
ENDBRANCH   1  15
BRANCH   9  21
HETATM   21  O3  UNL     1      -0.021  -0.959  -2.977  1.00  0.00    -0.393 OA
ATOM     22  H3  UNL     1      -0.352  -1.449  -3.720  1.00  0.00     0.210 HD
ENDBRANCH   9  21
BRANCH  14  23
HETATM   23  O4  UNL     1      -1.136  -1.815   2.293  1.00  0.00    -0.365 OA
ATOM     24  H4  UNL     1      -0.606  -2.238   2.958  1.00  0.00     0.213 HD
ENDBRANCH  14  23
BRANCH  14  25
HETATM   25  O5  UNL     1      -0.878  -3.598   0.851  1.00  0.00    -0.359 OA
HETATM   26  C19 UNL     1      -2.085  -4.092   1.382  1.00  0.00     0.205 C 
ENDBRANCH  14  25
BRANCH   6  27
HETATM   27  O2  UNL     1      -1.271   2.992  -2.094  1.00  0.00    -0.368 OA
ATOM     28  H2  UNL     1      -1.328   2.337  -2.780  1.00  0.00     0.212 HD
ENDBRANCH   6  27
TORSDOF 7
