REMARK  10 active torsions:
REMARK  status: ('A' for Active; 'I' for Inactive)
REMARK    1  A    between atoms: C7_7  and  C9_9 
REMARK    2  A    between atoms: C9_9  and  O1_10 
REMARK    3  A    between atoms: C15_17  and  C16_18 
REMARK    4  A    between atoms: C16_18  and  N1_19 
REMARK    5  A    between atoms: N1_19  and  N2_21 
REMARK    6  A    between atoms: N2_21  and  C17_22 
REMARK    7  A    between atoms: C17_22  and  C18_24 
REMARK    8  A    between atoms: C18_24  and  O2_25 
REMARK    9  A    between atoms: C18_24  and  N4_27 
REMARK   10  A    between atoms: N4_27  and  N5_28 
ROOT
HETATM    1  C1  UNL     1       0.888   0.691   2.179  1.00  0.00     0.015 C 
HETATM    2  C2  UNL     1       0.088   1.222   1.286  1.00  0.00    -0.072 C 
HETATM    3  C3  UNL     1      -0.973   2.212   1.484  1.00  0.00     0.035 C 
HETATM    4  C4  UNL     1      -2.069   2.055   0.430  1.00  0.00     0.015 C 
HETATM    5  C5  UNL     1      -2.338   0.602   0.092  1.00  0.00    -0.026 C 
HETATM    6  C6  UNL     1      -2.818   0.027   1.457  1.00  0.00     0.017 C 
HETATM    7  C7  UNL     1      -3.543   0.499  -0.748  1.00  0.00    -0.015 C 
HETATM    8  C8  UNL     1      -4.503  -0.619  -0.346  1.00  0.00     0.018 C 
HETATM    9  C10 UNL     1      -3.258   0.237  -2.220  1.00  0.00     0.012 C 
HETATM   10  C11 UNL     1      -2.342  -0.933  -2.388  1.00  0.00     0.002 C 
HETATM   11  C12 UNL     1      -1.017  -0.455  -1.831  1.00  0.00     0.011 C 
HETATM   12  C13 UNL     1      -1.120  -0.104  -0.383  1.00  0.00    -0.017 C 
HETATM   13  C14 UNL     1      -0.789  -1.347   0.412  1.00  0.00     0.018 C 
HETATM   14  C15 UNL     1       0.180   0.795  -0.171  1.00  0.00     0.114 C 
ENDROOT
BRANCH  14  15
HETATM   15  C16 UNL     1       1.322   0.144  -0.506  1.00  0.00    -0.031 C 
BRANCH  15  16
HETATM   16  N1  UNL     1       2.435  -0.470  -0.802  1.00  0.00    -0.202 N 
ATOM     17  H1  UNL     1       2.371  -0.987  -1.679  1.00  0.00     0.211 HD
BRANCH  16  18
HETATM   18  N2  UNL     1       3.580  -0.578  -0.259  1.00  0.00    -0.297 NA
BRANCH  18  19
HETATM   19  C17 UNL     1       4.668  -0.749   0.190  1.00  0.00     0.281 C 
HETATM   20  N3  UNL     1       5.201   0.051   1.275  1.00  0.00    -0.060 NA
BRANCH  19  21
HETATM   21  C18 UNL     1       5.718  -1.722  -0.323  1.00  0.00     0.295 C 
BRANCH  21  22
HETATM   22  O2  UNL     1       5.196  -2.386  -1.370  1.00  0.00    -0.331 OA
ATOM     23  H2  UNL     1       5.852  -2.994  -1.690  1.00  0.00     0.220 HD
ENDBRANCH  21  22
BRANCH  21  24
HETATM   24  N4  UNL     1       6.890  -1.821   0.193  1.00  0.00    -0.302 NA
BRANCH  24  25
HETATM   25  N5  UNL     1       8.130  -1.926   0.738  1.00  0.00    -0.278 N 
ATOM     26  H52 UNL     1       7.212  -1.858   0.299  1.00  0.00     0.191 HD
ATOM     27  H51 UNL     1       9.061  -2.005   1.148  1.00  0.00     0.191 HD
ENDBRANCH  24  25
ENDBRANCH  21  24
ENDBRANCH  19  21
ENDBRANCH  18  19
ENDBRANCH  16  18
ENDBRANCH  15  16
ENDBRANCH  14  15
BRANCH   7  28
HETATM   28  C9  UNL     1      -4.453   1.684  -0.776  1.00  0.00     0.173 C 
BRANCH  28  29
HETATM   29  O1  UNL     1      -3.897   2.743  -1.290  1.00  0.00    -0.400 OA
ATOM     30  H1  UNL     1      -4.476   3.496  -1.308  1.00  0.00     0.209 HD
ENDBRANCH  28  29
ENDBRANCH   7  28
TORSDOF 10
