REMARK  6 active torsions:
REMARK  status: ('A' for Active; 'I' for Inactive)
REMARK    1  A    between atoms: C2_2  and  C3_3 
REMARK    2  A    between atoms: C6_6  and  O1_7 
REMARK    3  A    between atoms: C7_9  and  O2_10 
REMARK    4  A    between atoms: N1_19  and  C14_20 
REMARK    5  A    between atoms: C14_20  and  C15_21 
REMARK    6  A    between atoms: C20_26  and  O4_27 
ROOT
HETATM    1  C3  UNL     1      -2.086   1.159   0.440  1.00  0.00     0.016 C 
HETATM    2  C4  UNL     1      -0.679   0.727   0.667  1.00  0.00     0.022 C 
HETATM    3  C5  UNL     1      -0.411  -0.677   0.260  1.00  0.00     0.022 C 
HETATM    4  C6  UNL     1      -1.388  -1.569   0.959  1.00  0.00     0.159 C 
HETATM    5  C7  UNL     1      -2.752  -1.560   0.349  1.00  0.00     0.156 C 
HETATM    6  C8  UNL     1      -2.856  -0.799  -0.899  1.00  0.00     0.076 C 
HETATM    7  C9  UNL     1      -2.735   0.676  -0.799  1.00  0.00     0.135 C 
HETATM    8  O3  UNL     1      -1.982   0.640  -1.964  1.00  0.00    -0.378 OA
HETATM    9  C10 UNL     1      -1.691  -0.743  -1.804  1.00  0.00     0.143 C 
HETATM   10  C11 UNL     1      -0.351  -0.869  -1.228  1.00  0.00     0.029 C 
HETATM   11  C12 UNL     1       0.519   0.243  -1.817  1.00  0.00     0.060 C 
HETATM   12  C13 UNL     1       1.890   0.284  -1.191  1.00  0.00     0.059 C 
HETATM   13  N1  UNL     1       1.813   0.032   0.175  1.00  0.00    -0.387 N 
HETATM   14  C18 UNL     1       1.027  -1.061   0.606  1.00  0.00     0.098 C 
HETATM   15  C19 UNL     1       1.357  -2.236  -0.321  1.00  0.00     0.058 C 
HETATM   16  C20 UNL     1       0.398  -2.128  -1.486  1.00  0.00     0.132 C 
ENDROOT
BRANCH  13  17
HETATM   17  C14 UNL     1       2.525   0.774   1.100  1.00  0.00     0.127 C 
BRANCH  17  18
HETATM   18  C15 UNL     1       4.021   0.478   0.931  1.00  0.00     0.003 A 
HETATM   19  C16 UNL     1       4.992   1.142   1.800  1.00  0.00     0.007 A 
HETATM   20  C17 UNL     1       4.841   1.624   0.378  1.00  0.00     0.007 A 
ENDBRANCH  17  18
ENDBRANCH  13  17
BRANCH   4  21
HETATM   21  O1  UNL     1      -0.910  -2.867   1.159  1.00  0.00    -0.392 OA
ATOM     22  H1  UNL     1      -1.530  -3.433   1.603  1.00  0.00     0.210 HD
ENDBRANCH   4  21
BRANCH  16  23
HETATM   23  O4  UNL     1      -0.376  -3.249  -1.657  1.00  0.00    -0.395 OA
ATOM     24  H4  UNL     1       0.102  -4.053  -1.822  1.00  0.00     0.210 HD
ENDBRANCH  16  23
BRANCH   1  25
HETATM   25  C2  UNL     1      -2.115   2.665   0.579  1.00  0.00     0.002 C 
HETATM   26  C1  UNL     1      -3.461   3.275   0.382  1.00  0.00     0.005 C 
ENDBRANCH   1  25
BRANCH   5  27
HETATM   27  O2  UNL     1      -3.236  -2.872   0.122  1.00  0.00    -0.392 OA
ATOM     28  H2  UNL     1      -4.103  -2.866  -0.266  1.00  0.00     0.210 HD
ENDBRANCH   5  27
TORSDOF 6
