REMARK  8 active torsions:
REMARK  status: ('A' for Active; 'I' for Inactive)
REMARK    1  A    between atoms: C2_2  and  C4_4 
REMARK    2  A    between atoms: C4_4  and  N1_5 
REMARK    3  A    between atoms: C4_4  and  C10_14 
REMARK       I    between atoms: N1_5  and  C5_7 
REMARK    4  A    between atoms: C5_7  and  O2_9 
REMARK    5  A    between atoms: O2_9  and  C6_10 
REMARK       I    between atoms: C10_14  and  N2_16 
REMARK    6  A    between atoms: N3_19  and  C13_20 
REMARK    7  A    between atoms: C13_20  and  C14_21 
REMARK       I    between atoms: C14_21  and  N4_23 
REMARK    8  A    between atoms: N4_23  and  C15_25 
ROOT
HETATM    1  C10 UNL     1      -1.399   0.812   0.129  1.00  0.00     0.243 C 
HETATM    2  O3  UNL     1      -1.496   2.006  -0.337  1.00  0.00    -0.271 OA
HETATM    3  N2  UNL     1      -0.223   0.126  -0.178  1.00  0.00    -0.339 N 
HETATM    4  C11 UNL     1       0.033  -1.216   0.260  1.00  0.00     0.141 C 
HETATM    5  C12 UNL     1       1.305  -1.261   1.054  1.00  0.00     0.115 C 
HETATM    6  N3  UNL     1       2.331  -0.401   0.464  1.00  0.00    -0.284 NA
HETATM    7  C19 UNL     1       2.031  -0.172  -0.942  1.00  0.00     0.125 C 
HETATM    8  C20 UNL     1       0.797   0.753  -0.987  1.00  0.00     0.040 C 
HETATM    9  C21 UNL     1       1.231   2.094  -0.496  1.00  0.00     0.039 C 
HETATM   10  C22 UNL     1       0.396   0.827  -2.445  1.00  0.00     0.039 C 
ENDROOT
BRANCH   1  11
HETATM   11  C4  UNL     1      -2.552   0.352   0.915  1.00  0.00     0.182 C 
BRANCH  11  12
HETATM   12  C2  UNL     1      -2.597   0.797   2.341  1.00  0.00     0.009 C 
HETATM   13  C1  UNL     1      -3.928   0.285   2.910  1.00  0.00     0.012 C 
HETATM   14  C3  UNL     1      -1.527   0.305   3.237  1.00  0.00     0.012 C 
ENDBRANCH  11  12
BRANCH  11  15
HETATM   15  N1  UNL     1      -3.733   0.981   0.288  1.00  0.00    -0.323 N 
HETATM   16  C5  UNL     1      -4.717   0.231  -0.373  1.00  0.00     0.362 C 
HETATM   17  O1  UNL     1      -4.565  -1.018  -0.418  1.00  0.00    -0.238 OA
ATOM     18  H1  UNL     1      -3.836   1.995   0.338  1.00  0.00     0.165 HD
BRANCH  16  19
HETATM   19  O2  UNL     1      -5.833   0.759  -0.975  1.00  0.00    -0.294 OA
BRANCH  19  20
HETATM   20  C6  UNL     1      -6.834   0.056  -1.644  1.00  0.00     0.061 C 
HETATM   21  C7  UNL     1      -7.893   1.041  -2.159  1.00  0.00     0.046 C 
HETATM   22  C8  UNL     1      -6.315  -0.706  -2.859  1.00  0.00     0.046 C 
HETATM   23  C9  UNL     1      -7.569  -0.940  -0.778  1.00  0.00     0.046 C 
ENDBRANCH  19  20
ENDBRANCH  16  19
ENDBRANCH  11  15
ENDBRANCH   1  11
BRANCH   6  24
HETATM   24  C13 UNL     1       3.569  -1.105   0.627  1.00  0.00     0.134 C 
BRANCH  24  25
HETATM   25  C14 UNL     1       4.788  -0.415   0.263  1.00  0.00     0.252 C 
HETATM   26  O4  UNL     1       4.796   0.755  -0.160  1.00  0.00    -0.268 OA
HETATM   27  N4  UNL     1       6.041  -1.092   0.388  1.00  0.00    -0.349 N 
ATOM     28  H4  UNL     1       6.062  -2.052   0.732  1.00  0.00     0.163 HD
BRANCH  27  29
HETATM   29  C15 UNL     1       7.276  -0.437   0.035  1.00  0.00     0.022 C 
HETATM   30  C16 UNL     1       7.235  -0.032  -1.436  1.00  0.00     0.037 C 
HETATM   31  C17 UNL     1       7.482   0.830   0.844  1.00  0.00     0.037 C 
HETATM   32  C18 UNL     1       8.424  -1.392   0.253  1.00  0.00     0.037 C 
ENDBRANCH  27  29
ENDBRANCH  24  25
ENDBRANCH   6  24
TORSDOF 8
