REMARK  8 active torsions:
REMARK  status: ('A' for Active; 'I' for Inactive)
REMARK       I    between atoms: C2_2  and  N1_4 
REMARK    1  A    between atoms: C9_11  and  C10_12 
REMARK    2  A    between atoms: C10_12  and  O2_13 
REMARK    3  A    between atoms: O2_13  and  C11_14 
REMARK       I    between atoms: C11_14  and  N2_16 
REMARK    4  A    between atoms: N2_16  and  C12_18 
REMARK    5  A    between atoms: C15_21  and  C16_22 
REMARK    6  A    between atoms: C16_22  and  O4_23 
REMARK    7  A    between atoms: C16_22  and  N3_25 
REMARK    8  A    between atoms: C20_29  and  C21_30 
ROOT
HETATM    1  C1  UNL     1      -2.128   4.788   1.518  1.00  0.00     0.117 C 
HETATM    2  C2  UNL     1      -1.550   4.366   0.220  1.00  0.00     0.216 C 
HETATM    3  O1  UNL     1      -1.266   5.298  -0.607  1.00  0.00    -0.274 OA
HETATM    4  N1  UNL     1      -1.317   3.017  -0.104  1.00  0.00    -0.347 N 
HETATM    5  C3  UNL     1      -1.641   1.975   0.827  1.00  0.00     0.135 C 
HETATM    6  C4  UNL     1      -2.148   0.773   0.019  1.00  0.00     0.041 C 
HETATM    7  C5  UNL     1      -2.795   1.334  -1.240  1.00  0.00     0.013 C 
HETATM    8  C6  UNL     1      -1.758   1.878  -2.211  1.00  0.00     0.026 C 
HETATM    9  C7  UNL     1      -0.739   2.662  -1.400  1.00  0.00     0.091 C 
HETATM   10  C8  UNL     1       0.483   1.853  -1.149  1.00  0.00     0.062 C 
HETATM   11  C9  UNL     1       0.142   0.401  -0.849  1.00  0.00    -0.043 C 
HETATM   12  C15 UNL     1      -0.975  -0.101  -0.358  1.00  0.00     0.003 C 
ENDROOT
BRANCH  12  13
HETATM   13  C16 UNL     1      -1.261  -1.505  -0.374  1.00  0.00     0.145 C 
BRANCH  13  14
HETATM   14  O4  UNL     1      -0.384  -2.227  -1.037  1.00  0.00    -0.346 OA
ATOM     15  H4  UNL     1      -0.574  -3.158  -1.048  1.00  0.00     0.219 HD
ENDBRANCH  13  14
BRANCH  13  16
HETATM   16  N3  UNL     1      -2.273  -2.307   0.162  1.00  0.00    -0.347 N 
HETATM   17  C17 UNL     1      -3.377  -2.052   1.011  1.00  0.00     0.126 C 
HETATM   18  C18 UNL     1      -3.822  -3.356   1.629  1.00  0.00     0.022 C 
HETATM   19  C19 UNL     1      -2.757  -4.324   1.161  1.00  0.00     0.038 C 
HETATM   20  C20 UNL     1      -2.352  -3.760  -0.188  1.00  0.00     0.187 C 
BRANCH  20  21
HETATM   21  C21 UNL     1      -3.398  -3.892  -1.200  1.00  0.00     0.196 C 
HETATM   22  O5  UNL     1      -3.661  -5.038  -1.661  1.00  0.00    -0.646 OA
HETATM   23  O6  UNL     1      -4.103  -2.809  -1.666  1.00  0.00    -0.646 OA
ENDBRANCH  20  21
ENDBRANCH  13  16
ENDBRANCH  12  13
BRANCH  11  24
HETATM   24  C10 UNL     1       1.377  -0.397  -1.002  1.00  0.00     0.215 C 
BRANCH  24  25
HETATM   25  O2  UNL     1       2.426   0.251  -0.230  1.00  0.00    -0.300 OA
BRANCH  25  26
HETATM   26  C11 UNL     1       3.700  -0.288  -0.195  1.00  0.00     0.361 C 
HETATM   27  O3  UNL     1       3.887  -1.340  -0.853  1.00  0.00    -0.238 OA
HETATM   28  N2  UNL     1       4.760   0.303   0.542  1.00  0.00    -0.333 N 
ATOM     29  H2  UNL     1       4.613   1.158   1.078  1.00  0.00     0.165 HD
BRANCH  28  30
HETATM   30  C12 UNL     1       6.054  -0.341   0.511  1.00  0.00     0.078 C 
HETATM   31  C13 UNL     1       7.036   0.628  -0.113  1.00  0.00     0.032 C 
HETATM   32  C14 UNL     1       6.553  -0.710   1.878  1.00  0.00     0.032 C 
ENDBRANCH  28  30
ENDBRANCH  25  26
ENDBRANCH  24  25
ENDBRANCH  11  24
TORSDOF 8
