REMARK  5 active torsions:
REMARK  status: ('A' for Active; 'I' for Inactive)
REMARK    1  A    between atoms: N2_5  and  C3_6 
REMARK    2  A    between atoms: C8_11  and  S1_12 
REMARK    3  A    between atoms: S1_12  and  N3_15 
REMARK    4  A    between atoms: N3_15  and  C9_17 
REMARK       I    between atoms: N4_20  and  C12_21 
REMARK       I    between atoms: C12_21  and  N5_23 
REMARK    5  A    between atoms: N5_23  and  C13_25 
ROOT
HETATM    1  C9  UNL     1      -0.539   2.557  -0.023  1.00  0.00     0.096 C 
HETATM    2  C10 UNL     1      -0.756   2.358  -1.512  1.00  0.00     0.045 C 
HETATM    3  C11 UNL     1       0.595   2.230  -2.228  1.00  0.00     0.129 C 
HETATM    4  N4  UNL     1       1.542   1.471  -1.435  1.00  0.00    -0.334 N 
HETATM    5  C12 UNL     1       2.228   0.352  -1.959  1.00  0.00     0.318 C 
HETATM    6  O3  UNL     1       2.001   0.015  -3.147  1.00  0.00    -0.247 OA
HETATM    7  N5  UNL     1       3.135  -0.362  -1.176  1.00  0.00    -0.338 N 
ATOM      8  H5  UNL     1       3.275  -0.038  -0.219  1.00  0.00     0.164 HD
HETATM    9  C20 UNL     1       1.796   1.874  -0.057  1.00  0.00     0.129 C 
HETATM   10  C21 UNL     1       0.895   3.056   0.229  1.00  0.00     0.045 C 
ENDROOT
BRANCH   1  11
HETATM   11  N3  UNL     1      -1.515   3.334   0.607  1.00  0.00    -0.310 N 
ATOM     12  H3  UNL     1      -1.627   4.308   0.327  1.00  0.00     0.172 HD
BRANCH  11  13
HETATM   13  S1  UNL     1      -2.501   2.721   1.799  1.00  0.00     0.263 S 
HETATM   14  O1  UNL     1      -1.783   2.154   2.993  1.00  0.00    -0.200 OA
HETATM   15  O2  UNL     1      -3.473   3.743   2.368  1.00  0.00    -0.200 OA
BRANCH  13  16
HETATM   16  C8  UNL     1      -3.472   1.410   1.170  1.00  0.00     0.126 A 
HETATM   17  C2  UNL     1      -4.674   1.636   0.499  1.00  0.00     0.047 A 
HETATM   18  C1  UNL     1      -5.321   2.957   0.189  1.00  0.00     0.071 C 
HETATM   19  N1  UNL     1      -5.137   0.413   0.187  1.00  0.00    -0.301 N 
HETATM   20  N2  UNL     1      -4.328  -0.541   0.605  1.00  0.00    -0.291 N 
ATOM     21  H1  UNL     1      -6.010   0.243  -0.313  1.00  0.00     0.187 HD
HETATM   22  C6  UNL     1      -3.273   0.064   1.227  1.00  0.00     0.050 A 
HETATM   23  C7  UNL     1      -2.144  -0.655   1.854  1.00  0.00     0.072 C 
BRANCH  20  24
HETATM   24  C3  UNL     1      -4.491  -1.977   0.453  1.00  0.00     0.100 C 
HETATM   25  C4  UNL     1      -5.310  -2.243  -0.801  1.00  0.00     0.034 C 
HETATM   26  C5  UNL     1      -5.246  -2.602   1.599  1.00  0.00     0.034 C 
ENDBRANCH  20  24
ENDBRANCH  13  16
ENDBRANCH  11  13
ENDBRANCH   1  11
BRANCH   7  27
HETATM   27  C13 UNL     1       3.896  -1.521  -1.596  1.00  0.00     0.086 C 
HETATM   28  C14 UNL     1       3.576  -2.696  -0.704  1.00  0.00     0.026 C 
HETATM   29  C15 UNL     1       4.869  -3.372  -0.295  1.00  0.00     0.007 C 
HETATM   30  C16 UNL     1       5.626  -2.377   0.589  1.00  0.00    -0.010 A 
HETATM   31  C17 UNL     1       7.051  -2.086   0.209  1.00  0.00     0.010 A 
HETATM   32  C18 UNL     1       5.923  -1.139  -0.181  1.00  0.00    -0.008 A 
HETATM   33  C19 UNL     1       5.379  -1.201  -1.574  1.00  0.00     0.030 C 
ENDBRANCH   7  27
TORSDOF 5
