REMARK  8 active torsions:
REMARK  status: ('A' for Active; 'I' for Inactive)
REMARK    1  A    between atoms: C2_2  and  C3_3 
REMARK    2  A    between atoms: C3_3  and  C4_4 
REMARK    3  A    between atoms: C3_3  and  N1_6 
REMARK    4  A    between atoms: N1_6  and  C5_8 
REMARK    5  A    between atoms: C6_9  and  C7_10 
REMARK       I    between atoms: C7_10  and  N2_12 
REMARK       I    between atoms: N2_12  and  C8_14 
REMARK    6  A    between atoms: C12_24  and  N6_25 
REMARK    7  A    between atoms: C14_27  and  C15_28 
REMARK    8  A    between atoms: C16_29  and  O3_30 
ROOT
HETATM    1  C5  UNL     1      -1.948   0.532   0.811  1.00  0.00     0.158 A 
HETATM    2  C6  UNL     1      -2.621   1.579   1.365  1.00  0.00     0.148 A 
HETATM    3  N5  UNL     1      -1.659   2.469   1.813  1.00  0.00    -0.333 N 
ATOM      4  H5  UNL     1      -1.836   3.360   2.276  1.00  0.00     0.168 HD
HETATM    5  C9  UNL     1      -0.465   1.957   1.533  1.00  0.00     0.130 A 
HETATM    6  C10 UNL     1       0.813   2.495   1.795  1.00  0.00     0.054 A 
HETATM    7  C11 UNL     1       1.879   1.736   1.387  1.00  0.00     0.056 A 
HETATM    8  C12 UNL     1       1.731   0.519   0.759  1.00  0.00     0.143 A 
HETATM    9  N11 UNL     1       0.491   0.081   0.549  1.00  0.00    -0.274 N 
ATOM     10  H11 UNL     1       0.360  -0.818   0.086  1.00  0.00     0.189 HD
HETATM   11  N12 UNL     1      -0.592   0.779   0.924  1.00  0.00    -0.220 N 
ENDROOT
BRANCH   8  12
HETATM   12  N6  UNL     1       2.887  -0.244   0.348  1.00  0.00    -0.233 N 
HETATM   13  C13 UNL     1       4.132   0.219   0.140  1.00  0.00     0.152 A 
HETATM   14  C14 UNL     1       4.960  -0.839  -0.248  1.00  0.00     0.087 A 
HETATM   15  N9  UNL     1       4.143  -1.909  -0.252  1.00  0.00    -0.283 N 
HETATM   16  N10 UNL     1       2.922  -1.536   0.104  1.00  0.00    -0.234 N 
ATOM     17  H9  UNL     1       4.421  -2.861  -0.492  1.00  0.00     0.188 HD
ATOM     18  H10 UNL     1       2.121  -2.163   0.178  1.00  0.00     0.209 HD
BRANCH  14  19
HETATM   19  C15 UNL     1       6.381  -0.757  -0.567  1.00  0.00     0.112 A 
HETATM   20  C16 UNL     1       6.776  -0.505  -1.871  1.00  0.00     0.162 A 
HETATM   21  N7  UNL     1       8.097  -0.427  -2.177  1.00  0.00    -0.288 N 
HETATM   22  C17 UNL     1       9.030  -0.592  -1.222  1.00  0.00     0.329 A 
ATOM     23  H7  UNL     1       8.384  -0.242  -3.138  1.00  0.00     0.172 HD
HETATM   24  O4  UNL     1      10.270  -0.518  -1.514  1.00  0.00    -0.247 OA
HETATM   25  N8  UNL     1       8.686  -0.840   0.065  1.00  0.00    -0.275 N 
HETATM   26  C18 UNL     1       7.381  -0.916   0.362  1.00  0.00     0.266 A 
ATOM     27  H8  UNL     1       9.398  -0.965   0.785  1.00  0.00     0.173 HD
HETATM   28  O5  UNL     1       7.049  -1.145   1.550  1.00  0.00    -0.267 OA
BRANCH  20  29
HETATM   29  O3  UNL     1       5.849  -0.329  -2.879  1.00  0.00    -0.345 OA
ATOM     30  H3  UNL     1       6.120  -0.156  -3.773  1.00  0.00     0.219 HD
ENDBRANCH  20  29
ENDBRANCH  14  19
ENDBRANCH   8  12
BRANCH   1  31
HETATM   31  N1  UNL     1      -2.404  -0.590   0.104  1.00  0.00    -0.361 N 
ATOM     32  H1  UNL     1      -1.675  -1.291  -0.027  1.00  0.00     0.162 HD
BRANCH  31  33
HETATM   33  C3  UNL     1      -3.640  -0.979  -0.472  1.00  0.00     0.152 C 
BRANCH  33  34
HETATM   34  C2  UNL     1      -3.454  -2.388  -1.159  1.00  0.00    -0.017 A 
HETATM   35  C1  UNL     1      -2.318  -2.431  -2.147  1.00  0.00     0.018 C 
HETATM   36  C19 UNL     1      -4.766  -3.005  -1.648  1.00  0.00     0.012 A 
HETATM   37  C20 UNL     1      -3.955  -3.580  -0.466  1.00  0.00     0.012 A 
ENDBRANCH  33  34
BRANCH  33  38
HETATM   38  C4  UNL     1      -3.903  -0.104  -1.673  1.00  0.00     0.256 C 
HETATM   39  O1  UNL     1      -3.174   0.766  -2.053  1.00  0.00    -0.305 OA
ENDBRANCH  33  38
ENDBRANCH  31  33
ENDBRANCH   1  31
BRANCH   2  40
HETATM   40  C7  UNL     1      -4.030   1.820   1.616  1.00  0.00     0.278 C 
HETATM   41  O2  UNL     1      -4.930   1.037   1.415  1.00  0.00    -0.265 OA
HETATM   42  N2  UNL     1      -4.401   3.120   2.154  1.00  0.00    -0.296 N 
HETATM   43  C8  UNL     1      -5.758   3.405   2.411  1.00  0.00     0.188 C 
ATOM     44  H2  UNL     1      -3.684   3.821   2.344  1.00  0.00     0.171 HD
HETATM   45  N3  UNL     1      -6.053   4.548   2.879  1.00  0.00    -0.373 N 
HETATM   46  N4  UNL     1      -6.785   2.464   2.164  1.00  0.00    -0.064 NA
ATOM     47  H32 UNL     1      -5.313   5.226   3.057  1.00  0.00     0.158 HD
ATOM     48  H31 UNL     1      -7.035   4.754   3.065  1.00  0.00     0.158 HD
ENDBRANCH   2  40
TORSDOF 8
