REMARK  9 active torsions:
REMARK  status: ('A' for Active; 'I' for Inactive)
REMARK       I    between atoms: C2_2  and  N1_4 
REMARK    1  A    between atoms: C6_11  and  N2_12 
REMARK       I    between atoms: N2_12  and  C7_14 
REMARK       I    between atoms: C7_14  and  N3_15 
REMARK       I    between atoms: C7_14  and  N4_19 
REMARK    2  A    between atoms: N4_19  and  C8_21 
REMARK    3  A    between atoms: C8_21  and  C9_22 
REMARK    4  A    between atoms: C8_21  and  C17_39 
REMARK    5  A    between atoms: C9_22  and  C10_24 
REMARK    6  A    between atoms: C11_29  and  N7_30 
REMARK    7  A    between atoms: N7_30  and  C12_31 
REMARK    8  A    between atoms: C17_39  and  O3_40 
REMARK    9  A    between atoms: N9_42  and  O4_44 
ROOT
HETATM    1  C8  UNL     1      -0.155   1.356  -0.673  1.00  0.00     0.137 C 
ENDROOT
BRANCH   1   2
HETATM    2  N4  UNL     1      -1.355   1.940  -0.210  1.00  0.00    -0.340 N 
HETATM    3  C7  UNL     1      -2.038   1.382   0.904  1.00  0.00     0.383 C 
HETATM    4  N2  UNL     1      -3.306   2.046   1.017  1.00  0.00    -0.365 N 
HETATM    5  N3  UNL     1      -2.111   0.006   1.063  1.00  0.00    -0.041 N 
ATOM      6  H2  UNL     1      -3.463   2.796   1.690  1.00  0.00     0.158 HD
ATOM      7  H33 UNL     1      -2.563  -0.230   1.946  1.00  0.00     0.279 HD
ATOM      8  H32 UNL     1      -2.786  -0.396   0.413  1.00  0.00     0.279 HD
ATOM      9  H31 UNL     1      -1.210  -0.466   0.983  1.00  0.00     0.279 HD
ATOM     10  H4  UNL     1      -1.732   2.765  -0.677  1.00  0.00     0.163 HD
BRANCH   4  11
HETATM   11  C6  UNL     1      -4.303   1.612   0.163  1.00  0.00     0.178 C 
HETATM   12  C3  UNL     1      -4.932   0.294   0.359  1.00  0.00     0.027 C 
HETATM   13  N1  UNL     1      -4.968  -0.437   1.385  1.00  0.00    -0.332 N 
HETATM   14  C4  UNL     1      -5.632  -0.025  -0.950  1.00  0.00     0.135 C 
HETATM   15  C2  UNL     1      -5.648  -1.663   1.519  1.00  0.00     0.217 C 
ATOM     16  H1  UNL     1      -4.452  -0.107   2.201  1.00  0.00     0.168 HD
HETATM   17  C1  UNL     1      -7.060  -1.782   1.956  1.00  0.00     0.117 C 
HETATM   18  O1  UNL     1      -5.064  -2.770   1.261  1.00  0.00    -0.274 OA
HETATM   19  S1  UNL     1      -6.530   1.596  -1.111  1.00  0.00    -0.114 SA
HETATM   20  C5  UNL     1      -5.459   2.543  -0.046  1.00  0.00     0.073 C 
HETATM   21  S2  UNL     1      -5.634   3.816   0.465  1.00  0.00    -0.075 SA
ENDBRANCH   4  11
ENDBRANCH   1   2
BRANCH   1  22
HETATM   22  C9  UNL     1       0.976   1.264   0.211  1.00  0.00     0.237 C 
HETATM   23  O2  UNL     1       0.885   1.665   1.415  1.00  0.00    -0.283 OA
BRANCH  22  24
HETATM   24  C10 UNL     1       2.315   0.732  -0.119  1.00  0.00     0.146 A 
HETATM   25  N5  UNL     1       2.749   0.261  -1.269  1.00  0.00    -0.288 N 
HETATM   26  N6  UNL     1       3.903  -0.173  -1.426  1.00  0.00    -0.267 N 
ATOM     27  H5  UNL     1       2.111   0.252  -2.065  1.00  0.00     0.188 HD
HETATM   28  C11 UNL     1       4.761  -0.162  -0.356  1.00  0.00     0.241 A 
ATOM     29  H6  UNL     1       4.206  -0.530  -2.332  1.00  0.00     0.190 HD
HETATM   30  S3  UNL     1       3.699   0.536   0.845  1.00  0.00    -0.014 SA
BRANCH  28  31
HETATM   31  N7  UNL     1       5.896  -0.543  -0.325  1.00  0.00    -0.361 NA
BRANCH  31  32
HETATM   32  C12 UNL     1       7.104  -0.869  -0.017  1.00  0.00     0.181 A 
HETATM   33  C13 UNL     1       7.443  -1.682   1.092  1.00  0.00     0.064 A 
HETATM   34  C14 UNL     1       8.746  -2.000   1.372  1.00  0.00     0.006 A 
HETATM   35  C15 UNL     1       9.744  -1.516   0.555  1.00  0.00     0.017 A 
HETATM   36  C16 UNL     1       9.434  -0.726  -0.526  1.00  0.00     0.090 A 
HETATM   37  N8  UNL     1       8.171  -0.434  -0.774  1.00  0.00    -0.341 N 
ATOM     38  H8  UNL     1       7.970   0.155  -1.582  1.00  0.00     0.167 HD
ENDBRANCH  31  32
ENDBRANCH  28  31
ENDBRANCH  22  24
ENDBRANCH   1  22
BRANCH   1  39
HETATM   39  C17 UNL     1      -0.464   0.197  -1.523  1.00  0.00     0.191 C 
HETATM   40  N9  UNL     1      -1.450   0.386  -2.376  1.00  0.00    -0.245 N 
ATOM     41  H9  UNL     1      -1.926   1.288  -2.400  1.00  0.00     0.196 HD
BRANCH  39  42
HETATM   42  O3  UNL     1       0.132  -1.024  -1.540  1.00  0.00    -0.343 OA
ATOM     43  H3  UNL     1      -0.068  -1.773  -2.089  1.00  0.00     0.219 HD
ENDBRANCH  39  42
BRANCH  40  44
HETATM   44  O4  UNL     1      -1.849  -0.614  -3.236  1.00  0.00    -0.288 OA
ATOM     45  H4  UNL     1      -2.560  -0.478  -3.851  1.00  0.00     0.244 HD
ENDBRANCH  40  44
ENDBRANCH   1  39
TORSDOF 9
