REMARK  16 active torsions:
REMARK  status: ('A' for Active; 'I' for Inactive)
REMARK    1  A    between atoms: O1_2  and  C2_3 
REMARK    2  A    between atoms: C2_3  and  C3_5 
REMARK    3  A    between atoms: C6_9  and  C7_10 
REMARK    4  A    between atoms: C7_10  and  O4_14 
REMARK    5  A    between atoms: O4_14  and  C8_15 
REMARK    6  A    between atoms: C8_15  and  C9_20 
REMARK    7  A    between atoms: N2_16  and  O5_18 
REMARK    8  A    between atoms: C9_20  and  C13_32 
REMARK    9  A    between atoms: N3_21  and  N4_23 
REMARK   10  A    between atoms: N4_23  and  C10_25 
REMARK   11  A    between atoms: C10_25  and  O6_26 
REMARK   12  A    between atoms: C10_25  and  C11_28 
REMARK   13  A    between atoms: C11_28  and  O8_30 
REMARK   14  A    between atoms: C13_32  and  N5_33 
REMARK   15  A    between atoms: C13_32  and  C16_38 
REMARK       I    between atoms: N5_33  and  C14_35 
REMARK   16  A    between atoms: C18_41  and  N6_42 
ROOT
HETATM    1  C9  UNL     1      -0.772  -1.075   0.221  1.00  0.00     0.107 C 
HETATM    2  N3  UNL     1      -1.156  -0.275   1.142  1.00  0.00    -0.300 N 
ATOM      3  H3  UNL     1      -1.920  -0.621   1.722  1.00  0.00     0.186 HD
ENDROOT
BRANCH   1   4
HETATM    4  C8  UNL     1       0.321  -0.651  -0.652  1.00  0.00     0.196 C 
HETATM    5  N2  UNL     1       0.713  -1.411  -1.570  1.00  0.00    -0.245 N 
ATOM      6  H2  UNL     1       0.177  -2.279  -1.591  1.00  0.00     0.196 HD
BRANCH   4   7
HETATM    7  O4  UNL     1       0.962   0.597  -0.494  1.00  0.00    -0.271 OA
BRANCH   7   8
HETATM    8  C7  UNL     1       1.347   1.327  -1.602  1.00  0.00     0.179 C 
HETATM    9  N1  UNL     1       0.596   1.162  -2.659  1.00  0.00    -0.377 N 
ATOM     10  H12 UNL     1       0.880   1.701  -3.477  1.00  0.00     0.158 HD
ATOM     11  H11 UNL     1      -0.199   0.525  -2.599  1.00  0.00     0.158 HD
BRANCH   8  12
HETATM   12  C6  UNL     1       2.467   2.224  -1.687  1.00  0.00     0.142 A 
HETATM   13  C3  UNL     1       3.421   2.586  -0.779  1.00  0.00     0.079 A 
HETATM   14  C4  UNL     1       4.276   3.507  -1.415  1.00  0.00     0.045 A 
HETATM   15  C5  UNL     1       3.766   3.635  -2.681  1.00  0.00     0.144 A 
HETATM   16  O3  UNL     1       2.718   2.886  -2.825  1.00  0.00    -0.317 OA
BRANCH  13  17
HETATM   17  C2  UNL     1       3.597   2.147   0.583  1.00  0.00     0.295 C 
HETATM   18  O2  UNL     1       2.890   1.327   1.192  1.00  0.00    -0.259 OA
BRANCH  17  19
HETATM   19  O1  UNL     1       4.665   2.677   1.333  1.00  0.00    -0.322 OA
HETATM   20  C1  UNL     1       4.882   2.281   2.671  1.00  0.00     0.213 C 
ENDBRANCH  17  19
ENDBRANCH  13  17
ENDBRANCH   8  12
ENDBRANCH   7   8
ENDBRANCH   4   7
BRANCH   5  21
HETATM   21  O5  UNL     1       1.633  -1.389  -2.516  1.00  0.00    -0.288 OA
ATOM     22  H5  UNL     1       1.930  -1.964  -3.211  1.00  0.00     0.244 HD
ENDBRANCH   5  21
ENDBRANCH   1   4
BRANCH   1  23
HETATM   23  C13 UNL     1      -1.441  -2.372   0.100  1.00  0.00     0.191 C 
BRANCH  23  24
HETATM   24  N5  UNL     1      -2.068  -2.574  -1.177  1.00  0.00    -0.346 N 
HETATM   25  C14 UNL     1      -3.454  -2.795  -1.254  1.00  0.00     0.214 C 
HETATM   26  C15 UNL     1      -4.133  -3.008  -2.566  1.00  0.00     0.117 C 
HETATM   27  O9  UNL     1      -4.140  -2.814  -0.205  1.00  0.00    -0.274 OA
ATOM     28  H5  UNL     1      -1.507  -2.557  -2.029  1.00  0.00     0.163 HD
ENDBRANCH  23  24
BRANCH  23  29
HETATM   29  C16 UNL     1      -0.457  -3.515   0.354  1.00  0.00     0.047 A 
HETATM   30  C17 UNL     1       0.743  -3.271   0.974  1.00  0.00     0.080 A 
HETATM   31  S1  UNL     1       1.458  -4.814   1.013  1.00  0.00    -0.064 SA
HETATM   32  C18 UNL     1       0.208  -5.686   0.246  1.00  0.00     0.142 A 
HETATM   33  N7  UNL     1      -0.702  -4.750  -0.005  1.00  0.00    -0.338 N 
ATOM     34  H7  UNL     1      -1.577  -4.990  -0.470  1.00  0.00     0.168 HD
BRANCH  32  35
HETATM   35  N6  UNL     1       0.134  -6.972  -0.041  1.00  0.00    -0.380 N 
ATOM     36  H62 UNL     1       0.832  -7.690   0.152  1.00  0.00     0.158 HD
ATOM     37  H61 UNL     1      -0.613  -7.493  -0.500  1.00  0.00     0.158 HD
ENDBRANCH  32  35
ENDBRANCH  23  29
ENDBRANCH   1  23
BRANCH   2  38
HETATM   38  N4  UNL     1      -0.703   0.968   1.469  1.00  0.00    -0.299 N 
ATOM     39  H4  UNL     1       0.144   1.024   2.034  1.00  0.00     0.183 HD
BRANCH  38  40
HETATM   40  C10 UNL     1      -1.328   2.217   1.079  1.00  0.00     0.334 C 
BRANCH  40  41
HETATM   41  O6  UNL     1      -0.604   3.295   1.579  1.00  0.00    -0.367 OA
ATOM     42  H6  UNL     1      -1.013   4.113   1.323  1.00  0.00     0.212 HD
ENDBRANCH  40  41
BRANCH  40  43
HETATM   43  C11 UNL     1      -2.717   2.324   1.559  1.00  0.00     0.308 C 
HETATM   44  O7  UNL     1      -3.574   1.471   1.245  1.00  0.00    -0.260 OA
BRANCH  43  45
HETATM   45  O8  UNL     1      -3.084   3.377   2.364  1.00  0.00    -0.323 OA
HETATM   46  C12 UNL     1      -4.374   3.580   2.879  1.00  0.00     0.213 C 
ENDBRANCH  43  45
ENDBRANCH  40  43
ENDBRANCH  38  40
ENDBRANCH   2  38
TORSDOF 16
