REMARK  2 active torsions:
REMARK  status: ('A' for Active; 'I' for Inactive)
REMARK    1  A    between atoms: C4_8  and  C5_9 
REMARK    2  A    between atoms: C6_12  and  C7_13 
REMARK       I    between atoms: C7_13  and  N3_15 
ROOT
HETATM    1  C7  UNL     1       3.342  -0.139  -0.064  1.00  0.00     0.300 C 
HETATM    2  O3  UNL     1       3.848   0.900   0.399  1.00  0.00    -0.263 OA
HETATM    3  N3  UNL     1       4.130  -1.211  -0.542  1.00  0.00    -0.257 N 
ATOM      4  H3  UNL     1       3.676  -2.045  -0.914  1.00  0.00     0.181 HD
HETATM    5  C8  UNL     1       5.536  -1.138  -0.510  1.00  0.00     0.184 C 
HETATM    6  N4  UNL     1       6.693  -1.082  -0.466  1.00  0.00    -0.172 NA
ENDROOT
BRANCH   1   7
HETATM    7  C6  UNL     1       1.888  -0.252  -0.115  1.00  0.00     0.198 A 
HETATM    8  N2  UNL     1       0.971   0.654   0.289  1.00  0.00    -0.314 N 
HETATM    9  C5  UNL     1      -0.276   0.187   0.082  1.00  0.00     0.190 A 
ATOM     10  H2  UNL     1       1.192   1.564   0.694  1.00  0.00     0.169 HD
HETATM   11  O4  UNL     1      -0.113  -1.001  -0.448  1.00  0.00    -0.217 OA
HETATM   12  N5  UNL     1       1.149  -1.289  -0.577  1.00  0.00    -0.238 N 
ATOM     13  H5  UNL     1       1.522  -2.156  -0.964  1.00  0.00     0.197 HD
BRANCH   9  14
HETATM   14  C4  UNL     1      -1.531   0.871   0.387  1.00  0.00     0.118 A 
HETATM   15  C2  UNL     1      -2.806   0.393   0.174  1.00  0.00     0.049 A 
HETATM   16  C1  UNL     1      -3.119  -0.924  -0.414  1.00  0.00     0.071 C 
HETATM   17  N1  UNL     1      -3.674   1.356   0.603  1.00  0.00    -0.261 N 
HETATM   18  O1  UNL     1      -2.984   2.347   1.045  1.00  0.00    -0.195 OA
ATOM     19  H1  UNL     1      -4.692   1.299   0.577  1.00  0.00     0.194 HD
HETATM   20  C3  UNL     1      -1.689   2.121   0.944  1.00  0.00     0.321 A 
HETATM   21  O2  UNL     1      -0.721   2.854   1.271  1.00  0.00    -0.257 OA
ENDBRANCH   9  14
ENDBRANCH   1   7
TORSDOF 2
