REMARK  2 active torsions:
REMARK  status: ('A' for Active; 'I' for Inactive)
REMARK    1  A    between atoms: O1_1  and  C1_3 
REMARK    2  A    between atoms: C1_3  and  C2_4 
ROOT
HETATM    1  C2  UNL     1       2.838   0.354  -0.178  1.00  0.00     0.150 C 
HETATM    2  C3  UNL     1       2.045  -0.879   0.200  1.00  0.00     0.110 C 
HETATM    3  C4  UNL     1       0.615  -0.441   0.038  1.00  0.00     0.253 C 
HETATM    4  C5  UNL     1       0.789   1.051  -0.251  1.00  0.00     0.242 C 
HETATM    5  O2  UNL     1       2.036   1.373   0.321  1.00  0.00    -0.378 OA
HETATM    6  O3  UNL     1      -0.052  -1.097  -0.968  1.00  0.00    -0.190 OA
HETATM    7  O4  UNL     1      -1.222  -1.568  -0.613  1.00  0.00    -0.162 OA
HETATM    8  C6  UNL     1      -1.943  -0.550  -0.047  1.00  0.00     0.414 C 
HETATM    9  C7  UNL     1      -3.276  -1.003   0.510  1.00  0.00     0.340 C 
HETATM   10  N1  UNL     1      -4.135   0.178   0.385  1.00  0.00    -0.044 N 
ATOM     11  H11 UNL     1      -4.592   0.444   1.257  1.00  0.00     0.279 HD
ATOM     12  H12 UNL     1      -4.985   0.009  -0.153  1.00  0.00     0.279 HD
HETATM   13  C8  UNL     1      -3.295   1.222  -0.171  1.00  0.00     0.469 C 
HETATM   14  N2  UNL     1      -2.408   0.431  -1.041  1.00  0.00     0.013 N 
ATOM     15  H21 UNL     1      -2.826   0.053  -1.891  1.00  0.00     0.286 HD
ATOM     16  H22 UNL     1      -1.685   0.948  -1.541  1.00  0.00     0.286 HD
HETATM   17  O5  UNL     1      -1.265   0.085   0.994  1.00  0.00    -0.162 OA
HETATM   18  O6  UNL     1      -0.119  -0.560   1.225  1.00  0.00    -0.190 OA
ENDROOT
BRANCH   1  19
HETATM   19  C1  UNL     1       4.156   0.419   0.564  1.00  0.00     0.196 C 
BRANCH  19  20
HETATM   20  O1  UNL     1       5.034  -0.554   0.146  1.00  0.00    -0.398 OA
ATOM     21  H1  UNL     1       5.861  -0.513   0.612  1.00  0.00     0.209 HD
ENDBRANCH  19  20
ENDBRANCH   1  19
TORSDOF 2
