REMARK  2 active torsions:
REMARK  status: ('A' for Active; 'I' for Inactive)
REMARK    1  A    between atoms: C8_11  and  O4_12 
REMARK    2  A    between atoms: C8_11  and  O5_14 
ROOT
HETATM    1  C1  UNL     1       3.404  -1.569   0.259  1.00  0.00     0.081 C 
HETATM    2  C2  UNL     1       2.614  -0.307  -0.044  1.00  0.00     0.193 C 
HETATM    3  C3  UNL     1       3.595   0.855   0.136  1.00  0.00     0.081 C 
HETATM    4  O1  UNL     1       2.149  -0.251  -1.330  1.00  0.00    -0.199 OA
HETATM    5  O2  UNL     1       1.075  -0.925  -1.571  1.00  0.00    -0.200 OA
HETATM    6  C4  UNL     1       0.050  -0.719  -0.684  1.00  0.00     0.353 C 
HETATM    7  O3  UNL     1      -1.171  -0.491  -1.251  1.00  0.00    -0.335 OA
HETATM    8  C5  UNL     1      -2.098  -0.107  -0.316  1.00  0.00     0.141 C 
HETATM    9  C6  UNL     1      -3.413   0.174  -1.040  1.00  0.00     0.054 C 
HETATM   10  C7  UNL     1      -2.339  -1.137   0.763  1.00  0.00     0.054 C 
HETATM   11  C8  UNL     1      -1.605   1.155   0.404  1.00  0.00     0.312 C 
HETATM   12  O6  UNL     1      -0.498   0.721   1.170  1.00  0.00    -0.294 OA
HETATM   13  C9  UNL     1       0.489   0.382   0.272  1.00  0.00     0.327 C 
HETATM   14  O7  UNL     1       1.623  -0.119   0.923  1.00  0.00    -0.318 OA
ENDROOT
BRANCH  11  15
HETATM   15  O4  UNL     1      -2.612   1.664   1.230  1.00  0.00    -0.341 OA
ATOM     16  H4  UNL     1      -2.307   2.445   1.676  1.00  0.00     0.215 HD
ENDBRANCH  11  15
BRANCH  11  17
HETATM   17  O5  UNL     1      -1.179   2.120  -0.472  1.00  0.00    -0.341 OA
ATOM     18  H5  UNL     1      -0.874   2.901  -0.026  1.00  0.00     0.215 HD
ENDBRANCH  11  17
TORSDOF 2
