REMARK  3 active torsions:
REMARK  status: ('A' for Active; 'I' for Inactive)
REMARK       I    between atoms: N1_2  and  C2_4 
REMARK       I    between atoms: C2_4  and  N2_6 
REMARK    1  A    between atoms: C3_7  and  N3_8 
REMARK    2  A    between atoms: C4_11  and  C5_12 
REMARK    3  A    between atoms: C5_12  and  O4_13 
ROOT
HETATM    1  C1  UNL     1       4.244   0.471   0.480  1.00  0.00     0.151 C 
HETATM    2  N1  UNL     1       2.815   0.534   0.633  1.00  0.00    -0.346 N 
ATOM      3  H1  UNL     1       2.395   1.391   0.994  1.00  0.00     0.163 HD
HETATM    4  C2  UNL     1       1.989  -0.532   0.306  1.00  0.00     0.342 C 
HETATM    5  O1  UNL     1       2.519  -1.635   0.019  1.00  0.00    -0.246 OA
HETATM    6  N2  UNL     1       0.538  -0.455   0.256  1.00  0.00    -0.073 N 
HETATM    7  C3  UNL     1      -0.163   0.636   0.038  1.00  0.00     0.226 A 
HETATM    8  C4  UNL     1      -1.568   0.242  -0.038  1.00  0.00     0.103 A 
HETATM    9  N4  UNL     1      -1.583  -1.033   0.151  1.00  0.00    -0.185 N 
HETATM   10  C6  UNL     1      -2.672  -1.989   0.045  1.00  0.00     0.175 C 
HETATM   11  C7  UNL     1      -0.310  -1.467   0.340  1.00  0.00     0.690 A 
HETATM   12  N5  UNL     1      -0.030  -2.679   0.820  1.00  0.00    -0.234 N 
ATOM     13  H51 UNL     1      -0.684  -3.459   0.885  1.00  0.00     0.174 HD
ATOM     14  H52 UNL     1       0.926  -3.005   0.962  1.00  0.00     0.174 HD
ENDROOT
BRANCH   7  15
HETATM   15  N3  UNL     1       0.183   1.987  -0.174  1.00  0.00    -0.095 N 
HETATM   16  O2  UNL     1      -0.748   2.857   0.192  1.00  0.00    -0.530 OA
HETATM   17  O3  UNL     1       1.288   2.657  -0.481  1.00  0.00    -0.530 OA
ENDBRANCH   7  15
BRANCH   8  18
HETATM   18  C5  UNL     1      -2.533   1.173  -0.590  1.00  0.00     0.226 C 
BRANCH  18  19
HETATM   19  O4  UNL     1      -3.654   1.406   0.130  1.00  0.00    -0.395 OA
ATOM     20  H4  UNL     1      -4.286   2.016  -0.232  1.00  0.00     0.209 HD
ENDBRANCH  18  19
ENDBRANCH   8  18
TORSDOF 3
