REMARK  2 active torsions:
REMARK  status: ('A' for Active; 'I' for Inactive)
REMARK    1  A    between atoms: C7_15  and  N5_16 
REMARK    2  A    between atoms: N5_16  and  N6_18 
ROOT
HETATM    1  N1  UNL     1      -5.632   0.711   0.629  1.00  0.00    -0.188 NA
HETATM    2  C1  UNL     1      -4.533   0.387   0.549  1.00  0.00     0.137 C 
HETATM    3  C2  UNL     1      -3.161  -0.021   0.424  1.00  0.00     0.191 A 
HETATM    4  N2  UNL     1      -2.785  -1.291   0.664  1.00  0.00    -0.299 N 
ATOM      5  H2  UNL     1      -3.503  -1.961   0.939  1.00  0.00     0.171 HD
HETATM    6  C3  UNL     1      -1.519  -1.727   0.563  1.00  0.00     0.276 A 
HETATM    7  O1  UNL     1      -1.189  -2.925   0.793  1.00  0.00    -0.266 OA
HETATM    8  C4  UNL     1      -0.566  -0.790   0.186  1.00  0.00     0.141 A 
HETATM    9  C5  UNL     1      -0.913   0.511  -0.066  1.00  0.00     0.062 A 
HETATM   10  N3  UNL     1      -2.193   0.867   0.057  1.00  0.00    -0.333 N 
ATOM     11  H3  UNL     1      -2.456   1.835  -0.129  1.00  0.00     0.168 HD
HETATM   12  C6  UNL     1       0.116   1.500  -0.466  1.00  0.00     0.197 A 
HETATM   13  N4  UNL     1       1.427   0.964  -0.551  1.00  0.00    -0.219 N 
ATOM     14  H4  UNL     1       2.171   1.607  -0.823  1.00  0.00     0.178 HD
HETATM   15  C7  UNL     1       1.767  -0.248  -0.319  1.00  0.00     0.698 A 
HETATM   16  N7  UNL     1       0.780  -1.189   0.064  1.00  0.00    -0.183 N 
ATOM     17  H7  UNL     1       1.044  -2.156   0.252  1.00  0.00     0.184 HD
ENDROOT
BRANCH  15  18
HETATM   18  N5  UNL     1       3.138  -0.676  -0.439  1.00  0.00    -0.072 N 
ATOM     19  H5  UNL     1       3.351  -1.633  -0.719  1.00  0.00     0.212 HD
BRANCH  18  20
HETATM   20  N6  UNL     1       4.165   0.213  -0.174  1.00  0.00    -0.024 N 
HETATM   21  O2  UNL     1       5.314  -0.131   0.139  1.00  0.00    -0.516 OA
HETATM   22  O3  UNL     1       3.928   1.572  -0.254  1.00  0.00    -0.516 OA
ENDBRANCH  18  20
ENDBRANCH  15  18
TORSDOF 2
