REMARK  16 active torsions:
REMARK  status: ('A' for Active; 'I' for Inactive)
REMARK    1  A    between atoms: C2_2  and  C3_3 
REMARK    2  A    between atoms: C3_3  and  N1_4 
REMARK    3  A    between atoms: N1_4  and  C4_5 
REMARK    4  A    between atoms: N1_4  and  C14_15 
REMARK    5  A    between atoms: C4_5  and  C5_6 
REMARK    6  A    between atoms: C5_6  and  C6_7 
REMARK    7  A    between atoms: C6_7  and  C7_8 
REMARK    8  A    between atoms: C7_8  and  C8_9 
REMARK    9  A    between atoms: C14_15  and  C15_16 
REMARK   10  A    between atoms: C14_15  and  C16_19 
REMARK   11  A    between atoms: C15_16  and  O1_17 
REMARK       I    between atoms: C16_19  and  N2_21 
REMARK   12  A    between atoms: C18_24  and  C19_25 
REMARK   13  A    between atoms: C19_25  and  O4_26 
REMARK   14  A    between atoms: C21_32  and  C22_33 
REMARK   15  A    between atoms: C22_33  and  C23_35 
REMARK   16  A    between atoms: C23_35  and  C24_36 
ROOT
HETATM    1  C16 UNL     1      -1.981  -0.789   0.233  1.00  0.00     0.253 C 
HETATM    2  O2  UNL     1      -1.405  -1.158   1.285  1.00  0.00    -0.270 OA
HETATM    3  N2  UNL     1      -3.210  -0.123   0.395  1.00  0.00    -0.264 N 
HETATM    4  C17 UNL     1      -4.021   0.403  -0.648  1.00  0.00     0.252 C 
HETATM    5  O3  UNL     1      -3.480   1.009  -1.602  1.00  0.00    -0.270 OA
HETATM    6  C18 UNL     1      -5.487   0.273  -0.664  1.00  0.00     0.200 C 
HETATM    7  N3  UNL     1      -6.014  -0.169   0.613  1.00  0.00    -0.344 N 
ATOM      8  H3  UNL     1      -6.972  -0.515   0.667  1.00  0.00     0.163 HD
HETATM    9  C20 UNL     1      -5.224  -0.129   1.785  1.00  0.00     0.249 C 
HETATM   10  O5  UNL     1      -5.774  -0.290   2.883  1.00  0.00    -0.271 OA
HETATM   11  C21 UNL     1      -3.771   0.098   1.744  1.00  0.00     0.257 C 
ENDROOT
BRANCH   1  12
HETATM   12  C14 UNL     1      -1.323  -1.087  -1.063  1.00  0.00     0.204 C 
BRANCH  12  13
HETATM   13  N1  UNL     1       0.064  -1.211  -1.019  1.00  0.00    -0.355 N 
BRANCH  13  14
HETATM   14  C3  UNL     1       0.791  -1.471  -2.171  1.00  0.00     0.064 C 
BRANCH  14  15
HETATM   15  C2  UNL     1       0.171  -2.067  -3.389  1.00  0.00     0.040 C 
HETATM   16  C1  UNL     1       1.311  -2.184  -4.431  1.00  0.00     0.010 C 
ENDBRANCH  14  15
ENDBRANCH  13  14
BRANCH  13  17
HETATM   17  C4  UNL     1       0.768  -0.496  -0.027  1.00  0.00     0.087 C 
BRANCH  17  18
HETATM   18  C5  UNL     1       1.811  -1.082   0.816  1.00  0.00    -0.009 C 
BRANCH  18  19
HETATM   19  C6  UNL     1       3.088  -1.583   0.279  1.00  0.00     0.029 C 
BRANCH  19  20
HETATM   20  C7  UNL     1       3.941  -0.547  -0.432  1.00  0.00     0.008 C 
BRANCH  20  21
HETATM   21  C8  UNL     1       4.334   0.600   0.478  1.00  0.00    -0.014 C 
HETATM   22  C9  UNL     1       5.132   0.130   1.666  1.00  0.00     0.004 C 
HETATM   23  C10 UNL     1       6.402   0.931   1.854  1.00  0.00     0.000 C 
HETATM   24  C11 UNL     1       6.114   2.392   1.804  1.00  0.00     0.000 C 
HETATM   25  C12 UNL     1       5.609   2.763   0.456  1.00  0.00     0.000 C 
HETATM   26  C13 UNL     1       5.076   1.613  -0.355  1.00  0.00     0.004 C 
ENDBRANCH  20  21
ENDBRANCH  19  20
ENDBRANCH  18  19
ENDBRANCH  17  18
ENDBRANCH  13  17
ENDBRANCH  12  13
BRANCH  12  27
HETATM   27  C15 UNL     1      -2.049  -2.374  -1.504  1.00  0.00     0.199 C 
BRANCH  27  28
HETATM   28  O1  UNL     1      -1.728  -3.448  -0.710  1.00  0.00    -0.398 OA
ATOM     29  H1  UNL     1      -2.175  -4.241  -0.982  1.00  0.00     0.209 HD
ENDBRANCH  27  28
ENDBRANCH  12  27
ENDBRANCH   1  12
BRANCH  11  30
HETATM   30  C22 UNL     1      -3.486   1.486   2.197  1.00  0.00     0.164 C 
HETATM   31  O6  UNL     1      -2.862   2.213   1.436  1.00  0.00    -0.295 OA
BRANCH  30  32
HETATM   32  C23 UNL     1      -3.942   1.978   3.531  1.00  0.00     0.125 C 
BRANCH  32  33
HETATM   33  C24 UNL     1      -3.502   3.382   3.681  1.00  0.00     0.060 C 
HETATM   34  N4  UNL     1      -4.005   4.275   2.890  1.00  0.00    -0.411 N 
ATOM     35  H42 UNL     1      -4.688   4.000   2.184  1.00  0.00     0.155 HD
ATOM     36  H41 UNL     1      -3.702   5.243   2.993  1.00  0.00     0.155 HD
ENDBRANCH  32  33
ENDBRANCH  30  32
ENDBRANCH  11  30
BRANCH   6  37
HETATM   37  C19 UNL     1      -5.882  -0.725  -1.724  1.00  0.00     0.199 C 
BRANCH  37  38
HETATM   38  O4  UNL     1      -5.399  -0.350  -2.979  1.00  0.00    -0.398 OA
ATOM     39  H4  UNL     1      -5.648  -0.978  -3.647  1.00  0.00     0.209 HD
ENDBRANCH  37  38
ENDBRANCH   6  37
TORSDOF 16
