REMARK  18 active torsions:
REMARK  status: ('A' for Active; 'I' for Inactive)
REMARK    1  A    between atoms: C2_2  and  C3_3 
REMARK    2  A    between atoms: C3_3  and  C4_4 
REMARK    3  A    between atoms: C4_4  and  C5_5 
REMARK    4  A    between atoms: C5_5  and  C6_6 
REMARK    5  A    between atoms: C6_6  and  C7_7 
REMARK    6  A    between atoms: C7_7  and  C8_8 
REMARK    7  A    between atoms: C8_8  and  C9_9 
REMARK    8  A    between atoms: C9_9  and  C10_10 
REMARK    9  A    between atoms: C10_10  and  C11_11 
REMARK   10  A    between atoms: C11_11  and  C12_12 
REMARK   11  A    between atoms: C12_12  and  N1_13 
REMARK   12  A    between atoms: C14_15  and  C15_16 
REMARK   13  A    between atoms: C15_16  and  N2_17 
REMARK       I    between atoms: N2_17  and  C16_19 
REMARK       I    between atoms: C16_19  and  N3_21 
REMARK   14  A    between atoms: C20_27  and  O4_28 
REMARK   15  A    between atoms: C21_30  and  O5_31 
REMARK   16  A    between atoms: C22_33  and  O6_34 
REMARK   17  A    between atoms: C23_36  and  C24_37 
REMARK   18  A    between atoms: C24_37  and  O7_38 
ROOT
HETATM    1  N1  UNL     1      -0.901  -1.788   0.321  1.00  0.00    -0.400 N 
HETATM    2  C13 UNL     1      -1.441  -0.727  -0.464  1.00  0.00     0.126 C 
HETATM    3  C14 UNL     1      -2.529   0.073   0.229  1.00  0.00     0.052 C 
HETATM    4  C20 UNL     1      -3.531  -0.838   0.902  1.00  0.00     0.156 C 
HETATM    5  C21 UNL     1      -3.742  -2.052   0.024  1.00  0.00     0.178 C 
HETATM    6  C22 UNL     1      -2.907  -3.160   0.551  1.00  0.00     0.173 C 
HETATM    7  C23 UNL     1      -1.429  -3.068   0.115  1.00  0.00     0.134 C 
ENDROOT
BRANCH   1   8
HETATM    8  C12 UNL     1       0.499  -1.624   0.560  1.00  0.00     0.144 C 
BRANCH   8   9
HETATM    9  C11 UNL     1       1.152  -2.672   1.330  1.00  0.00    -0.012 C 
BRANCH   9  10
HETATM   10  C10 UNL     1       2.562  -2.671   1.672  1.00  0.00    -0.029 C 
BRANCH  10  11
HETATM   11  C9  UNL     1       3.238  -1.678   2.487  1.00  0.00     0.027 C 
BRANCH  11  12
HETATM   12  C8  UNL     1       3.272  -0.254   2.018  1.00  0.00     0.004 C 
BRANCH  12  13
HETATM   13  C7  UNL     1       3.919  -0.077   0.674  1.00  0.00     0.000 C 
BRANCH  13  14
HETATM   14  C6  UNL     1       5.356  -0.535   0.629  1.00  0.00     0.000 C 
BRANCH  14  15
HETATM   15  C5  UNL     1       5.877  -0.293  -0.781  1.00  0.00     0.000 C 
BRANCH  15  16
HETATM   16  C4  UNL     1       5.801   1.174  -1.145  1.00  0.00     0.000 C 
BRANCH  16  17
HETATM   17  C3  UNL     1       6.621   2.022  -0.206  1.00  0.00    -0.000 C 
BRANCH  17  18
HETATM   18  C2  UNL     1       6.488   3.463  -0.637  1.00  0.00    -0.005 C 
HETATM   19  C1  UNL     1       6.975   3.667  -2.032  1.00  0.00     0.005 C 
ENDBRANCH  17  18
ENDBRANCH  16  17
ENDBRANCH  15  16
ENDBRANCH  14  15
ENDBRANCH  13  14
ENDBRANCH  12  13
ENDBRANCH  11  12
ENDBRANCH  10  11
ENDBRANCH   9  10
ENDBRANCH   8   9
ENDBRANCH   1   8
BRANCH   7  20
HETATM   20  C24 UNL     1      -1.422  -3.549  -1.313  1.00  0.00     0.191 C 
BRANCH  20  21
HETATM   21  O7  UNL     1      -0.189  -3.629  -1.899  1.00  0.00    -0.399 OA
ATOM     22  H7  UNL     1      -0.185  -3.932  -2.799  1.00  0.00     0.209 HD
ENDBRANCH  20  21
ENDBRANCH   7  20
BRANCH   3  23
HETATM   23  C15 UNL     1      -3.245   0.896  -0.816  1.00  0.00     0.133 C 
BRANCH  23  24
HETATM   24  N2  UNL     1      -4.301   1.701  -0.230  1.00  0.00    -0.342 N 
HETATM   25  C16 UNL     1      -5.118   2.552  -1.020  1.00  0.00     0.326 C 
HETATM   26  O1  UNL     1      -4.915   2.609  -2.280  1.00  0.00    -0.247 OA
HETATM   27  N3  UNL     1      -6.158   3.355  -0.501  1.00  0.00    -0.243 N 
HETATM   28  C17 UNL     1      -7.045   4.254  -1.256  1.00  0.00     0.166 C 
HETATM   29  C19 UNL     1      -6.607   3.504   0.840  1.00  0.00     0.371 C 
HETATM   30  C18 UNL     1      -8.367   3.911  -0.553  1.00  0.00     0.201 C 
HETATM   31  O2  UNL     1      -7.962   3.896   0.801  1.00  0.00    -0.302 OA
HETATM   32  O3  UNL     1      -5.913   3.317   1.873  1.00  0.00    -0.238 OA
ATOM     33  H2  UNL     1      -4.460   1.654   0.776  1.00  0.00     0.164 HD
ENDBRANCH  23  24
ENDBRANCH   3  23
BRANCH   6  34
HETATM   34  O6  UNL     1      -3.341  -4.417   0.075  1.00  0.00    -0.391 OA
ATOM     35  H6  UNL     1      -2.807  -5.126   0.412  1.00  0.00     0.210 HD
ENDBRANCH   6  34
BRANCH   4  36
HETATM   36  O4  UNL     1      -3.082  -1.207   2.175  1.00  0.00    -0.392 OA
ATOM     37  H4  UNL     1      -3.711  -1.779   2.598  1.00  0.00     0.210 HD
ENDBRANCH   4  36
BRANCH   5  38
HETATM   38  O5  UNL     1      -5.088  -2.477   0.132  1.00  0.00    -0.390 OA
ATOM     39  H5  UNL     1      -5.220  -3.239  -0.419  1.00  0.00     0.210 HD
ENDBRANCH   5  38
TORSDOF 18
