REMARK  16 active torsions:
REMARK  status: ('A' for Active; 'I' for Inactive)
REMARK    1  A    between atoms: C2_2  and  C3_3 
REMARK    2  A    between atoms: C3_3  and  O1_4 
REMARK    3  A    between atoms: O1_4  and  C4_5 
REMARK    4  A    between atoms: C7_8  and  C8_9 
REMARK    5  A    between atoms: C8_9  and  O2_10 
REMARK    6  A    between atoms: O2_10  and  C9_11 
REMARK    7  A    between atoms: C12_17  and  C13_18 
REMARK    8  A    between atoms: C13_18  and  C14_19 
REMARK    9  A    between atoms: C14_19  and  C15_20 
REMARK   10  A    between atoms: C15_20  and  C16_21 
REMARK   11  A    between atoms: C16_21  and  N2_22 
REMARK   12  A    between atoms: C18_30  and  C19_31 
REMARK   13  A    between atoms: C19_31  and  C20_32 
REMARK   14  A    between atoms: C20_32  and  C21_33 
REMARK   15  A    between atoms: C21_33  and  C22_34 
REMARK   16  A    between atoms: C22_34  and  N4_35 
ROOT
HETATM    1  C9  UNL     1       0.426  -0.284   0.446  1.00  0.00     0.231 C 
HETATM    2  C10 UNL     1      -0.087  -1.511   1.128  1.00  0.00     0.164 C 
HETATM    3  N1  UNL     1      -0.779  -2.459   0.330  1.00  0.00    -0.356 N 
ATOM      4  H1  UNL     1      -0.389  -3.401   0.323  1.00  0.00     0.162 HD
HETATM    5  C11 UNL     1      -1.921  -2.271  -0.445  1.00  0.00     0.240 C 
HETATM    6  O3  UNL     1      -1.962  -2.879  -1.574  1.00  0.00    -0.271 OA
HETATM    7  C12 UNL     1      -3.117  -1.464  -0.158  1.00  0.00     0.176 C 
HETATM    8  N3  UNL     1      -3.037  -0.630   0.996  1.00  0.00    -0.346 N 
ATOM      9  H3  UNL     1      -3.104  -1.104   1.897  1.00  0.00     0.163 HD
HETATM   10  C17 UNL     1      -2.877   0.765   1.043  1.00  0.00     0.241 C 
HETATM   11  O4  UNL     1      -3.559   1.402   1.913  1.00  0.00    -0.271 OA
HETATM   12  C18 UNL     1      -2.000   1.584   0.192  1.00  0.00     0.176 C 
HETATM   13  N5  UNL     1      -1.394   0.903  -0.895  1.00  0.00    -0.346 N 
ATOM     14  H5  UNL     1      -1.826   1.006  -1.813  1.00  0.00     0.163 HD
HETATM   15  C23 UNL     1      -0.230   0.087  -0.805  1.00  0.00     0.249 C 
HETATM   16  O5  UNL     1       0.282  -0.354  -1.888  1.00  0.00    -0.271 OA
ENDROOT
BRANCH   1  17
HETATM   17  O2  UNL     1       1.800  -0.375   0.191  1.00  0.00    -0.370 OA
BRANCH  17  18
HETATM   18  C8  UNL     1       2.565   0.510   0.908  1.00  0.00     0.207 C 
BRANCH  18  19
HETATM   19  C7  UNL     1       3.974   0.290   0.530  1.00  0.00    -0.034 A 
HETATM   20  C6  UNL     1       4.570   1.036  -0.459  1.00  0.00     0.012 A 
HETATM   21  C5  UNL     1       5.882   0.821  -0.804  1.00  0.00     0.037 A 
HETATM   22  C4  UNL     1       6.644  -0.174  -0.148  1.00  0.00     0.069 A 
HETATM   23  C25 UNL     1       6.041  -0.912   0.836  1.00  0.00     0.037 A 
HETATM   24  C24 UNL     1       4.706  -0.675   1.170  1.00  0.00     0.012 A 
BRANCH  22  25
HETATM   25  O1  UNL     1       7.921  -0.322  -0.547  1.00  0.00    -0.348 OA
BRANCH  25  26
HETATM   26  C3  UNL     1       8.970  -1.112  -0.202  1.00  0.00     0.202 C 
BRANCH  26  27
HETATM   27  C2  UNL     1       9.483  -1.006   1.185  1.00  0.00    -0.011 C 
HETATM   28  C1  UNL     1       9.533  -1.991   2.060  1.00  0.00     0.009 C 
ENDBRANCH  26  27
ENDBRANCH  25  26
ENDBRANCH  22  25
ENDBRANCH  18  19
ENDBRANCH  17  18
ENDBRANCH   1  17
BRANCH  12  29
HETATM   29  C19 UNL     1      -2.796   2.777  -0.284  1.00  0.00     0.035 C 
BRANCH  29  30
HETATM   30  C20 UNL     1      -2.012   3.698  -1.171  1.00  0.00     0.004 C 
BRANCH  30  31
HETATM   31  C21 UNL     1      -0.820   4.228  -0.439  1.00  0.00     0.027 C 
BRANCH  31  32
HETATM   32  C22 UNL     1      -0.056   5.158  -1.363  1.00  0.00     0.229 C 
BRANCH  32  33
HETATM   33  N4  UNL     1      -0.877   6.275  -1.791  1.00  0.00    -0.079 N 
ATOM     34  H43 UNL     1      -1.747   5.957  -2.218  1.00  0.00     0.274 HD
ATOM     35  H42 UNL     1      -1.267   6.778  -0.994  1.00  0.00     0.274 HD
ATOM     36  H41 UNL     1      -0.363   6.900  -2.412  1.00  0.00     0.274 HD
ENDBRANCH  32  33
ENDBRANCH  31  32
ENDBRANCH  30  31
ENDBRANCH  29  30
ENDBRANCH  12  29
BRANCH   7  37
HETATM   37  C13 UNL     1      -4.289  -2.425  -0.108  1.00  0.00     0.035 C 
BRANCH  37  38
HETATM   38  C14 UNL     1      -5.583  -1.739   0.176  1.00  0.00     0.004 C 
BRANCH  38  39
HETATM   39  C15 UNL     1      -6.705  -2.726   0.213  1.00  0.00     0.027 C 
BRANCH  39  40
HETATM   40  C16 UNL     1      -6.869  -3.472  -1.093  1.00  0.00     0.229 C 
BRANCH  40  41
HETATM   41  N2  UNL     1      -7.966  -4.417  -1.017  1.00  0.00    -0.079 N 
ATOM     42  H23 UNL     1      -7.858  -5.056  -0.229  1.00  0.00     0.274 HD
ATOM     43  H22 UNL     1      -8.834  -3.964  -0.731  1.00  0.00     0.274 HD
ATOM     44  H21 UNL     1      -8.077  -4.920  -1.897  1.00  0.00     0.274 HD
ENDBRANCH  40  41
ENDBRANCH  39  40
ENDBRANCH  38  39
ENDBRANCH  37  38
ENDBRANCH   7  37
TORSDOF 16
