REMARK  14 active torsions:
REMARK  status: ('A' for Active; 'I' for Inactive)
REMARK    1  A    between atoms: C2_2  and  C3_3 
REMARK    2  A    between atoms: C3_3  and  N1_4 
REMARK    3  A    between atoms: C5_9  and  N3_10 
REMARK    4  A    between atoms: C6_12  and  C7_13 
REMARK       I    between atoms: C7_13  and  N4_15 
REMARK    5  A    between atoms: N4_15  and  C8_16 
REMARK    6  A    between atoms: N7_25  and  C13_26 
REMARK    7  A    between atoms: C15_28  and  N8_29 
REMARK    8  A    between atoms: N8_29  and  C16_31 
REMARK    9  A    between atoms: C16_31  and  C17_32 
REMARK   10  A    between atoms: C17_32  and  C18_33 
REMARK   11  A    between atoms: C18_33  and  C19_34 
REMARK   12  A    between atoms: C19_34  and  N9_35 
REMARK   13  A    between atoms: N9_35  and  C20_38 
REMARK   14  A    between atoms: C23_41  and  C24_42 
ROOT
HETATM    1  N1  UNL     1      -5.199   0.888  -2.369  1.00  0.00    -0.350 N 
ATOM      2  H1  UNL     1      -6.089   0.795  -1.879  1.00  0.00     0.166 HD
HETATM    3  C4  UNL     1      -4.177   0.320  -1.843  1.00  0.00     0.151 A 
HETATM    4  N2  UNL     1      -4.377  -0.335  -0.671  1.00  0.00    -0.174 N 
ATOM      5  H2  UNL     1      -5.326  -0.375  -0.299  1.00  0.00     0.186 HD
HETATM    6  C5  UNL     1      -3.403  -0.930   0.024  1.00  0.00     0.685 A 
HETATM    7  N5  UNL     1      -2.176  -0.890  -0.439  1.00  0.00    -0.174 N 
ATOM      8  H5  UNL     1      -1.434  -1.367   0.074  1.00  0.00     0.186 HD
HETATM    9  C10 UNL     1      -1.874  -0.237  -1.571  1.00  0.00     0.155 A 
HETATM   10  C11 UNL     1      -2.914   0.392  -2.302  1.00  0.00     0.123 A 
HETATM   11  N6  UNL     1      -2.325   1.003  -3.324  1.00  0.00    -0.346 N 
ATOM     12  H6  UNL     1      -2.812   1.539  -4.043  1.00  0.00     0.167 HD
HETATM   13  C12 UNL     1      -1.005   0.815  -3.275  1.00  0.00     0.185 A 
HETATM   14  N7  UNL     1      -0.734   0.047  -2.188  1.00  0.00    -0.321 N 
ENDROOT
BRANCH  14  15
HETATM   15  C13 UNL     1       0.589   0.016  -1.642  1.00  0.00     0.102 C 
HETATM   16  C14 UNL     1       1.319  -1.195  -1.232  1.00  0.00     0.051 C 
HETATM   17  C15 UNL     1       2.533  -0.492  -0.583  1.00  0.00     0.079 C 
HETATM   18  C22 UNL     1       1.903   0.566   0.269  1.00  0.00     0.035 C 
HETATM   19  C23 UNL     1       0.585   0.835  -0.363  1.00  0.00     0.033 C 
BRANCH  17  20
HETATM   20  N8  UNL     1       3.569  -1.200  -0.109  1.00  0.00    -0.417 N 
ATOM     21  H8  UNL     1       3.652  -1.352   0.896  1.00  0.00     0.153 HD
BRANCH  20  22
HETATM   22  C16 UNL     1       4.550  -1.741  -0.977  1.00  0.00     0.114 C 
BRANCH  22  23
HETATM   23  C17 UNL     1       5.356  -0.546  -1.569  1.00  0.00     0.021 C 
BRANCH  23  24
HETATM   24  C18 UNL     1       5.960   0.277  -0.469  1.00  0.00     0.029 C 
BRANCH  24  25
HETATM   25  C19 UNL     1       6.907  -0.532   0.342  1.00  0.00     0.232 C 
BRANCH  25  26
HETATM   26  N9  UNL     1       7.560   0.256   1.383  1.00  0.00    -0.075 N 
ATOM     27  H92 UNL     1       8.148   1.011   1.030  1.00  0.00     0.277 HD
ATOM     28  H91 UNL     1       6.927   0.850   1.918  1.00  0.00     0.277 HD
BRANCH  26  29
HETATM   29  C20 UNL     1       8.278  -0.743   2.189  1.00  0.00     0.228 C 
HETATM   30  C21 UNL     1       9.308  -0.100   3.037  1.00  0.00     0.034 C 
ENDBRANCH  26  29
ENDBRANCH  25  26
ENDBRANCH  24  25
ENDBRANCH  23  24
ENDBRANCH  22  23
ENDBRANCH  20  22
ENDBRANCH  17  20
BRANCH  19  31
HETATM   31  C24 UNL     1       0.127   2.186  -0.407  1.00  0.00    -0.030 C 
HETATM   32  C25 UNL     1       0.711   3.168   0.231  1.00  0.00     0.007 C 
ENDBRANCH  19  31
ENDBRANCH  14  15
BRANCH   6  33
HETATM   33  N3  UNL     1      -3.657  -1.209   1.213  1.00  0.00    -0.195 N 
HETATM   34  C6  UNL     1      -4.412  -1.276   2.304  1.00  0.00     0.196 C 
ATOM     35  H3  UNL     1      -2.781  -1.625   1.530  1.00  0.00     0.183 HD
BRANCH  34  36
HETATM   36  C7  UNL     1      -5.953  -1.067   2.215  1.00  0.00     0.331 C 
HETATM   37  O1  UNL     1      -6.442  -1.397   1.114  1.00  0.00    -0.250 OA
HETATM   38  N4  UNL     1      -6.657  -0.533   3.242  1.00  0.00    -0.383 NA
BRANCH  38  39
HETATM   39  C8  UNL     1      -7.419   0.021   4.282  1.00  0.00     0.155 C 
HETATM   40  C9  UNL     1      -6.599   0.173   5.560  1.00  0.00     0.070 C 
ENDBRANCH  38  39
ENDBRANCH  34  36
ENDBRANCH   6  33
BRANCH   1  41
HETATM   41  C3  UNL     1      -5.197   1.621  -3.552  1.00  0.00     0.089 C 
BRANCH  41  42
HETATM   42  C2  UNL     1      -6.114   1.031  -4.615  1.00  0.00     0.007 C 
HETATM   43  C1  UNL     1      -5.625   0.651  -5.755  1.00  0.00     0.012 C 
ENDBRANCH  41  42
ENDBRANCH   1  41
TORSDOF 14
