REMARK  11 active torsions:
REMARK  status: ('A' for Active; 'I' for Inactive)
REMARK    1  A    between atoms: C2_2  and  C3_3 
REMARK    2  A    between atoms: C6_8  and  C7_9 
REMARK    3  A    between atoms: C7_9  and  C8_10 
REMARK    4  A    between atoms: C9_13  and  C10_14 
REMARK    5  A    between atoms: C10_14  and  C11_15 
REMARK    6  A    between atoms: C11_15  and  C12_16 
REMARK       I    between atoms: C12_16  and  N3_18 
REMARK    7  A    between atoms: N3_18  and  C13_19 
REMARK    8  A    between atoms: N3_18  and  C15_21 
REMARK    9  A    between atoms: C17_23  and  C18_24 
REMARK   10  A    between atoms: N4_29  and  C22_30 
REMARK   11  A    between atoms: C22_30  and  C23_31 
ROOT
HETATM    1  C3  UNL     1      -4.615  -1.677  -2.015  1.00  0.00     0.084 A 
HETATM    2  N1  UNL     1      -3.858  -1.863  -3.137  1.00  0.00    -0.347 N 
ATOM      3  H1  UNL     1      -4.220  -1.908  -4.090  1.00  0.00     0.167 HD
HETATM    4  C4  UNL     1      -2.583  -1.976  -2.799  1.00  0.00     0.033 A 
HETATM    5  C5  UNL     1      -1.442  -2.223  -3.747  1.00  0.00     0.070 C 
HETATM    6  C6  UNL     1      -2.474  -1.861  -1.410  1.00  0.00     0.060 A 
HETATM    7  N4  UNL     1      -3.760  -1.677  -0.973  1.00  0.00    -0.331 N 
ENDROOT
BRANCH   6   8
HETATM    8  C7  UNL     1      -1.275  -1.974  -0.623  1.00  0.00     0.061 C 
BRANCH   8   9
HETATM    9  C8  UNL     1      -0.344  -1.041  -0.421  1.00  0.00     0.041 A 
HETATM   10  N2  UNL     1       0.766  -1.230   0.338  1.00  0.00    -0.355 N 
HETATM   11  C9  UNL     1       1.529  -0.119   0.387  1.00  0.00     0.043 A 
ATOM     12  H2  UNL     1       0.994  -2.104   0.812  1.00  0.00     0.166 HD
HETATM   13  C17 UNL     1       0.904   0.836  -0.363  1.00  0.00     0.044 A 
HETATM   14  C20 UNL     1      -0.272   0.248  -0.866  1.00  0.00    -0.019 A 
HETATM   15  C21 UNL     1      -1.234   0.993  -1.724  1.00  0.00     0.052 C 
BRANCH  11  16
HETATM   16  C10 UNL     1       2.662  -0.043   1.065  1.00  0.00     0.013 C 
BRANCH  16  17
HETATM   17  C11 UNL     1       3.525   1.127   1.155  1.00  0.00     0.132 C 
BRANCH  17  18
HETATM   18  C12 UNL     1       4.784   0.810   1.902  1.00  0.00     0.223 C 
HETATM   19  O1  UNL     1       4.730   0.831   3.159  1.00  0.00    -0.273 OA
HETATM   20  N3  UNL     1       6.011   0.492   1.284  1.00  0.00    -0.353 N 
BRANCH  20  21
HETATM   21  C13 UNL     1       6.204   0.435  -0.155  1.00  0.00     0.121 C 
HETATM   22  C14 UNL     1       5.929  -0.916  -0.732  1.00  0.00     0.026 C 
ENDBRANCH  20  21
BRANCH  20  23
HETATM   23  C15 UNL     1       7.155   0.201   2.167  1.00  0.00     0.121 C 
HETATM   24  C16 UNL     1       7.942   1.422   2.508  1.00  0.00     0.026 C 
ENDBRANCH  20  23
ENDBRANCH  17  18
ENDBRANCH  16  17
ENDBRANCH  11  16
BRANCH  13  25
HETATM   25  C18 UNL     1       1.285   2.224  -0.671  1.00  0.00     0.158 C 
HETATM   26  C19 UNL     1       0.915   3.393   0.129  1.00  0.00     0.097 C 
HETATM   27  O2  UNL     1       1.982   2.424  -1.707  1.00  0.00    -0.293 OA
ENDBRANCH  13  25
ENDBRANCH   8   9
ENDBRANCH   6   8
BRANCH   7  28
HETATM   28  C22 UNL     1      -4.160  -1.507   0.396  1.00  0.00     0.169 C 
BRANCH  28  29
HETATM   29  C23 UNL     1      -4.079  -0.148   0.969  1.00  0.00    -0.035 A 
HETATM   30  C24 UNL     1      -4.964   0.873   0.721  1.00  0.00     0.026 A 
HETATM   31  C25 UNL     1      -4.829   2.127   1.337  1.00  0.00     0.090 A 
HETATM   32  N5  UNL     1      -3.814   2.339   2.189  1.00  0.00    -0.353 N 
HETATM   33  C26 UNL     1      -2.929   1.389   2.466  1.00  0.00     0.099 A 
ATOM     34  H5  UNL     1      -3.720   3.252   2.634  1.00  0.00     0.166 HD
HETATM   35  N6  UNL     1      -1.970   1.672   3.303  1.00  0.00    -0.385 N 
HETATM   36  C27 UNL     1      -3.053   0.171   1.872  1.00  0.00     0.056 A 
ATOM     37  H62 UNL     1      -1.877   2.585   3.748  1.00  0.00     0.157 HD
ATOM     38  H61 UNL     1      -1.290   0.942   3.516  1.00  0.00     0.157 HD
ENDBRANCH  28  29
ENDBRANCH   7  28
BRANCH   1  39
HETATM   39  C2  UNL     1      -6.110  -1.565  -2.036  1.00  0.00     0.072 C 
HETATM   40  C1  UNL     1      -6.685  -2.985  -1.889  1.00  0.00     0.013 C 
ENDBRANCH   1  39
TORSDOF 11
