REMARK  9 active torsions:
REMARK  status: ('A' for Active; 'I' for Inactive)
REMARK    1  A    between atoms: C4_6  and  C5_7 
REMARK    2  A    between atoms: C5_7  and  O1_8 
REMARK    3  A    between atoms: N4_20  and  C12_21 
REMARK    4  A    between atoms: C12_21  and  C13_22 
REMARK    5  A    between atoms: C13_22  and  C14_23 
REMARK    6  A    between atoms: C14_23  and  N5_24 
REMARK       I    between atoms: N5_24  and  C15_26 
REMARK    7  A    between atoms: C15_26  and  C16_28 
REMARK    8  A    between atoms: C17_29  and  C18_30 
REMARK    9  A    between atoms: N6_34  and  C22_35 
ROOT
HETATM    1  C1  UNL     1      -9.425  -1.231   3.945  1.00  0.00     0.040 C 
HETATM    2  C2  UNL     1      -8.087  -0.576   3.766  1.00  0.00     0.018 C 
HETATM    3  C3  UNL     1      -7.387  -0.839   2.668  1.00  0.00     0.103 A 
HETATM    4  N1  UNL     1      -7.897  -1.730   1.673  1.00  0.00    -0.342 N 
ATOM      5  H1  UNL     1      -8.807  -2.169   1.811  1.00  0.00     0.167 HD
HETATM    6  C4  UNL     1      -7.155  -2.012   0.497  1.00  0.00     0.064 A 
HETATM    7  C6  UNL     1      -5.982  -1.409   0.380  1.00  0.00     0.087 A 
HETATM    8  N2  UNL     1      -5.037  -1.457  -0.601  1.00  0.00    -0.350 N 
ATOM      9  H2  UNL     1      -5.113  -2.013  -1.453  1.00  0.00     0.166 HD
HETATM   10  C7  UNL     1      -3.994  -0.674  -0.294  1.00  0.00     0.076 A 
HETATM   11  C8  UNL     1      -4.223  -0.074   0.925  1.00  0.00     0.090 A 
HETATM   12  N3  UNL     1      -3.169   0.704   1.214  1.00  0.00    -0.352 N 
ATOM     13  H3  UNL     1      -3.075   1.266   2.060  1.00  0.00     0.166 HD
HETATM   14  C9  UNL     1      -2.237   0.638   0.214  1.00  0.00     0.048 A 
HETATM   15  C10 UNL     1      -1.011   1.205  -0.010  1.00  0.00     0.047 A 
HETATM   16  C11 UNL     1      -0.305   0.920  -1.158  1.00  0.00     0.092 A 
HETATM   17  N4  UNL     1      -0.803   0.086  -2.071  1.00  0.00    -0.365 N 
HETATM   18  C25 UNL     1      -1.997  -0.469  -1.856  1.00  0.00     0.106 A 
HETATM   19  C26 UNL     1      -2.765  -0.238  -0.739  1.00  0.00     0.035 A 
HETATM   20  C27 UNL     1      -5.461  -0.540   1.329  1.00  0.00     0.094 A 
HETATM   21  N7  UNL     1      -6.120  -0.254   2.435  1.00  0.00    -0.334 N 
HETATM   22  C28 UNL     1      -5.492   0.662   3.375  1.00  0.00     0.158 C 
ENDROOT
BRANCH  17  23
HETATM   23  C12 UNL     1      -0.075  -0.226  -3.271  1.00  0.00     0.129 C 
BRANCH  23  24
HETATM   24  C13 UNL     1       0.821  -1.405  -3.198  1.00  0.00     0.040 C 
BRANCH  24  25
HETATM   25  C14 UNL     1       1.940  -1.361  -2.223  1.00  0.00     0.124 C 
BRANCH  25  26
HETATM   26  N5  UNL     1       2.877  -0.323  -2.455  1.00  0.00    -0.358 N 
HETATM   27  C15 UNL     1       4.052  -0.118  -1.609  1.00  0.00     0.241 C 
HETATM   28  O2  UNL     1       4.170  -0.911  -0.673  1.00  0.00    -0.269 OA
ATOM     29  H5  UNL     1       2.726   0.306  -3.244  1.00  0.00     0.162 HD
BRANCH  27  30
HETATM   30  C16 UNL     1       4.957   0.939  -1.898  1.00  0.00     0.075 C 
HETATM   31  C17 UNL     1       6.023   1.476  -1.497  1.00  0.00     0.018 C 
BRANCH  31  32
HETATM   32  C18 UNL     1       6.991   1.317  -0.457  1.00  0.00    -0.021 A 
HETATM   33  C19 UNL     1       6.934   0.416   0.566  1.00  0.00     0.014 A 
HETATM   34  C20 UNL     1       7.971   0.349   1.505  1.00  0.00     0.018 A 
HETATM   35  C21 UNL     1       9.050   1.186   1.406  1.00  0.00     0.090 A 
HETATM   36  N6  UNL     1       9.133   2.084   0.408  1.00  0.00    -0.366 N 
HETATM   37  C24 UNL     1       8.141   2.136  -0.476  1.00  0.00     0.101 A 
BRANCH  36  38
HETATM   38  C22 UNL     1      10.304   2.971   0.310  1.00  0.00     0.123 C 
HETATM   39  C23 UNL     1      11.321   2.255  -0.554  1.00  0.00     0.027 C 
ENDBRANCH  36  38
ENDBRANCH  31  32
ENDBRANCH  27  30
ENDBRANCH  25  26
ENDBRANCH  24  25
ENDBRANCH  23  24
ENDBRANCH  17  23
BRANCH   6  40
HETATM   40  C5  UNL     1      -7.654  -2.928  -0.535  1.00  0.00     0.223 C 
BRANCH  40  41
HETATM   41  O1  UNL     1      -8.882  -2.469  -1.043  1.00  0.00    -0.395 OA
ATOM     42  H1  UNL     1      -9.205  -3.062  -1.711  1.00  0.00     0.209 HD
ENDBRANCH  40  41
ENDBRANCH   6  40
TORSDOF 9
