REMARK  8 active torsions:
REMARK  status: ('A' for Active; 'I' for Inactive)
REMARK    1  A    between atoms: C2_2  and  C3_3 
REMARK    2  A    between atoms: C3_3  and  C4_4 
REMARK    3  A    between atoms: C4_4  and  C5_5 
REMARK    4  A    between atoms: C5_5  and  C6_6 
REMARK    5  A    between atoms: C7_7  and  C8_8 
REMARK       I    between atoms: N1_11  and  C11_13 
REMARK    6  A    between atoms: C22_33  and  C23_34 
REMARK    7  A    between atoms: C23_34  and  C24_35 
REMARK    8  A    between atoms: C24_35  and  C25_36 
ROOT
HETATM    1  C8  UNL     1       0.906  -0.275   2.442  1.00  0.00     0.114 C 
HETATM    2  C9  UNL     1       0.280  -1.541   2.016  1.00  0.00     0.105 C 
HETATM    3  C10 UNL     1      -1.149  -1.660   2.371  1.00  0.00     0.083 C 
HETATM    4  N1  UNL     1      -1.475  -1.743   3.603  1.00  0.00    -0.301 N 
ATOM      5  H1  UNL     1      -2.471  -1.824   3.806  1.00  0.00     0.171 HD
HETATM    6  C11 UNL     1      -0.615  -1.735   4.698  1.00  0.00     0.334 C 
HETATM    7  N2  UNL     1      -0.652  -0.689   5.681  1.00  0.00    -0.040 NA
HETATM    8  O1  UNL     1       0.259  -2.643   4.911  1.00  0.00    -0.251 OA
HETATM    9  N3  UNL     1      -2.195  -1.706   1.406  1.00  0.00    -0.366 N 
ATOM     10  H3  UNL     1      -2.965  -1.051   1.538  1.00  0.00     0.162 HD
HETATM   11  C12 UNL     1      -2.282  -2.578   0.264  1.00  0.00     0.064 A 
HETATM   12  C13 UNL     1      -3.820  -2.930   0.198  1.00  0.00     0.044 C 
HETATM   13  C14 UNL     1      -1.645  -3.903   0.403  1.00  0.00     0.065 A 
HETATM   14  C15 UNL     1      -0.963  -4.462  -0.756  1.00  0.00     0.006 A 
HETATM   15  C16 UNL     1      -0.794  -3.777  -1.851  1.00  0.00     0.039 A 
HETATM   16  N4  UNL     1      -0.177  -4.172  -2.989  1.00  0.00    -0.365 N 
ATOM     17  H4  UNL     1       0.281  -5.067  -3.163  1.00  0.00     0.165 HD
HETATM   18  C17 UNL     1      -0.293  -3.147  -3.836  1.00  0.00     0.089 A 
HETATM   19  C18 UNL     1      -0.978  -2.103  -3.250  1.00  0.00     0.031 A 
HETATM   20  C19 UNL     1      -1.300  -2.515  -1.972  1.00  0.00     0.006 A 
HETATM   21  C20 UNL     1      -2.000  -1.877  -1.029  1.00  0.00     0.050 A 
HETATM   22  C21 UNL     1      -2.429  -0.510  -1.296  1.00  0.00     0.251 C 
HETATM   23  O2  UNL     1      -3.004  -0.304  -2.424  1.00  0.00    -0.268 OA
HETATM   24  N5  UNL     1      -2.247   0.598  -0.388  1.00  0.00    -0.344 N 
ATOM     25  H5  UNL     1      -3.069   1.127  -0.097  1.00  0.00     0.163 HD
HETATM   26  C22 UNL     1      -0.955   0.995   0.129  1.00  0.00     0.177 C 
HETATM   27  C27 UNL     1      -0.951   1.265   1.589  1.00  0.00     0.241 C 
HETATM   28  O3  UNL     1      -1.969   1.853   2.041  1.00  0.00    -0.271 OA
HETATM   29  N6  UNL     1       0.103   0.904   2.455  1.00  0.00    -0.351 N 
ATOM     30  H6  UNL     1       0.320   1.577   3.190  1.00  0.00     0.163 HD
ENDROOT
BRANCH   1  31
HETATM   31  C7  UNL     1       2.066   0.022   1.492  1.00  0.00    -0.006 C 
HETATM   32  C6  UNL     1       2.898   0.970   1.851  1.00  0.00    -0.029 C 
BRANCH  32  33
HETATM   33  C5  UNL     1       4.088   1.497   1.187  1.00  0.00     0.027 C 
BRANCH  33  34
HETATM   34  C4  UNL     1       4.333   0.902  -0.155  1.00  0.00     0.004 C 
BRANCH  34  35
HETATM   35  C3  UNL     1       3.324   1.262  -1.183  1.00  0.00    -0.000 C 
BRANCH  35  36
HETATM   36  C2  UNL     1       3.638   0.591  -2.534  1.00  0.00    -0.005 C 
HETATM   37  C1  UNL     1       2.558   1.021  -3.494  1.00  0.00     0.005 C 
ENDBRANCH  35  36
ENDBRANCH  34  35
ENDBRANCH  33  34
ENDBRANCH  32  33
ENDBRANCH   1  31
BRANCH  26  38
HETATM   38  C23 UNL     1      -0.545   2.258  -0.604  1.00  0.00     0.035 C 
BRANCH  38  39
HETATM   39  C24 UNL     1      -1.486   3.403  -0.435  1.00  0.00     0.002 C 
BRANCH  39  40
HETATM   40  C25 UNL     1      -0.886   4.559  -1.247  1.00  0.00    -0.004 C 
HETATM   41  C26 UNL     1      -1.757   5.786  -1.151  1.00  0.00     0.005 C 
ENDBRANCH  39  40
ENDBRANCH  38  39
ENDBRANCH  26  38
TORSDOF 8
