REMARK  8 active torsions:
REMARK  status: ('A' for Active; 'I' for Inactive)
REMARK    1  A    between atoms: C2_2  and  O1_3 
REMARK    2  A    between atoms: O1_3  and  C3_4 
REMARK    3  A    between atoms: C3_4  and  C4_5 
REMARK    4  A    between atoms: C4_5  and  N1_6 
REMARK    5  A    between atoms: C9_11  and  C10_12 
REMARK    6  A    between atoms: C11_13  and  N2_14 
REMARK    7  A    between atoms: C14_17  and  C15_18 
REMARK    8  A    between atoms: C15_18  and  N3_19 
ROOT
HETATM    1  N2  UNL     1      -0.918  -1.721  -0.289  1.00  0.00    -0.279 N 
HETATM    2  C12 UNL     1      -1.838  -2.095  -1.206  1.00  0.00     0.117 A 
HETATM    3  C13 UNL     1      -3.090  -1.747  -0.752  1.00  0.00     0.047 A 
HETATM    4  C14 UNL     1      -2.912  -1.147   0.472  1.00  0.00     0.046 A 
HETATM    5  N6  UNL     1      -1.578  -1.160   0.699  1.00  0.00    -0.297 N 
ATOM      6  H6  UNL     1      -1.138  -0.780   1.537  1.00  0.00     0.187 HD
ENDROOT
BRANCH   1   7
HETATM    7  C11 UNL     1       0.523  -1.925  -0.420  1.00  0.00     0.118 C 
HETATM    8  C10 UNL     1       1.290  -1.517   0.526  1.00  0.00     0.049 C 
BRANCH   8   9
HETATM    9  C9  UNL     1       2.706  -1.551   0.713  1.00  0.00     0.035 A 
HETATM   10  N1  UNL     1       3.616  -1.675  -0.249  1.00  0.00    -0.355 N 
HETATM   11  C5  UNL     1       4.951  -1.822   0.086  1.00  0.00     0.091 A 
HETATM   12  C6  UNL     1       5.324  -1.837   1.401  1.00  0.00     0.017 A 
HETATM   13  C7  UNL     1       4.417  -1.710   2.418  1.00  0.00     0.004 A 
HETATM   14  C8  UNL     1       3.108  -1.567   2.074  1.00  0.00     0.029 A 
BRANCH  10  15
HETATM   15  C4  UNL     1       3.375  -1.564  -1.662  1.00  0.00     0.154 C 
BRANCH  15  16
HETATM   16  C3  UNL     1       3.558  -0.113  -2.123  1.00  0.00     0.187 C 
BRANCH  16  17
HETATM   17  O1  UNL     1       2.701   0.736  -1.479  1.00  0.00    -0.390 OA
BRANCH  17  18
HETATM   18  C2  UNL     1       2.920   2.025  -1.943  1.00  0.00     0.163 C 
HETATM   19  C1  UNL     1       4.328   2.502  -1.698  1.00  0.00     0.033 C 
ENDBRANCH  17  18
ENDBRANCH  16  17
ENDBRANCH  15  16
ENDBRANCH  10  15
ENDBRANCH   8   9
ENDBRANCH   1   7
BRANCH   4  20
HETATM   20  C15 UNL     1      -3.961  -0.587   1.386  1.00  0.00     0.190 C 
BRANCH  20  21
HETATM   21  N3  UNL     1      -4.187   0.798   1.077  1.00  0.00    -0.322 N 
HETATM   22  C16 UNL     1      -3.572   1.872   1.585  1.00  0.00     0.185 A 
HETATM   23  N4  UNL     1      -4.087   2.997   1.019  1.00  0.00    -0.346 N 
HETATM   24  C17 UNL     1      -5.041   2.630   0.141  1.00  0.00     0.134 A 
ATOM     25  H4  UNL     1      -3.800   3.954   1.224  1.00  0.00     0.167 HD
HETATM   26  C18 UNL     1      -5.098   1.253   0.182  1.00  0.00     0.143 A 
HETATM   27  C20 UNL     1      -6.010   3.154  -0.814  1.00  0.00     0.269 A 
HETATM   28  N5  UNL     1      -6.103   0.845  -0.742  1.00  0.00    -0.304 N 
HETATM   29  C19 UNL     1      -6.684   1.988  -1.371  1.00  0.00     0.299 A 
ATOM     30  H5  UNL     1      -6.369  -0.122  -0.927  1.00  0.00     0.171 HD
HETATM   31  O2  UNL     1      -7.598   1.951  -2.234  1.00  0.00    -0.264 OA
HETATM   32  O3  UNL     1      -6.243   4.362  -1.118  1.00  0.00    -0.280 OA
ENDBRANCH  20  21
ENDBRANCH   4  20
TORSDOF 8
