REMARK  11 active torsions:
REMARK  status: ('A' for Active; 'I' for Inactive)
REMARK    1  A    between atoms: C2_2  and  N1_3 
REMARK    2  A    between atoms: C5_8  and  C6_9 
REMARK    3  A    between atoms: C6_9  and  C7_10 
REMARK    4  A    between atoms: C7_10  and  C8_11 
REMARK    5  A    between atoms: C8_11  and  N3_12 
REMARK    6  A    between atoms: C10_14  and  N4_15 
REMARK    7  A    between atoms: N4_15  and  O1_19 
REMARK    8  A    between atoms: C12_22  and  C13_23 
REMARK    9  A    between atoms: C13_23  and  N6_24 
REMARK   10  A    between atoms: C15_28  and  N8_29 
REMARK   11  A    between atoms: C16_34  and  N10_35 
ROOT
HETATM    1  N3  UNL     1      -0.088   1.052  -0.497  1.00  0.00    -0.358 N 
HETATM    2  C9  UNL     1      -0.075   0.244  -1.585  1.00  0.00     0.124 A 
HETATM    3  C10 UNL     1       0.998  -0.578  -1.791  1.00  0.00     0.096 A 
HETATM    4  C11 UNL     1       2.076  -0.622  -0.931  1.00  0.00     0.046 A 
HETATM    5  C12 UNL     1       2.060   0.193   0.165  1.00  0.00    -0.015 A 
HETATM    6  C17 UNL     1       0.959   1.023   0.356  1.00  0.00     0.015 A 
HETATM    7  C18 UNL     1       0.937   1.920   1.531  1.00  0.00     0.069 C 
ENDROOT
BRANCH   5   8
HETATM    8  C13 UNL     1       3.162   0.245   1.134  1.00  0.00     0.189 C 
BRANCH   8   9
HETATM    9  N6  UNL     1       4.461  -0.043   0.644  1.00  0.00    -0.174 N 
HETATM   10  C14 UNL     1       5.211   0.907   0.077  1.00  0.00     0.218 A 
HETATM   11  N7  UNL     1       6.447   0.650  -0.418  1.00  0.00    -0.187 N 
HETATM   12  C15 UNL     1       6.942  -0.584  -0.342  1.00  0.00     0.691 A 
ATOM     13  H7  UNL     1       6.994   1.397  -0.846  1.00  0.00     0.185 HD
HETATM   14  N9  UNL     1       6.209  -1.538   0.219  1.00  0.00    -0.023 N 
HETATM   15  C16 UNL     1       4.972  -1.290   0.716  1.00  0.00     0.693 A 
ATOM     16  H9  UNL     1       6.587  -2.484   0.278  1.00  0.00     0.203 HD
BRANCH  12  17
HETATM   17  N8  UNL     1       8.122  -0.869  -0.806  1.00  0.00    -0.234 N 
ATOM     18  H82 UNL     1       8.685  -0.136  -1.237  1.00  0.00     0.174 HD
ATOM     19  H81 UNL     1       8.501  -1.814  -0.748  1.00  0.00     0.174 HD
ENDBRANCH  12  17
BRANCH  15  20
HETATM   20  N10 UNL     1       4.343  -2.268   1.259  1.00  0.00    -0.234 N 
ATOM     21 2H10 UNL     1       3.412  -2.081   1.633  1.00  0.00     0.174 HD
ATOM     22 1H10 UNL     1       4.729  -3.210   1.313  1.00  0.00     0.174 HD
ENDBRANCH  15  20
ENDBRANCH   8   9
ENDBRANCH   5   8
BRANCH   3  23
HETATM   23  N4  UNL     1       0.950  -1.405  -2.956  1.00  0.00    -0.169 N 
HETATM   24  N5  UNL     1       0.492  -2.579  -2.914  1.00  0.00    -0.319 N 
ATOM     25  H52 UNL     1       0.146  -2.942  -2.026  1.00  0.00     0.179 HD
ATOM     26  H51 UNL     1       0.458  -3.169  -3.745  1.00  0.00     0.179 HD
BRANCH  23  27
HETATM   27  O1  UNL     1       1.413  -0.919  -4.146  1.00  0.00    -0.268 OA
ATOM     28  H1  UNL     1       1.381  -1.469  -4.920  1.00  0.00     0.247 HD
ENDBRANCH  23  27
ENDBRANCH   3  23
BRANCH   1  29
HETATM   29  C8  UNL     1      -1.253   1.889  -0.336  1.00  0.00     0.129 C 
BRANCH  29  30
HETATM   30  C7  UNL     1      -2.377   1.295   0.436  1.00  0.00     0.027 C 
BRANCH  30  31
HETATM   31  C6  UNL     1      -2.889   0.034  -0.214  1.00  0.00     0.078 C 
BRANCH  31  32
HETATM   32  C5  UNL     1      -4.033  -0.552   0.544  1.00  0.00     0.083 A 
HETATM   33  N1  UNL     1      -5.337  -0.311   0.373  1.00  0.00    -0.346 N 
HETATM   34  C3  UNL     1      -6.017  -1.056   1.285  1.00  0.00     0.109 A 
HETATM   35  C4  UNL     1      -5.099  -1.768   2.028  1.00  0.00     0.106 A 
HETATM   36  N2  UNL     1      -3.883  -1.443   1.556  1.00  0.00    -0.354 N 
ATOM     37  H2  UNL     1      -2.995  -1.806   1.902  1.00  0.00     0.166 HD
BRANCH  33  38
HETATM   38  C2  UNL     1      -5.893   0.586  -0.613  1.00  0.00     0.125 C 
HETATM   39  C1  UNL     1      -6.195  -0.131  -1.908  1.00  0.00     0.027 C 
ENDBRANCH  33  38
ENDBRANCH  31  32
ENDBRANCH  30  31
ENDBRANCH  29  30
ENDBRANCH   1  29
TORSDOF 11
