REMARK  10 active torsions:
REMARK  status: ('A' for Active; 'I' for Inactive)
REMARK    1  A    between atoms: C3_3  and  N3_17 
REMARK    2  A    between atoms: C4_4  and  C5_5 
REMARK    3  A    between atoms: C6_6  and  C7_7 
REMARK       I    between atoms: C7_7  and  N1_9 
REMARK    4  A    between atoms: C8_11  and  N2_13 
REMARK    5  A    between atoms: N2_13  and  C10_15 
REMARK    6  A    between atoms: N3_17  and  C12_19 
REMARK    7  A    between atoms: C12_19  and  C15_25 
REMARK       I    between atoms: N4_20  and  C13_22 
REMARK    8  A    between atoms: C15_25  and  C16_26 
REMARK    9  A    between atoms: C15_25  and  N7_32 
REMARK   10  A    between atoms: C16_26  and  N5_27 
REMARK       I    between atoms: N7_32  and  C17_34 
ROOT
HETATM    1  C1  UNL     1      -1.385   3.010  -0.277  1.00  0.00     0.019 C 
HETATM    2  C2  UNL     1      -1.110   1.843  -0.366  1.00  0.00    -0.060 C 
HETATM    3  C3  UNL     1      -0.779   0.422  -0.450  1.00  0.00     0.087 C 
HETATM    4  C4  UNL     1       0.501   0.053  -0.526  1.00  0.00     0.039 C 
ENDROOT
BRANCH   3   5
HETATM    5  N3  UNL     1      -1.804  -0.546  -0.458  1.00  0.00    -0.337 N 
ATOM      6  H3  UNL     1      -1.714  -1.385  -1.032  1.00  0.00     0.168 HD
BRANCH   5   7
HETATM    7  C12 UNL     1      -2.976  -0.343   0.347  1.00  0.00     0.109 C 
HETATM    8  N4  UNL     1      -2.844  -0.188   1.598  1.00  0.00    -0.315 N 
HETATM    9  C13 UNL     1      -3.815   0.021   2.573  1.00  0.00     0.219 C 
ATOM     10  H4  UNL     1      -1.884  -0.221   1.941  1.00  0.00     0.170 HD
HETATM   11  C14 UNL     1      -3.644   1.161   3.518  1.00  0.00     0.117 C 
HETATM   12  O2  UNL     1      -4.810  -0.710   2.675  1.00  0.00    -0.274 OA
BRANCH   7  13
HETATM   13  C15 UNL     1      -4.286  -0.322  -0.350  1.00  0.00     0.171 C 
BRANCH  13  14
HETATM   14  C16 UNL     1      -4.541  -1.650  -1.079  1.00  0.00     0.171 C 
BRANCH  14  15
HETATM   15  N5  UNL     1      -4.554  -2.758  -0.192  1.00  0.00    -0.341 N 
HETATM   16  N6  UNL     1      -5.631  -3.202   0.235  1.00  0.00    -0.349 N 
ATOM     17  H62 UNL     1      -6.500  -2.758  -0.062  1.00  0.00     0.176 HD
ATOM     18  H61 UNL     1      -5.640  -3.998   0.872  1.00  0.00     0.176 HD
ATOM     19  H5  UNL     1      -3.676  -3.190   0.095  1.00  0.00     0.179 HD
ENDBRANCH  14  15
ENDBRANCH  13  14
BRANCH  13  20
HETATM   20  N7  UNL     1      -4.208   0.721  -1.379  1.00  0.00    -0.348 N 
HETATM   21  C17 UNL     1      -5.147   1.783  -1.356  1.00  0.00     0.214 C 
HETATM   22  C18 UNL     1      -5.059   2.834  -2.404  1.00  0.00     0.117 C 
HETATM   23  O3  UNL     1      -6.045   1.871  -0.492  1.00  0.00    -0.274 OA
ATOM     24  H7  UNL     1      -3.488   0.683  -2.101  1.00  0.00     0.163 HD
ENDBRANCH  13  20
ENDBRANCH   7  13
ENDBRANCH   5   7
ENDBRANCH   3   5
BRANCH   4  25
HETATM   25  C5  UNL     1       0.842  -1.328  -0.607  1.00  0.00     0.008 C 
HETATM   26  C6  UNL     1       2.025  -1.813  -0.690  1.00  0.00     0.074 C 
BRANCH  26  27
HETATM   27  C7  UNL     1       3.254  -1.074  -0.719  1.00  0.00     0.246 C 
HETATM   28  O1  UNL     1       3.414   0.160  -0.667  1.00  0.00    -0.268 OA
HETATM   29  N1  UNL     1       4.477  -1.828  -0.822  1.00  0.00    -0.314 N 
HETATM   30  C8  UNL     1       5.595  -1.413  -0.361  1.00  0.00     0.075 C 
ATOM     31  H1  UNL     1       4.450  -2.737  -1.285  1.00  0.00     0.170 HD
HETATM   32  C9  UNL     1       6.766  -2.318  -0.552  1.00  0.00     0.089 C 
BRANCH  30  33
HETATM   33  N2  UNL     1       5.657  -0.160   0.287  1.00  0.00    -0.380 N 
ATOM     34  H2  UNL     1       5.138  -0.050   1.158  1.00  0.00     0.160 HD
BRANCH  33  35
HETATM   35  C10 UNL     1       6.399   0.970  -0.194  1.00  0.00     0.116 C 
HETATM   36  C11 UNL     1       7.883   0.815  -0.135  1.00  0.00     0.026 C 
ENDBRANCH  33  35
ENDBRANCH  30  33
ENDBRANCH  26  27
ENDBRANCH   4  25
TORSDOF 10
