REMARK  11 active torsions:
REMARK  status: ('A' for Active; 'I' for Inactive)
REMARK    1  A    between atoms: C2_2  and  C3_3 
REMARK    2  A    between atoms: C2_2  and  C5_6 
REMARK    3  A    between atoms: C3_3  and  C4_4 
REMARK    4  A    between atoms: C6_7  and  O2_8 
REMARK    5  A    between atoms: C18_21  and  O3_22 
REMARK    6  A    between atoms: C18_21  and  C19_24 
REMARK    7  A    between atoms: C19_24  and  O4_25 
REMARK    8  A    between atoms: O4_25  and  C20_26 
REMARK       I    between atoms: C20_26  and  N1_28 
REMARK    9  A    between atoms: N1_28  and  C21_30 
REMARK   10  A    between atoms: C21_30  and  C22_31 
REMARK   11  A    between atoms: C22_31  and  O6_32 
ROOT
HETATM    1  C5  UNL     1      -4.287  -0.406   0.360  1.00  0.00    -0.040 C 
HETATM    2  C6  UNL     1      -4.295  -1.728  -0.239  1.00  0.00     0.149 C 
HETATM    3  C7  UNL     1      -2.971  -1.898  -0.972  1.00  0.00     0.047 C 
HETATM    4  C8  UNL     1      -2.211  -0.598  -0.847  1.00  0.00    -0.026 C 
HETATM    5  C9  UNL     1      -1.564  -0.328  -2.171  1.00  0.00     0.016 C 
HETATM    6  C10 UNL     1      -1.175  -0.811   0.270  1.00  0.00    -0.001 C 
HETATM    7  C11 UNL     1      -0.175  -1.854  -0.121  1.00  0.00     0.007 C 
HETATM    8  C12 UNL     1       1.222  -1.398  -0.299  1.00  0.00     0.013 C 
HETATM    9  C13 UNL     1       1.663  -0.580   0.883  1.00  0.00    -0.007 C 
HETATM   10  C14 UNL     1       1.575  -1.387   2.135  1.00  0.00     0.019 C 
HETATM   11  C15 UNL     1       0.803   0.653   0.904  1.00  0.00     0.001 C 
HETATM   12  C16 UNL     1       1.357   1.451  -0.244  1.00  0.00     0.009 C 
HETATM   13  C17 UNL     1       2.862   1.289  -0.032  1.00  0.00     0.041 C 
HETATM   14  C18 UNL     1       3.033  -0.001   0.752  1.00  0.00     0.087 C 
HETATM   15  C23 UNL     1      -0.654   0.414   0.889  1.00  0.00    -0.005 C 
HETATM   16  C24 UNL     1      -1.290   1.702   0.336  1.00  0.00     0.006 C 
HETATM   17  C25 UNL     1      -2.782   1.564   0.310  1.00  0.00     0.015 C 
HETATM   18  C26 UNL     1      -3.279   0.373  -0.486  1.00  0.00    -0.010 C 
HETATM   19  C27 UNL     1      -3.990   0.868  -1.697  1.00  0.00     0.021 C 
ENDROOT
BRANCH  14  20
HETATM   20  O3  UNL     1       3.487   0.297   2.053  1.00  0.00    -0.387 OA
ATOM     21  H3  UNL     1       4.359   0.665   1.970  1.00  0.00     0.210 HD
ENDBRANCH  14  20
BRANCH  14  22
HETATM   22  C19 UNL     1       4.022  -0.858   0.052  1.00  0.00     0.219 C 
BRANCH  22  23
HETATM   23  O4  UNL     1       5.252  -0.119  -0.002  1.00  0.00    -0.301 OA
BRANCH  23  24
HETATM   24  C20 UNL     1       6.395  -0.603  -0.580  1.00  0.00     0.360 C 
HETATM   25  O5  UNL     1       6.335  -1.758  -1.081  1.00  0.00    -0.239 OA
HETATM   26  N1  UNL     1       7.570   0.178  -0.598  1.00  0.00    -0.335 N 
ATOM     27  H1  UNL     1       7.593   1.110  -0.185  1.00  0.00     0.164 HD
BRANCH  26  28
HETATM   28  C21 UNL     1       8.746  -0.397  -1.227  1.00  0.00     0.151 C 
BRANCH  28  29
HETATM   29  C22 UNL     1       9.900   0.580  -1.151  1.00  0.00     0.183 C 
BRANCH  29  30
HETATM   30  O6  UNL     1       9.587   1.773  -1.803  1.00  0.00    -0.399 OA
ATOM     31  H6  UNL     1      10.311   2.386  -1.755  1.00  0.00     0.209 HD
ENDBRANCH  29  30
ENDBRANCH  28  29
ENDBRANCH  26  28
ENDBRANCH  23  24
ENDBRANCH  22  23
ENDBRANCH  14  22
BRANCH   2  32
HETATM   32  O2  UNL     1      -5.245  -2.013  -1.203  1.00  0.00    -0.391 OA
ATOM     33  H2  UNL     1      -5.250  -2.878  -1.595  1.00  0.00     0.210 HD
ENDBRANCH   2  32
BRANCH   1  34
HETATM   34  C2  UNL     1      -5.454   0.306   0.837  1.00  0.00    -0.072 C 
HETATM   35  C1  UNL     1      -6.607   0.626  -0.027  1.00  0.00     0.044 C 
BRANCH  34  36
HETATM   36  C3  UNL     1      -5.991  -0.061   2.200  1.00  0.00     0.103 C 
BRANCH  36  37
HETATM   37  C4  UNL     1      -6.908  -1.188   2.254  1.00  0.00     0.235 C 
HETATM   38  O1  UNL     1      -7.330  -1.839   1.337  1.00  0.00    -0.307 OA
ENDBRANCH  36  37
ENDBRANCH  34  36
ENDBRANCH   1  34
TORSDOF 11
