REMARK  10 active torsions:
REMARK  status: ('A' for Active; 'I' for Inactive)
REMARK    1  A    between atoms: C2_2  and  O1_3 
REMARK    2  A    between atoms: O1_3  and  C3_4 
REMARK    3  A    between atoms: C14_18  and  C15_19 
REMARK    4  A    between atoms: C15_19  and  C16_20 
REMARK    5  A    between atoms: C15_19  and  C19_25 
REMARK    6  A    between atoms: C17_21  and  C18_22 
REMARK    7  A    between atoms: C18_22  and  O2_23 
REMARK    8  A    between atoms: C25_32  and  C27_34 
REMARK    9  A    between atoms: C27_34  and  O4_35 
REMARK   10  A    between atoms: C28_37  and  O5_38 
ROOT
HETATM    1  C3  UNL     1       3.392   0.717  -0.880  1.00  0.00     0.151 C 
HETATM    2  C4  UNL     1       2.503  -0.387  -1.279  1.00  0.00     0.044 C 
HETATM    3  C5  UNL     1       1.724  -0.969  -0.098  1.00  0.00    -0.033 C 
HETATM    4  C6  UNL     1       1.224  -2.290  -0.706  1.00  0.00     0.016 C 
HETATM    5  C7  UNL     1       0.637  -0.007   0.212  1.00  0.00    -0.001 C 
HETATM    6  C8  UNL     1      -0.291   0.300  -0.930  1.00  0.00     0.006 C 
HETATM    7  C9  UNL     1      -1.607   0.894  -0.462  1.00  0.00     0.012 C 
HETATM    8  C10 UNL     1      -2.415   0.055   0.425  1.00  0.00    -0.009 C 
HETATM    9  C11 UNL     1      -2.996   0.734   1.632  1.00  0.00     0.018 C 
HETATM   10  C12 UNL     1      -1.416  -1.058   0.880  1.00  0.00     0.026 C 
HETATM   11  C13 UNL     1      -2.330  -1.806   1.739  1.00  0.00     0.238 C 
HETATM   12  N1  UNL     1      -3.560  -1.851   0.965  1.00  0.00    -0.069 N 
ATOM     13  H11 UNL     1      -4.395  -1.699   1.530  1.00  0.00     0.277 HD
ATOM     14  H12 UNL     1      -3.794  -2.788   0.637  1.00  0.00     0.277 HD
HETATM   15  C14 UNL     1      -3.415  -0.872  -0.131  1.00  0.00     0.209 C 
HETATM   16  C21 UNL     1      -0.238  -0.398   1.413  1.00  0.00    -0.003 C 
HETATM   17  C22 UNL     1       0.515  -1.065   2.507  1.00  0.00     0.006 C 
HETATM   18  C23 UNL     1       1.979  -0.620   2.359  1.00  0.00     0.007 C 
HETATM   19  C24 UNL     1       2.578  -1.228   1.084  1.00  0.00     0.007 C 
HETATM   20  C25 UNL     1       3.997  -0.846   1.030  1.00  0.00     0.010 C 
HETATM   21  C26 UNL     1       4.854  -2.099   0.744  1.00  0.00     0.020 C 
HETATM   22  C28 UNL     1       4.417   0.174   0.055  1.00  0.00     0.157 C 
ENDROOT
BRANCH  15  23
HETATM   23  C15 UNL     1      -4.751  -0.258  -0.457  1.00  0.00     0.108 C 
BRANCH  23  24
HETATM   24  C16 UNL     1      -4.715   0.821  -1.456  1.00  0.00    -0.015 C 
HETATM   25  C17 UNL     1      -5.147   2.049  -1.358  1.00  0.00    -0.004 C 
BRANCH  25  26
HETATM   26  C18 UNL     1      -5.790   2.627  -0.171  1.00  0.00     0.191 C 
BRANCH  26  27
HETATM   27  O2  UNL     1      -7.087   3.058  -0.516  1.00  0.00    -0.397 OA
ATOM     28  H2  UNL     1      -7.503   3.432   0.252  1.00  0.00     0.209 HD
ENDBRANCH  26  27
ENDBRANCH  25  26
ENDBRANCH  23  24
BRANCH  23  29
HETATM   29  C19 UNL     1      -5.618  -1.341  -1.114  1.00  0.00     0.132 C 
HETATM   30  C20 UNL     1      -5.161  -1.969  -2.369  1.00  0.00     0.091 C 
HETATM   31  O3  UNL     1      -6.668  -1.693  -0.627  1.00  0.00    -0.298 OA
ENDBRANCH  23  29
ENDBRANCH  15  23
BRANCH   1  32
HETATM   32  O1  UNL     1       4.044   1.299  -1.951  1.00  0.00    -0.384 OA
BRANCH  32  33
HETATM   33  C2  UNL     1       3.877   2.664  -2.047  1.00  0.00     0.163 C 
HETATM   34  C1  UNL     1       4.610   3.250  -3.234  1.00  0.00     0.033 C 
ENDBRANCH  32  33
ENDBRANCH   1  32
BRANCH  20  35
HETATM   35  C27 UNL     1       4.528  -0.412   2.412  1.00  0.00     0.176 C 
BRANCH  35  36
HETATM   36  O4  UNL     1       5.875  -0.067   2.328  1.00  0.00    -0.400 OA
ATOM     37  H4  UNL     1       6.202   0.200   3.179  1.00  0.00     0.209 HD
ENDBRANCH  35  36
ENDBRANCH  20  35
BRANCH  22  38
HETATM   38  O5  UNL     1       4.988   1.319   0.669  1.00  0.00    -0.392 OA
ATOM     39  H5  UNL     1       5.642   0.973   1.265  1.00  0.00     0.210 HD
ENDBRANCH  22  38
TORSDOF 10
