REMARK  8 active torsions:
REMARK  status: ('A' for Active; 'I' for Inactive)
REMARK    1  A    between atoms: C2_2  and  N1_3 
REMARK    2  A    between atoms: N1_3  and  C3_4 
REMARK    3  A    between atoms: N1_3  and  C5_10 
REMARK    4  A    between atoms: C3_4  and  C4_5 
REMARK    5  A    between atoms: C4_5  and  N2_6 
REMARK    6  A    between atoms: C5_10  and  C6_11 
REMARK    7  A    between atoms: C9_14  and  O1_15 
REMARK    8  A    between atoms: C10_17  and  O2_18 
ROOT
HETATM    1  C6  UNL     1      -0.199  -0.037   0.636  1.00  0.00     0.161 C 
HETATM    2  C7  UNL     1      -0.562   1.096  -0.301  1.00  0.00     0.040 C 
HETATM    3  C8  UNL     1      -1.474   2.055   0.377  1.00  0.00     0.037 C 
HETATM    4  C9  UNL     1      -2.785   1.488   0.784  1.00  0.00     0.150 C 
HETATM    5  C10 UNL     1      -3.216   0.255   0.047  1.00  0.00     0.180 C 
HETATM    6  C11 UNL     1      -2.368  -0.966   0.365  1.00  0.00     0.083 C 
HETATM    7  C12 UNL     1      -3.267  -1.795   1.325  1.00  0.00     0.048 C 
HETATM    8  C13 UNL     1      -2.283  -1.881  -0.838  1.00  0.00     0.048 C 
HETATM    9  O3  UNL     1      -1.252  -0.766   1.070  1.00  0.00    -0.368 OA
ENDROOT
BRANCH   1  10
HETATM   10  C5  UNL     1       0.837  -0.943   0.007  1.00  0.00     0.095 C 
BRANCH  10  11
HETATM   11  N1  UNL     1       2.012  -0.334  -0.452  1.00  0.00    -0.370 N 
BRANCH  11  12
HETATM   12  C2  UNL     1       2.761  -1.168  -1.347  1.00  0.00     0.122 C 
HETATM   13  C1  UNL     1       3.300  -0.379  -2.533  1.00  0.00     0.027 C 
ENDBRANCH  11  12
BRANCH  11  14
HETATM   14  C3  UNL     1       2.722   0.585   0.305  1.00  0.00     0.090 C 
BRANCH  14  15
HETATM   15  C4  UNL     1       3.676   0.028   1.334  1.00  0.00     0.274 C 
BRANCH  15  16
HETATM   16  N2  UNL     1       4.308   1.141   2.032  1.00  0.00    -0.075 N 
ATOM     17  H23 UNL     1       4.760   1.797   1.394  1.00  0.00     0.274 HD
ATOM     18  H22 UNL     1       3.629   1.785   2.437  1.00  0.00     0.274 HD
ATOM     19  H21 UNL     1       4.953   0.765   2.727  1.00  0.00     0.274 HD
ENDBRANCH  15  16
ENDBRANCH  14  15
ENDBRANCH  11  14
ENDBRANCH  10  11
ENDBRANCH   1  10
BRANCH   4  20
HETATM   20  O1  UNL     1      -3.756   2.471   0.551  1.00  0.00    -0.393 OA
ATOM     21  H1  UNL     1      -4.595   2.108   0.811  1.00  0.00     0.210 HD
ENDBRANCH   4  20
BRANCH   5  22
HETATM   22  O2  UNL     1      -3.335   0.465  -1.341  1.00  0.00    -0.390 OA
ATOM     23  H2  UNL     1      -3.608  -0.316  -1.808  1.00  0.00     0.210 HD
ENDBRANCH   5  22
TORSDOF 8
