REMARK  8 active torsions:
REMARK  status: ('A' for Active; 'I' for Inactive)
REMARK    1  A    between atoms: C2_2  and  C3_3 
REMARK    2  A    between atoms: C3_3  and  O1_4 
REMARK    3  A    between atoms: C3_3  and  C4_6 
REMARK    4  A    between atoms: C4_6  and  N1_7 
REMARK    5  A    between atoms: C6_9  and  O2_10 
REMARK    6  A    between atoms: C7_12  and  O3_13 
REMARK    7  A    between atoms: C8_15  and  C9_16 
REMARK    8  A    between atoms: C9_16  and  N2_17 
ROOT
HETATM    1  N1  UNL     1       0.548  -0.153   0.228  1.00  0.00     0.098 N 
HETATM    2  C5  UNL     1       0.654  -0.550  -1.105  1.00  0.00     0.307 C 
HETATM    3  C6  UNL     1      -0.547  -1.104  -1.777  1.00  0.00     0.175 C 
HETATM    4  C7  UNL     1      -1.637  -1.640  -0.947  1.00  0.00     0.156 C 
HETATM    5  C8  UNL     1      -1.724  -1.061   0.438  1.00  0.00     0.078 C 
HETATM    6  C12 UNL     1      -0.424  -0.787   1.052  1.00  0.00     0.227 C 
HETATM    7  C13 UNL     1       0.138  -2.065   1.686  1.00  0.00     0.043 C 
ENDROOT
BRANCH   1   8
HETATM    8  C4  UNL     1       1.750  -0.052   0.974  1.00  0.00     0.304 C 
BRANCH   8   9
HETATM    9  C3  UNL     1       2.751   0.989   0.650  1.00  0.00     0.146 C 
BRANCH   9  10
HETATM   10  C2  UNL     1       3.568   0.627  -0.598  1.00  0.00     0.029 C 
HETATM   11  C1  UNL     1       4.749   1.612  -0.672  1.00  0.00     0.007 C 
ENDBRANCH   9  10
BRANCH   9  12
HETATM   12  O1  UNL     1       3.756   0.833   1.692  1.00  0.00    -0.394 OA
ATOM     13  H1  UNL     1       3.250   1.057   2.464  1.00  0.00     0.210 HD
ENDBRANCH   9  12
ENDBRANCH   8   9
ENDBRANCH   1   8
BRANCH   3  14
HETATM   14  O2  UNL     1      -0.098  -2.144  -2.632  1.00  0.00    -0.391 OA
ATOM     15  H2  UNL     1      -0.867  -2.499  -3.062  1.00  0.00     0.210 HD
ENDBRANCH   3  14
BRANCH   5  16
HETATM   16  C9  UNL     1      -2.847  -0.109   0.628  1.00  0.00     0.280 C 
BRANCH  16  17
HETATM   17  N2  UNL     1      -2.935   1.054  -0.166  1.00  0.00     0.080 N 
HETATM   18  C10 UNL     1      -4.316   1.588   0.071  1.00  0.00     0.309 C 
HETATM   19  C11 UNL     1      -2.098   2.154   0.255  1.00  0.00     0.309 C 
ENDBRANCH  16  17
ENDBRANCH   5  16
BRANCH   4  20
HETATM   20  O3  UNL     1      -1.497  -3.019  -0.849  1.00  0.00    -0.392 OA
ATOM     21  H3  UNL     1      -2.201  -3.365  -0.313  1.00  0.00     0.210 HD
ENDBRANCH   4  20
TORSDOF 8
