REMARK  2 active torsions:
REMARK  status: ('A' for Active; 'I' for Inactive)
REMARK    1  A    between atoms: C2_2  and  C3_3 
REMARK    2  A    between atoms: C3_3  and  N1_4 
ROOT
HETATM    1  N1  UNL     1       1.399  -1.056   0.174  1.00  0.00     0.097 N 
HETATM    2  C4  UNL     1       1.202  -0.094   1.239  1.00  0.00     0.278 C 
HETATM    3  C5  UNL     1       0.029   0.692   0.755  1.00  0.00     0.102 C 
HETATM    4  C6  UNL     1      -0.849  -0.315   0.083  1.00  0.00     0.213 C 
HETATM    5  C7  UNL     1       0.059  -1.499  -0.141  1.00  0.00     0.342 C 
HETATM    6  O1  UNL     1      -1.890  -0.615   0.984  1.00  0.00    -0.351 OA
HETATM    7  C8  UNL     1      -2.772   0.481   0.896  1.00  0.00     0.190 C 
HETATM    8  C9  UNL     1      -3.613   0.197  -0.354  1.00  0.00     0.169 C 
HETATM    9  N2  UNL     1      -2.666  -0.399  -1.303  1.00  0.00    -0.095 NA
HETATM   10  O2  UNL     1      -1.433   0.127  -1.085  1.00  0.00    -0.245 OA
ENDROOT
BRANCH   1  11
HETATM   11  C3  UNL     1       1.993  -0.417  -0.979  1.00  0.00     0.299 C 
BRANCH  11  12
HETATM   12  C2  UNL     1       3.397   0.010  -0.717  1.00  0.00    -0.007 C 
HETATM   13  C1  UNL     1       3.792   1.262  -0.794  1.00  0.00     0.008 C 
ENDBRANCH  11  12
ENDBRANCH   1  11
TORSDOF 2
