REMARK  2 active torsions:
REMARK  status: ('A' for Active; 'I' for Inactive)
REMARK    1  A    between atoms: N1_4  and  C4_5 
REMARK    2  A    between atoms: C4_5  and  C5_6 
ROOT
HETATM    1  C5  UNL     1      -0.820   0.217   0.453  1.00  0.00     0.151 C 
HETATM    2  C6  UNL     1      -1.100  -1.229   0.217  1.00  0.00     0.061 C 
HETATM    3  C7  UNL     1      -2.598  -1.416   0.529  1.00  0.00     0.235 C 
HETATM    4  N2  UNL     1      -3.351  -0.661  -0.410  1.00  0.00    -0.073 N 
ATOM      5  H21 UNL     1      -4.223  -1.138  -0.640  1.00  0.00     0.277 HD
ATOM      6  H22 UNL     1      -2.902  -0.675  -1.326  1.00  0.00     0.277 HD
HETATM    7  C8  UNL     1      -3.609   0.698   0.011  1.00  0.00     0.258 C 
HETATM    8  C9  UNL     1      -2.483   1.634  -0.344  1.00  0.00     0.195 C 
HETATM    9  O1  UNL     1      -1.305   0.952  -0.631  1.00  0.00    -0.382 OA
ENDROOT
BRANCH   1  10
HETATM   10  C4  UNL     1       0.568   0.600   0.788  1.00  0.00     0.304 C 
BRANCH  10  11
HETATM   11  N1  UNL     1       1.560   0.461  -0.210  1.00  0.00     0.090 N 
HETATM   12  C3  UNL     1       1.854  -0.894  -0.503  1.00  0.00     0.272 C 
HETATM   13  C2  UNL     1       3.322  -0.971  -0.877  1.00  0.00     0.032 C 
HETATM   14  C1  UNL     1       3.880   0.436  -0.652  1.00  0.00     0.032 C 
HETATM   15  C10 UNL     1       2.812   1.009   0.254  1.00  0.00     0.272 C 
ENDBRANCH  10  11
ENDBRANCH   1  10
TORSDOF 2
