REMARK  2 active torsions:
REMARK  status: ('A' for Active; 'I' for Inactive)
REMARK    1  A    between atoms: C2_2  and  C3_3 
REMARK    2  A    between atoms: C3_3  and  O1_4 
ROOT
HETATM    1  C1  UNL     1       1.186  -0.065   1.015  1.00  0.00     0.024 C 
HETATM    2  C2  UNL     1       0.268  -0.019  -0.171  1.00  0.00     0.058 C 
HETATM    3  C4  UNL     1      -0.388  -1.381  -0.319  1.00  0.00     0.164 C 
HETATM    4 CL1  UNL     1       0.805  -2.613   0.041  1.00  0.00    -0.094 Cl
HETATM    5 CL2  UNL     1      -1.054  -1.614  -1.944  1.00  0.00    -0.094 Cl
HETATM    6  C5  UNL     1      -1.466  -1.282   0.698  1.00  0.00     0.072 C 
HETATM    7 CL3  UNL     1      -2.215  -2.646   1.472  1.00  0.00    -0.084 Cl
HETATM    8  C6  UNL     1      -1.779  -0.021   0.938  1.00  0.00     0.071 C 
HETATM    9 CL4  UNL     1      -2.978   0.624   2.048  1.00  0.00    -0.084 Cl
HETATM   10  C7  UNL     1      -0.947   0.837   0.088  1.00  0.00     0.176 C 
HETATM   11 CL5  UNL     1      -1.821   1.112  -1.432  1.00  0.00    -0.095 Cl
HETATM   12  C8  UNL     1      -0.576   2.085   0.744  1.00  0.00     0.092 C 
HETATM   13  N1  UNL     1      -0.290   3.066   1.239  1.00  0.00    -0.195 NA
ENDROOT
BRANCH   2  14
HETATM   14  C3  UNL     1       0.921   0.453  -1.426  1.00  0.00     0.180 C 
BRANCH  14  15
HETATM   15  O1  UNL     1       1.986  -0.350  -1.823  1.00  0.00    -0.400 OA
ATOM     16  H1  UNL     1       2.402  -0.049  -2.622  1.00  0.00     0.209 HD
ENDBRANCH  14  15
ENDBRANCH   2  14
TORSDOF 2
