REMARK  6 active torsions:
REMARK  status: ('A' for Active; 'I' for Inactive)
REMARK    1  A    between atoms: O1_2  and  C2_3 
REMARK    2  A    between atoms: C2_3  and  C3_4 
REMARK    3  A    between atoms: C2_3  and  C13_16 
REMARK    4  A    between atoms: C2_3  and  C14_20 
REMARK    5  A    between atoms: C4_5  and  C5_6 
REMARK    6  A    between atoms: C5_6  and  O2_7 
ROOT
HETATM    1  C3  UNL     1       2.101   0.372  -0.147  1.00  0.00    -0.046 C 
HETATM    2  C4  UNL     1       0.925   0.271  -0.312  1.00  0.00    -0.064 C 
ENDROOT
BRANCH   1   3
HETATM    3  C2  UNL     1       3.569   0.525   0.061  1.00  0.00     0.320 C 
BRANCH   3   4
HETATM    4  O1  UNL     1       4.162  -0.598  -0.343  1.00  0.00    -0.357 OA
HETATM    5  C1  UNL     1       3.925  -1.817   0.133  1.00  0.00     0.204 C 
ENDBRANCH   3   4
BRANCH   3   6
HETATM    6  C13 UNL     1       4.031   1.747  -0.769  1.00  0.00     0.439 C 
HETATM    7  F1  UNL     1       3.672   1.426  -2.087  1.00  0.00    -0.166 F 
HETATM    8  F2  UNL     1       5.359   1.949  -0.610  1.00  0.00    -0.166 F 
HETATM    9  F3  UNL     1       3.226   2.812  -0.430  1.00  0.00    -0.166 F 
ENDBRANCH   3   6
BRANCH   3  10
HETATM   10  C14 UNL     1       3.857   0.865   1.491  1.00  0.00     0.439 C 
HETATM   11  F4  UNL     1       3.438  -0.077   2.400  1.00  0.00    -0.166 F 
HETATM   12  F5  UNL     1       3.153   2.023   1.807  1.00  0.00    -0.166 F 
HETATM   13  F6  UNL     1       5.212   1.044   1.718  1.00  0.00    -0.166 F 
ENDBRANCH   3  10
ENDBRANCH   1   3
BRANCH   2  14
HETATM   14  C5  UNL     1      -0.519   0.168  -0.497  1.00  0.00     0.130 C 
HETATM   15  C6  UNL     1      -1.184   1.501  -0.012  1.00  0.00     0.131 C 
HETATM   16  C7  UNL     1      -2.524   1.155   0.213  1.00  0.00    -0.179 C 
HETATM   17  C8  UNL     1      -3.871   1.194   0.609  1.00  0.00     0.080 C 
HETATM   18  C9  UNL     1      -4.377  -0.270   0.387  1.00  0.00     0.011 C 
HETATM   19  C10 UNL     1      -3.432  -1.339   0.729  1.00  0.00     0.001 C 
HETATM   20  C11 UNL     1      -2.305  -1.714  -0.226  1.00  0.00     0.004 C 
HETATM   21  C12 UNL     1      -0.990  -1.059   0.152  1.00  0.00     0.052 C 
BRANCH  14  22
HETATM   22  O2  UNL     1      -0.851   0.091  -1.859  1.00  0.00    -0.377 OA
ATOM     23  H2  UNL     1      -1.791   0.024  -1.979  1.00  0.00     0.211 HD
ENDBRANCH  14  22
ENDBRANCH   2  14
TORSDOF 6
