REMARK  6 active torsions:
REMARK  status: ('A' for Active; 'I' for Inactive)
REMARK    1  A    between atoms: N2_4  and  N3_6 
REMARK    2  A    between atoms: C1_8  and  C2_9 
REMARK    3  A    between atoms: C2_9  and  C3_10 
REMARK    4  A    between atoms: C3_10  and  N5_14 
REMARK    5  A    between atoms: N5_14  and  C4_16 
REMARK    6  A    between atoms: C4_16  and  C5_20 
ROOT
HETATM    1  C3  UNL     1      -0.457   0.563   1.049  1.00  0.00     0.081 C 
HETATM    2  N4  UNL     1      -0.715   0.914   2.260  1.00  0.00    -0.389 N 
ATOM      3  H41 UNL     1      -1.409   0.451   2.847  1.00  0.00     0.157 HD
ATOM      4  H42 UNL     1      -0.207   1.696   2.673  1.00  0.00     0.157 HD
ENDROOT
BRANCH   1   5
HETATM    5  C2  UNL     1       0.555   1.238   0.194  1.00  0.00     0.122 C 
BRANCH   5   6
HETATM    6  C1  UNL     1       1.569   0.224  -0.184  1.00  0.00     0.089 C 
HETATM    7  N3  UNL     1       1.843  -0.703   0.660  1.00  0.00    -0.301 N 
ATOM      8  H3  UNL     1       1.375  -0.738   1.565  1.00  0.00     0.187 HD
BRANCH   7   9
HETATM    9  N2  UNL     1       2.793  -1.659   0.313  1.00  0.00    -0.250 N 
HETATM   10  N1  UNL     1       3.619  -2.064   1.177  1.00  0.00    -0.331 N 
ATOM     11  H12 UNL     1       3.577  -1.682   2.122  1.00  0.00     0.178 HD
ATOM     12  H11 UNL     1       4.315  -2.765   0.923  1.00  0.00     0.178 HD
ATOM     13  H2  UNL     1       2.822  -2.031  -0.636  1.00  0.00     0.207 HD
ENDBRANCH   7   9
ENDBRANCH   5   6
ENDBRANCH   1   5
BRANCH   1  14
HETATM   14  N5  UNL     1      -1.163  -0.525   0.475  1.00  0.00    -0.330 N 
ATOM     15  H5  UNL     1      -1.121  -1.460   0.881  1.00  0.00     0.168 HD
BRANCH  14  16
HETATM   16  C4  UNL     1      -1.932  -0.257  -0.692  1.00  0.00     0.138 C 
HETATM   17  N6  UNL     1      -1.924  -1.130  -1.637  1.00  0.00    -0.383 N 
ATOM     18  H62 UNL     1      -1.383  -1.991  -1.554  1.00  0.00     0.157 HD
ATOM     19  H61 UNL     1      -2.475  -0.938  -2.473  1.00  0.00     0.157 HD
BRANCH  16  20
HETATM   20  C5  UNL     1      -2.709   0.980  -0.811  1.00  0.00     0.306 C 
HETATM   21  O1  UNL     1      -2.750   1.849   0.066  1.00  0.00    -0.298 OA
ENDBRANCH  16  20
ENDBRANCH  14  16
ENDBRANCH   1  14
TORSDOF 6
