REMARK  8 active torsions:
REMARK  status: ('A' for Active; 'I' for Inactive)
REMARK    1  A    between atoms: C2_2  and  C3_3 
REMARK    2  A    between atoms: C4_4  and  C5_5 
REMARK    3  A    between atoms: C11_12  and  N1_13 
REMARK    4  A    between atoms: C16_18  and  C17_19 
REMARK    5  A    between atoms: C19_21  and  O2_22 
REMARK    6  A    between atoms: C22_26  and  C23_27 
REMARK    7  A    between atoms: C23_27  and  O3_28 
REMARK    8  A    between atoms: C24_30  and  O4_31 
ROOT
HETATM    1  C5  UNL     1       2.854  -0.382  -1.037  1.00  0.00     0.000 C 
HETATM    2  C6  UNL     1       3.539   0.206  -2.276  1.00  0.00     0.022 C 
HETATM    3  C7  UNL     1       1.913  -1.450  -1.450  1.00  0.00     0.019 C 
HETATM    4  C8  UNL     1       0.480  -1.298  -1.177  1.00  0.00     0.040 C 
HETATM    5  C9  UNL     1       0.090  -0.419  -0.009  1.00  0.00     0.072 C 
HETATM    6  C10 UNL     1       0.468  -1.192   1.213  1.00  0.00     0.047 C 
HETATM    7  O1  UNL     1      -1.230  -0.153  -0.182  1.00  0.00    -0.345 OA
HETATM    8  C11 UNL     1      -2.039   0.032   0.875  1.00  0.00     0.355 C 
HETATM    9  C19 UNL     1      -1.585   1.028   1.881  1.00  0.00     0.175 C 
HETATM   10  C20 UNL     1      -0.798   2.178   1.310  1.00  0.00     0.037 C 
HETATM   11  C21 UNL     1       0.598   1.802   1.051  1.00  0.00     0.020 C 
HETATM   12  C22 UNL     1       0.843   0.872  -0.134  1.00  0.00     0.039 C 
HETATM   13  C24 UNL     1       2.344   0.662  -0.131  1.00  0.00     0.143 C 
ENDROOT
BRANCH   8  14
HETATM   14  N1  UNL     1      -3.387   0.277   0.377  1.00  0.00    -0.038 N 
HETATM   15  C12 UNL     1      -4.365  -0.117   1.352  1.00  0.00     0.276 C 
HETATM   16  C13 UNL     1      -3.664   1.586  -0.080  1.00  0.00     0.240 C 
HETATM   17  C14 UNL     1      -5.089   1.390  -0.633  1.00  0.00     0.030 C 
HETATM   18  C15 UNL     1      -4.920   0.029  -1.310  1.00  0.00     0.035 C 
HETATM   19  C16 UNL     1      -3.558  -0.468  -0.873  1.00  0.00     0.193 C 
BRANCH  19  20
HETATM   20  C17 UNL     1      -3.519  -1.949  -0.670  1.00  0.00     0.029 C 
HETATM   21  C18 UNL     1      -3.709  -2.582  -2.047  1.00  0.00     0.007 C 
ENDBRANCH  19  20
ENDBRANCH   8  14
BRANCH   9  22
HETATM   22  O2  UNL     1      -2.656   1.496   2.679  1.00  0.00    -0.391 OA
ATOM     23  H2  UNL     1      -2.366   2.132   3.322  1.00  0.00     0.210 HD
ENDBRANCH   9  22
BRANCH  12  24
HETATM   24  C23 UNL     1       0.407   1.669  -1.338  1.00  0.00     0.179 C 
BRANCH  24  25
HETATM   25  O3  UNL     1       0.586   1.077  -2.555  1.00  0.00    -0.400 OA
ATOM     26  H3  UNL     1       0.311   1.579  -3.313  1.00  0.00     0.209 HD
ENDBRANCH  24  25
ENDBRANCH  12  24
BRANCH  13  27
HETATM   27  O4  UNL     1       2.887   1.905  -0.462  1.00  0.00    -0.394 OA
ATOM     28  H4  UNL     1       2.558   2.578   0.122  1.00  0.00     0.210 HD
ENDBRANCH  13  27
BRANCH   1  29
HETATM   29  C4  UNL     1       3.986  -1.063  -0.295  1.00  0.00    -0.019 C 
HETATM   30  C3  UNL     1       5.114  -0.387  -0.133  1.00  0.00    -0.030 C 
BRANCH  30  31
HETATM   31  C2  UNL     1       6.281  -0.964   0.579  1.00  0.00     0.022 C 
HETATM   32  C1  UNL     1       7.475  -1.007  -0.379  1.00  0.00     0.009 C 
ENDBRANCH  30  31
ENDBRANCH   1  29
TORSDOF 8
