REMARK  7 active torsions:
REMARK  status: ('A' for Active; 'I' for Inactive)
REMARK    1  A    between atoms: C2_2  and  C4_4 
REMARK    2  A    between atoms: C2_2  and  C8_13 
REMARK    3  A    between atoms: C4_4  and  N1_5 
REMARK    4  A    between atoms: N1_5  and  C5_8 
REMARK    5  A    between atoms: C5_8  and  C6_9 
REMARK    6  A    between atoms: C6_9  and  C7_10 
REMARK    7  A    between atoms: C14_20  and  O3_22 
ROOT
HETATM    1  C8  UNL     1       1.445  -1.322  -0.759  1.00  0.00     0.142 C 
HETATM    2  O2  UNL     1       1.370  -1.137   0.610  1.00  0.00    -0.378 OA
HETATM    3  C9  UNL     1       0.023  -1.414   0.537  1.00  0.00     0.137 C 
HETATM    4  C10 UNL     1      -0.822  -0.167   0.495  1.00  0.00     0.020 C 
HETATM    5  C11 UNL     1      -0.953   0.434   1.841  1.00  0.00     0.008 C 
HETATM    6  C12 UNL     1      -2.124   1.314   2.037  1.00  0.00     0.009 C 
HETATM    7  C13 UNL     1      -2.957   1.590   0.819  1.00  0.00     0.028 C 
HETATM    8  C14 UNL     1      -4.287   2.100   1.337  1.00  0.00     0.059 C 
HETATM    9  C15 UNL     1      -4.839   3.248   0.544  1.00  0.00     0.046 C 
HETATM   10  C16 UNL     1      -5.179   0.894   1.358  1.00  0.00     0.038 C 
HETATM   11  C17 UNL     1      -4.290  -0.306   1.086  1.00  0.00     0.013 C 
HETATM   12  C18 UNL     1      -3.273   0.315   0.116  1.00  0.00    -0.034 C 
HETATM   13  C19 UNL     1      -4.051   0.510  -1.166  1.00  0.00     0.016 C 
HETATM   14  C20 UNL     1      -2.126  -0.579  -0.153  1.00  0.00     0.001 C 
HETATM   15  C21 UNL     1      -1.763  -0.726  -1.613  1.00  0.00     0.007 C 
HETATM   16  C22 UNL     1      -0.795  -1.815  -1.835  1.00  0.00     0.015 C 
HETATM   17  C23 UNL     1       0.200  -2.108  -0.761  1.00  0.00     0.009 C 
HETATM   18  C24 UNL     1       0.256  -3.597  -0.528  1.00  0.00     0.020 C 
ENDROOT
BRANCH   1  19
HETATM   19  C2  UNL     1       2.734  -1.845  -1.240  1.00  0.00     0.003 C 
HETATM   20  C1  UNL     1       3.178  -3.173  -0.715  1.00  0.00     0.019 C 
HETATM   21  C3  UNL     1       2.789  -1.787  -2.761  1.00  0.00     0.019 C 
BRANCH  19  22
HETATM   22  C4  UNL     1       3.817  -0.858  -0.784  1.00  0.00     0.243 C 
BRANCH  22  23
HETATM   23  N1  UNL     1       3.568   0.485  -1.195  1.00  0.00    -0.074 N 
ATOM     24  H12 UNL     1       3.396   0.543  -2.199  1.00  0.00     0.277 HD
ATOM     25  H11 UNL     1       2.663   0.817  -0.861  1.00  0.00     0.277 HD
BRANCH  23  26
HETATM   26  C5  UNL     1       4.643   1.370  -0.787  1.00  0.00     0.241 C 
BRANCH  26  27
HETATM   27  C6  UNL     1       4.710   1.554   0.709  1.00  0.00     0.127 C 
BRANCH  27  28
HETATM   28  C7  UNL     1       5.819   2.465   1.034  1.00  0.00     0.232 C 
HETATM   29  N2  UNL     1       6.088   2.779   2.389  1.00  0.00    -0.062 NA
HETATM   30  O1  UNL     1       6.517   2.959   0.132  1.00  0.00    -0.277 OA
ENDBRANCH  27  28
ENDBRANCH  26  27
ENDBRANCH  23  26
ENDBRANCH  22  23
ENDBRANCH  19  22
ENDBRANCH   1  19
BRANCH   8  31
HETATM   31  O3  UNL     1      -4.149   2.575   2.663  1.00  0.00    -0.390 OA
ATOM     32  H3  UNL     1      -4.983   2.895   2.988  1.00  0.00     0.210 HD
ENDBRANCH   8  31
TORSDOF 7
