REMARK  13 active torsions:
REMARK  status: ('A' for Active; 'I' for Inactive)
REMARK    1  A    between atoms: C2_2  and  C4_4 
REMARK    2  A    between atoms: C4_4  and  C5_5 
REMARK    3  A    between atoms: C5_5  and  C6_6 
REMARK    4  A    between atoms: C5_5  and  C8_10 
REMARK    5  A    between atoms: C6_6  and  C7_7 
REMARK    6  A    between atoms: C8_10  and  C9_11 
REMARK    7  A    between atoms: C8_10  and  N1_15 
REMARK    8  A    between atoms: C9_11  and  C10_12 
REMARK       I    between atoms: N1_15  and  C13_17 
REMARK    9  A    between atoms: C13_17  and  C14_19 
REMARK       I    between atoms: N3_26  and  C18_28 
REMARK       I    between atoms: C18_28  and  N4_30 
REMARK   10  A    between atoms: N4_30  and  C19_32 
REMARK   11  A    between atoms: C19_32  and  C20_33 
REMARK   12  A    between atoms: C20_33  and  C21_34 
REMARK   13  A    between atoms: C21_34  and  C22_35 
ROOT
HETATM    1  C14 UNL     1       0.047  -1.882   0.483  1.00  0.00     0.306 C 
HETATM    2  N2  UNL     1       0.868  -1.017   1.283  1.00  0.00    -0.301 N 
HETATM    3  C15 UNL     1       1.450  -0.055   2.134  1.00  0.00     0.242 C 
HETATM    4  O4  UNL     1       0.848   0.789   2.836  1.00  0.00    -0.272 OA
HETATM    5  C16 UNL     1       2.937  -0.133   2.127  1.00  0.00     0.198 C 
HETATM    6 BR1  UNL     1       3.567  -0.842   3.811  1.00  0.00    -0.075 Br
HETATM    7  C17 UNL     1       3.198  -1.037   1.003  1.00  0.00     0.052 C 
HETATM    8  N3  UNL     1       4.287  -1.121   0.340  1.00  0.00    -0.312 N 
ATOM      9  H3  UNL     1       4.296  -1.807  -0.415  1.00  0.00     0.170 HD
HETATM   10  C18 UNL     1       5.464  -0.395   0.516  1.00  0.00     0.320 C 
HETATM   11  O5  UNL     1       5.734   0.115   1.631  1.00  0.00    -0.247 OA
HETATM   12  N4  UNL     1       6.396  -0.198  -0.530  1.00  0.00    -0.343 N 
ATOM     13  H4  UNL     1       6.194  -0.603  -1.444  1.00  0.00     0.164 HD
HETATM   14  C23 UNL     1       1.998  -1.824   0.770  1.00  0.00     0.262 C 
HETATM   15  S1  UNL     1       1.240  -1.656  -0.823  1.00  0.00     0.202 S 
HETATM   16  O6  UNL     1       1.394  -2.804  -1.739  1.00  0.00    -0.223 OA
HETATM   17  O7  UNL     1       1.343  -0.297  -1.391  1.00  0.00    -0.223 OA
ENDROOT
BRANCH   1  18
HETATM   18  C13 UNL     1      -1.318  -1.514   0.170  1.00  0.00     0.256 C 
HETATM   19  N1  UNL     1      -1.928  -0.310   0.565  1.00  0.00    -0.353 N 
ATOM     20  H1  UNL     1      -1.379   0.360   1.104  1.00  0.00     0.163 HD
HETATM   21  O3  UNL     1      -1.970  -2.379  -0.514  1.00  0.00    -0.270 OA
BRANCH  19  22
HETATM   22  C8  UNL     1      -3.335   0.031   0.234  1.00  0.00     0.089 C 
BRANCH  22  23
HETATM   23  C5  UNL     1      -4.272  -0.868   0.949  1.00  0.00     0.018 C 
BRANCH  23  24
HETATM   24  C4  UNL     1      -5.712  -0.651   0.973  1.00  0.00     0.011 C 
BRANCH  24  25
HETATM   25  C2  UNL     1      -6.523  -0.498  -0.257  1.00  0.00    -0.022 C 
HETATM   26  C1  UNL     1      -7.993  -0.333   0.274  1.00  0.00     0.009 C 
HETATM   27  C3  UNL     1      -6.524  -1.678  -1.163  1.00  0.00     0.009 C 
ENDBRANCH  24  25
ENDBRANCH  23  24
BRANCH  23  28
HETATM   28  C6  UNL     1      -3.833  -1.002   2.428  1.00  0.00     0.119 C 
BRANCH  28  29
HETATM   29  C7  UNL     1      -4.141   0.202   3.217  1.00  0.00     0.172 C 
HETATM   30  O1  UNL     1      -5.186   0.322   3.873  1.00  0.00    -0.648 OA
HETATM   31  O2  UNL     1      -3.221   1.237   3.222  1.00  0.00    -0.648 OA
ENDBRANCH  28  29
ENDBRANCH  23  28
ENDBRANCH  22  23
BRANCH  22  32
HETATM   32  C9  UNL     1      -3.410   0.203  -1.219  1.00  0.00     0.029 C 
BRANCH  32  33
HETATM   33  C10 UNL     1      -2.354   1.148  -1.779  1.00  0.00    -0.021 C 
HETATM   34  C11 UNL     1      -2.576   1.207  -3.275  1.00  0.00     0.009 C 
HETATM   35  C12 UNL     1      -2.430   2.523  -1.225  1.00  0.00     0.009 C 
ENDBRANCH  32  33
ENDBRANCH  22  32
ENDBRANCH  19  22
ENDBRANCH   1  18
BRANCH  12  36
HETATM   36  C19 UNL     1       7.621   0.550  -0.364  1.00  0.00     0.124 C 
BRANCH  36  37
HETATM   37  C20 UNL     1       8.402   0.587  -1.640  1.00  0.00     0.020 C 
BRANCH  37  38
HETATM   38  C21 UNL     1       9.676   1.356  -1.497  1.00  0.00     0.012 C 
BRANCH  38  39
HETATM   39  C22 UNL     1      10.590   0.772  -0.459  1.00  0.00     0.085 C 
HETATM   40 BR2  UNL     1      12.191   1.860  -0.386  1.00  0.00    -0.097 Br
ENDBRANCH  38  39
ENDBRANCH  37  38
ENDBRANCH  36  37
ENDBRANCH  12  36
TORSDOF 13
