REMARK  14 active torsions:
REMARK  status: ('A' for Active; 'I' for Inactive)
REMARK    1  A    between atoms: C2_2  and  C3_3 
REMARK    2  A    between atoms: N1_6  and  C5_7 
REMARK    3  A    between atoms: C5_7  and  C6_8 
REMARK       I    between atoms: C6_8  and  N2_10 
REMARK    4  A    between atoms: N2_10  and  C7_12 
REMARK    5  A    between atoms: C7_12  and  C9_14 
REMARK    6  A    between atoms: C7_12  and  C16_21 
REMARK    7  A    between atoms: C9_14  and  C10_15 
REMARK    8  A    between atoms: C16_21  and  O3_22 
REMARK    9  A    between atoms: C16_21  and  C17_24 
REMARK       I    between atoms: N3_30  and  C21_31 
REMARK       I    between atoms: C21_31  and  N4_33 
REMARK   10  A    between atoms: N4_33  and  C22_35 
REMARK   11  A    between atoms: C22_35  and  C23_36 
REMARK   12  A    between atoms: C22_35  and  C30_45 
REMARK   13  A    between atoms: C23_36  and  C24_37 
REMARK   14  A    between atoms: C24_37  and  C25_38 
REMARK       I    between atoms: C25_38  and  N5_40 
ROOT
HETATM    1  C3  UNL     1       2.193  -1.010  -1.010  1.00  0.00     0.180 C 
HETATM    2  C4  UNL     1       0.747  -1.302  -0.924  1.00  0.00     0.243 C 
HETATM    3  O1  UNL     1       0.358  -2.363  -0.415  1.00  0.00    -0.271 OA
HETATM    4  N1  UNL     1      -0.228  -0.383  -1.419  1.00  0.00    -0.340 N 
HETATM    5  C19 UNL     1       0.093   1.030  -1.353  1.00  0.00     0.146 C 
HETATM    6  C20 UNL     1       1.358   1.269  -0.544  1.00  0.00     0.148 C 
HETATM    7  N3  UNL     1       2.438   0.433  -1.012  1.00  0.00    -0.319 N 
HETATM    8  C21 UNL     1       3.683   0.897  -1.479  1.00  0.00     0.319 C 
HETATM    9  O4  UNL     1       4.534   0.056  -1.912  1.00  0.00    -0.247 OA
HETATM   10  N4  UNL     1       4.076   2.263  -1.505  1.00  0.00    -0.330 N 
ATOM     11  H4  UNL     1       3.421   2.967  -1.165  1.00  0.00     0.165 HD
ENDROOT
BRANCH   4  12
HETATM   12  C5  UNL     1      -1.491  -0.831  -1.960  1.00  0.00     0.228 C 
BRANCH  12  13
HETATM   13  C6  UNL     1      -2.563  -0.907  -0.897  1.00  0.00     0.236 C 
HETATM   14  O2  UNL     1      -2.179  -0.559   0.240  1.00  0.00    -0.272 OA
HETATM   15  N2  UNL     1      -3.843  -1.321  -1.158  1.00  0.00    -0.345 N 
ATOM     16  H2  UNL     1      -4.055  -1.592  -2.118  1.00  0.00     0.163 HD
BRANCH  15  17
HETATM   17  C7  UNL     1      -4.979  -1.414  -0.145  1.00  0.00     0.076 C 
HETATM   18  C8  UNL     1      -4.309  -2.310   0.885  1.00  0.00     0.046 C 
BRANCH  17  19
HETATM   19  C9  UNL     1      -5.275  -0.076   0.201  1.00  0.00     0.009 C 
BRANCH  19  20
HETATM   20  C10 UNL     1      -6.128   0.577   1.184  1.00  0.00    -0.081 C 
HETATM   21  C11 UNL     1      -7.574   0.436   1.278  1.00  0.00     0.034 C 
HETATM   22  C12 UNL     1      -8.232   1.166   2.429  1.00  0.00     0.004 C 
HETATM   23  C13 UNL     1      -7.289   2.190   3.040  1.00  0.00     0.001 C 
HETATM   24  C14 UNL     1      -6.184   1.340   3.625  1.00  0.00     0.004 C 
HETATM   25  C15 UNL     1      -5.414   0.726   2.541  1.00  0.00     0.034 C 
ENDBRANCH  19  20
ENDBRANCH  17  19
BRANCH  17  26
HETATM   26  C16 UNL     1      -5.901  -2.243  -0.955  1.00  0.00     0.188 C 
BRANCH  26  27
HETATM   27  O3  UNL     1      -5.153  -3.488  -1.202  1.00  0.00    -0.390 OA
ATOM     28  H3  UNL     1      -5.744  -4.020  -1.722  1.00  0.00     0.210 HD
ENDBRANCH  26  27
BRANCH  26  29
HETATM   29  C17 UNL     1      -7.258  -2.594  -0.968  1.00  0.00     0.138 C 
HETATM   30  C18 UNL     1      -7.337  -3.643  -2.192  1.00  0.00     0.053 C 
HETATM   31 CL1  UNL     1      -8.443  -1.410  -1.683  1.00  0.00    -0.099 Cl
HETATM   32 CL2  UNL     1      -8.065  -3.471   0.281  1.00  0.00    -0.099 Cl
ENDBRANCH  26  29
ENDBRANCH  17  26
ENDBRANCH  15  17
ENDBRANCH  12  13
ENDBRANCH   4  12
BRANCH   1  33
HETATM   33  C2  UNL     1       2.986  -1.738   0.034  1.00  0.00     0.030 C 
HETATM   34  C1  UNL     1       2.810  -3.224  -0.152  1.00  0.00     0.007 C 
ENDBRANCH   1  33
BRANCH  10  35
HETATM   35  C22 UNL     1       5.377   2.700  -1.998  1.00  0.00     0.176 C 
BRANCH  35  36
HETATM   36  C23 UNL     1       6.170   3.402  -0.944  1.00  0.00     0.044 C 
BRANCH  36  37
HETATM   37  C24 UNL     1       6.490   2.598   0.270  1.00  0.00     0.105 C 
BRANCH  37  38
HETATM   38  C25 UNL     1       7.332   1.447  -0.071  1.00  0.00     0.219 C 
HETATM   39  O5  UNL     1       7.910   1.280  -1.164  1.00  0.00    -0.273 OA
HETATM   40  N5  UNL     1       7.513   0.425   0.930  1.00  0.00    -0.352 N 
HETATM   41  C26 UNL     1       8.323  -0.777   0.751  1.00  0.00     0.126 C 
HETATM   42  C29 UNL     1       6.947   0.399   2.249  1.00  0.00     0.126 C 
HETATM   43  C27 UNL     1       8.962  -0.947   2.108  1.00  0.00     0.021 C 
HETATM   44  C28 UNL     1       7.890  -0.468   3.057  1.00  0.00     0.021 C 
ENDBRANCH  37  38
ENDBRANCH  36  37
ENDBRANCH  35  36
BRANCH  35  45
HETATM   45  C30 UNL     1       5.202   3.653  -3.137  1.00  0.00     0.254 C 
HETATM   46  N6  UNL     1       6.359   4.185  -3.752  1.00  0.00    -0.060 NA
HETATM   47  O6  UNL     1       4.083   4.010  -3.583  1.00  0.00    -0.275 OA
ENDBRANCH  35  45
ENDBRANCH  10  35
TORSDOF 14
