REMARK  10 active torsions:
REMARK  status: ('A' for Active; 'I' for Inactive)
REMARK    1  A    between atoms: C3_3  and  N1_4 
REMARK       I    between atoms: N1_4  and  C4_6 
REMARK    2  A    between atoms: C4_6  and  C5_8 
REMARK    3  A    between atoms: N2_15  and  C12_16 
REMARK    4  A    between atoms: C12_16  and  C13_17 
REMARK       I    between atoms: C13_17  and  N3_19 
REMARK    5  A    between atoms: C17_25  and  C19_27 
REMARK       I    between atoms: C19_27  and  N4_29 
REMARK    6  A    between atoms: N4_29  and  C20_31 
REMARK    7  A    between atoms: C20_31  and  C21_32 
REMARK       I    between atoms: C21_32  and  N5_34 
REMARK    8  A    between atoms: N5_34  and  C22_35 
REMARK    9  A    between atoms: C22_35  and  C23_36 
REMARK   10  A    between atoms: C23_36  and  N6_37 
ROOT
HETATM    1  C1  UNL     1      -9.463   2.344  -2.371  1.00  0.00     0.014 C 
HETATM    2  C2  UNL     1      -8.257   2.244  -2.391  1.00  0.00    -0.098 C 
HETATM    3  C3  UNL     1      -6.777   2.151  -2.458  1.00  0.00     0.216 C 
ENDROOT
BRANCH   3   4
HETATM    4  N1  UNL     1      -6.294   1.539  -1.227  1.00  0.00    -0.348 N 
HETATM    5  C4  UNL     1      -6.693   0.215  -0.859  1.00  0.00     0.257 C 
HETATM    6  O1  UNL     1      -7.456  -0.358  -1.701  1.00  0.00    -0.271 OA
ATOM      7  H1  UNL     1      -5.663   2.061  -0.619  1.00  0.00     0.163 HD
BRANCH   5   8
HETATM    8  C5  UNL     1      -6.282  -0.429   0.375  1.00  0.00     0.237 C 
HETATM    9  C6  UNL     1      -7.337   0.048   1.414  1.00  0.00     0.060 C 
HETATM   10  C7  UNL     1      -6.366  -1.921   0.375  1.00  0.00     0.054 C 
HETATM   11  C8  UNL     1      -5.773  -2.235   1.729  1.00  0.00     0.044 C 
HETATM   12  C9  UNL     1      -4.830  -1.075   1.964  1.00  0.00     0.155 C 
HETATM   13  C10 UNL     1      -3.481  -1.705   2.205  1.00  0.00     0.049 C 
HETATM   14  C11 UNL     1      -5.168  -0.351   3.206  1.00  0.00     0.049 C 
HETATM   15  N2  UNL     1      -4.930  -0.152   0.824  1.00  0.00     0.124 N 
BRANCH  15  16
HETATM   16  C12 UNL     1      -3.985  -0.592  -0.211  1.00  0.00     0.377 C 
BRANCH  16  17
HETATM   17  C13 UNL     1      -2.618  -0.084  -0.010  1.00  0.00     0.251 C 
HETATM   18  O2  UNL     1      -2.476   0.776   0.888  1.00  0.00    -0.271 OA
HETATM   19  N3  UNL     1      -1.479  -0.506  -0.754  1.00  0.00    -0.304 N 
HETATM   20  C14 UNL     1      -1.401  -1.346  -1.922  1.00  0.00     0.152 C 
HETATM   21  C17 UNL     1      -0.130  -0.174  -0.346  1.00  0.00     0.115 C 
HETATM   22 BR1  UNL     1      -2.412  -3.017  -1.746  1.00  0.00    -0.049 Br
HETATM   23 BR2  UNL     1      -1.945  -0.563  -3.548  1.00  0.00    -0.049 Br
HETATM   24  C15 UNL     1       0.058  -1.819  -1.944  1.00  0.00     0.058 C 
HETATM   25  C16 UNL     1       0.467  -1.626  -0.479  1.00  0.00     0.045 C 
HETATM   26  C18 UNL     1       0.017   0.253   1.067  1.00  0.00     0.049 C 
BRANCH  21  27
HETATM   27  C19 UNL     1       0.644   0.658  -1.246  1.00  0.00     0.246 C 
HETATM   28  O3  UNL     1       0.174   1.138  -2.284  1.00  0.00    -0.271 OA
HETATM   29  N4  UNL     1       2.031   0.963  -0.994  1.00  0.00    -0.349 N 
ATOM     30  H4  UNL     1       2.470   0.666  -0.122  1.00  0.00     0.163 HD
BRANCH  29  31
HETATM   31  C20 UNL     1       2.781   1.675  -1.960  1.00  0.00     0.241 C 
BRANCH  31  32
HETATM   32  C21 UNL     1       4.180   2.006  -1.732  1.00  0.00     0.308 C 
HETATM   33  O4  UNL     1       4.838   2.377  -2.746  1.00  0.00    -0.255 OA
HETATM   34  N5  UNL     1       4.824   1.919  -0.409  1.00  0.00    -0.381 NA
BRANCH  34  35
HETATM   35  C22 UNL     1       5.375   1.846   0.712  1.00  0.00     0.197 C 
BRANCH  35  36
HETATM   36  C23 UNL     1       6.393   0.830   1.074  1.00  0.00     0.091 C 
BRANCH  36  37
HETATM   37  N6  UNL     1       7.681   0.701   0.585  1.00  0.00    -0.290 NA
HETATM   38  C24 UNL     1       8.272  -0.485   1.322  1.00  0.00     0.095 C 
HETATM   39  C25 UNL     1       9.763  -0.428   1.292  1.00  0.00     0.015 C 
HETATM   40  C26 UNL     1      10.210  -0.441  -0.159  1.00  0.00     0.002 C 
HETATM   41  C27 UNL     1       9.486   0.574  -0.982  1.00  0.00     0.015 C 
HETATM   42  C28 UNL     1       7.949   0.417  -0.766  1.00  0.00     0.095 C 
ENDBRANCH  36  37
ENDBRANCH  35  36
ENDBRANCH  34  35
ENDBRANCH  31  32
ENDBRANCH  29  31
ENDBRANCH  21  27
ENDBRANCH  16  17
ENDBRANCH  15  16
ENDBRANCH   5   8
ENDBRANCH   3   4
TORSDOF 10
