REMARK  11 active torsions:
REMARK  status: ('A' for Active; 'I' for Inactive)
REMARK    1  A    between atoms: C2_2  and  C3_3 
REMARK    2  A    between atoms: C3_3  and  C4_4 
REMARK       I    between atoms: C4_4  and  N1_6 
REMARK    3  A    between atoms: N1_6  and  C5_8 
REMARK    4  A    between atoms: C7_10  and  C8_11 
REMARK    5  A    between atoms: C8_11  and  N2_12 
REMARK       I    between atoms: N2_12  and  C10_14 
REMARK    6  A    between atoms: C10_14  and  C11_16 
REMARK    7  A    between atoms: C16_22  and  N3_23 
REMARK       I    between atoms: N3_23  and  C17_25 
REMARK    8  A    between atoms: C17_25  and  C18_27 
REMARK    9  A    between atoms: C18_27  and  C19_28 
REMARK   10  A    between atoms: C19_28  and  N4_29 
REMARK   11  A    between atoms: C26_40  and  O5_41 
ROOT
HETATM    1  N2  UNL     1       3.131  -1.270  -2.747  1.00  0.00    -0.350 N 
HETATM    2  C9  UNL     1       4.243  -0.557  -3.324  1.00  0.00     0.153 C 
HETATM    3  C10 UNL     1       1.924  -0.572  -2.457  1.00  0.00     0.243 C 
HETATM    4  O2  UNL     1       1.938   0.653  -2.700  1.00  0.00    -0.271 OA
ENDROOT
BRANCH   3   5
HETATM    5  C11 UNL     1       0.820  -1.320  -1.920  1.00  0.00     0.190 C 
HETATM    6  C12 UNL     1      -0.098  -1.868  -3.064  1.00  0.00     0.111 C 
HETATM    7  S1  UNL     1      -1.296  -2.732  -1.957  1.00  0.00    -0.141 SA
HETATM    8  C13 UNL     1      -0.765  -1.880  -0.408  1.00  0.00     0.150 C 
HETATM    9  C14 UNL     1      -1.861  -1.588   0.515  1.00  0.00     0.039 C 
HETATM   10  N5  UNL     1      -0.146  -0.719  -1.070  1.00  0.00    -0.323 N 
HETATM   11  C15 UNL     1      -1.647  -0.292   1.243  1.00  0.00     0.038 C 
HETATM   12  C16 UNL     1      -1.760   0.809   0.178  1.00  0.00     0.176 C 
HETATM   13  C23 UNL     1      -0.602   0.555  -0.754  1.00  0.00     0.244 C 
HETATM   14  O4  UNL     1      -0.100   1.631  -1.209  1.00  0.00    -0.271 OA
BRANCH  12  15
HETATM   15  N3  UNL     1      -3.011   0.710  -0.546  1.00  0.00    -0.348 N 
HETATM   16  C17 UNL     1      -4.032   1.689  -0.331  1.00  0.00     0.219 C 
HETATM   17  O3  UNL     1      -3.846   2.623   0.474  1.00  0.00    -0.274 OA
ATOM     18  H3  UNL     1      -3.163  -0.053  -1.205  1.00  0.00     0.163 HD
BRANCH  16  19
HETATM   19  C18 UNL     1      -5.301   1.583  -1.063  1.00  0.00     0.130 C 
BRANCH  19  20
HETATM   20  C19 UNL     1      -6.393   2.468  -0.590  1.00  0.00     0.245 C 
BRANCH  20  21
HETATM   21  N4  UNL     1      -6.885   2.271   0.729  1.00  0.00    -0.078 N 
HETATM   22  C20 UNL     1      -6.614   3.457   1.528  1.00  0.00     0.271 C 
HETATM   23  C21 UNL     1      -6.376   1.147   1.448  1.00  0.00     0.271 C 
HETATM   24  C22 UNL     1      -8.358   2.106   0.654  1.00  0.00     0.271 C 
ENDBRANCH  20  21
ENDBRANCH  19  20
ENDBRANCH  16  19
ENDBRANCH  12  15
ENDBRANCH   3   5
BRANCH   1  25
HETATM   25  C8  UNL     1       3.275  -2.678  -2.476  1.00  0.00     0.165 C 
BRANCH  25  26
HETATM   26  C7  UNL     1       3.802  -2.925  -1.105  1.00  0.00    -0.019 A 
HETATM   27  C6  UNL     1       4.111  -1.865  -0.234  1.00  0.00     0.042 A 
HETATM   28  C5  UNL     1       4.599  -2.049   1.032  1.00  0.00     0.070 A 
HETATM   29  C26 UNL     1       4.780  -3.382   1.433  1.00  0.00     0.111 A 
HETATM   30  C25 UNL     1       4.470  -4.433   0.558  1.00  0.00     0.064 A 
HETATM   31  C24 UNL     1       3.983  -4.221  -0.707  1.00  0.00     0.039 A 
HETATM   32 BR2  UNL     1       4.727  -6.243   1.134  1.00  0.00    -0.047 Br
HETATM   33 BR1  UNL     1       3.581  -5.699  -1.839  1.00  0.00    -0.049 Br
BRANCH  28  34
HETATM   34  N1  UNL     1       4.914  -1.002   1.923  1.00  0.00    -0.325 N 
HETATM   35  C4  UNL     1       4.825   0.362   1.676  1.00  0.00     0.222 C 
HETATM   36  O1  UNL     1       4.450   0.880   0.624  1.00  0.00    -0.273 OA
ATOM     37  H1  UNL     1       5.243  -1.276   2.849  1.00  0.00     0.169 HD
BRANCH  35  38
HETATM   38  C3  UNL     1       5.215   1.325   2.770  1.00  0.00     0.103 C 
BRANCH  38  39
HETATM   39  C2  UNL     1       5.117   2.744   2.300  1.00  0.00     0.005 C 
HETATM   40  C1  UNL     1       6.029   2.990   1.128  1.00  0.00     0.005 C 
ENDBRANCH  38  39
ENDBRANCH  35  38
ENDBRANCH  28  34
BRANCH  29  41
HETATM   41  O5  UNL     1       5.256  -3.679   2.664  1.00  0.00    -0.357 OA
ATOM     42  H5  UNL     1       5.378  -4.581   2.935  1.00  0.00     0.217 HD
ENDBRANCH  29  41
ENDBRANCH  25  26
ENDBRANCH   1  25
TORSDOF 11
