REMARK  15 active torsions:
REMARK  status: ('A' for Active; 'I' for Inactive)
REMARK    1  A    between atoms: N1_2  and  C2_5 
REMARK    2  A    between atoms: C2_5  and  C4_7 
REMARK       I    between atoms: C4_7  and  N2_9 
REMARK    3  A    between atoms: N2_9  and  C5_10 
REMARK    4  A    between atoms: C5_10  and  C6_11 
REMARK    5  A    between atoms: C5_10  and  C10_15 
REMARK    6  A    between atoms: C10_15  and  O2_16 
REMARK    7  A    between atoms: C10_15  and  N3_18 
REMARK    8  A    between atoms: N4_21  and  C13_22 
REMARK    9  A    between atoms: C13_22  and  C15_24 
REMARK   10  A    between atoms: C15_24  and  O3_25 
REMARK   11  A    between atoms: C15_24  and  N5_27 
REMARK   12  A    between atoms: N5_27  and  C17_29 
REMARK   13  A    between atoms: C17_29  and  C18_30 
REMARK   14  A    between atoms: C25_40  and  C27_42 
REMARK       I    between atoms: C27_42  and  N6_44 
REMARK   15  A    between atoms: N6_44  and  C28_46 
ROOT
HETATM    1  N3  UNL     1      -1.137   0.441   0.574  1.00  0.00    -0.337 N 
HETATM    2  C11 UNL     1      -0.055  -0.339   0.079  1.00  0.00     0.118 C 
HETATM    3  C12 UNL     1       0.880   0.277  -0.900  1.00  0.00     0.152 C 
HETATM    4  N4  UNL     1       2.108  -0.444  -0.720  1.00  0.00    -0.338 N 
HETATM    5  C22 UNL     1       2.120  -0.819   0.670  1.00  0.00     0.227 C 
HETATM    6  O5  UNL     1       3.057  -1.435   1.230  1.00  0.00    -0.273 OA
HETATM    7  C23 UNL     1       0.886  -0.378   1.323  1.00  0.00     0.105 C 
HETATM    8  C24 UNL     1       0.879   1.103   1.629  1.00  0.00     0.057 C 
HETATM    9  C25 UNL     1      -0.522   1.514   1.377  1.00  0.00     0.113 C 
HETATM   10  C26 UNL     1      -1.196   1.556   2.760  1.00  0.00     0.049 C 
ENDROOT
BRANCH   1  11
HETATM   11  C10 UNL     1      -2.492   0.291   0.391  1.00  0.00     0.156 C 
BRANCH  11  12
HETATM   12  C5  UNL     1      -3.249  -0.698  -0.448  1.00  0.00     0.264 C 
BRANCH  12  13
HETATM   13  N2  UNL     1      -4.353  -1.061   0.157  1.00  0.00    -0.396 NA
HETATM   14  C4  UNL     1      -5.565  -1.455   0.815  1.00  0.00     0.318 C 
HETATM   15  O1  UNL     1      -6.699  -1.283   0.331  1.00  0.00    -0.255 OA
BRANCH  14  16
HETATM   16  C2  UNL     1      -5.539  -2.097   2.152  1.00  0.00     0.287 C 
HETATM   17  C3  UNL     1      -4.411  -1.710   3.040  1.00  0.00     0.051 C 
BRANCH  16  18
HETATM   18  N1  UNL     1      -6.809  -1.876   2.826  1.00  0.00    -0.065 N 
HETATM   19  C1  UNL     1      -6.979  -0.481   3.136  1.00  0.00     0.267 C 
ATOM     20  H12 UNL     1      -6.906  -2.463   3.654  1.00  0.00     0.277 HD
ATOM     21  H11 UNL     1      -7.593  -2.243   2.287  1.00  0.00     0.277 HD
ENDBRANCH  16  18
ENDBRANCH  14  16
ENDBRANCH  12  13
BRANCH  12  22
HETATM   22  C6  UNL     1      -3.213  -0.095  -1.841  1.00  0.00     0.022 C 
HETATM   23  C7  UNL     1      -3.621  -0.793  -3.029  1.00  0.00    -0.088 C 
HETATM   24  C8  UNL     1      -5.039  -1.290  -3.059  1.00  0.00     0.042 C 
HETATM   25  C9  UNL     1      -2.643  -1.786  -3.626  1.00  0.00     0.042 C 
ENDBRANCH  12  22
ENDBRANCH  11  12
BRANCH  11  26
HETATM   26  O2  UNL     1      -3.277   1.124   1.029  1.00  0.00    -0.347 OA
ATOM     27  H2  UNL     1      -2.798   1.750   1.560  1.00  0.00     0.219 HD
ENDBRANCH  11  26
ENDBRANCH   1  11
BRANCH   9  28
HETATM   28  C27 UNL     1      -0.738   2.835   0.793  1.00  0.00     0.247 C 
HETATM   29  O6  UNL     1      -1.508   2.948  -0.195  1.00  0.00    -0.271 OA
HETATM   30  N6  UNL     1      -0.135   4.024   1.267  1.00  0.00    -0.342 N 
ATOM     31  H6  UNL     1       0.512   3.969   2.053  1.00  0.00     0.164 HD
BRANCH  30  32
HETATM   32  C28 UNL     1      -0.405   5.313   0.675  1.00  0.00     0.177 C 
HETATM   33  C29 UNL     1       0.599   5.590  -0.463  1.00  0.00     0.049 C 
HETATM   34 CL1  UNL     1      -0.192   6.599   1.865  1.00  0.00    -0.103 Cl
ENDBRANCH  30  32
ENDBRANCH   9  28
BRANCH   4  35
HETATM   35  C13 UNL     1       3.156  -0.769  -1.682  1.00  0.00     0.157 C 
HETATM   36  C14 UNL     1       3.171  -2.280  -1.918  1.00  0.00     0.041 C 
BRANCH  35  37
HETATM   37  C15 UNL     1       4.457  -0.242  -1.273  1.00  0.00     0.136 C 
BRANCH  37  38
HETATM   38  O3  UNL     1       4.427   0.656  -0.316  1.00  0.00    -0.348 OA
ATOM     39  H3  UNL     1       5.272   0.998  -0.050  1.00  0.00     0.219 HD
ENDBRANCH  37  38
BRANCH  37  40
HETATM   40  N5  UNL     1       5.748  -0.534  -1.722  1.00  0.00    -0.362 N 
HETATM   41  C16 UNL     1       6.063  -1.513  -2.764  1.00  0.00     0.152 C 
BRANCH  40  42
HETATM   42  C17 UNL     1       6.885   0.154  -1.118  1.00  0.00     0.189 C 
BRANCH  42  43
HETATM   43  C18 UNL     1       7.399  -0.613   0.053  1.00  0.00     0.072 A 
HETATM   44  C19 UNL     1       8.420  -0.159   0.851  1.00  0.00     0.038 A 
HETATM   45  C20 UNL     1       8.633  -1.124   1.846  1.00  0.00     0.048 A 
HETATM   46  C21 UNL     1       7.692  -2.135   1.572  1.00  0.00     0.121 A 
HETATM   47 BR1  UNL     1       7.559  -3.701   2.661  1.00  0.00    -0.023 Br
HETATM   48  O4  UNL     1       7.019  -1.772   0.526  1.00  0.00    -0.306 OA
ENDBRANCH  42  43
ENDBRANCH  40  42
ENDBRANCH  37  40
ENDBRANCH  35  37
ENDBRANCH   4  35
TORSDOF 15
