REMARK  4 active torsions:
REMARK  status: ('A' for Active; 'I' for Inactive)
REMARK       I    between atoms: N1_1  and  C1_4 
REMARK       I    between atoms: C1_4  and  N3_6 
REMARK    1  A    between atoms: N3_6  and  N4_8 
REMARK    2  A    between atoms: N4_8  and  N5_10 
REMARK    3  A    between atoms: N5_10  and  C2_12 
REMARK    4  A    between atoms: C3_15  and  N7_16 
ROOT
HETATM    1  C2  UNL     1       1.199   0.581   0.309  1.00  0.00     0.166 A 
HETATM    2  N6  UNL     1       2.204   0.757   1.178  1.00  0.00    -0.305 N 
ATOM      3  H6  UNL     1       2.132   1.255   2.065  1.00  0.00     0.170 HD
HETATM    4  C3  UNL     1       3.336   0.171   0.698  1.00  0.00     0.253 A 
HETATM    5  N8  UNL     1       2.992  -0.365  -0.486  1.00  0.00    -0.308 N 
ATOM      6  H8  UNL     1       3.628  -0.877  -1.097  1.00  0.00     0.170 HD
HETATM    7  C4  UNL     1       1.703  -0.135  -0.752  1.00  0.00     0.165 A 
HETATM    8  N9  UNL     1       0.961  -0.549  -1.921  1.00  0.00    -0.078 NA
ENDROOT
BRANCH   1   9
HETATM    9  N5  UNL     1      -0.140   1.038   0.437  1.00  0.00    -0.268 N 
ATOM     10  H5  UNL     1      -0.316   1.924   0.910  1.00  0.00     0.190 HD
BRANCH   9  11
HETATM   11  N4  UNL     1      -1.124   0.378  -0.019  1.00  0.00    -0.239 N 
ATOM     12  H4  UNL     1      -0.939  -0.507  -0.491  1.00  0.00     0.208 HD
BRANCH  11  13
HETATM   13  N3  UNL     1      -2.441   0.806   0.095  1.00  0.00    -0.259 N 
HETATM   14  C1  UNL     1      -3.537  -0.080   0.016  1.00  0.00     0.201 C 
HETATM   15  N1  UNL     1      -3.533  -1.004  -0.868  1.00  0.00    -0.372 N 
HETATM   16  N2  UNL     1      -4.635   0.036   0.895  1.00  0.00    -0.062 NA
ATOM     17  H12 UNL     1      -4.325  -1.644  -0.925  1.00  0.00     0.158 HD
ATOM     18  H11 UNL     1      -2.739  -1.088  -1.503  1.00  0.00     0.158 HD
ATOM     19  H3  UNL     1      -2.623   1.799   0.241  1.00  0.00     0.191 HD
ENDBRANCH  11  13
ENDBRANCH   9  11
ENDBRANCH   1   9
BRANCH   4  20
HETATM   20  N7  UNL     1       4.600   0.153   1.345  1.00  0.00    -0.079 N 
HETATM   21  O1  UNL     1       4.723   0.706   2.441  1.00  0.00    -0.529 OA
HETATM   22  O2  UNL     1       5.674  -0.463   0.778  1.00  0.00    -0.529 OA
ENDBRANCH   4  20
TORSDOF 4
