REMARK  7 active torsions:
REMARK  status: ('A' for Active; 'I' for Inactive)
REMARK    1  A    between atoms: N2_3  and  N3_4 
REMARK    2  A    between atoms: N2_3  and  C3_8 
REMARK    3  A    between atoms: N3_4  and  C2_6 
REMARK    4  A    between atoms: C4_11  and  N5_12 
REMARK    5  A    between atoms: C5_17  and  N7_18 
REMARK    6  A    between atoms: C6_21  and  N8_22 
REMARK    7  A    between atoms: N8_22  and  O2_24 
ROOT
HETATM    1  N1  UNL     1       1.408  -1.376   3.448  1.00  0.00    -0.170 NA
HETATM    2  C1  UNL     1       1.332  -1.065   2.315  1.00  0.00     0.207 C 
HETATM    3  N2  UNL     1       1.216  -0.710   0.967  1.00  0.00    -0.168 N 
ENDROOT
BRANCH   3   4
HETATM    4  N3  UNL     1       2.274  -0.986   0.112  1.00  0.00    -0.260 N 
ATOM      5  H3  UNL     1       2.677  -1.922   0.082  1.00  0.00     0.190 HD
BRANCH   4   6
HETATM    6  C2  UNL     1       2.788   0.031  -0.713  1.00  0.00     0.369 C 
HETATM    7  O1  UNL     1       2.252   1.183  -0.639  1.00  0.00    -0.282 OA
ENDBRANCH   4   6
ENDBRANCH   3   4
BRANCH   3   8
HETATM    8  C3  UNL     1       0.068  -0.088   0.431  1.00  0.00     0.185 A 
HETATM    9  N4  UNL     1      -0.371   1.074   0.947  1.00  0.00    -0.172 N 
HETATM   10  C4  UNL     1      -1.482   1.656   0.405  1.00  0.00     0.679 A 
ATOM     11  H4  UNL     1       0.116   1.513   1.728  1.00  0.00     0.186 HD
HETATM   12  N6  UNL     1      -2.106   1.068  -0.612  1.00  0.00    -0.175 N 
HETATM   13  C5  UNL     1      -1.696  -0.094  -1.152  1.00  0.00     0.147 A 
ATOM     14  H6  UNL     1      -2.934   1.519  -1.001  1.00  0.00     0.186 HD
HETATM   15  C6  UNL     1      -0.578  -0.698  -0.624  1.00  0.00     0.145 A 
BRANCH  10  16
HETATM   16  N5  UNL     1      -1.890   2.781   0.917  1.00  0.00    -0.234 N 
ATOM     17  H52 UNL     1      -1.412   3.232   1.697  1.00  0.00     0.174 HD
ATOM     18  H51 UNL     1      -2.719   3.215   0.512  1.00  0.00     0.174 HD
ENDBRANCH  10  16
BRANCH  13  19
HETATM   19  N7  UNL     1      -2.342  -0.604  -2.128  1.00  0.00    -0.383 N 
ATOM     20  H72 UNL     1      -3.171  -0.156  -2.519  1.00  0.00     0.157 HD
ATOM     21  H71 UNL     1      -2.031  -1.485  -2.537  1.00  0.00     0.157 HD
ENDBRANCH  13  19
BRANCH  15  22
HETATM   22  N8  UNL     1      -0.126  -1.932  -1.184  1.00  0.00    -0.262 N 
ATOM     23  H8  UNL     1       0.701  -1.917  -1.782  1.00  0.00     0.194 HD
BRANCH  22  24
HETATM   24  O2  UNL     1      -0.691  -3.031  -0.980  1.00  0.00    -0.289 OA
ATOM     25  H2  UNL     1      -0.390  -3.852  -1.352  1.00  0.00     0.244 HD
ENDBRANCH  22  24
ENDBRANCH  15  22
ENDBRANCH   3   8
TORSDOF 7
