REMARK  0 active torsions:
REMARK  status: ('A' for Active; 'I' for Inactive)
ROOT
HETATM    1  N1  UNL     1      -0.994   3.707   0.905  1.00  0.00    -0.191 NA
HETATM    2  C1  UNL     1      -1.042   2.605   0.552  1.00  0.00     0.100 C 
HETATM    3  C2  UNL     1      -1.083   1.218   0.120  1.00  0.00     0.055 A 
HETATM    4  C3  UNL     1      -2.241   0.633  -0.327  1.00  0.00     0.023 A 
HETATM    5  C4  UNL     1      -2.270  -0.692  -0.737  1.00  0.00     0.002 A 
HETATM    6  C5  UNL     1      -1.128  -1.465  -0.708  1.00  0.00     0.012 A 
HETATM    7  C6  UNL     1       0.045  -0.898  -0.264  1.00  0.00    -0.025 A 
HETATM    8  C7  UNL     1       1.189  -1.671  -0.234  1.00  0.00     0.012 A 
HETATM    9  C8  UNL     1       2.350  -1.077   0.216  1.00  0.00     0.001 A 
HETATM   10  C9  UNL     1       2.374   0.255   0.628  1.00  0.00     0.001 A 
HETATM   11  C10 UNL     1       1.225   1.003   0.589  1.00  0.00     0.014 A 
HETATM   12  C11 UNL     1       0.061   0.432   0.145  1.00  0.00    -0.005 A 
ENDROOT
TORSDOF 0
