REMARK  4 active torsions:
REMARK  status: ('A' for Active; 'I' for Inactive)
REMARK    1  A    between atoms: C4_4  and  S1_5 
REMARK    2  A    between atoms: S1_5  and  C5_8 
REMARK    3  A    between atoms: C11_15  and  S3_16 
REMARK    4  A    between atoms: S3_16  and  N1_17 
ROOT
HETATM    1  C1  UNL     1      -2.048  -2.220   0.838  1.00  0.00     0.050 C 
HETATM    2  C2  UNL     1      -1.420  -1.051   0.186  1.00  0.00    -0.037 A 
HETATM    3  C3  UNL     1      -0.127  -1.115  -0.336  1.00  0.00     0.032 A 
HETATM    4  C4  UNL     1       0.467  -0.041  -0.942  1.00  0.00     0.064 A 
HETATM    5  C9  UNL     1      -0.212   1.146  -1.049  1.00  0.00     0.025 A 
HETATM    6  C10 UNL     1      -1.489   1.222  -0.536  1.00  0.00     0.027 A 
HETATM    7  C11 UNL     1      -2.094   0.153   0.072  1.00  0.00     0.085 A 
ENDROOT
BRANCH   4   8
HETATM    8  S1  UNL     1       2.064  -0.174  -1.570  1.00  0.00     0.207 S 
HETATM    9  O1  UNL     1       2.240   0.738  -2.747  1.00  0.00    -0.217 OA
HETATM   10  O2  UNL     1       2.346  -1.573  -2.083  1.00  0.00    -0.217 OA
BRANCH   8  11
HETATM   11  C5  UNL     1       3.280   0.257  -0.348  1.00  0.00     0.071 A 
HETATM   12  C6  UNL     1       3.826  -0.663   0.471  1.00  0.00     0.031 A 
HETATM   13  C7  UNL     1       4.750  -0.223   1.378  1.00  0.00     0.051 A 
HETATM   14  S2  UNL     1       4.831   1.449   1.064  1.00  0.00    -0.112 SA
HETATM   15  C8  UNL     1       3.697   1.548  -0.201  1.00  0.00     0.073 A 
ENDBRANCH   8  11
ENDBRANCH   4   8
BRANCH   7  16
HETATM   16  S3  UNL     1      -3.734   0.268   0.724  1.00  0.00     0.257 S 
HETATM   17  O3  UNL     1      -4.672  -0.639  -0.024  1.00  0.00    -0.201 OA
HETATM   18  O4  UNL     1      -3.701  -0.003   2.182  1.00  0.00    -0.201 OA
BRANCH  16  19
HETATM   19  N1  UNL     1      -4.300   1.894   0.426  1.00  0.00    -0.324 N 
ATOM     20  H12 UNL     1      -3.770   2.631  -0.040  1.00  0.00     0.169 HD
ATOM     21  H11 UNL     1      -5.246   1.960   0.802  1.00  0.00     0.169 HD
ENDBRANCH  16  19
ENDBRANCH   7  16
TORSDOF 4
