REMARK  4 active torsions:
REMARK  status: ('A' for Active; 'I' for Inactive)
REMARK    1  A    between atoms: C6_9  and  S1_10 
REMARK    2  A    between atoms: S1_10  and  N3_13 
REMARK    3  A    between atoms: N3_13  and  C7_15 
REMARK    4  A    between atoms: C8_19  and  C9_20 
ROOT
HETATM    1  S1  UNL     1      -1.320   0.053  -1.149  1.00  0.00     0.268 S 
HETATM    2  O1  UNL     1      -1.261   1.463  -1.641  1.00  0.00    -0.200 OA
HETATM    3  O2  UNL     1      -1.062  -0.820  -2.370  1.00  0.00    -0.200 OA
ENDROOT
BRANCH   1   4
HETATM    4  C6  UNL     1      -2.921  -0.284  -0.609  1.00  0.00     0.127 A 
HETATM    5  C2  UNL     1      -3.696  -1.398  -0.670  1.00  0.00     0.047 A 
HETATM    6  C1  UNL     1      -3.292  -2.669  -1.270  1.00  0.00     0.071 C 
HETATM    7  N1  UNL     1      -4.882  -1.149  -0.099  1.00  0.00    -0.302 N 
HETATM    8  N2  UNL     1      -4.897   0.116   0.336  1.00  0.00    -0.299 N 
ATOM      9  H1  UNL     1      -5.649  -1.816  -0.010  1.00  0.00     0.186 HD
HETATM   10  C3  UNL     1      -6.053   0.698   1.006  1.00  0.00     0.177 C 
HETATM   11  C4  UNL     1      -3.705   0.678   0.039  1.00  0.00     0.049 A 
HETATM   12  C5  UNL     1      -3.381   2.070   0.376  1.00  0.00     0.071 C 
ENDBRANCH   1   4
BRANCH   1  13
HETATM   13  N3  UNL     1      -0.101  -0.262  -0.033  1.00  0.00    -0.264 N 
ATOM     14  H3  UNL     1      -0.332  -0.712   0.852  1.00  0.00     0.180 HD
BRANCH  13  15
HETATM   15  C7  UNL     1       1.114   0.057  -0.282  1.00  0.00     0.143 A 
HETATM   16  N4  UNL     1       1.591   0.653  -1.393  1.00  0.00    -0.244 N 
HETATM   17  O3  UNL     1       2.882   0.826  -1.300  1.00  0.00    -0.240 OA
ATOM     18  H4  UNL     1       1.023   0.930  -2.194  1.00  0.00     0.196 HD
HETATM   19  C8  UNL     1       3.330   0.377  -0.171  1.00  0.00     0.089 A 
HETATM   20  C12 UNL     1       2.243  -0.120   0.506  1.00  0.00     0.017 A 
HETATM   21  C13 UNL     1       2.217  -0.746   1.849  1.00  0.00     0.055 C 
BRANCH  19  22
HETATM   22  C9  UNL     1       4.730   0.398   0.288  1.00  0.00     0.038 C 
HETATM   23  C10 UNL     1       5.585   1.214  -0.688  1.00  0.00     0.016 C 
HETATM   24  C11 UNL     1       5.311  -1.022   0.213  1.00  0.00     0.016 C 
ENDBRANCH  19  22
ENDBRANCH  13  15
ENDBRANCH   1  13
TORSDOF 4
