REMARK  4 active torsions:
REMARK  status: ('A' for Active; 'I' for Inactive)
REMARK    1  A    between atoms: C2_4  and  O3_5 
REMARK    2  A    between atoms: C2_4  and  C3_7 
REMARK    3  A    between atoms: C3_7  and  S1_8 
REMARK    4  A    between atoms: S1_8  and  C4_11 
ROOT
HETATM    1  O1  UNL     1      -3.082  -2.928  -1.131  1.00  0.00    -0.259 OA
HETATM    2  C1  UNL     1      -2.597  -1.978  -0.465  1.00  0.00     0.297 A 
HETATM    3  O2  UNL     1      -1.449  -1.983   0.309  1.00  0.00    -0.274 OA
HETATM    4  C2  UNL     1      -1.267  -0.719   0.884  1.00  0.00     0.214 A 
HETATM    5  C10 UNL     1      -2.410   0.095   0.403  1.00  0.00     0.021 A 
HETATM    6  C11 UNL     1      -2.678   1.431   0.699  1.00  0.00     0.013 A 
HETATM    7  C12 UNL     1      -3.813   1.969   0.125  1.00  0.00     0.001 A 
HETATM    8  C13 UNL     1      -4.642   1.238  -0.696  1.00  0.00     0.001 A 
HETATM    9  C14 UNL     1      -4.334  -0.077  -0.958  1.00  0.00     0.018 A 
HETATM   10  C15 UNL     1      -3.200  -0.663  -0.401  1.00  0.00     0.051 A 
ENDROOT
BRANCH   4  11
HETATM   11  O3  UNL     1      -1.219  -0.782   2.266  1.00  0.00    -0.360 OA
ATOM     12  H3  UNL     1      -1.096   0.075   2.656  1.00  0.00     0.213 HD
ENDBRANCH   4  11
BRANCH   4  13
HETATM   13  C3  UNL     1      -0.011  -0.085   0.311  1.00  0.00     0.220 C 
BRANCH  13  14
HETATM   14  S1  UNL     1       1.361  -1.142   0.697  1.00  0.00     0.180 S 
HETATM   15  O4  UNL     1       1.474  -1.229   2.191  1.00  0.00    -0.222 OA
HETATM   16  O5  UNL     1       1.137  -2.486   0.078  1.00  0.00    -0.222 OA
BRANCH  14  17
HETATM   17  C4  UNL     1       2.799  -0.376   0.017  1.00  0.00     0.059 A 
HETATM   18  C5  UNL     1       3.226  -0.634  -1.253  1.00  0.00     0.023 A 
HETATM   19  C6  UNL     1       4.360   0.006  -1.711  1.00  0.00     0.002 A 
HETATM   20  C7  UNL     1       5.035   0.886  -0.888  1.00  0.00     0.000 A 
HETATM   21  C8  UNL     1       4.582   1.125   0.382  1.00  0.00     0.002 A 
HETATM   22  C9  UNL     1       3.464   0.504   0.855  1.00  0.00     0.023 A 
ENDBRANCH  14  17
ENDBRANCH  13  14
ENDBRANCH   4  13
TORSDOF 4
