REMARK  4 active torsions:
REMARK  status: ('A' for Active; 'I' for Inactive)
REMARK    1  A    between atoms: C5_5  and  C6_6 
REMARK    2  A    between atoms: C7_7  and  C8_8 
REMARK    3  A    between atoms: N1_13  and  O2_14 
REMARK    4  A    between atoms: N4_21  and  O3_22 
ROOT
HETATM    1  C6  UNL     1      -0.537  -0.847  -0.434  1.00  0.00     0.106 A 
HETATM    2  C7  UNL     1      -1.587  -0.036  -0.043  1.00  0.00     0.128 A 
HETATM    3  N1  UNL     1      -2.835  -0.519  -0.263  1.00  0.00    -0.203 N 
HETATM    4  C12 UNL     1      -3.082  -1.708  -0.825  1.00  0.00     0.184 A 
HETATM    5  N2  UNL     1      -4.421  -2.144  -1.022  1.00  0.00    -0.077 NA
HETATM    6  C13 UNL     1      -1.989  -2.463  -1.190  1.00  0.00     0.186 A 
HETATM    7  C14 UNL     1      -2.220  -3.741  -1.794  1.00  0.00     0.123 C 
HETATM    8  N3  UNL     1      -2.412  -4.768  -2.258  1.00  0.00    -0.190 NA
HETATM    9  N4  UNL     1      -0.724  -2.053  -1.004  1.00  0.00    -0.208 N 
ENDROOT
BRANCH   9  10
HETATM   10  O3  UNL     1       0.339  -2.839  -1.384  1.00  0.00    -0.281 OA
ATOM     11  H3  UNL     1       0.207  -3.690  -1.786  1.00  0.00     0.245 HD
ENDBRANCH   9  10
BRANCH   3  12
HETATM   12  O2  UNL     1      -3.912   0.261   0.114  1.00  0.00    -0.281 OA
ATOM     13  H2  UNL     1      -4.786  -0.077  -0.040  1.00  0.00     0.245 HD
ENDBRANCH   3  12
BRANCH   1  14
HETATM   14  C5  UNL     1       0.811  -0.384  -0.223  1.00  0.00    -0.004 A 
HETATM   15  C4  UNL     1       1.674  -1.092   0.588  1.00  0.00     0.014 A 
HETATM   16  C3  UNL     1       2.969  -0.655   0.794  1.00  0.00     0.007 A 
HETATM   17  C2  UNL     1       3.444   0.509   0.195  1.00  0.00    -0.062 A 
HETATM   18  C1  UNL     1       4.839   0.980   0.418  1.00  0.00     0.048 C 
HETATM   19  C16 UNL     1       2.558   1.193  -0.609  1.00  0.00     0.007 A 
HETATM   20  C15 UNL     1       1.254   0.771  -0.830  1.00  0.00     0.014 A 
ENDBRANCH   1  14
BRANCH   2  21
HETATM   21  C8  UNL     1      -1.369   1.272   0.574  1.00  0.00     0.106 A 
HETATM   22  C9  UNL     1      -0.743   1.602   1.757  1.00  0.00     0.041 A 
HETATM   23  C10 UNL     1      -0.799   2.992   1.895  1.00  0.00     0.027 A 
HETATM   24  C11 UNL     1      -1.468   3.414   0.766  1.00  0.00     0.142 A 
HETATM   25  O1  UNL     1      -1.783   2.391   0.023  1.00  0.00    -0.320 OA
ENDBRANCH   2  21
TORSDOF 4
