REMARK  4 active torsions:
REMARK  status: ('A' for Active; 'I' for Inactive)
REMARK    1  A    between atoms: N1_1  and  S1_4 
REMARK    2  A    between atoms: S1_4  and  C1_7 
REMARK    3  A    between atoms: C4_10  and  N2_11 
REMARK    4  A    between atoms: C6_13  and  C7_14 
ROOT
HETATM    1  C1  UNL     1       4.019  -0.531   0.177  1.00  0.00     0.079 A 
HETATM    2  C2  UNL     1       3.063  -0.452   1.171  1.00  0.00     0.027 A 
HETATM    3  C3  UNL     1       1.744  -0.150   0.905  1.00  0.00     0.031 A 
HETATM    4  C4  UNL     1       1.317   0.089  -0.384  1.00  0.00     0.044 A 
HETATM    5  C14 UNL     1       2.262   0.014  -1.385  1.00  0.00     0.031 A 
HETATM    6  C15 UNL     1       3.581  -0.289  -1.112  1.00  0.00     0.027 A 
ENDROOT
BRANCH   4   7
HETATM    7  N2  UNL     1      -0.054   0.404  -0.670  1.00  0.00    -0.266 N 
HETATM    8  C5  UNL     1      -1.157  -0.071  -0.029  1.00  0.00     0.141 A 
HETATM    9  C6  UNL     1      -2.282   0.476  -0.609  1.00  0.00     0.107 A 
HETATM   10  O3  UNL     1      -1.854   1.248  -1.563  1.00  0.00    -0.259 OA
HETATM   11  C13 UNL     1      -0.544   1.221  -1.616  1.00  0.00     0.377 A 
HETATM   12  O4  UNL     1       0.129   1.877  -2.447  1.00  0.00    -0.237 OA
BRANCH   9  13
HETATM   13  C7  UNL     1      -3.667   0.211  -0.200  1.00  0.00    -0.001 A 
HETATM   14  C8  UNL     1      -4.672   0.850  -0.899  1.00  0.00     0.014 A 
HETATM   15  C9  UNL     1      -5.999   0.634  -0.553  1.00  0.00     0.001 A 
HETATM   16  C10 UNL     1      -6.270  -0.222   0.490  1.00  0.00     0.000 A 
HETATM   17  C11 UNL     1      -5.271  -0.863   1.192  1.00  0.00     0.001 A 
HETATM   18  C12 UNL     1      -3.958  -0.637   0.834  1.00  0.00     0.014 A 
ENDBRANCH   9  13
ENDBRANCH   4   7
BRANCH   1  19
HETATM   19  S1  UNL     1       5.691  -0.914   0.528  1.00  0.00     0.256 S 
HETATM   20  O1  UNL     1       5.823  -1.819   1.702  1.00  0.00    -0.201 OA
HETATM   21  O2  UNL     1       6.343  -1.608  -0.647  1.00  0.00    -0.201 OA
BRANCH  19  22
HETATM   22  N1  UNL     1       6.607   0.522   0.839  1.00  0.00    -0.324 N 
ATOM     23  H12 UNL     1       7.142   0.702   1.689  1.00  0.00     0.169 HD
ATOM     24  H11 UNL     1       6.517   1.142   0.034  1.00  0.00     0.169 HD
ENDBRANCH  19  22
ENDBRANCH   1  19
TORSDOF 4
