REMARK  5 active torsions:
REMARK  status: ('A' for Active; 'I' for Inactive)
REMARK    1  A    between atoms: C2_2  and  O1_3 
REMARK    2  A    between atoms: C2_2  and  C3_5 
REMARK    3  A    between atoms: C3_5  and  N1_6 
REMARK    4  A    between atoms: C6_11  and  C7_12 
REMARK    5  A    between atoms: N2_17  and  O2_18 
ROOT
HETATM    1  N1  UNL     1       1.555  -0.177  -0.667  1.00  0.00    -0.320 N 
HETATM    2  C4  UNL     1       1.816  -0.034  -2.044  1.00  0.00     0.147 C 
HETATM    3  S1  UNL     1       2.920  -0.664  -3.035  1.00  0.00    -0.052 SA
HETATM    4  S2  UNL     1       0.529   1.119  -2.595  1.00  0.00    -0.057 SA
HETATM    5  C5  UNL     1      -0.658   0.560  -1.314  1.00  0.00     0.048 C 
HETATM    6  C6  UNL     1      -1.956   0.615  -1.439  1.00  0.00     0.054 C 
HETATM    7  C12 UNL     1       0.248   0.136  -0.264  1.00  0.00     0.121 C 
HETATM    8  S3  UNL     1      -0.247   0.069   1.325  1.00  0.00    -0.059 SA
ENDROOT
BRANCH   6   9
HETATM    9  C7  UNL     1      -2.986   0.215  -0.531  1.00  0.00     0.063 A 
HETATM   10  C8  UNL     1      -3.041  -1.026   0.052  1.00  0.00     0.032 A 
HETATM   11  C9  UNL     1      -4.005  -1.399   0.950  1.00  0.00     0.004 A 
HETATM   12  C10 UNL     1      -4.998  -0.495   1.315  1.00  0.00     0.020 A 
HETATM   13  C11 UNL     1      -4.938   0.756   0.723  1.00  0.00     0.123 A 
HETATM   14  N2  UNL     1      -3.971   1.087  -0.160  1.00  0.00    -0.236 N 
BRANCH  14  15
HETATM   15  O2  UNL     1      -3.914   2.334  -0.746  1.00  0.00    -0.283 OA
ATOM     16  H2  UNL     1      -4.599   2.940  -0.488  1.00  0.00     0.245 HD
ENDBRANCH  14  15
ENDBRANCH   6   9
BRANCH   1  17
HETATM   17  C3  UNL     1       2.614  -0.616   0.264  1.00  0.00     0.163 C 
BRANCH  17  18
HETATM   18  C2  UNL     1       3.681   0.422   0.462  1.00  0.00     0.132 C 
HETATM   19  C1  UNL     1       4.665  -0.090   1.483  1.00  0.00     0.041 C 
BRANCH  18  20
HETATM   20  O1  UNL     1       4.372   0.769  -0.684  1.00  0.00    -0.394 OA
ATOM     21  H1  UNL     1       3.752   1.092  -1.327  1.00  0.00     0.210 HD
ENDBRANCH  18  20
ENDBRANCH  17  18
ENDBRANCH   1  17
TORSDOF 5
