REMARK  3 active torsions:
REMARK  status: ('A' for Active; 'I' for Inactive)
REMARK    1  A    between atoms: C4_7  and  N2_8 
REMARK    2  A    between atoms: C8_14  and  N3_15 
REMARK    3  A    between atoms: C9_17  and  C10_18 
ROOT
HETATM    1  O1  UNL     1      -0.884  -1.963  -2.819  1.00  0.00    -0.266 OA
HETATM    2  C1  UNL     1      -1.583  -1.391  -1.921  1.00  0.00     0.273 A 
HETATM    3  N1  UNL     1      -2.982  -1.389  -1.754  1.00  0.00    -0.321 N 
ATOM      4  H1  UNL     1      -3.657  -1.864  -2.354  1.00  0.00     0.169 HD
HETATM    5  C2  UNL     1      -3.263  -0.681  -0.710  1.00  0.00     0.050 A 
HETATM    6  C3  UNL     1      -4.479  -0.360  -0.110  1.00  0.00     0.066 A 
HETATM    7  C4  UNL     1      -4.552   0.418   1.011  1.00  0.00     0.105 A 
HETATM    8  C5  UNL     1      -3.406   0.911   1.583  1.00  0.00     0.037 A 
HETATM    9  C6  UNL     1      -2.208   0.608   1.009  1.00  0.00     0.018 A 
HETATM   10  C7  UNL     1      -2.111  -0.188  -0.139  1.00  0.00     0.023 A 
HETATM   11  C8  UNL     1      -1.053  -0.585  -0.829  1.00  0.00     0.113 A 
ENDROOT
BRANCH  11  12
HETATM   12  N3  UNL     1       0.270  -0.253  -0.510  1.00  0.00    -0.360 N 
HETATM   13  C9  UNL     1       1.293  -0.970  -0.734  1.00  0.00     0.100 C 
ATOM     14  H3  UNL     1       0.425   0.647  -0.056  1.00  0.00     0.165 HD
BRANCH  13  15
HETATM   15  C10 UNL     1       2.609  -0.461  -0.329  1.00  0.00    -0.021 A 
HETATM   16  C11 UNL     1       2.745   0.769   0.282  1.00  0.00     0.014 A 
HETATM   17  C12 UNL     1       3.976   1.259   0.667  1.00  0.00     0.020 A 
HETATM   18  C13 UNL     1       5.127   0.530   0.453  1.00  0.00     0.011 A 
HETATM   19  S1  UNL     1       6.746   1.108   0.927  1.00  0.00    -0.053 SA
HETATM   20  C14 UNL     1       4.981  -0.695  -0.158  1.00  0.00     0.020 A 
HETATM   21  C15 UNL     1       3.762  -1.201  -0.549  1.00  0.00     0.014 A 
ENDBRANCH  13  15
ENDBRANCH  11  12
BRANCH   7  22
HETATM   22  N2  UNL     1      -5.827   0.728   1.603  1.00  0.00    -0.116 N 
HETATM   23  O2  UNL     1      -5.892   1.430   2.614  1.00  0.00    -0.532 OA
HETATM   24  O3  UNL     1      -6.968   0.237   1.033  1.00  0.00    -0.532 OA
ENDBRANCH   7  22
TORSDOF 3
