REMARK  12 active torsions:
REMARK  status: ('A' for Active; 'I' for Inactive)
REMARK    1  A    between atoms: C2_2  and  N1_3 
REMARK    2  A    between atoms: C9_11  and  O1_12 
REMARK    3  A    between atoms: N3_14  and  C10_15 
REMARK    4  A    between atoms: C14_20  and  C15_21 
REMARK    5  A    between atoms: C15_21  and  C16_23 
REMARK    6  A    between atoms: C17_24  and  C18_25 
REMARK    7  A    between atoms: C19_26  and  O4_27 
REMARK    8  A    between atoms: C22_32  and  C23_33 
REMARK    9  A    between atoms: C23_33  and  C24_34 
REMARK   10  A    between atoms: C25_35  and  C27_37 
REMARK   11  A    between atoms: C27_37  and  C28_38 
REMARK   12  A    between atoms: C28_38  and  C29_39 
ROOT
HETATM    1  C15 UNL     1      -2.305   0.048   3.290  1.00  0.00     0.172 C 
HETATM    2  O3  UNL     1      -3.027   0.447   4.275  1.00  0.00    -0.289 OA
ENDROOT
BRANCH   1   3
HETATM    3  C14 UNL     1      -2.668   0.398   1.964  1.00  0.00     0.072 C 
HETATM    4  C13 UNL     1      -3.637   1.153   1.498  1.00  0.00     0.050 A 
HETATM    5  C7  UNL     1      -3.791   1.320   0.074  1.00  0.00     0.031 A 
HETATM    6  C12 UNL     1      -4.398   1.976   2.329  1.00  0.00     0.261 A 
HETATM    7  C6  UNL     1      -3.469   0.346  -0.738  1.00  0.00     0.020 C 
HETATM    8  C8  UNL     1      -4.678   2.312  -0.279  1.00  0.00     0.110 A 
HETATM    9  N1  UNL     1      -4.050   0.188  -2.070  1.00  0.00    -0.384 N 
HETATM   10  C5  UNL     1      -2.451  -0.735  -0.783  1.00  0.00     0.059 C 
HETATM   11  C3  UNL     1      -2.909  -0.046  -2.998  1.00  0.00     0.123 C 
HETATM   12  C4  UNL     1      -2.425  -1.277  -2.220  1.00  0.00     0.026 C 
HETATM   13  N2  UNL     1      -4.648   2.763  -1.669  1.00  0.00    -0.097 NA
HETATM   14  C9  UNL     1      -5.409   3.102   0.577  1.00  0.00     0.171 A 
HETATM   15  N3  UNL     1      -5.257   2.917   1.868  1.00  0.00    -0.293 N 
HETATM   16  O2  UNL     1      -4.320   1.881   3.577  1.00  0.00    -0.267 OA
BRANCH   9  17
HETATM   17  C2  UNL     1      -5.409   0.099  -2.531  1.00  0.00     0.118 C 
HETATM   18  C1  UNL     1      -5.773  -1.363  -2.952  1.00  0.00     0.026 C 
ENDBRANCH   9  17
BRANCH  14  19
HETATM   19  O1  UNL     1      -6.280   4.064   0.060  1.00  0.00    -0.344 OA
ATOM     20  H1  UNL     1      -6.785   4.610   0.651  1.00  0.00     0.219 HD
ENDBRANCH  14  19
BRANCH  15  21
HETATM   21  C10 UNL     1      -5.989   3.697   2.841  1.00  0.00     0.130 C 
HETATM   22  C11 UNL     1      -7.297   3.100   3.236  1.00  0.00     0.027 C 
ENDBRANCH  15  21
ENDBRANCH   1   3
BRANCH   1  23
HETATM   23  C16 UNL     1      -1.197  -0.715   3.730  1.00  0.00     0.051 C 
HETATM   24  C17 UNL     1      -0.204  -1.296   3.242  1.00  0.00    -0.015 C 
BRANCH  24  25
HETATM   25  C18 UNL     1       0.405  -1.534   1.922  1.00  0.00     0.049 C 
HETATM   26  C19 UNL     1       0.607  -3.031   1.773  1.00  0.00     0.133 C 
HETATM   27  C20 UNL     1       2.043  -3.278   1.460  1.00  0.00     0.111 C 
HETATM   28  C21 UNL     1       2.715  -2.083   2.068  1.00  0.00     0.134 C 
HETATM   29  O5  UNL     1       3.788  -2.080   2.608  1.00  0.00    -0.297 OA
HETATM   30  C22 UNL     1       1.808  -0.962   1.866  1.00  0.00     0.069 C 
BRANCH  26  31
HETATM   31  O4  UNL     1      -0.237  -3.573   0.797  1.00  0.00    -0.394 OA
ATOM     32  H4  UNL     1      -0.111  -4.510   0.704  1.00  0.00     0.210 HD
ENDBRANCH  26  31
BRANCH  30  33
HETATM   33  C23 UNL     1       2.029  -0.374   0.492  1.00  0.00     0.040 C 
BRANCH  33  34
HETATM   34  C24 UNL     1       3.392   0.216   0.335  1.00  0.00    -0.024 C 
HETATM   35  C25 UNL     1       4.238  -0.171  -0.590  1.00  0.00    -0.087 C 
HETATM   36  C26 UNL     1       3.895  -1.252  -1.576  1.00  0.00     0.043 C 
BRANCH  35  37
HETATM   37  C27 UNL     1       5.579   0.456  -0.690  1.00  0.00     0.037 C 
BRANCH  37  38
HETATM   38  C28 UNL     1       6.703  -0.553  -0.524  1.00  0.00     0.031 C 
BRANCH  38  39
HETATM   39  C29 UNL     1       8.004   0.143  -0.634  1.00  0.00    -0.024 C 
HETATM   40  C30 UNL     1       8.862  -0.168  -1.575  1.00  0.00    -0.091 C 
HETATM   41  C31 UNL     1       8.527  -1.234  -2.549  1.00  0.00     0.042 C 
HETATM   42  C32 UNL     1      10.168   0.534  -1.683  1.00  0.00     0.042 C 
ENDBRANCH  38  39
ENDBRANCH  37  38
ENDBRANCH  35  37
ENDBRANCH  33  34
ENDBRANCH  30  33
ENDBRANCH  24  25
ENDBRANCH   1  23
TORSDOF 12
