REMARK  12 active torsions:
REMARK  status: ('A' for Active; 'I' for Inactive)
REMARK    1  A    between atoms: C5_6  and  C6_7 
REMARK       I    between atoms: C6_7  and  N1_9 
REMARK    2  A    between atoms: N1_9  and  C7_11 
REMARK    3  A    between atoms: C7_11  and  C8_12 
REMARK    4  A    between atoms: C8_12  and  C9_13 
REMARK    5  A    between atoms: C9_13  and  N2_14 
REMARK    6  A    between atoms: N2_14  and  C10_16 
REMARK    7  A    between atoms: C11_19  and  N4_20 
REMARK    8  A    between atoms: C16_27  and  N6_28 
REMARK    9  A    between atoms: C20_32  and  C21_33 
REMARK       I    between atoms: C21_33  and  N7_35 
REMARK   10  A    between atoms: N7_35  and  C22_37 
REMARK   11  A    between atoms: C22_37  and  C23_38 
REMARK   12  A    between atoms: C23_38  and  C24_39 
ROOT
HETATM    1  C10 UNL     1      -2.276   1.450  -0.037  1.00  0.00     0.707 A 
HETATM    2  N3  UNL     1      -2.564   2.596  -0.709  1.00  0.00    -0.021 N 
ATOM      3  H3  UNL     1      -3.513   2.773  -1.040  1.00  0.00     0.203 HD
HETATM    4  C11 UNL     1      -1.584   3.501  -0.936  1.00  0.00     0.709 A 
HETATM    5  N5  UNL     1      -0.346   3.229  -0.483  1.00  0.00    -0.021 N 
ATOM      6  H5  UNL     1       0.391   3.912  -0.657  1.00  0.00     0.203 HD
HETATM    7  C16 UNL     1      -0.026   2.103   0.188  1.00  0.00     0.709 A 
HETATM    8  N8  UNL     1      -1.029   1.217   0.399  1.00  0.00    -0.021 N 
ATOM      9  H8  UNL     1      -0.831   0.352   0.902  1.00  0.00     0.203 HD
ENDROOT
BRANCH   7  10
HETATM   10  N6  UNL     1       1.314   1.904   0.627  1.00  0.00    -0.216 N 
HETATM   11  C17 UNL     1       1.708   2.625   1.811  1.00  0.00     0.141 C 
HETATM   12  C18 UNL     1       2.659   1.849   2.657  1.00  0.00     0.021 C 
HETATM   13  C19 UNL     1       2.465   0.378   2.363  1.00  0.00     0.017 C 
HETATM   14  C20 UNL     1       2.837   0.051   0.930  1.00  0.00     0.096 C 
HETATM   15  C29 UNL     1       2.264   1.042  -0.038  1.00  0.00     0.155 C 
BRANCH  14  16
HETATM   16  C21 UNL     1       4.336   0.035   0.780  1.00  0.00     0.223 C 
HETATM   17  O3  UNL     1       4.906   0.739  -0.079  1.00  0.00    -0.273 OA
HETATM   18  N7  UNL     1       5.104  -0.791   1.630  1.00  0.00    -0.361 N 
ATOM     19  H7  UNL     1       4.630  -1.358   2.333  1.00  0.00     0.162 HD
BRANCH  18  20
HETATM   20  C22 UNL     1       6.520  -0.853   1.531  1.00  0.00     0.123 C 
BRANCH  20  21
HETATM   21  C23 UNL     1       7.086  -1.339   0.245  1.00  0.00     0.024 C 
BRANCH  21  22
HETATM   22  C24 UNL     1       6.644  -2.741  -0.104  1.00  0.00    -0.013 C 
HETATM   23  C25 UNL     1       7.056  -3.740   0.959  1.00  0.00     0.005 C 
HETATM   24  C26 UNL     1       8.554  -3.738   0.847  1.00  0.00     0.000 C 
HETATM   25  C27 UNL     1       8.866  -3.414  -0.605  1.00  0.00     0.000 C 
HETATM   26  C28 UNL     1       7.524  -3.163  -1.284  1.00  0.00     0.005 C 
ENDBRANCH  21  22
ENDBRANCH  20  21
ENDBRANCH  18  20
ENDBRANCH  14  16
ENDBRANCH   7  10
BRANCH   4  27
HETATM   27  N4  UNL     1      -1.864   4.708  -1.618  1.00  0.00    -0.217 N 
HETATM   28  C12 UNL     1      -1.772   4.903  -3.039  1.00  0.00     0.141 C 
HETATM   29  C13 UNL     1      -2.019   6.376  -3.286  1.00  0.00     0.022 C 
HETATM   30  C14 UNL     1      -2.438   6.976  -1.979  1.00  0.00     0.022 C 
HETATM   31  C15 UNL     1      -2.287   5.918  -0.938  1.00  0.00     0.141 C 
ENDBRANCH   4  27
BRANCH   1  32
HETATM   32  N2  UNL     1      -3.240   0.578   0.176  1.00  0.00    -0.225 N 
ATOM     33  H2  UNL     1      -3.052  -0.290   0.678  1.00  0.00     0.177 HD
BRANCH  32  34
HETATM   34  C9  UNL     1      -4.574   0.871  -0.314  1.00  0.00     0.139 C 
BRANCH  34  35
HETATM   35  C8  UNL     1      -5.513  -0.227   0.123  1.00  0.00     0.040 C 
BRANCH  35  36
HETATM   36  C7  UNL     1      -5.018  -1.527  -0.452  1.00  0.00     0.124 C 
BRANCH  36  37
HETATM   37  N1  UNL     1      -5.945  -2.591  -0.100  1.00  0.00    -0.357 N 
HETATM   38  C6  UNL     1      -7.253  -2.556  -0.602  1.00  0.00     0.254 C 
HETATM   39  O2  UNL     1      -7.575  -1.583  -1.372  1.00  0.00    -0.268 OA
ATOM     40  H1  UNL     1      -5.646  -3.355   0.506  1.00  0.00     0.162 HD
BRANCH  38  41
HETATM   41  C5  UNL     1      -8.286  -3.535  -0.326  1.00  0.00     0.063 A 
HETATM   42  C2  UNL     1      -8.308  -4.620   0.511  1.00  0.00     0.064 A 
HETATM   43  C1  UNL     1      -7.219  -5.076   1.394  1.00  0.00     0.077 C 
HETATM   44  O1  UNL     1      -9.467  -5.206   0.408  1.00  0.00    -0.326 OA
HETATM   45  C3  UNL     1     -10.229  -4.590  -0.442  1.00  0.00     0.143 A 
HETATM   46  C4  UNL     1      -9.539  -3.519  -0.944  1.00  0.00     0.044 A 
ENDBRANCH  38  41
ENDBRANCH  36  37
ENDBRANCH  35  36
ENDBRANCH  34  35
ENDBRANCH  32  34
ENDBRANCH   1  32
TORSDOF 12
