REMARK  10 active torsions:
REMARK  status: ('A' for Active; 'I' for Inactive)
REMARK    1  A    between atoms: C2_2  and  O1_3 
REMARK    2  A    between atoms: C2_2  and  C4_7 
REMARK    3  A    between atoms: C4_7  and  O2_8 
REMARK    4  A    between atoms: C4_7  and  C5_10 
REMARK    5  A    between atoms: C5_10  and  N2_11 
REMARK    6  A    between atoms: C6_14  and  N4_15 
REMARK    7  A    between atoms: N4_15  and  C7_17 
REMARK    8  A    between atoms: C8_21  and  C9_22 
REMARK    9  A    between atoms: C10_27  and  C11_28 
REMARK   10  A    between atoms: C14_36  and  N12_37 
ROOT
HETATM    1  C1  UNL     1      -7.157   0.216   0.839  1.00  0.00     0.065 C 
HETATM    2  C2  UNL     1      -6.796  -0.501  -0.427  1.00  0.00     0.169 C 
HETATM    3  C3  UNL     1      -6.976   0.360  -1.596  1.00  0.00     0.100 C 
HETATM    4  N1  UNL     1      -7.136   1.044  -2.517  1.00  0.00    -0.194 NA
ENDROOT
BRANCH   2   5
HETATM    5  O1  UNL     1      -7.547  -1.675  -0.583  1.00  0.00    -0.373 OA
ATOM      6  H1  UNL     1      -7.318  -2.129  -1.385  1.00  0.00     0.212 HD
ENDBRANCH   2   5
BRANCH   2   7
HETATM    7  C4  UNL     1      -5.310  -0.851  -0.350  1.00  0.00     0.187 C 
BRANCH   7   8
HETATM    8  O2  UNL     1      -4.865  -1.492  -1.481  1.00  0.00    -0.390 OA
ATOM      9  H2  UNL     1      -3.941  -1.710  -1.433  1.00  0.00     0.210 HD
ENDBRANCH   7   8
BRANCH   7  10
HETATM   10  C5  UNL     1      -4.558   0.413  -0.072  1.00  0.00     0.204 C 
BRANCH  10  11
HETATM   11  N2  UNL     1      -3.142   0.219   0.025  1.00  0.00    -0.107 N 
HETATM   12  N3  UNL     1      -2.400  -0.066   1.099  1.00  0.00    -0.115 N 
HETATM   13  C6  UNL     1      -1.122  -0.169   0.776  1.00  0.00     0.709 A 
ATOM     14  H3  UNL     1      -2.770  -0.188   2.042  1.00  0.00     0.206 HD
HETATM   15  N11 UNL     1      -1.027   0.055  -0.543  1.00  0.00    -0.020 N 
HETATM   16  C14 UNL     1      -2.276   0.292  -0.991  1.00  0.00     0.707 A 
ATOM     17  H11 UNL     1      -0.173   0.047  -1.100  1.00  0.00     0.203 HD
BRANCH  13  18
HETATM   18  N4  UNL     1      -0.011  -0.456   1.606  1.00  0.00    -0.196 N 
ATOM     19  H4  UNL     1      -0.175  -0.613   2.600  1.00  0.00     0.180 HD
BRANCH  18  20
HETATM   20  C7  UNL     1       1.329  -0.536   1.116  1.00  0.00     0.272 C 
HETATM   21  N5  UNL     1       1.777   0.727   0.502  1.00  0.00    -0.110 NA
HETATM   22  N6  UNL     1       3.119   0.629   0.279  1.00  0.00    -0.132 NA
HETATM   23  N7  UNL     1       3.862   1.785   0.366  1.00  0.00    -0.113 NA
HETATM   24  C12 UNL     1       3.506  -0.041  -0.955  1.00  0.00     0.159 C 
HETATM   25  C8  UNL     1       5.261   1.453   0.426  1.00  0.00     0.282 C 
HETATM   26  N9  UNL     1       5.597   0.110   0.050  1.00  0.00    -0.361 N 
HETATM   27  C10 UNL     1       4.786  -0.689  -0.633  1.00  0.00     0.094 C 
ATOM     28  H9  UNL     1       6.511  -0.252   0.323  1.00  0.00     0.161 HD
HETATM   29  C13 UNL     1       2.434  -0.858  -1.541  1.00  0.00     0.106 C 
HETATM   30  S1  UNL     1       1.475  -1.757  -0.257  1.00  0.00    -0.123 SA
BRANCH  25  31
HETATM   31  C9  UNL     1       6.028   2.444  -0.378  1.00  0.00     0.271 C 
HETATM   32  N8  UNL     1       7.434   2.291  -0.447  1.00  0.00    -0.059 NA
HETATM   33  O3  UNL     1       5.497   3.396  -0.991  1.00  0.00    -0.273 OA
ENDBRANCH  25  31
BRANCH  27  34
HETATM   34  C11 UNL     1       5.235  -2.006  -0.947  1.00  0.00     0.278 C 
HETATM   35  N10 UNL     1       6.520  -2.449  -0.540  1.00  0.00    -0.056 NA
HETATM   36  O4  UNL     1       4.525  -2.802  -1.580  1.00  0.00    -0.270 OA
ENDBRANCH  27  34
ENDBRANCH  18  20
ENDBRANCH  13  18
BRANCH  16  37
HETATM   37  N12 UNL     1      -2.495   0.545  -2.252  1.00  0.00    -0.233 N 
ATOM     38 2H12 UNL     1      -3.440   0.724  -2.591  1.00  0.00     0.174 HD
ATOM     39 1H12 UNL     1      -1.834   0.601  -3.027  1.00  0.00     0.174 HD
ENDBRANCH  16  37
ENDBRANCH  10  11
ENDBRANCH   7  10
ENDBRANCH   2   7
TORSDOF 10
