REMARK  13 active torsions:
REMARK  status: ('A' for Active; 'I' for Inactive)
REMARK    1  A    between atoms: C3_3  and  C4_4 
REMARK    2  A    between atoms: C4_4  and  O1_5 
REMARK    3  A    between atoms: C5_7  and  O2_8 
REMARK    4  A    between atoms: C6_10  and  O3_11 
REMARK    5  A    between atoms: O3_11  and  C7_12 
REMARK    6  A    between atoms: C8_14  and  C9_15 
REMARK    7  A    between atoms: C9_15  and  N1_16 
REMARK    8  A    between atoms: C10_20  and  O5_21 
REMARK    9  A    between atoms: C11_23  and  S1_24 
REMARK   10  A    between atoms: C12_27  and  N2_28 
REMARK   11  A    between atoms: C13_32  and  O7_33 
REMARK   12  A    between atoms: C14_35  and  N3_36 
REMARK   13  A    between atoms: N3_36  and  C15_38 
ROOT
HETATM    1  C1  UNL     1       4.482  -3.965  -1.224  1.00  0.00     0.112 C 
HETATM    2  C2  UNL     1       3.803  -2.909  -0.481  1.00  0.00    -0.108 C 
HETATM    3  C3  UNL     1       3.236  -2.026   0.116  1.00  0.00    -0.064 C 
ENDROOT
BRANCH   3   4
HETATM    4  C4  UNL     1       2.514  -0.949   0.841  1.00  0.00     0.171 C 
HETATM    5  C5  UNL     1       1.104  -1.025   0.444  1.00  0.00     0.198 C 
HETATM    6  C6  UNL     1       0.354   0.244   0.227  1.00  0.00     0.192 C 
HETATM    7  C12 UNL     1       1.237   1.232  -0.507  1.00  0.00     0.245 C 
HETATM    8  C13 UNL     1       2.348   1.540   0.499  1.00  0.00     0.177 C 
HETATM    9  C14 UNL     1       3.219   0.361   0.701  1.00  0.00     0.158 C 
BRANCH   4  10
HETATM   10  O1  UNL     1       2.615  -1.325   2.196  1.00  0.00    -0.373 OA
ATOM     11  H1  UNL     1       2.153  -0.636   2.660  1.00  0.00     0.212 HD
ENDBRANCH   4  10
BRANCH   5  12
HETATM   12  O2  UNL     1       0.942  -1.776  -0.751  1.00  0.00    -0.389 OA
ATOM     13  H2  UNL     1       0.029  -1.825  -1.008  1.00  0.00     0.210 HD
ENDBRANCH   5  12
BRANCH   6  14
HETATM   14  O3  UNL     1      -0.785   0.043  -0.545  1.00  0.00    -0.329 OA
BRANCH  14  15
HETATM   15  C7  UNL     1      -1.965   0.383   0.103  1.00  0.00     0.415 C 
HETATM   16  O4  UNL     1      -2.732  -0.773   0.181  1.00  0.00    -0.329 OA
HETATM   17  C8  UNL     1      -4.036  -0.642  -0.214  1.00  0.00     0.184 C 
HETATM   18  C10 UNL     1      -4.722   0.589   0.348  1.00  0.00     0.188 C 
HETATM   19  C11 UNL     1      -3.723   1.728   0.329  1.00  0.00     0.231 C 
HETATM   20  O6  UNL     1      -2.699   1.355  -0.571  1.00  0.00    -0.319 OA
BRANCH  17  21
HETATM   21  C9  UNL     1      -4.759  -1.907   0.225  1.00  0.00     0.264 C 
BRANCH  21  22
HETATM   22  N1  UNL     1      -6.148  -1.825  -0.169  1.00  0.00    -0.077 N 
ATOM     23  H13 UNL     1      -6.600  -0.980   0.181  1.00  0.00     0.274 HD
ATOM     24  H12 UNL     1      -6.257  -1.644  -1.167  1.00  0.00     0.274 HD
ATOM     25  H11 UNL     1      -6.633  -2.673   0.125  1.00  0.00     0.274 HD
ENDBRANCH  21  22
ENDBRANCH  17  21
BRANCH  18  26
HETATM   26  O5  UNL     1      -5.188   0.357   1.641  1.00  0.00    -0.389 OA
ATOM     27  H5  UNL     1      -5.618   1.128   1.993  1.00  0.00     0.210 HD
ENDBRANCH  18  26
BRANCH  19  28
HETATM   28  S1  UNL     1      -4.460   3.281  -0.181  1.00  0.00    -0.050 SA
HETATM   29  S2  UNL     1      -5.086   3.226  -2.191  1.00  0.00    -0.011 SA
ENDBRANCH  19  28
ENDBRANCH  14  15
ENDBRANCH   6  14
BRANCH   7  30
HETATM   30  N2  UNL     1       0.458   2.431  -0.725  1.00  0.00    -0.070 N 
ATOM     31  H23 UNL     1      -0.423   2.251  -1.206  1.00  0.00     0.274 HD
ATOM     32  H22 UNL     1       0.064   2.812   0.136  1.00  0.00     0.274 HD
ATOM     33  H21 UNL     1       1.053   3.096  -1.219  1.00  0.00     0.274 HD
ENDBRANCH   7  30
BRANCH   8  34
HETATM   34  O7  UNL     1       1.652   1.813   1.702  1.00  0.00    -0.391 OA
ATOM     35  H7  UNL     1       2.342   2.004   2.327  1.00  0.00     0.210 HD
ENDBRANCH   8  34
BRANCH   9  36
HETATM   36  N3  UNL     1       4.220   0.200  -0.331  1.00  0.00    -0.399 N 
ATOM     37  H3  UNL     1       4.446  -0.713  -0.724  1.00  0.00     0.154 HD
BRANCH  36  38
HETATM   38  C15 UNL     1       4.869   1.385  -0.765  1.00  0.00     0.239 C 
HETATM   39  C16 UNL     1       5.725   2.000   0.234  1.00  0.00     0.078 C 
HETATM   40  N4  UNL     1       6.390   2.498   1.037  1.00  0.00    -0.196 NA
ENDBRANCH  36  38
ENDBRANCH   9  36
ENDBRANCH   3   4
TORSDOF 13
