REMARK  11 active torsions:
REMARK  status: ('A' for Active; 'I' for Inactive)
REMARK    1  A    between atoms: N1_1  and  C1_4 
REMARK    2  A    between atoms: C2_7  and  N3_8 
REMARK    3  A    between atoms: N5_15  and  C5_16 
REMARK    4  A    between atoms: C5_16  and  C6_17 
REMARK    5  A    between atoms: C6_17  and  S1_18 
REMARK    6  A    between atoms: S1_18  and  C7_19 
REMARK    7  A    between atoms: C7_19  and  C8_20 
REMARK    8  A    between atoms: C8_20  and  O1_21 
REMARK    9  A    between atoms: C10_27  and  N8_28 
REMARK   10  A    between atoms: N11_37  and  N12_39 
REMARK   11  A    between atoms: N12_39  and  O3_41 
ROOT
HETATM    1  C1  UNL     1       0.136  -4.149  -0.497  1.00  0.00     0.679 A 
HETATM    2  N2  UNL     1      -1.093  -4.074   0.039  1.00  0.00    -0.175 N 
ATOM      3  H2  UNL     1      -1.579  -4.939   0.277  1.00  0.00     0.186 HD
HETATM    4  C2  UNL     1      -1.714  -2.888   0.276  1.00  0.00     0.146 A 
HETATM    5  C3  UNL     1      -1.012  -1.760  -0.060  1.00  0.00     0.149 A 
HETATM    6  C4  UNL     1       0.277  -1.862  -0.623  1.00  0.00     0.171 A 
HETATM    7  N4  UNL     1       0.839  -3.056  -0.836  1.00  0.00    -0.174 N 
ATOM      8  H4  UNL     1       1.771  -3.134  -1.243  1.00  0.00     0.186 HD
HETATM    9  N5  UNL     1       0.703  -0.600  -0.849  1.00  0.00    -0.162 N 
HETATM   10  C9  UNL     1      -0.247   0.243  -0.456  1.00  0.00     0.713 A 
HETATM   11  N6  UNL     1      -0.183   1.604  -0.553  1.00  0.00    -0.094 N 
ATOM     12  H6  UNL     1       0.732   2.037  -0.429  1.00  0.00     0.208 HD
HETATM   13  N7  UNL     1      -1.221   2.423  -0.798  1.00  0.00     0.007 N 
HETATM   14  C10 UNL     1      -1.090   3.603  -1.428  1.00  0.00     0.717 A 
HETATM   15  N9  UNL     1      -2.303   4.168  -1.514  1.00  0.00    -0.137 N 
ATOM     16  H9  UNL     1      -2.534   5.066  -1.938  1.00  0.00     0.189 HD
HETATM   17  C11 UNL     1      -3.160   3.300  -0.921  1.00  0.00     0.364 A 
HETATM   18  O2  UNL     1      -4.414   3.442  -0.781  1.00  0.00    -0.244 OA
HETATM   19  N10 UNL     1      -2.489   2.231  -0.484  1.00  0.00    -0.144 N 
HETATM   20  C12 UNL     1      -3.063   1.166   0.163  1.00  0.00     0.220 C 
HETATM   21  N11 UNL     1      -4.293   1.246   0.417  1.00  0.00    -0.260 N 
ATOM     22  H11 UNL     1      -4.749   2.106   0.113  1.00  0.00     0.190 HD
HETATM   23  C13 UNL     1      -2.433   0.011   0.579  1.00  0.00     0.314 C 
HETATM   24  O4  UNL     1      -2.959  -0.593   1.521  1.00  0.00    -0.263 OA
HETATM   25  N13 UNL     1      -1.306  -0.477   0.035  1.00  0.00    -0.099 N 
ENDROOT
BRANCH   9  26
HETATM   26  C5  UNL     1       1.991  -0.278  -1.441  1.00  0.00     0.159 C 
BRANCH  26  27
HETATM   27  C6  UNL     1       3.033  -0.180  -0.371  1.00  0.00     0.094 C 
BRANCH  27  28
HETATM   28  S1  UNL     1       2.677   1.094   0.863  1.00  0.00    -0.165 SA
BRANCH  28  29
HETATM   29  C7  UNL     1       4.036   1.058   2.074  1.00  0.00     0.100 C 
BRANCH  29  30
HETATM   30  C8  UNL     1       5.310   1.502   1.359  1.00  0.00     0.174 C 
BRANCH  30  31
HETATM   31  O1  UNL     1       6.374   1.481   2.279  1.00  0.00    -0.400 OA
ATOM     32  H1  UNL     1       7.167   1.757   1.834  1.00  0.00     0.209 HD
ENDBRANCH  30  31
ENDBRANCH  29  30
ENDBRANCH  28  29
ENDBRANCH  27  28
ENDBRANCH  26  27
ENDBRANCH   9  26
BRANCH   4  33
HETATM   33  N3  UNL     1      -2.892  -2.951   0.747  1.00  0.00    -0.383 N 
ATOM     34  H32 UNL     1      -3.414  -3.791   0.997  1.00  0.00     0.157 HD
ATOM     35  H31 UNL     1      -3.358  -2.061   0.925  1.00  0.00     0.157 HD
ENDBRANCH   4  33
BRANCH   1  36
HETATM   36  N1  UNL     1       0.717  -5.283  -0.716  1.00  0.00    -0.234 N 
ATOM     37  H12 UNL     1       0.183  -6.113  -0.459  1.00  0.00     0.174 HD
ATOM     38  H11 UNL     1       1.650  -5.340  -1.123  1.00  0.00     0.174 HD
ENDBRANCH   1  36
BRANCH  14  39
HETATM   39  N8  UNL     1      -0.008   4.153  -1.895  1.00  0.00    -0.231 N 
ATOM     40  H82 UNL     1       0.915   3.723  -1.830  1.00  0.00     0.174 HD
ATOM     41  H81 UNL     1       0.091   5.049  -2.373  1.00  0.00     0.174 HD
ENDBRANCH  14  39
BRANCH  21  42
HETATM   42  N12 UNL     1      -5.105   0.339   1.045  1.00  0.00    -0.208 N 
ATOM     43  H12 UNL     1      -5.156   0.330   2.064  1.00  0.00     0.215 HD
BRANCH  42  44
HETATM   44  O3  UNL     1      -5.848  -0.555   0.324  1.00  0.00    -0.274 OA
ATOM     45  H3  UNL     1      -6.411  -1.184   0.760  1.00  0.00     0.246 HD
ENDBRANCH  42  44
ENDBRANCH  21  42
TORSDOF 11
