REMARK  2 active torsions:
REMARK  status: ('A' for Active; 'I' for Inactive)
REMARK    1  A    between atoms: N1_4  and  N2_6 
REMARK    2  A    between atoms: N2_6  and  C4_8 
ROOT
HETATM    1  C1  UNL     1      -1.778   1.541  -0.532  1.00  0.00     0.064 C 
HETATM    2  C2  UNL     1      -0.977   0.316  -0.409  1.00  0.00    -0.004 C 
HETATM    3  C3  UNL     1      -1.549  -0.857   0.302  1.00  0.00     0.064 C 
HETATM    4  N1  UNL     1       0.202   0.245  -0.904  1.00  0.00    -0.308 N 
ATOM      5  H1  UNL     1       0.571   1.064  -1.388  1.00  0.00     0.186 HD
ENDROOT
BRANCH   4   6
HETATM    6  N2  UNL     1       1.009  -0.888  -0.819  1.00  0.00    -0.279 N 
ATOM      7  H2  UNL     1       0.721  -1.765  -1.252  1.00  0.00     0.189 HD
BRANCH   6   8
HETATM    8  C4  UNL     1       2.234  -0.798  -0.121  1.00  0.00     0.199 C 
HETATM    9  N3  UNL     1       2.594   0.446   0.467  1.00  0.00    -0.068 NA
HETATM   10  S1  UNL     1       3.196  -2.114  -0.009  1.00  0.00    -0.043 SA
ENDBRANCH   6   8
ENDBRANCH   4   6
TORSDOF 2
