REMARK  1 active torsions:
REMARK  status: ('A' for Active; 'I' for Inactive)
REMARK    1  A    between atoms: N2_4  and  C2_6 
ROOT
HETATM    1  C2  UNL     1      -0.317   0.884  -0.795  1.00  0.00     0.156 A 
HETATM    2  N3  UNL     1      -0.320   2.223  -0.638  1.00  0.00    -0.267 N 
ATOM      3  H3  UNL     1       0.066   2.901  -1.296  1.00  0.00     0.186 HD
HETATM    4  N4  UNL     1      -0.907   2.510   0.512  1.00  0.00    -0.021 NA
HETATM    5  N5  UNL     1      -1.299   1.412   1.134  1.00  0.00    -0.285 N 
ATOM      6  H5  UNL     1      -1.775   1.350   2.034  1.00  0.00     0.184 HD
HETATM    7  C3  UNL     1      -0.940   0.392   0.333  1.00  0.00     0.066 A 
HETATM    8  C4  UNL     1      -1.167  -1.053   0.601  1.00  0.00     0.073 C 
ENDROOT
BRANCH   1   9
HETATM    9  N2  UNL     1       0.218   0.161  -1.897  1.00  0.00    -0.288 N 
HETATM   10  N1  UNL     1       1.248  -0.539  -1.817  1.00  0.00    -0.339 N 
HETATM   11  C1  UNL     1       2.038  -0.719  -0.618  1.00  0.00     0.167 C 
ATOM     12  H1  UNL     1       1.557  -1.021  -2.661  1.00  0.00     0.179 HD
ATOM     13  H2  UNL     1      -0.263   0.217  -2.795  1.00  0.00     0.188 HD
ENDBRANCH   1   9
TORSDOF 1
