REMARK  2 active torsions:
REMARK  status: ('A' for Active; 'I' for Inactive)
REMARK    1  A    between atoms: C2_2  and  O1_3 
REMARK    2  A    between atoms: O1_3  and  C3_4 
REMARK       I    between atoms: C3_4  and  N1_6 
REMARK       I    between atoms: N1_6  and  C5_8 
ROOT
HETATM    1  C3  UNL     1       0.030   0.014   0.766  1.00  0.00     0.368 C 
HETATM    2  O2  UNL     1       0.543   0.339   1.863  1.00  0.00    -0.238 OA
HETATM    3  N1  UNL     1      -1.307   0.329   0.440  1.00  0.00    -0.272 N 
HETATM    4  C4  UNL     1      -2.114   1.048   1.399  1.00  0.00     0.164 C 
HETATM    5  C5  UNL     1      -1.862  -0.046  -0.799  1.00  0.00     0.192 C 
HETATM    6  N2  UNL     1      -3.080   0.249  -1.077  1.00  0.00    -0.373 N 
ATOM      7  H21 UNL     1      -3.482  -0.023  -1.974  1.00  0.00     0.158 HD
ATOM      8  H22 UNL     1      -3.665   0.756  -0.413  1.00  0.00     0.158 HD
HETATM    9  N3  UNL     1      -1.047  -0.753  -1.725  1.00  0.00    -0.063 NA
ENDROOT
BRANCH   1  10
HETATM   10  O1  UNL     1       0.838  -0.672  -0.121  1.00  0.00    -0.304 OA
BRANCH  10  11
HETATM   11  C2  UNL     1       2.169  -1.028   0.110  1.00  0.00     0.176 C 
HETATM   12  C1  UNL     1       3.079   0.145   0.358  1.00  0.00     0.034 C 
ENDBRANCH  10  11
ENDBRANCH   1  10
TORSDOF 2
