REMARK  8 active torsions:
REMARK  status: ('A' for Active; 'I' for Inactive)
REMARK    1  A    between atoms: C7_8  and  N1_9 
REMARK    2  A    between atoms: N2_12  and  C10_13 
REMARK    3  A    between atoms: C10_13  and  C11_14 
REMARK    4  A    between atoms: C11_14  and  N3_15 
REMARK    5  A    between atoms: N3_15  and  C12_17 
REMARK    6  A    between atoms: C15_22  and  N5_23 
REMARK    7  A    between atoms: N5_23  and  C16_25 
REMARK    8  A    between atoms: C16_25  and  C17_27 
ROOT
HETATM    1  C12 UNL     1      -2.110  -0.184  -0.325  1.00  0.00     0.681 A 
HETATM    2  N4  UNL     1      -2.072   0.138   0.976  1.00  0.00    -0.176 N 
ATOM      3  H4  UNL     1      -1.246   0.604   1.352  1.00  0.00     0.186 HD
HETATM    4  C13 UNL     1      -3.098  -0.141   1.793  1.00  0.00     0.130 A 
HETATM    5  C14 UNL     1      -4.208  -0.774   1.268  1.00  0.00     0.049 A 
HETATM    6  C15 UNL     1      -4.266  -1.117  -0.075  1.00  0.00     0.130 A 
HETATM    7  N6  UNL     1      -3.199  -0.800  -0.817  1.00  0.00    -0.176 N 
ATOM      8  H6  UNL     1      -3.212  -1.038  -1.809  1.00  0.00     0.186 HD
HETATM    9  C20 UNL     1      -5.331  -1.082   2.155  1.00  0.00     0.124 C 
HETATM   10 CL2  UNL     1      -6.519   0.230   2.251  1.00  0.00    -0.120 Cl
HETATM   11  C21 UNL     1      -4.862  -1.377   3.552  1.00  0.00     0.045 C 
HETATM   12  C22 UNL     1      -3.877  -0.417   4.112  1.00  0.00     0.125 C 
HETATM   13  N7  UNL     1      -3.014   0.220   3.162  1.00  0.00    -0.371 N 
HETATM   14  C23 UNL     1      -2.081   1.216   3.636  1.00  0.00     0.151 C 
ENDROOT
BRANCH   1  15
HETATM   15  N3  UNL     1      -1.147   0.071  -1.122  1.00  0.00    -0.224 N 
ATOM     16  H3  UNL     1      -1.276  -0.216  -2.092  1.00  0.00     0.177 HD
BRANCH  15  17
HETATM   17  C11 UNL     1       0.090   0.712  -0.811  1.00  0.00     0.157 C 
BRANCH  17  18
HETATM   18  C10 UNL     1       1.134  -0.267  -0.287  1.00  0.00     0.137 C 
BRANCH  18  19
HETATM   19  N2  UNL     1       2.352   0.435   0.007  1.00  0.00    -0.408 N 
HETATM   20  C9  UNL     1       3.022   0.939  -1.145  1.00  0.00     0.136 C 
HETATM   21  C8  UNL     1       4.352   1.548  -0.685  1.00  0.00     0.142 C 
HETATM   22  N1  UNL     1       5.165   0.445  -0.269  1.00  0.00    -0.377 N 
HETATM   23  C25 UNL     1       4.547  -0.584   0.526  1.00  0.00     0.142 C 
HETATM   24  C24 UNL     1       3.165  -0.198   0.991  1.00  0.00     0.136 C 
BRANCH  22  25
HETATM   25  C7  UNL     1       6.514   0.354  -0.613  1.00  0.00     0.037 A 
HETATM   26  C2  UNL     1       7.398   1.321  -0.191  1.00  0.00    -0.035 A 
HETATM   27  C1  UNL     1       7.011   2.492   0.635  1.00  0.00     0.050 C 
HETATM   28  C3  UNL     1       8.752   1.239  -0.533  1.00  0.00     0.011 A 
HETATM   29  C4  UNL     1       9.217   0.183  -1.300  1.00  0.00     0.024 A 
HETATM   30  C5  UNL     1       8.335  -0.786  -1.724  1.00  0.00     0.036 A 
HETATM   31 CL1  UNL     1       8.957  -2.105  -2.692  1.00  0.00    -0.084 Cl
HETATM   32  C6  UNL     1       7.012  -0.677  -1.372  1.00  0.00     0.053 A 
ENDBRANCH  22  25
ENDBRANCH  18  19
ENDBRANCH  17  18
ENDBRANCH  15  17
ENDBRANCH   1  15
BRANCH   6  33
HETATM   33  N5  UNL     1      -5.328  -1.699  -0.473  1.00  0.00    -0.345 N 
ATOM     34  H5  UNL     1      -6.081  -1.890   0.188  1.00  0.00     0.164 HD
BRANCH  33  35
HETATM   35  C16 UNL     1      -5.467  -2.087  -1.851  1.00  0.00     0.273 C 
HETATM   36  F1  UNL     1      -6.396  -3.115  -1.957  1.00  0.00    -0.227 F 
BRANCH  35  37
HETATM   37  C17 UNL     1      -5.942  -0.942  -2.719  1.00  0.00     0.031 C 
HETATM   38  C18 UNL     1      -7.310  -0.466  -2.210  1.00  0.00     0.014 C 
HETATM   39  C19 UNL     1      -5.968  -1.291  -4.169  1.00  0.00     0.014 C 
ENDBRANCH  35  37
ENDBRANCH  33  35
ENDBRANCH   6  33
TORSDOF 8
