REMARK  7 active torsions:
REMARK  status: ('A' for Active; 'I' for Inactive)
REMARK    1  A    between atoms: N1_2  and  C10_18 
REMARK    2  A    between atoms: C2_3  and  O1_4 
REMARK    3  A    between atoms: C2_3  and  C3_6 
REMARK    4  A    between atoms: C4_7  and  O2_8 
REMARK    5  A    between atoms: O2_8  and  C5_9 
REMARK    6  A    between atoms: C16_26  and  N3_27 
REMARK       I    between atoms: N3_27  and  C17_29 
REMARK    7  A    between atoms: C17_29  and  C18_31 
ROOT
HETATM    1  C10 UNL     1       1.351  -1.492   0.255  1.00  0.00     0.128 C 
HETATM    2  C11 UNL     1       2.080  -2.837   0.077  1.00  0.00     0.036 C 
HETATM    3  C12 UNL     1       1.025  -3.908  -0.080  1.00  0.00     0.010 C 
HETATM    4  C13 UNL     1       1.631  -5.256   0.208  1.00  0.00     0.009 C 
HETATM    5  C14 UNL     1       1.215  -5.082   1.647  1.00  0.00     0.026 C 
HETATM    6  C15 UNL     1       0.242  -4.048   1.198  1.00  0.00     0.082 C 
HETATM    7  N2  UNL     1       0.134  -2.859   1.952  1.00  0.00    -0.395 N 
ATOM      8  H2  UNL     1      -0.085  -2.919   2.946  1.00  0.00     0.155 HD
HETATM    9  C16 UNL     1       0.319  -1.606   1.371  1.00  0.00     0.203 C 
ENDROOT
BRANCH   1  10
HETATM   10  N1  UNL     1       2.354  -0.571   0.604  1.00  0.00    -0.357 N 
HETATM   11  C1  UNL     1       2.843  -0.827   2.031  1.00  0.00     0.152 C 
HETATM   12  C2  UNL     1       2.904   0.533   0.032  1.00  0.00     0.154 C 
BRANCH  12  13
HETATM   13  O1  UNL     1       3.678   1.157   0.965  1.00  0.00    -0.345 OA
ATOM     14  H1  UNL     1       4.062   1.928   0.565  1.00  0.00     0.219 HD
ENDBRANCH  12  13
BRANCH  12  15
HETATM   15  C3  UNL     1       2.958   1.269  -1.193  1.00  0.00     0.088 A 
HETATM   16  C4  UNL     1       3.630   2.534  -1.154  1.00  0.00     0.092 A 
HETATM   17  C6  UNL     1       3.754   3.243  -2.317  1.00  0.00     0.040 A 
HETATM   18  C7  UNL     1       3.253   2.776  -3.519  1.00  0.00     0.030 A 
HETATM   19  C8  UNL     1       2.616   1.574  -3.555  1.00  0.00     0.073 A 
HETATM   20 CL1  UNL     1       1.960   0.928  -5.043  1.00  0.00    -0.081 Cl
HETATM   21  C9  UNL     1       2.474   0.829  -2.394  1.00  0.00     0.155 A 
HETATM   22  F3  UNL     1       1.875  -0.395  -2.559  1.00  0.00    -0.203 F 
BRANCH  16  23
HETATM   23  O2  UNL     1       4.125   2.997   0.043  1.00  0.00    -0.289 OA
BRANCH  23  24
HETATM   24  C5  UNL     1       4.786   4.188   0.224  1.00  0.00     0.505 C 
HETATM   25  F1  UNL     1       4.170   5.008   1.172  1.00  0.00    -0.184 F 
HETATM   26  F2  UNL     1       6.079   3.999   0.755  1.00  0.00    -0.184 F 
ENDBRANCH  23  24
ENDBRANCH  16  23
ENDBRANCH  12  15
ENDBRANCH   1  10
BRANCH   9  27
HETATM   27  N3  UNL     1      -0.948  -1.161   0.826  1.00  0.00    -0.336 N 
HETATM   28  C17 UNL     1      -1.624   0.002   1.275  1.00  0.00     0.248 C 
HETATM   29  O3  UNL     1      -1.062   0.651   2.195  1.00  0.00    -0.271 OA
ATOM     30  H3  UNL     1      -1.375  -1.712   0.082  1.00  0.00     0.164 HD
BRANCH  28  31
HETATM   31  C18 UNL     1      -2.935   0.428   0.683  1.00  0.00     0.213 C 
HETATM   32  C19 UNL     1      -2.628   0.751  -0.776  1.00  0.00     0.044 C 
HETATM   33  C20 UNL     1      -3.381   1.998  -1.223  1.00  0.00     0.038 C 
HETATM   34  C21 UNL     1      -4.880   1.747  -1.271  1.00  0.00     0.159 A 
HETATM   35  O4  UNL     1      -5.252   0.530  -0.745  1.00  0.00    -0.367 OA
HETATM   36  C22 UNL     1      -5.454   1.548   0.115  1.00  0.00     0.105 A 
HETATM   37  C23 UNL     1      -6.926   1.937   0.307  1.00  0.00     0.051 C 
HETATM   38  C24 UNL     1      -4.537   2.081   1.114  1.00  0.00     0.209 C 
HETATM   39  O5  UNL     1      -3.329   1.554   1.300  1.00  0.00    -0.373 OA
ENDBRANCH  28  31
ENDBRANCH   9  27
TORSDOF 7
