REMARK  7 active torsions:
REMARK  status: ('A' for Active; 'I' for Inactive)
REMARK    1  A    between atoms: C1_2  and  C2_3 
REMARK       I    between atoms: C1_2  and  N4_33 
REMARK    2  A    between atoms: C2_3  and  C3_4 
REMARK    3  A    between atoms: C8_9  and  N1_10 
REMARK       I    between atoms: N1_10  and  C9_12 
REMARK    4  A    between atoms: C9_12  and  C10_14 
REMARK    5  A    between atoms: C10_14  and  O3_15 
REMARK    6  A    between atoms: N2_20  and  C14_21 
REMARK    7  A    between atoms: C14_21  and  C15_22 
ROOT
HETATM    1  C10 UNL     1       1.384  -0.574  -0.859  1.00  0.00     0.140 C 
HETATM    2  C11 UNL     1       1.995  -1.522   0.113  1.00  0.00     0.049 C 
HETATM    3  C12 UNL     1       3.427  -1.781  -0.398  1.00  0.00     0.023 C 
HETATM    4  C13 UNL     1       4.339  -0.946   0.564  1.00  0.00     0.122 C 
HETATM    5  N2  UNL     1       4.365   0.323   0.069  1.00  0.00    -0.389 N 
HETATM    6  C20 UNL     1       3.096   1.009   0.134  1.00  0.00     0.125 C 
HETATM    7  C21 UNL     1       2.214   0.683  -1.053  1.00  0.00     0.068 C 
ENDROOT
BRANCH   1   8
HETATM    8  C9  UNL     1      -0.016  -0.200  -0.551  1.00  0.00     0.252 C 
HETATM    9  N1  UNL     1      -1.141  -0.977  -0.865  1.00  0.00    -0.353 N 
ATOM     10  H1  UNL     1      -0.911  -1.901  -1.230  1.00  0.00     0.163 HD
HETATM   11  O2  UNL     1      -0.154   0.911   0.011  1.00  0.00    -0.270 OA
BRANCH   9  12
HETATM   12  C8  UNL     1      -2.511  -0.737  -0.777  1.00  0.00     0.089 C 
HETATM   13  C3  UNL     1      -3.318  -0.011   0.158  1.00  0.00     0.017 C 
HETATM   14  C4  UNL     1      -3.457   1.475  -0.119  1.00  0.00     0.007 C 
HETATM   15  C5  UNL     1      -4.492   1.610  -1.263  1.00  0.00     0.001 C 
HETATM   16  C6  UNL     1      -4.209   0.447  -2.187  1.00  0.00     0.002 C 
HETATM   17  C7  UNL     1      -2.769   0.075  -2.161  1.00  0.00     0.025 C 
BRANCH  13  18
HETATM   18  C2  UNL     1      -3.277  -0.237   1.642  1.00  0.00     0.109 C 
BRANCH  18  19
HETATM   19  C1  UNL     1      -4.565   0.389   2.137  1.00  0.00     0.220 C 
HETATM   20  O1  UNL     1      -4.541   1.470   2.824  1.00  0.00    -0.273 OA
HETATM   21  N4  UNL     1      -5.828  -0.159   1.864  1.00  0.00    -0.341 N 
HETATM   22  C22 UNL     1      -6.409  -1.366   1.357  1.00  0.00     0.206 C 
HETATM   23  C24 UNL     1      -7.194   0.426   1.831  1.00  0.00     0.206 C 
HETATM   24  C23 UNL     1      -7.837  -0.902   1.668  1.00  0.00     0.275 C 
HETATM   25  F1  UNL     1      -8.340  -1.488   2.783  1.00  0.00    -0.203 F 
HETATM   26  F2  UNL     1      -8.698  -1.047   0.591  1.00  0.00    -0.203 F 
ENDBRANCH  18  19
ENDBRANCH  13  18
ENDBRANCH   9  12
ENDBRANCH   1   8
BRANCH   1  27
HETATM   27  O3  UNL     1       1.444  -1.278  -2.102  1.00  0.00    -0.380 OA
ATOM     28  H3  UNL     1       2.342  -1.518  -2.300  1.00  0.00     0.211 HD
ENDBRANCH   1  27
BRANCH   5  29
HETATM   29  C14 UNL     1       5.409   1.221   0.174  1.00  0.00     0.100 C 
BRANCH  29  30
HETATM   30  C15 UNL     1       6.807   0.722   0.172  1.00  0.00     0.025 A 
HETATM   31  C16 UNL     1       7.586   1.115  -0.930  1.00  0.00     0.062 A 
HETATM   32 CL1  UNL     1       6.822   2.018  -2.224  1.00  0.00    -0.082 Cl
HETATM   33  C17 UNL     1       8.900   0.772  -0.945  1.00  0.00     0.112 A 
HETATM   34  N3  UNL     1       9.486   0.070   0.055  1.00  0.00    -0.372 N 
HETATM   35  C18 UNL     1       8.744  -0.291   1.092  1.00  0.00     0.112 A 
ATOM     36  H3  UNL     1      10.475  -0.175   0.011  1.00  0.00     0.164 HD
HETATM   37  C19 UNL     1       7.379   0.034   1.173  1.00  0.00     0.062 A 
HETATM   38 CL2  UNL     1       6.581  -0.274   2.719  1.00  0.00    -0.082 Cl
ENDBRANCH  29  30
ENDBRANCH   5  29
TORSDOF 7
