REMARK  8 active torsions:
REMARK  status: ('A' for Active; 'I' for Inactive)
REMARK    1  A    between atoms: C2_2  and  C3_3 
REMARK    2  A    between atoms: C7_7  and  N1_8 
REMARK    3  A    between atoms: N1_8  and  C8_10 
REMARK    4  A    between atoms: C11_15  and  N3_16 
REMARK    5  A    between atoms: N3_16  and  C12_18 
REMARK    6  A    between atoms: N4_21  and  C15_22 
REMARK    7  A    between atoms: C15_22  and  C16_23 
REMARK    8  A    between atoms: C22_32  and  N6_33 
ROOT
HETATM    1  C8  UNL     1      -0.973  -0.586   0.217  1.00  0.00     0.118 A 
HETATM    2  C9  UNL     1      -0.621  -1.942   0.341  1.00  0.00     0.066 A 
HETATM    3  C10 UNL     1       0.674  -2.324   0.481  1.00  0.00     0.110 A 
HETATM    4  N2  UNL     1       1.622  -1.351   0.498  1.00  0.00    -0.202 N 
ATOM      5  H2  UNL     1       2.603  -1.611   0.602  1.00  0.00     0.183 HD
HETATM    6  C11 UNL     1       1.297  -0.067   0.382  1.00  0.00     0.679 A 
HETATM    7  N5  UNL     1      -0.005   0.313   0.240  1.00  0.00    -0.177 N 
ATOM      8  H5  UNL     1      -0.234   1.303   0.150  1.00  0.00     0.185 HD
ENDROOT
BRANCH   1   9
HETATM    9  N1  UNL     1      -2.169  -0.351   0.097  1.00  0.00    -0.369 N 
ATOM     10  H1  UNL     1      -2.623  -1.264   0.121  1.00  0.00     0.161 HD
BRANCH   9  11
HETATM   11  C7  UNL     1      -3.190   0.553  -0.054  1.00  0.00     0.120 C 
HETATM   12  C5  UNL     1      -2.972   1.807   0.769  1.00  0.00     0.007 C 
HETATM   13  C4  UNL     1      -4.270   2.121   1.488  1.00  0.00     0.013 C 
HETATM   14  C6  UNL     1      -2.686   3.029  -0.097  1.00  0.00     0.012 C 
HETATM   15  C3  UNL     1      -5.331   1.229   0.818  1.00  0.00     0.021 C 
HETATM   16  C22 UNL     1      -4.479   0.025   0.560  1.00  0.00     0.250 C 
BRANCH  15  17
HETATM   17  C2  UNL     1      -5.770   1.969  -0.399  1.00  0.00     0.002 C 
HETATM   18  C1  UNL     1      -6.831   1.300  -1.228  1.00  0.00     0.005 C 
ENDBRANCH  15  17
BRANCH  16  19
HETATM   19  N6  UNL     1      -5.147  -0.994  -0.115  1.00  0.00     0.104 N 
HETATM   20  C23 UNL     1      -6.218  -1.600   0.643  1.00  0.00     0.316 C 
HETATM   21  C24 UNL     1      -6.582  -2.875  -0.131  1.00  0.00     0.272 C 
HETATM   22  F1  UNL     1      -6.399  -3.995   0.664  1.00  0.00    -0.241 F 
HETATM   23  C25 UNL     1      -5.532  -2.957  -1.225  1.00  0.00     0.301 C 
HETATM   24  F2  UNL     1      -5.996  -2.365  -2.365  1.00  0.00    -0.201 F 
HETATM   25  F3  UNL     1      -5.111  -4.255  -1.431  1.00  0.00    -0.201 F 
HETATM   26  C26 UNL     1      -4.414  -2.110  -0.595  1.00  0.00     0.355 C 
ENDBRANCH  16  19
ENDBRANCH   9  11
ENDBRANCH   1   9
BRANCH   6  27
HETATM   27  N3  UNL     1       2.215   0.854   0.400  1.00  0.00    -0.221 N 
ATOM     28  H3  UNL     1       1.945   1.833   0.308  1.00  0.00     0.178 HD
BRANCH  27  29
HETATM   29  C12 UNL     1       3.581   0.519   0.545  1.00  0.00     0.108 C 
HETATM   30  C13 UNL     1       4.357   1.785   0.990  1.00  0.00     0.070 C 
HETATM   31  C14 UNL     1       5.742   1.284   1.302  1.00  0.00     0.065 C 
HETATM   32  N4  UNL     1       6.411   0.653   0.248  1.00  0.00    -0.370 N 
HETATM   33  C20 UNL     1       5.677  -0.124  -0.669  1.00  0.00     0.065 C 
HETATM   34  C21 UNL     1       4.220   0.179  -0.781  1.00  0.00     0.070 C 
BRANCH  32  35
HETATM   35  C15 UNL     1       7.675   0.159   0.671  1.00  0.00     0.166 C 
BRANCH  35  36
HETATM   36  C16 UNL     1       8.435  -0.535  -0.457  1.00  0.00    -0.033 A 
HETATM   37  C17 UNL     1       9.240   0.116  -1.305  1.00  0.00     0.016 A 
HETATM   38  C18 UNL     1       9.870  -0.615  -2.273  1.00  0.00     0.050 A 
HETATM   39  S1  UNL     1       9.319  -2.199  -1.973  1.00  0.00    -0.113 SA
HETATM   40  C19 UNL     1       8.310  -1.893  -0.635  1.00  0.00     0.058 A 
ENDBRANCH  35  36
ENDBRANCH  32  35
ENDBRANCH  27  29
ENDBRANCH   6  27
TORSDOF 8
