REMARK  9 active torsions:
REMARK  status: ('A' for Active; 'I' for Inactive)
REMARK    1  A    between atoms: O1_2  and  C2_3 
REMARK    2  A    between atoms: N2_14  and  C10_15 
REMARK    3  A    between atoms: N3_18  and  C13_19 
REMARK    4  A    between atoms: C13_19  and  C14_20 
REMARK    5  A    between atoms: C14_20  and  O3_21 
REMARK    6  A    between atoms: C14_20  and  C15_23 
REMARK    7  A    between atoms: C15_23  and  N4_24 
REMARK    8  A    between atoms: N4_24  and  C16_25 
REMARK    9  A    between atoms: N4_24  and  C22_34 
ROOT
HETATM    1  C10 UNL     1       3.096  -0.409  -0.120  1.00  0.00     0.088 C 
HETATM    2  C11 UNL     1       2.223  -1.352  -0.907  1.00  0.00     0.055 C 
HETATM    3  C12 UNL     1       1.150  -2.033  -0.097  1.00  0.00     0.274 C 
HETATM    4  N3  UNL     1       0.355  -1.124   0.666  1.00  0.00     0.091 N 
HETATM    5  C26 UNL     1       0.860   0.211   0.587  1.00  0.00     0.274 C 
HETATM    6  C27 UNL     1       2.327   0.129   1.041  1.00  0.00     0.055 C 
ENDROOT
BRANCH   4   7
HETATM    7  C13 UNL     1      -1.032  -1.289   0.372  1.00  0.00     0.305 C 
BRANCH   7   8
HETATM    8  C14 UNL     1      -1.930  -0.475   1.301  1.00  0.00     0.164 C 
BRANCH   8   9
HETATM    9  O3  UNL     1      -1.629  -0.942   2.620  1.00  0.00    -0.392 OA
ATOM     10  H3  UNL     1      -2.188  -0.436   3.198  1.00  0.00     0.210 HD
ENDBRANCH   8   9
BRANCH   8  11
HETATM   11  C15 UNL     1      -3.381  -0.877   1.096  1.00  0.00     0.151 C 
BRANCH  11  12
HETATM   12  N4  UNL     1      -3.987  -0.466  -0.112  1.00  0.00    -0.398 N 
BRANCH  12  13
HETATM   13  C16 UNL     1      -4.242   0.926  -0.126  1.00  0.00     0.083 C 
HETATM   14  C17 UNL     1      -4.384   1.592  -1.457  1.00  0.00     0.031 C 
HETATM   15  C18 UNL     1      -4.179   3.101  -1.261  1.00  0.00     0.084 C 
HETATM   16  C19 UNL     1      -5.275   3.592  -0.370  1.00  0.00     0.274 C 
HETATM   17  F1  UNL     1      -5.018   4.908  -0.042  1.00  0.00    -0.203 F 
HETATM   18  F2  UNL     1      -6.498   3.597  -1.016  1.00  0.00    -0.203 F 
HETATM   19  C20 UNL     1      -5.372   2.814   0.920  1.00  0.00     0.244 C 
HETATM   20  F3  UNL     1      -6.583   3.199   1.513  1.00  0.00    -0.243 F 
HETATM   21  C21 UNL     1      -5.470   1.325   0.680  1.00  0.00     0.068 C 
ENDBRANCH  12  13
BRANCH  12  22
HETATM   22  C22 UNL     1      -4.834  -1.401  -0.664  1.00  0.00     0.017 C 
HETATM   23  C23 UNL     1      -4.005  -2.644  -1.048  1.00  0.00     0.037 C 
HETATM   24  C24 UNL     1      -5.607  -1.085  -1.897  1.00  0.00     0.037 C 
HETATM   25  C25 UNL     1      -5.864  -1.980   0.330  1.00  0.00     0.037 C 
ENDBRANCH  12  22
ENDBRANCH  11  12
ENDBRANCH   8  11
ENDBRANCH   7   8
ENDBRANCH   4   7
BRANCH   1  26
HETATM   26  N2  UNL     1       4.397  -0.969   0.232  1.00  0.00    -0.365 N 
HETATM   27  C5  UNL     1       5.564  -0.159   0.064  1.00  0.00     0.058 A 
HETATM   28  C4  UNL     1       5.494   1.210  -0.142  1.00  0.00     0.034 A 
HETATM   29  C6  UNL     1       6.837  -0.682   0.088  1.00  0.00     0.064 A 
HETATM   30  C3  UNL     1       6.617   2.007  -0.314  1.00  0.00     0.039 A 
HETATM   31  C2  UNL     1       7.866   1.443  -0.284  1.00  0.00     0.070 A 
HETATM   32  C7  UNL     1       7.986   0.072  -0.079  1.00  0.00     0.068 A 
HETATM   33  N1  UNL     1       7.019  -2.064   0.321  1.00  0.00    -0.324 N 
HETATM   34  C8  UNL     1       5.892  -2.884   0.528  1.00  0.00     0.240 C 
ATOM     35  H1  UNL     1       7.957  -2.464   0.339  1.00  0.00     0.169 HD
HETATM   36  O2  UNL     1       6.047  -4.146   0.498  1.00  0.00    -0.271 OA
HETATM   37  C9  UNL     1       4.561  -2.288   0.775  1.00  0.00     0.226 C 
BRANCH  31  38
HETATM   38  O1  UNL     1       9.025   2.181  -0.450  1.00  0.00    -0.356 OA
HETATM   39  C1  UNL     1       9.045   3.562  -0.662  1.00  0.00     0.210 C 
ENDBRANCH  31  38
ENDBRANCH   1  26
TORSDOF 9
