REMARK  8 active torsions:
REMARK  status: ('A' for Active; 'I' for Inactive)
REMARK    1  A    between atoms: C2_2  and  N1_3 
REMARK    2  A    between atoms: N1_3  and  C3_5 
REMARK    3  A    between atoms: C3_5  and  C4_6 
REMARK    4  A    between atoms: C4_6  and  C5_7 
REMARK    5  A    between atoms: C5_7  and  N2_8 
REMARK       I    between atoms: N2_8  and  C7_10 
REMARK    6  A    between atoms: C7_10  and  C8_12 
REMARK    7  A    between atoms: C8_12  and  O2_13 
REMARK    8  A    between atoms: C8_12  and  C9_15 
ROOT
HETATM    1  C9  UNL     1      -1.020  -0.271   0.363  1.00  0.00     0.101 C 
HETATM    2  C10 UNL     1      -1.423   0.523   1.541  1.00  0.00     0.148 C 
HETATM    3  O3  UNL     1      -1.241   0.276   2.697  1.00  0.00    -0.296 OA
HETATM    4  C11 UNL     1      -2.157   1.793   1.133  1.00  0.00     0.129 C 
HETATM    5 BR1  UNL     1      -3.385   2.324   2.527  1.00  0.00    -0.083 Br
HETATM    6  C12 UNL     1      -2.806   1.625  -0.203  1.00  0.00     0.038 C 
HETATM    7  C13 UNL     1      -3.252   0.225  -0.530  1.00  0.00    -0.007 C 
HETATM    8  C14 UNL     1      -3.253   0.206  -2.081  1.00  0.00     0.021 C 
HETATM    9  C15 UNL     1      -4.681   0.062  -0.193  1.00  0.00    -0.017 A 
HETATM   10  C16 UNL     1      -5.627   0.815  -0.855  1.00  0.00     0.054 A 
HETATM   11  C17 UNL     1      -6.980   0.657  -0.525  1.00  0.00     0.141 A 
HETATM   12  F1  UNL     1      -7.928   1.385  -1.159  1.00  0.00    -0.204 F 
HETATM   13  C18 UNL     1      -7.389  -0.231   0.444  1.00  0.00     0.113 A 
HETATM   14 CL1  UNL     1      -9.092  -0.434   0.866  1.00  0.00    -0.078 Cl
HETATM   15  C19 UNL     1      -6.434  -0.981   1.101  1.00  0.00     0.168 A 
HETATM   16  F2  UNL     1      -6.822  -1.854   2.051  1.00  0.00    -0.202 F 
HETATM   17  C20 UNL     1      -5.106  -0.808   0.758  1.00  0.00     0.076 A 
HETATM   18  N3  UNL     1      -4.143  -1.581   1.435  1.00  0.00    -0.387 N 
ATOM     19  H3  UNL     1      -4.400  -1.997   2.330  1.00  0.00     0.159 HD
HETATM   20  C21 UNL     1      -2.827  -1.812   0.934  1.00  0.00     0.126 C 
HETATM   21  C22 UNL     1      -2.355  -0.877  -0.112  1.00  0.00     0.030 C 
ENDROOT
BRANCH   1  22
HETATM   22  C8  UNL     1       0.063  -1.254   0.528  1.00  0.00     0.221 C 
BRANCH  22  23
HETATM   23  C7  UNL     1       1.348  -0.675   0.930  1.00  0.00     0.249 C 
HETATM   24  N2  UNL     1       2.594  -0.886   0.293  1.00  0.00    -0.354 N 
HETATM   25  C6  UNL     1       2.774  -1.738  -0.849  1.00  0.00     0.152 C 
HETATM   26  O1  UNL     1       1.407   0.103   1.949  1.00  0.00    -0.270 OA
BRANCH  24  27
HETATM   27  C5  UNL     1       3.772  -0.218   0.817  1.00  0.00     0.127 C 
BRANCH  27  28
HETATM   28  C4  UNL     1       4.001   1.120   0.193  1.00  0.00     0.039 C 
BRANCH  28  29
HETATM   29  C3  UNL     1       5.230   1.784   0.768  1.00  0.00     0.115 C 
BRANCH  29  30
HETATM   30  N1  UNL     1       6.444   1.044   0.577  1.00  0.00    -0.421 N 
ATOM     31  H1  UNL     1       6.951   0.614   1.351  1.00  0.00     0.153 HD
BRANCH  30  32
HETATM   32  C2  UNL     1       6.891   0.953  -0.781  1.00  0.00     0.109 C 
HETATM   33  C1  UNL     1       8.168   0.154  -0.794  1.00  0.00     0.026 C 
ENDBRANCH  30  32
ENDBRANCH  29  30
ENDBRANCH  28  29
ENDBRANCH  27  28
ENDBRANCH  24  27
ENDBRANCH  22  23
BRANCH  22  34
HETATM   34  O2  UNL     1       0.130  -2.003  -0.649  1.00  0.00    -0.385 OA
ATOM     35  H2  UNL     1      -0.703  -2.378  -0.910  1.00  0.00     0.210 HD
ENDBRANCH  22  34
ENDBRANCH   1  22
TORSDOF 8
