REMARK  7 active torsions:
REMARK  status: ('A' for Active; 'I' for Inactive)
REMARK    1  A    between atoms: N1_2  and  C2_3 
REMARK    2  A    between atoms: N1_2  and  C14_25 
REMARK    3  A    between atoms: C2_3  and  C3_4 
REMARK       I    between atoms: C3_4  and  N2_6 
REMARK    4  A    between atoms: C6_10  and  O2_11 
REMARK    5  A    between atoms: C6_10  and  N3_13 
REMARK       I    between atoms: N3_13  and  C7_15 
REMARK    6  A    between atoms: C7_15  and  C8_17 
REMARK    7  A    between atoms: C14_25  and  C15_26 
ROOT
HETATM    1  C3  UNL     1       0.064  -0.651  -0.252  1.00  0.00     0.265 C 
HETATM    2  O1  UNL     1      -0.018  -1.539  -1.132  1.00  0.00    -0.266 OA
HETATM    3  N2  UNL     1      -1.085  -0.363   0.531  1.00  0.00    -0.292 N 
HETATM    4  C4  UNL     1      -1.112   0.625   1.583  1.00  0.00     0.088 C 
HETATM    5  S1  UNL     1       0.004   1.680   2.074  1.00  0.00    -0.065 SA
HETATM    6  C5  UNL     1      -2.462   0.559   2.260  1.00  0.00     0.133 C 
HETATM    7  C6  UNL     1      -3.295   0.157   1.075  1.00  0.00     0.166 C 
HETATM    8  C9  UNL     1      -2.388  -0.934   0.488  1.00  0.00     0.091 C 
HETATM    9  C10 UNL     1      -2.534  -2.104   1.439  1.00  0.00     0.037 C 
HETATM   10  C11 UNL     1      -2.563  -3.274   0.490  1.00  0.00     0.003 C 
HETATM   11  C12 UNL     1      -3.373  -2.755  -0.654  1.00  0.00     0.003 C 
HETATM   12  C13 UNL     1      -2.952  -1.314  -0.811  1.00  0.00     0.037 C 
ENDROOT
BRANCH   1  13
HETATM   13  C2  UNL     1       1.337   0.039  -0.081  1.00  0.00     0.165 C 
BRANCH  13  14
HETATM   14  N1  UNL     1       2.381  -0.361  -0.931  1.00  0.00    -0.365 N 
HETATM   15  C1  UNL     1       2.330  -0.098  -2.302  1.00  0.00     0.155 C 
BRANCH  14  16
HETATM   16  C14 UNL     1       3.516  -0.931  -0.356  1.00  0.00     0.103 C 
BRANCH  16  17
HETATM   17  C15 UNL     1       4.696  -0.038  -0.376  1.00  0.00     0.003 A 
HETATM   18  C16 UNL     1       4.644   1.241  -0.843  1.00  0.00     0.038 A 
HETATM   19  C17 UNL     1       5.801   2.029  -0.799  1.00  0.00     0.035 A 
HETATM   20 CL3  UNL     1       5.705   3.667  -1.404  1.00  0.00    -0.084 Cl
HETATM   21  C18 UNL     1       6.999   1.566  -0.302  1.00  0.00     0.025 A 
HETATM   22  C19 UNL     1       7.012   0.281   0.156  1.00  0.00     0.026 A 
HETATM   23  C20 UNL     1       5.912  -0.526   0.135  1.00  0.00     0.045 A 
HETATM   24 CL4  UNL     1       5.997  -2.166   0.740  1.00  0.00    -0.083 Cl
ENDBRANCH  16  17
ENDBRANCH  14  16
ENDBRANCH  13  14
ENDBRANCH   1  13
BRANCH   7  25
HETATM   25  O2  UNL     1      -4.514  -0.412   1.463  1.00  0.00    -0.368 OA
ATOM     26  H2  UNL     1      -5.040  -0.666   0.714  1.00  0.00     0.212 HD
ENDBRANCH   7  25
BRANCH   7  27
HETATM   27  N3  UNL     1      -3.483   1.232   0.140  1.00  0.00    -0.325 N 
HETATM   28  C7  UNL     1      -4.170   2.396   0.549  1.00  0.00     0.253 C 
HETATM   29  O3  UNL     1      -4.635   2.534   1.707  1.00  0.00    -0.270 OA
ATOM     30  H3  UNL     1      -3.123   1.155  -0.811  1.00  0.00     0.165 HD
BRANCH  28  31
HETATM   31  C8  UNL     1      -4.362   3.518  -0.415  1.00  0.00     0.269 C 
HETATM   32 CL1  UNL     1      -2.717   4.075  -0.865  1.00  0.00    -0.098 Cl
HETATM   33 CL2  UNL     1      -5.311   4.788   0.351  1.00  0.00    -0.098 Cl
ENDBRANCH  28  31
ENDBRANCH   7  27
TORSDOF 7
