REMARK  15 active torsions:
REMARK  status: ('A' for Active; 'I' for Inactive)
REMARK    1  A    between atoms: O1_2  and  C2_3 
REMARK    2  A    between atoms: C2_3  and  C3_5 
REMARK    3  A    between atoms: C3_5  and  N1_7 
REMARK    4  A    between atoms: C3_5  and  C5_11 
REMARK       I    between atoms: C5_11  and  N2_13 
REMARK    5  A    between atoms: N2_13  and  N3_15 
REMARK    6  A    between atoms: N3_15  and  C6_17 
REMARK    7  A    between atoms: C6_17  and  O4_18 
REMARK    8  A    between atoms: C6_17  and  C7_20 
REMARK    9  A    between atoms: C9_28  and  C10_29 
REMARK   10  A    between atoms: C10_29  and  S1_30 
REMARK   11  A    between atoms: S1_30  and  C11_31 
REMARK   12  A    between atoms: N10_38  and  C12_39 
REMARK   13  A    between atoms: C12_39  and  C13_40 
REMARK   14  A    between atoms: C13_40  and  C14_41 
REMARK   15  A    between atoms: C14_41  and  N11_42 
ROOT
HETATM    1  C7  UNL     1       0.522   0.183   1.116  1.00  0.00     0.209 C 
HETATM    2  N4  UNL     1      -0.372  -0.492   2.067  1.00  0.00    -0.212 N 
ATOM      3  H4  UNL     1      -0.192  -0.712   3.047  1.00  0.00     0.178 HD
HETATM    4  C8  UNL     1      -1.549  -0.770   1.310  1.00  0.00     0.672 C 
HETATM    5  N5  UNL     1      -2.597  -1.331   1.826  1.00  0.00    -0.235 N 
ATOM      6  H51 UNL     1      -3.438  -1.530   1.285  1.00  0.00     0.174 HD
ATOM      7  H52 UNL     1      -2.744  -1.640   2.787  1.00  0.00     0.174 HD
HETATM    8  N6  UNL     1      -1.339  -0.329  -0.059  1.00  0.00    -0.196 N 
HETATM    9  C9  UNL     1      -2.055   0.109  -1.203  1.00  0.00     0.122 C 
HETATM   10  C15 UNL     1      -1.282   1.169  -1.948  1.00  0.00     0.102 C 
HETATM   11  S2  UNL     1       0.423   0.663  -1.616  1.00  0.00    -0.138 SA
HETATM   12  C16 UNL     1       0.106  -0.395  -0.186  1.00  0.00     0.196 C 
ENDROOT
BRANCH   1  13
HETATM   13  C6  UNL     1       1.904   0.004   1.468  1.00  0.00     0.157 C 
BRANCH  13  14
HETATM   14  N3  UNL     1       3.009   0.022   0.634  1.00  0.00    -0.279 N 
ATOM     15  H3  UNL     1       2.874   0.166  -0.367  1.00  0.00     0.189 HD
BRANCH  14  16
HETATM   16  N2  UNL     1       4.328  -0.156   1.138  1.00  0.00    -0.266 N 
HETATM   17  C5  UNL     1       5.395   0.677   0.776  1.00  0.00     0.282 C 
HETATM   18  O3  UNL     1       5.197   1.613  -0.044  1.00  0.00    -0.268 OA
ATOM     19  H2  UNL     1       4.504  -0.921   1.789  1.00  0.00     0.190 HD
BRANCH  17  20
HETATM   20  C3  UNL     1       6.733   0.438   1.370  1.00  0.00     0.287 C 
HETATM   21  C4  UNL     1       7.207   1.721   2.080  1.00  0.00     0.068 C 
BRANCH  20  22
HETATM   22  C2  UNL     1       7.743   0.127   0.341  1.00  0.00     0.304 C 
HETATM   23  O2  UNL     1       8.471  -0.893   0.446  1.00  0.00    -0.262 OA
BRANCH  22  24
HETATM   24  O1  UNL     1       7.941   0.929  -0.780  1.00  0.00    -0.324 OA
HETATM   25  C1  UNL     1       8.927   0.601  -1.751  1.00  0.00     0.213 C 
ENDBRANCH  22  24
ENDBRANCH  20  22
BRANCH  20  26
HETATM   26  N1  UNL     1       6.676  -0.586   2.402  1.00  0.00    -0.052 N 
ATOM     27  H13 UNL     1       6.522  -1.510   1.999  1.00  0.00     0.276 HD
ATOM     28  H12 UNL     1       7.593  -0.744   2.819  1.00  0.00     0.276 HD
ATOM     29  H11 UNL     1       5.978  -0.371   3.114  1.00  0.00     0.276 HD
ENDBRANCH  20  26
ENDBRANCH  17  20
ENDBRANCH  14  16
ENDBRANCH  13  14
BRANCH  13  30
HETATM   30  O4  UNL     1       2.126  -0.205   2.742  1.00  0.00    -0.347 OA
ATOM     31  H4  UNL     1       1.368  -0.217   3.314  1.00  0.00     0.219 HD
ENDBRANCH  13  30
ENDBRANCH   1  13
BRANCH   9  32
HETATM   32  C10 UNL     1      -3.349   0.755  -0.711  1.00  0.00     0.109 C 
BRANCH  32  33
HETATM   33  S1  UNL     1      -4.426   1.365  -1.987  1.00  0.00    -0.089 SA
BRANCH  33  34
HETATM   34  C11 UNL     1      -5.126   0.079  -3.020  1.00  0.00     0.178 A 
HETATM   35  N7  UNL     1      -4.693  -0.426  -4.176  1.00  0.00    -0.263 N 
HETATM   36  N8  UNL     1      -5.525  -1.349  -4.589  1.00  0.00    -0.226 N 
ATOM     37  H7  UNL     1      -3.845  -0.138  -4.663  1.00  0.00     0.190 HD
HETATM   38  N9  UNL     1      -6.489  -1.425  -3.685  1.00  0.00    -0.224 N 
ATOM     39  H8  UNL     1      -5.446  -1.902  -5.442  1.00  0.00     0.210 HD
HETATM   40  N10 UNL     1      -6.291  -0.573  -2.707  1.00  0.00    -0.254 N 
ATOM     41  H9  UNL     1      -7.283  -2.063  -3.741  1.00  0.00     0.210 HD
BRANCH  40  42
HETATM   42  C12 UNL     1      -7.065  -0.342  -1.493  1.00  0.00     0.154 C 
BRANCH  42  43
HETATM   43  C13 UNL     1      -6.715  -1.319  -0.414  1.00  0.00     0.049 C 
BRANCH  43  44
HETATM   44  C14 UNL     1      -7.489  -0.972   0.842  1.00  0.00     0.231 C 
BRANCH  44  45
HETATM   45  N11 UNL     1      -7.172   0.328   1.309  1.00  0.00    -0.079 N 
ATOM     46 3H11 UNL     1      -6.168   0.439   1.448  1.00  0.00     0.274 HD
ATOM     47 2H11 UNL     1      -7.310   1.029   0.581  1.00  0.00     0.274 HD
ATOM     48 1H11 UNL     1      -7.693   0.562   2.154  1.00  0.00     0.274 HD
ENDBRANCH  44  45
ENDBRANCH  43  44
ENDBRANCH  42  43
ENDBRANCH  40  42
ENDBRANCH  33  34
ENDBRANCH  32  33
ENDBRANCH   9  32
TORSDOF 15
