REMARK  11 active torsions:
REMARK  status: ('A' for Active; 'I' for Inactive)
REMARK    1  A    between atoms: C4_7  and  N3_8 
REMARK    2  A    between atoms: N3_8  and  C5_10 
REMARK    3  A    between atoms: C5_10  and  C6_11 
REMARK    4  A    between atoms: C7_12  and  N4_13 
REMARK    5  A    between atoms: C11_23  and  N8_24 
REMARK       I    between atoms: N8_24  and  C12_26 
REMARK    6  A    between atoms: C12_26  and  C13_28 
REMARK    7  A    between atoms: C13_28  and  N9_29 
REMARK    8  A    between atoms: C16_38  and  C17_39 
REMARK    9  A    between atoms: N13_44  and  C19_46 
REMARK   10  A    between atoms: C19_46  and  C20_47 
REMARK   11  A    between atoms: C20_47  and  O2_48 
ROOT
HETATM    1  C6  UNL     1       0.936   0.542  -0.607  1.00  0.00     0.002 A 
HETATM    2  C7  UNL     1       1.108   1.687  -1.332  1.00  0.00     0.068 A 
HETATM    3  C9  UNL     1       2.380   2.217  -1.448  1.00  0.00     0.034 A 
HETATM    4  C10 UNL     1       3.444   1.603  -0.848  1.00  0.00     0.033 A 
HETATM    5  C11 UNL     1       3.324   0.443  -0.104  1.00  0.00     0.046 A 
HETATM    6  C16 UNL     1       2.062  -0.088   0.017  1.00  0.00     0.014 A 
ENDROOT
BRANCH   1   7
HETATM    7  C5  UNL     1      -0.378  -0.152  -0.582  1.00  0.00     0.163 C 
BRANCH   7   8
HETATM    8  N3  UNL     1      -1.447   0.756  -0.175  1.00  0.00    -0.369 N 
ATOM      9  H3  UNL     1      -1.214   1.732   0.007  1.00  0.00     0.161 HD
BRANCH   8  10
HETATM   10  C4  UNL     1      -2.663   0.383  -0.036  1.00  0.00     0.148 A 
HETATM   11  C3  UNL     1      -3.085  -0.920  -0.253  1.00  0.00     0.123 A 
HETATM   12  N2  UNL     1      -2.467  -2.053  -0.566  1.00  0.00    -0.346 N 
HETATM   13  C21 UNL     1      -4.422  -1.266  -0.162  1.00  0.00     0.154 A 
HETATM   14  C2  UNL     1      -3.314  -3.085  -0.681  1.00  0.00     0.184 A 
ATOM     15  H2  UNL     1      -1.459  -2.129  -0.704  1.00  0.00     0.167 HD
HETATM   16  N1  UNL     1      -4.548  -2.596  -0.428  1.00  0.00    -0.331 N 
HETATM   17  C1  UNL     1      -5.763  -3.408  -0.450  1.00  0.00     0.158 C 
HETATM   18  N14 UNL     1      -5.341  -0.343   0.144  1.00  0.00    -0.174 N 
HETATM   19  C18 UNL     1      -4.941   0.918   0.357  1.00  0.00     0.681 A 
ATOM     20  H14 UNL     1      -6.327  -0.594   0.214  1.00  0.00     0.186 HD
HETATM   21  N12 UNL     1      -3.617   1.280   0.267  1.00  0.00    -0.175 N 
HETATM   22  N13 UNL     1      -5.802   1.818   0.645  1.00  0.00    -0.224 N 
ATOM     23  H12 UNL     1      -3.353   2.251   0.434  1.00  0.00     0.186 HD
ATOM     24  H13 UNL     1      -5.436   2.758   0.792  1.00  0.00     0.177 HD
BRANCH  22  25
HETATM   25  C19 UNL     1      -7.210   1.666   0.785  1.00  0.00     0.164 C 
BRANCH  25  26
HETATM   26  C20 UNL     1      -7.608   1.878   2.237  1.00  0.00     0.184 C 
BRANCH  26  27
HETATM   27  O2  UNL     1      -7.219   3.182   2.586  1.00  0.00    -0.399 OA
ATOM     28  H2  UNL     1      -7.468   3.314   3.493  1.00  0.00     0.209 HD
ENDBRANCH  26  27
ENDBRANCH  25  26
ENDBRANCH  22  25
ENDBRANCH   8  10
ENDBRANCH   7   8
ENDBRANCH   1   7
BRANCH   2  29
HETATM   29  N4  UNL     1       0.011   2.324  -1.962  1.00  0.00    -0.235 N 
HETATM   30  C8  UNL     1      -0.613   1.917  -3.068  1.00  0.00     0.226 A 
HETATM   31  N5  UNL     1      -1.611   2.807  -3.352  1.00  0.00    -0.279 N 
HETATM   32  N6  UNL     1      -1.580   3.737  -2.416  1.00  0.00    -0.227 N 
ATOM     33  H5  UNL     1      -2.258   2.761  -4.139  1.00  0.00     0.189 HD
HETATM   34  N7  UNL     1      -0.576   3.422  -1.574  1.00  0.00    -0.220 N 
ATOM     35  H6  UNL     1      -2.200   4.544  -2.343  1.00  0.00     0.210 HD
ATOM     36  H7  UNL     1      -0.313   3.965  -0.751  1.00  0.00     0.210 HD
ENDBRANCH   2  29
BRANCH   6  37
HETATM   37  C17 UNL     1       1.819  -1.335   0.752  1.00  0.00     0.114 C 
HETATM   38  N11 UNL     1       2.881  -2.020   1.352  1.00  0.00    -0.114 NA
ENDBRANCH   6  37
BRANCH   5  39
HETATM   39  N8  UNL     1       4.481  -0.046   0.507  1.00  0.00    -0.324 N 
HETATM   40  C12 UNL     1       5.819   0.103   0.016  1.00  0.00     0.262 C 
HETATM   41  O1  UNL     1       6.082   0.683  -1.010  1.00  0.00    -0.270 OA
ATOM     42  H8  UNL     1       4.363  -0.556   1.383  1.00  0.00     0.169 HD
BRANCH  40  43
HETATM   43  C13 UNL     1       6.999  -0.475   0.758  1.00  0.00     0.250 C 
HETATM   44  C14 UNL     1       7.613  -1.531  -0.183  1.00  0.00     0.283 C 
HETATM   45  N10 UNL     1       8.599  -0.577  -0.584  1.00  0.00    -0.069 N 
HETATM   46  C15 UNL     1       8.278   0.238   0.561  1.00  0.00     0.283 C 
ATOM     47 2H10 UNL     1       9.561  -0.875  -0.744  1.00  0.00     0.277 HD
ATOM     48 1H10 UNL     1       8.568  -0.175  -1.521  1.00  0.00     0.277 HD
BRANCH  43  49
HETATM   49  N9  UNL     1       6.700  -1.036   2.050  1.00  0.00    -0.058 N 
ATOM     50  H93 UNL     1       6.226  -0.344   2.631  1.00  0.00     0.275 HD
ATOM     51  H92 UNL     1       5.963  -1.736   1.966  1.00  0.00     0.275 HD
ATOM     52  H91 UNL     1       7.498  -1.427   2.552  1.00  0.00     0.275 HD
ENDBRANCH  43  49
ENDBRANCH  40  43
ENDBRANCH   5  39
TORSDOF 11
