REMARK  15 active torsions:
REMARK  status: ('A' for Active; 'I' for Inactive)
REMARK    1  A    between atoms: N1_1  and  C1_5 
REMARK    2  A    between atoms: C1_5  and  C2_6 
REMARK    3  A    between atoms: C2_6  and  O1_7 
REMARK    4  A    between atoms: O1_7  and  C3_8 
REMARK    5  A    between atoms: C3_8  and  C4_10 
REMARK    6  A    between atoms: C10_23  and  C11_24 
REMARK       I    between atoms: C11_24  and  N5_26 
REMARK    7  A    between atoms: N5_26  and  N6_28 
REMARK    8  A    between atoms: N6_28  and  C12_30 
REMARK    9  A    between atoms: C12_30  and  N7_32 
REMARK   10  A    between atoms: N7_32  and  N8_34 
REMARK   11  A    between atoms: N8_34  and  C13_35 
REMARK   12  A    between atoms: C13_35  and  O4_36 
REMARK   13  A    between atoms: C13_35  and  C14_38 
REMARK   14  A    between atoms: C14_38  and  C15_39 
REMARK   15  A    between atoms: C15_39  and  C16_40 
ROOT
HETATM    1  C11 UNL     1      -1.247   0.714   0.378  1.00  0.00     0.272 C 
HETATM    2  O3  UNL     1      -0.760   0.921   1.517  1.00  0.00    -0.266 OA
HETATM    3  N5  UNL     1      -0.736   1.573  -0.659  1.00  0.00    -0.264 N 
ATOM      4  H5  UNL     1      -1.067   1.513  -1.622  1.00  0.00     0.190 HD
ENDROOT
BRANCH   1   5
HETATM    5  C10 UNL     1      -2.224  -0.300   0.177  1.00  0.00     0.065 C 
HETATM    6  C4  UNL     1      -3.108  -0.526   1.243  1.00  0.00     0.096 C 
HETATM    7  N2  UNL     1      -3.718  -1.663   1.629  1.00  0.00    -0.318 N 
HETATM    8  C5  UNL     1      -3.864  -2.831   0.970  1.00  0.00     0.275 C 
ATOM      9  H2  UNL     1      -4.132  -1.637   2.561  1.00  0.00     0.169 HD
HETATM   10  O2  UNL     1      -4.110  -3.887   1.571  1.00  0.00    -0.266 OA
HETATM   11  C6  UNL     1      -3.749  -2.969  -0.421  1.00  0.00     0.128 A 
HETATM   12  N3  UNL     1      -4.331  -3.935  -1.093  1.00  0.00    -0.295 N 
HETATM   13  C8  UNL     1      -3.034  -2.154  -1.258  1.00  0.00     0.015 A 
HETATM   14  N4  UNL     1      -4.002  -3.760  -2.392  1.00  0.00    -0.310 N 
ATOM     15  H3  UNL     1      -4.918  -4.675  -0.709  1.00  0.00     0.187 HD
HETATM   16  C7  UNL     1      -3.214  -2.682  -2.540  1.00  0.00     0.121 A 
ATOM     17  H4  UNL     1      -4.310  -4.363  -3.155  1.00  0.00     0.186 HD
HETATM   18  C9  UNL     1      -2.284  -1.047  -0.983  1.00  0.00     0.035 C 
BRANCH   6  19
HETATM   19  C3  UNL     1      -3.385   0.685   2.052  1.00  0.00     0.164 C 
HETATM   20  S1  UNL     1      -2.925   0.600   3.637  1.00  0.00    -0.050 SA
BRANCH  19  21
HETATM   21  O1  UNL     1      -3.946   1.741   1.597  1.00  0.00    -0.337 OA
BRANCH  21  22
HETATM   22  C2  UNL     1      -4.502   2.796   1.104  1.00  0.00     0.204 C 
BRANCH  22  23
HETATM   23  C1  UNL     1      -5.653   2.587   0.113  1.00  0.00     0.256 C 
BRANCH  23  24
HETATM   24  N1  UNL     1      -6.731   1.853   0.757  1.00  0.00    -0.077 N 
ATOM     25  H13 UNL     1      -6.408   0.974   1.161  1.00  0.00     0.274 HD
ATOM     26  H12 UNL     1      -7.043   2.305   1.617  1.00  0.00     0.274 HD
ATOM     27  H11 UNL     1      -7.497   1.714   0.098  1.00  0.00     0.274 HD
ENDBRANCH  23  24
ENDBRANCH  22  23
ENDBRANCH  21  22
ENDBRANCH  19  21
ENDBRANCH   6  19
ENDBRANCH   1   5
BRANCH   3  28
HETATM   28  N6  UNL     1       0.254   2.506  -0.262  1.00  0.00    -0.272 N 
ATOM     29  H6  UNL     1       0.016   3.490  -0.136  1.00  0.00     0.189 HD
BRANCH  28  30
HETATM   30  C12 UNL     1       1.561   2.060  -0.046  1.00  0.00     0.216 C 
HETATM   31  S2  UNL     1       2.692   3.171   0.309  1.00  0.00    -0.037 SA
BRANCH  30  32
HETATM   32  N7  UNL     1       1.879   0.710  -0.210  1.00  0.00    -0.206 N 
ATOM     33  H7  UNL     1       1.117   0.109  -0.523  1.00  0.00     0.204 HD
BRANCH  32  34
HETATM   34  N8  UNL     1       3.058   0.103  -0.009  1.00  0.00    -0.302 NA
BRANCH  34  35
HETATM   35  C13 UNL     1       4.176  -0.476   0.186  1.00  0.00     0.214 C 
BRANCH  35  36
HETATM   36  O4  UNL     1       4.281  -1.403   1.251  1.00  0.00    -0.337 OA
ATOM     37  H4  UNL     1       5.115  -1.835   1.396  1.00  0.00     0.220 HD
ENDBRANCH  35  36
BRANCH  35  38
HETATM   38  C14 UNL     1       5.491  -0.419  -0.460  1.00  0.00     0.110 C 
BRANCH  38  39
HETATM   39  C15 UNL     1       6.615  -0.937   0.360  1.00  0.00     0.088 C 
BRANCH  39  40
HETATM   40  C16 UNL     1       7.890  -0.717  -0.321  1.00  0.00     0.113 A 
HETATM   41  N9  UNL     1       8.720   0.308  -0.075  1.00  0.00    -0.272 N 
HETATM   42  N10 UNL     1       9.784   0.195  -0.885  1.00  0.00    -0.227 N 
ATOM     43  H9  UNL     1       8.568   1.047   0.611  1.00  0.00     0.190 HD
HETATM   44  N11 UNL     1       9.640  -0.869  -1.633  1.00  0.00    -0.227 N 
ATOM     45  H10 UNL     1      10.577   0.835  -0.913  1.00  0.00     0.210 HD
HETATM   46  N12 UNL     1       8.449  -1.449  -1.281  1.00  0.00    -0.272 N 
ATOM     47  H11 UNL     1      10.291  -1.203  -2.344  1.00  0.00     0.210 HD
ATOM     48  H12 UNL     1       8.057  -2.299  -1.687  1.00  0.00     0.190 HD
ENDBRANCH  39  40
ENDBRANCH  38  39
ENDBRANCH  35  38
ENDBRANCH  34  35
ENDBRANCH  32  34
ENDBRANCH  30  32
ENDBRANCH  28  30
ENDBRANCH   3  28
TORSDOF 15
