REMARK  14 active torsions:
REMARK  status: ('A' for Active; 'I' for Inactive)
REMARK    1  A    between atoms: C2_2  and  O1_5 
REMARK    2  A    between atoms: O1_5  and  C5_6 
REMARK    3  A    between atoms: C5_6  and  C6_8 
REMARK    4  A    between atoms: C6_8  and  C7_9 
REMARK    5  A    between atoms: C7_9  and  C8_10 
REMARK    6  A    between atoms: C8_10  and  O4_12 
REMARK    7  A    between atoms: O4_12  and  C9_13 
REMARK    8  A    between atoms: C10_14  and  C11_15 
REMARK    9  A    between atoms: C11_15  and  O5_16 
REMARK   10  A    between atoms: C12_19  and  N1_20 
REMARK   11  A    between atoms: N1_20  and  N2_22 
REMARK   12  A    between atoms: C13_27  and  C14_28 
REMARK   13  A    between atoms: C14_28  and  C15_29 
REMARK   14  A    between atoms: C15_29  and  O7_30 
ROOT
HETATM    1  C9  UNL     1      -2.453   0.450   0.533  1.00  0.00     0.171 C 
HETATM    2  C10 UNL     1      -3.117  -0.890   0.863  1.00  0.00     0.177 C 
HETATM    3  O6  UNL     1      -4.019  -1.152  -0.139  1.00  0.00    -0.355 OA
HETATM    4  C12 UNL     1      -3.554  -0.482  -1.295  1.00  0.00     0.244 C 
HETATM    5  C13 UNL     1      -3.226   0.884  -0.673  1.00  0.00     0.070 C 
ENDROOT
BRANCH   1   6
HETATM    6  O4  UNL     1      -1.099   0.163   0.237  1.00  0.00    -0.309 OA
BRANCH   6   7
HETATM    7  C8  UNL     1      -0.042   0.767   0.911  1.00  0.00     0.283 C 
HETATM    8  O3  UNL     1      -0.355   1.589   1.807  1.00  0.00    -0.260 OA
BRANCH   7   9
HETATM    9  C7  UNL     1       1.359   0.450   0.584  1.00  0.00     0.088 C 
BRANCH   9  10
HETATM   10  C6  UNL     1       1.678  -0.411  -0.354  1.00  0.00     0.088 C 
BRANCH  10  11
HETATM   11  C5  UNL     1       3.056  -0.689  -0.638  1.00  0.00     0.283 C 
HETATM   12  O2  UNL     1       3.357  -1.509  -1.531  1.00  0.00    -0.260 OA
BRANCH  11  13
HETATM   13  O1  UNL     1       4.056  -0.057   0.066  1.00  0.00    -0.308 OA
BRANCH  13  14
HETATM   14  C2  UNL     1       5.436  -0.290  -0.170  1.00  0.00     0.060 C 
HETATM   15  C1  UNL     1       6.298   0.540   0.749  1.00  0.00     0.046 C 
HETATM   16  C3  UNL     1       5.733   0.177  -1.596  1.00  0.00     0.046 C 
HETATM   17  C4  UNL     1       5.756  -1.750  -0.033  1.00  0.00     0.046 C 
ENDBRANCH  13  14
ENDBRANCH  11  13
ENDBRANCH  10  11
ENDBRANCH   9  10
ENDBRANCH   7   9
ENDBRANCH   6   7
ENDBRANCH   1   6
BRANCH   2  18
HETATM   18  C11 UNL     1      -2.108  -2.017   0.888  1.00  0.00     0.198 C 
BRANCH  18  19
HETATM   19  O5  UNL     1      -2.769  -3.194   1.129  1.00  0.00    -0.398 OA
ATOM     20  H5  UNL     1      -2.135  -3.902   1.145  1.00  0.00     0.209 HD
ENDBRANCH  18  19
ENDBRANCH   2  18
BRANCH   5  21
HETATM   21  C14 UNL     1      -4.528   1.486  -0.265  1.00  0.00     0.037 C 
BRANCH  21  22
HETATM   22  C15 UNL     1      -4.438   2.690   0.611  1.00  0.00     0.164 C 
BRANCH  22  23
HETATM   23  O7  UNL     1      -3.730   3.693  -0.049  1.00  0.00    -0.401 OA
ATOM     24  H7  UNL     1      -3.673   4.460   0.509  1.00  0.00     0.209 HD
ENDBRANCH  22  23
ENDBRANCH  21  22
ENDBRANCH   5  21
BRANCH   4  25
HETATM   25  N1  UNL     1      -4.614  -0.394  -2.251  1.00  0.00    -0.293 N 
ATOM     26  H1  UNL     1      -4.544   0.250  -3.039  1.00  0.00     0.184 HD
BRANCH  25  27
HETATM   27  N2  UNL     1      -5.618  -1.106  -2.115  1.00  0.00    -0.252 N 
HETATM   28  N3  UNL     1      -6.773  -1.398  -1.748  1.00  0.00    -0.331 N 
ATOM     29  H32 UNL     1      -7.021  -0.519  -1.293  1.00  0.00     0.178 HD
ATOM     30  H31 UNL     1      -7.600  -1.984  -1.636  1.00  0.00     0.178 HD
ATOM     31  H2  UNL     1      -5.326  -1.965  -2.581  1.00  0.00     0.207 HD
ENDBRANCH  25  27
ENDBRANCH   4  25
TORSDOF 14
