REMARK  11 active torsions:
REMARK  status: ('A' for Active; 'I' for Inactive)
REMARK    1  A    between atoms: C2_2  and  S1_4 
REMARK    2  A    between atoms: S1_4  and  C3_5 
REMARK    3  A    between atoms: C3_5  and  C4_6 
REMARK    4  A    between atoms: C4_6  and  O2_7 
REMARK    5  A    between atoms: C4_6  and  C5_9 
REMARK    6  A    between atoms: C5_9  and  C6_10 
REMARK    7  A    between atoms: C6_10  and  O4_12 
REMARK    8  A    between atoms: O4_12  and  C7_13 
REMARK    9  A    between atoms: C7_13  and  C8_14 
REMARK   10  A    between atoms: C8_14  and  C9_15 
REMARK   11  A    between atoms: C9_15  and  O5_16 
ROOT
HETATM    1  C7  UNL     1      -0.213   0.803  -0.247  1.00  0.00     0.221 C 
ENDROOT
BRANCH   1   2
HETATM    2  O4  UNL     1       0.967   0.100  -0.182  1.00  0.00    -0.318 OA
BRANCH   2   3
HETATM    3  C6  UNL     1       1.399  -0.942  -0.948  1.00  0.00     0.261 C 
HETATM    4  O3  UNL     1       0.654  -1.359  -1.866  1.00  0.00    -0.265 OA
BRANCH   3   5
HETATM    5  C5  UNL     1       2.735  -1.597  -0.721  1.00  0.00     0.143 C 
BRANCH   5   6
HETATM    6  C4  UNL     1       3.439  -0.910   0.430  1.00  0.00     0.137 C 
BRANCH   6   7
HETATM    7  C3  UNL     1       4.777  -1.522   0.700  1.00  0.00     0.114 C 
BRANCH   7   8
HETATM    8  S1  UNL     1       5.905  -1.381  -0.694  1.00  0.00    -0.090 SA
BRANCH   8   9
HETATM    9  C2  UNL     1       6.352   0.317  -0.963  1.00  0.00     0.182 C 
HETATM   10  C1  UNL     1       5.845   1.386  -0.091  1.00  0.00     0.104 C 
HETATM   11  O1  UNL     1       7.096   0.618  -1.891  1.00  0.00    -0.286 OA
ENDBRANCH   8   9
ENDBRANCH   7   8
ENDBRANCH   6   7
BRANCH   6  12
HETATM   12  O2  UNL     1       2.647  -1.079   1.579  1.00  0.00    -0.394 OA
ATOM     13  H2  UNL     1       1.797  -0.690   1.408  1.00  0.00     0.210 HD
ENDBRANCH   6  12
ENDBRANCH   5   6
ENDBRANCH   3   5
ENDBRANCH   2   3
ENDBRANCH   1   2
BRANCH   1  14
HETATM   14  C8  UNL     1      -1.486   0.087   0.011  1.00  0.00     0.137 C 
HETATM   15  O6  UNL     1      -1.876  -0.957  -0.772  1.00  0.00    -0.340 OA
HETATM   16  C10 UNL     1      -2.867  -0.268  -1.469  1.00  0.00     0.296 C 
HETATM   17  O7  UNL     1      -4.150  -0.711  -1.279  1.00  0.00    -0.323 OA
HETATM   18  C14 UNL     1      -2.691   0.867  -0.487  1.00  0.00     0.219 C 
HETATM   19  C11 UNL     1      -4.777   0.377  -0.688  1.00  0.00     0.160 C 
HETATM   20  C12 UNL     1      -4.940   1.546  -1.625  1.00  0.00     0.078 C 
HETATM   21  C13 UNL     1      -6.096  -0.021  -0.076  1.00  0.00     0.078 C 
HETATM   22  O8  UNL     1      -3.838   0.758   0.287  1.00  0.00    -0.342 OA
BRANCH  14  23
HETATM   23  C9  UNL     1      -1.696  -0.261   1.495  1.00  0.00     0.207 C 
BRANCH  23  24
HETATM   24  O5  UNL     1      -0.960  -1.367   1.844  1.00  0.00    -0.398 OA
ATOM     25  H5  UNL     1      -1.090  -1.582   2.760  1.00  0.00     0.209 HD
ENDBRANCH  23  24
ENDBRANCH  14  23
ENDBRANCH   1  14
TORSDOF 11
