REMARK  8 active torsions:
REMARK  status: ('A' for Active; 'I' for Inactive)
REMARK    1  A    between atoms: C2_2  and  C3_3 
REMARK    2  A    between atoms: C3_3  and  S1_4 
REMARK    3  A    between atoms: S1_4  and  C4_5 
REMARK    4  A    between atoms: C5_8  and  N2_9 
REMARK    5  A    between atoms: N2_9  and  C6_11 
REMARK    6  A    between atoms: C6_11  and  C7_12 
REMARK    7  A    between atoms: C7_12  and  N3_13 
REMARK    8  A    between atoms: N5_22  and  S2_24 
ROOT
HETATM    1  C4  UNL     1       2.506  -0.544  -0.819  1.00  0.00     0.174 A 
HETATM    2  N1  UNL     1       1.157  -0.454  -0.814  1.00  0.00    -0.169 N 
ATOM      3  H1  UNL     1       0.605  -1.237  -1.166  1.00  0.00     0.186 HD
HETATM    4  C5  UNL     1       0.528   0.634  -0.360  1.00  0.00     0.696 A 
HETATM    5  N4  UNL     1       1.277   1.675   0.109  1.00  0.00    -0.018 N 
HETATM    6  C12 UNL     1       0.574   2.845   0.595  1.00  0.00     0.195 C 
HETATM    7  C13 UNL     1       2.612   1.650   0.132  1.00  0.00     0.706 A 
HETATM    8  N5  UNL     1       3.388   2.564   0.547  1.00  0.00    -0.164 N 
ATOM      9  H5  UNL     1       4.377   2.328   0.468  1.00  0.00     0.192 HD
HETATM   10  N6  UNL     1       3.201   0.488  -0.356  1.00  0.00    -0.169 N 
ATOM     11  H6  UNL     1       4.219   0.426  -0.358  1.00  0.00     0.186 HD
ENDROOT
BRANCH   4  12
HETATM   12  N2  UNL     1      -0.720   0.723  -0.352  1.00  0.00    -0.224 N 
ATOM     13  H2  UNL     1      -1.092   1.598   0.016  1.00  0.00     0.177 HD
BRANCH  12  14
HETATM   14  C6  UNL     1      -1.696  -0.219  -0.782  1.00  0.00     0.158 C 
BRANCH  14  15
HETATM   15  C7  UNL     1      -2.915  -0.173   0.108  1.00  0.00     0.142 C 
BRANCH  15  16
HETATM   16  N3  UNL     1      -3.936  -1.091  -0.267  1.00  0.00    -0.388 N 
HETATM   17  C8  UNL     1      -4.591  -0.816  -1.496  1.00  0.00     0.148 C 
HETATM   18  C9  UNL     1      -6.021  -0.378  -1.292  1.00  0.00     0.187 C 
HETATM   19  O1  UNL     1      -6.656  -1.471  -0.656  1.00  0.00    -0.385 OA
HETATM   20  C10 UNL     1      -6.198  -1.454   0.655  1.00  0.00     0.212 C 
HETATM   21  C11 UNL     1      -4.725  -1.571   0.790  1.00  0.00     0.084 C 
ENDBRANCH  15  16
ENDBRANCH  14  15
ENDBRANCH  12  14
ENDBRANCH   4  12
BRANCH   1  22
HETATM   22  S1  UNL     1       3.354  -1.990  -1.424  1.00  0.00    -0.093 SA
BRANCH  22  23
HETATM   23  C3  UNL     1       3.643  -3.205  -0.133  1.00  0.00     0.082 C 
BRANCH  23  24
HETATM   24  C2  UNL     1       4.594  -2.730   0.918  1.00  0.00     0.006 C 
HETATM   25  C1  UNL     1       5.949  -2.386   0.401  1.00  0.00     0.006 C 
ENDBRANCH  23  24
ENDBRANCH  22  23
ENDBRANCH   1  22
BRANCH   8  26
HETATM   26  S2  UNL     1       3.103   4.116   1.213  1.00  0.00    -0.044 SA
HETATM   27  C14 UNL     1       3.566   5.387  -0.006  1.00  0.00     0.115 C 
ENDBRANCH   8  26
TORSDOF 8
