REMARK  9 active torsions:
REMARK  status: ('A' for Active; 'I' for Inactive)
REMARK    1  A    between atoms: C4_4  and  C5_5 
REMARK    2  A    between atoms: C5_5  and  N1_6 
REMARK    3  A    between atoms: C6_11  and  N4_12 
REMARK    4  A    between atoms: C8_14  and  O1_15 
REMARK    5  A    between atoms: O1_15  and  C9_16 
REMARK    6  A    between atoms: C9_16  and  C10_17 
REMARK    7  A    between atoms: C10_17  and  O2_18 
REMARK    8  A    between atoms: C14_25  and  C15_26 
REMARK    9  A    between atoms: C15_26  and  O3_29 
ROOT
HETATM    1  N1  UNL     1       0.575   0.136  -0.432  1.00  0.00    -0.205 N 
HETATM    2  N2  UNL     1       0.650   1.319   0.129  1.00  0.00    -0.211 N 
ATOM      3  H2  UNL     1      -0.114   1.993   0.188  1.00  0.00     0.210 HD
HETATM    4  N3  UNL     1       1.841   1.499   0.596  1.00  0.00    -0.115 N 
ATOM      5  H3  UNL     1       2.164   2.336   1.081  1.00  0.00     0.207 HD
HETATM    6  C6  UNL     1       2.585   0.415   0.344  1.00  0.00     0.712 A 
HETATM    7  N5  UNL     1       1.762  -0.425  -0.304  1.00  0.00    -0.113 N 
ATOM      8  H5  UNL     1       2.015  -1.353  -0.644  1.00  0.00     0.207 HD
ENDROOT
BRANCH   1   9
HETATM    9  C5  UNL     1      -0.621  -0.383  -1.054  1.00  0.00     0.176 C 
BRANCH   9  10
HETATM   10  C4  UNL     1      -1.511  -1.158  -0.118  1.00  0.00     0.007 C 
HETATM   11  C3  UNL     1      -1.983  -0.329   1.026  1.00  0.00     0.011 C 
HETATM   12  C2  UNL     1      -3.137   0.550   0.518  1.00  0.00    -0.011 C 
HETATM   13  C1  UNL     1      -3.301   1.635   1.577  1.00  0.00     0.010 C 
HETATM   14  C14 UNL     1      -4.336  -0.332   0.424  1.00  0.00     0.023 C 
HETATM   15  C13 UNL     1      -3.964  -1.667  -0.123  1.00  0.00     0.008 C 
HETATM   16  C12 UNL     1      -2.684  -1.663  -0.926  1.00  0.00     0.007 C 
BRANCH  14  17
HETATM   17  C15 UNL     1      -5.499   0.303  -0.302  1.00  0.00     0.054 C 
HETATM   18  C16 UNL     1      -6.652  -0.701  -0.324  1.00  0.00     0.045 C 
HETATM   19  C17 UNL     1      -5.191   0.639  -1.728  1.00  0.00     0.045 C 
BRANCH  17  20
HETATM   20  O3  UNL     1      -5.969   1.432   0.335  1.00  0.00    -0.390 OA
ATOM     21  H3  UNL     1      -6.700   1.831  -0.121  1.00  0.00     0.210 HD
ENDBRANCH  17  20
ENDBRANCH  14  17
ENDBRANCH   9  10
ENDBRANCH   1   9
BRANCH   6  22
HETATM   22  N4  UNL     1       3.949   0.220   0.696  1.00  0.00    -0.210 N 
HETATM   23  C7  UNL     1       4.936   1.027   1.381  1.00  0.00     0.175 C 
HETATM   24  C8  UNL     1       5.997   0.313   0.520  1.00  0.00     0.158 C 
HETATM   25  C11 UNL     1       4.963  -0.804   0.558  1.00  0.00     0.175 C 
BRANCH  24  26
HETATM   26  O1  UNL     1       6.072   0.828  -0.738  1.00  0.00    -0.381 OA
BRANCH  26  27
HETATM   27  C9  UNL     1       7.300   1.093  -1.264  1.00  0.00     0.194 C 
BRANCH  27  28
HETATM   28  C10 UNL     1       8.224  -0.056  -1.455  1.00  0.00     0.190 C 
BRANCH  28  29
HETATM   29  O2  UNL     1       8.573  -0.763  -0.335  1.00  0.00    -0.399 OA
ATOM     30  H2  UNL     1       9.163  -1.497  -0.457  1.00  0.00     0.209 HD
ENDBRANCH  28  29
ENDBRANCH  27  28
ENDBRANCH  26  27
ENDBRANCH  24  26
ENDBRANCH   6  22
TORSDOF 9
