REMARK  10 active torsions:
REMARK  status: ('A' for Active; 'I' for Inactive)
REMARK    1  A    between atoms: C1_2  and  O2_3 
REMARK    2  A    between atoms: C1_2  and  C8_26 
REMARK    3  A    between atoms: O2_3  and  N1_4 
REMARK    4  A    between atoms: N1_4  and  C2_5 
REMARK    5  A    between atoms: C2_5  and  O3_6 
REMARK    6  A    between atoms: C2_5  and  C3_8 
REMARK    7  A    between atoms: C3_8  and  C4_10 
REMARK    8  A    between atoms: C4_10  and  C5_11 
REMARK    9  A    between atoms: C4_10  and  C6_14 
REMARK       I    between atoms: C6_14  and  N2_16 
REMARK   10  A    between atoms: N2_16  and  C7_18 
ROOT
HETATM    1  C4  UNL     1      -2.009  -1.242  -0.214  1.00  0.00     0.253 C 
ENDROOT
BRANCH   1   2
HETATM    2  C3  UNL     1      -0.742  -1.131   0.559  1.00  0.00     0.196 C 
HETATM    3  O4  UNL     1      -0.837  -1.379   1.782  1.00  0.00    -0.292 OA
BRANCH   2   4
HETATM    4  C2  UNL     1       0.582  -0.766  -0.000  1.00  0.00     0.310 C 
BRANCH   4   5
HETATM    5  N1  UNL     1       1.122   0.273   0.861  1.00  0.00    -0.051 NA
BRANCH   5   6
HETATM    6  O2  UNL     1       2.336   0.726   0.463  1.00  0.00    -0.200 OA
BRANCH   6   7
HETATM    7  C1  UNL     1       3.512   0.019   0.486  1.00  0.00     0.313 C 
HETATM    8  O1  UNL     1       3.478  -1.158   0.912  1.00  0.00    -0.258 OA
BRANCH   7   9
HETATM    9  C8  UNL     1       4.751   0.647   0.021  1.00  0.00     0.065 A 
HETATM   10  C9  UNL     1       4.875   1.932  -0.462  1.00  0.00     0.044 A 
HETATM   11  C10 UNL     1       6.221   2.125  -0.793  1.00  0.00     0.142 A 
HETATM   12  O8  UNL     1       6.851   1.025  -0.524  1.00  0.00    -0.334 OA
HETATM   13  C11 UNL     1       6.019   0.108  -0.035  1.00  0.00     0.159 A 
ENDBRANCH   7   9
ENDBRANCH   6   7
ENDBRANCH   5   6
ENDBRANCH   4   5
BRANCH   4  14
HETATM   14  O3  UNL     1       0.419  -0.325  -1.302  1.00  0.00    -0.371 OA
ATOM     15  H3  UNL     1       0.066  -1.004  -1.865  1.00  0.00     0.212 HD
ENDBRANCH   4  14
ENDBRANCH   2   4
ENDBRANCH   1   2
BRANCH   1  16
HETATM   16  C5  UNL     1      -1.977  -2.400  -1.101  1.00  0.00     0.194 C 
HETATM   17  O5  UNL     1      -2.796  -3.350  -0.897  1.00  0.00    -0.647 OA
HETATM   18  O6  UNL     1      -1.075  -2.481  -2.153  1.00  0.00    -0.647 OA
ENDBRANCH   1  16
BRANCH   1  19
HETATM   19  C6  UNL     1      -3.143  -1.310   0.727  1.00  0.00     0.258 C 
HETATM   20  O7  UNL     1      -3.913  -2.280   0.757  1.00  0.00    -0.271 OA
HETATM   21  N2  UNL     1      -3.357  -0.240   1.619  1.00  0.00    -0.156 N 
ATOM     22  H2  UNL     1      -2.822  -0.209   2.487  1.00  0.00     0.187 HD
BRANCH  21  23
HETATM   23  C7  UNL     1      -4.203   0.699   1.379  1.00  0.00     0.713 A 
HETATM   24  N3  UNL     1      -4.467   1.747   2.169  1.00  0.00    -0.118 N 
HETATM   25  N4  UNL     1      -5.388   2.461   1.554  1.00  0.00    -0.212 N 
ATOM     26  H3  UNL     1      -4.039   1.953   3.071  1.00  0.00     0.207 HD
HETATM   27  N5  UNL     1      -5.684   1.866   0.412  1.00  0.00     0.009 NA
ATOM     28  H4  UNL     1      -5.802   3.326   1.901  1.00  0.00     0.206 HD
HETATM   29  N6  UNL     1      -4.957   0.771   0.288  1.00  0.00    -0.113 N 
ATOM     30  H6  UNL     1      -4.971   0.112  -0.490  1.00  0.00     0.203 HD
ENDBRANCH  21  23
ENDBRANCH   1  19
TORSDOF 10
