REMARK  11 active torsions:
REMARK  status: ('A' for Active; 'I' for Inactive)
REMARK    1  A    between atoms: N1_9  and  C7_10 
REMARK    2  A    between atoms: C7_10  and  C8_11 
REMARK    3  A    between atoms: C8_11  and  O3_12 
REMARK    4  A    between atoms: C8_11  and  C9_14 
REMARK    5  A    between atoms: C9_14  and  O4_15 
REMARK    6  A    between atoms: C9_14  and  C10_17 
REMARK    7  A    between atoms: C10_17  and  O5_18 
REMARK    8  A    between atoms: C10_17  and  C12_22 
REMARK    9  A    between atoms: C12_22  and  O6_23 
REMARK   10  A    between atoms: C12_22  and  C13_25 
REMARK   11  A    between atoms: C13_25  and  O7_26 
ROOT
HETATM    1  C10 UNL     1      -3.037  -0.301  -0.196  1.00  0.00     0.202 C 
HETATM    2  C11 UNL     1      -2.505  -1.339  -1.125  1.00  0.00     0.103 C 
HETATM    3  N2  UNL     1      -2.108  -2.159  -1.843  1.00  0.00    -0.194 NA
ENDROOT
BRANCH   1   4
HETATM    4  C9  UNL     1      -2.199   0.934  -0.378  1.00  0.00     0.200 C 
BRANCH   4   5
HETATM    5  C8  UNL     1      -0.741   0.646  -0.492  1.00  0.00     0.171 C 
BRANCH   5   6
HETATM    6  C7  UNL     1      -0.077   0.226   0.786  1.00  0.00     0.194 C 
BRANCH   6   7
HETATM    7  N1  UNL     1       1.329  -0.026   0.540  1.00  0.00    -0.211 N 
HETATM    8  C6  UNL     1       1.864  -1.206   0.181  1.00  0.00     0.286 A 
HETATM    9  C5  UNL     1       3.222  -1.002   0.052  1.00  0.00     0.144 A 
HETATM   10  O2  UNL     1       1.245  -2.285  -0.001  1.00  0.00    -0.265 OA
HETATM   11  C4  UNL     1       4.300  -1.779  -0.280  1.00  0.00     0.195 A 
HETATM   12  C14 UNL     1       3.459   0.321   0.344  1.00  0.00     0.232 A 
HETATM   13  C3  UNL     1       5.566  -1.219  -0.310  1.00  0.00     0.088 A 
HETATM   14  O1  UNL     1       4.102  -2.988  -0.549  1.00  0.00    -0.287 OA
HETATM   15  C2  UNL     1       5.687   0.119   0.001  1.00  0.00     0.056 A 
HETATM   16  C1  UNL     1       7.070   0.701  -0.039  1.00  0.00     0.077 C 
HETATM   17  O9  UNL     1       4.657   0.857   0.317  1.00  0.00    -0.290 OA
HETATM   18  O8  UNL     1       2.284   0.845   0.627  1.00  0.00    -0.205 OA
ENDBRANCH   6   7
ENDBRANCH   5   6
BRANCH   5  19
HETATM   19  O3  UNL     1      -0.108   1.809  -0.939  1.00  0.00    -0.391 OA
ATOM     20  H3  UNL     1      -0.528   2.075  -1.748  1.00  0.00     0.210 HD
ENDBRANCH   5  19
ENDBRANCH   4   5
BRANCH   4  21
HETATM   21  O4  UNL     1      -2.514   1.943   0.501  1.00  0.00    -0.389 OA
ATOM     22  H4  UNL     1      -3.443   2.127   0.574  1.00  0.00     0.210 HD
ENDBRANCH   4  21
ENDBRANCH   1   4
BRANCH   1  23
HETATM   23  O5  UNL     1      -2.944  -0.866   1.066  1.00  0.00    -0.371 OA
ATOM     24  H5  UNL     1      -3.473  -1.646   1.181  1.00  0.00     0.212 HD
ENDBRANCH   1  23
BRANCH   1  25
HETATM   25  C12 UNL     1      -4.482  -0.131  -0.576  1.00  0.00     0.193 C 
BRANCH  25  26
HETATM   26  O6  UNL     1      -5.035  -1.426  -0.568  1.00  0.00    -0.389 OA
ATOM     27  H6  UNL     1      -5.948  -1.319  -0.808  1.00  0.00     0.210 HD
ENDBRANCH  25  26
BRANCH  25  28
HETATM   28  C13 UNL     1      -5.290   0.646   0.445  1.00  0.00     0.200 C 
BRANCH  28  29
HETATM   29  O7  UNL     1      -6.635   0.606   0.004  1.00  0.00    -0.398 OA
ATOM     30  H7  UNL     1      -7.141   1.093   0.644  1.00  0.00     0.209 HD
ENDBRANCH  28  29
ENDBRANCH  25  28
ENDBRANCH   1  25
TORSDOF 11
