REMARK  6 active torsions:
REMARK  status: ('A' for Active; 'I' for Inactive)
REMARK    1  A    between atoms: C2_2  and  S1_4 
REMARK    2  A    between atoms: S1_4  and  C4_5 
REMARK    3  A    between atoms: C6_7  and  S2_8 
REMARK    4  A    between atoms: S2_8  and  C7_9 
REMARK    5  A    between atoms: C10_17  and  O1_18 
REMARK    6  A    between atoms: C11_20  and  O2_21 
ROOT
HETATM    1  C4  UNL     1      -1.840  -0.687   0.595  1.00  0.00     0.085 C 
HETATM    2  C5  UNL     1      -0.656   0.171   0.619  1.00  0.00     0.036 C 
HETATM    3  C6  UNL     1       0.594  -0.368  -0.061  1.00  0.00     0.088 C 
HETATM    4  C10 UNL     1       0.779  -1.799   0.358  1.00  0.00     0.164 C 
HETATM    5  C11 UNL     1      -0.443  -2.551  -0.196  1.00  0.00     0.183 C 
HETATM    6  C12 UNL     1      -1.574  -2.178   0.703  1.00  0.00     0.215 C 
HETATM    7  F1  UNL     1      -1.240  -2.515   2.010  1.00  0.00    -0.245 F 
ENDROOT
BRANCH   3   8
HETATM    8  S2  UNL     1       1.920   0.733   0.456  1.00  0.00    -0.085 SA
BRANCH   8   9
HETATM    9  C7  UNL     1       3.484   0.407  -0.317  1.00  0.00     0.162 A 
HETATM   10  N1  UNL     1       3.826  -0.509  -1.227  1.00  0.00    -0.279 N 
HETATM   11  N2  UNL     1       5.103  -0.356  -1.484  1.00  0.00    -0.294 N 
ATOM     12  H1  UNL     1       3.206  -1.202  -1.646  1.00  0.00     0.189 HD
HETATM   13  C8  UNL     1       5.600   0.650  -0.752  1.00  0.00     0.201 A 
ATOM     14  H2  UNL     1       5.639  -0.920  -2.144  1.00  0.00     0.187 HD
HETATM   15  N3  UNL     1       4.581   1.126  -0.021  1.00  0.00    -0.326 N 
HETATM   16  C9  UNL     1       4.680   2.242   0.929  1.00  0.00     0.159 C 
ENDBRANCH   8   9
ENDBRANCH   3   8
BRANCH   4  17
HETATM   17  O1  UNL     1       1.872  -2.421  -0.163  1.00  0.00    -0.392 OA
ATOM     18  H1  UNL     1       1.989  -3.326   0.102  1.00  0.00     0.210 HD
ENDBRANCH   4  17
BRANCH   1  19
HETATM   19  S1  UNL     1      -3.061  -0.381  -0.685  1.00  0.00    -0.157 SA
BRANCH  19  20
HETATM   20  C2  UNL     1      -3.981   1.143  -0.497  1.00  0.00     0.039 C 
HETATM   21  C1  UNL     1      -4.804   1.091   0.791  1.00  0.00     0.021 C 
HETATM   22  C3  UNL     1      -3.111   2.359  -0.588  1.00  0.00     0.021 C 
ENDBRANCH  19  20
ENDBRANCH   1  19
BRANCH   5  23
HETATM   23  O2  UNL     1      -0.223  -3.913  -0.269  1.00  0.00    -0.390 OA
ATOM     24  H2  UNL     1      -0.978  -4.377  -0.611  1.00  0.00     0.210 HD
ENDBRANCH   5  23
TORSDOF 6
