REMARK  4 active torsions:
REMARK  status: ('A' for Active; 'I' for Inactive)
REMARK    1  A    between atoms: C2_2  and  C4_5 
REMARK    2  A    between atoms: C4_5  and  N1_6 
REMARK    3  A    between atoms: N1_6  and  C5_8 
REMARK    4  A    between atoms: C7_12  and  C8_13 
ROOT
HETATM    1  C5  UNL     1       2.062   1.180   0.140  1.00  0.00     0.215 C 
HETATM    2  S1  UNL     1       2.130   0.087  -1.303  1.00  0.00    -0.116 SA
HETATM    3  C6  UNL     1       0.323   0.221  -1.651  1.00  0.00     0.208 C 
HETATM    4  N2  UNL     1      -0.168   0.453  -0.305  1.00  0.00    -0.312 N 
HETATM    5  C7  UNL     1      -1.352   0.307   0.320  1.00  0.00     0.104 A 
HETATM    6  N4  UNL     1      -1.246   0.695   1.621  1.00  0.00    -0.287 N 
ATOM      7  H4  UNL     1      -1.978   0.695   2.332  1.00  0.00     0.188 HD
HETATM    8  N5  UNL     1      -0.009   1.065   1.758  1.00  0.00    -0.285 N 
ATOM      9  H5  UNL     1       0.403   1.415   2.623  1.00  0.00     0.188 HD
HETATM   10  C13 UNL     1       0.662   0.918   0.573  1.00  0.00     0.134 A 
ENDROOT
BRANCH   5  11
HETATM   11  C8  UNL     1      -2.643  -0.211  -0.235  1.00  0.00     0.058 C 
HETATM   12  C9  UNL     1      -3.212  -1.156   0.770  1.00  0.00     0.040 C 
HETATM   13  C10 UNL     1      -4.678  -0.954   1.055  1.00  0.00     0.233 C 
HETATM   14  N3  UNL     1      -5.320  -0.586  -0.197  1.00  0.00    -0.075 N 
HETATM   15  C11 UNL     1      -4.951   0.805  -0.437  1.00  0.00     0.233 C 
ATOM     16  H32 UNL     1      -5.092  -1.209  -0.972  1.00  0.00     0.277 HD
ATOM     17  H31 UNL     1      -6.327  -0.748  -0.203  1.00  0.00     0.277 HD
HETATM   18  C12 UNL     1      -3.484   1.024  -0.485  1.00  0.00     0.040 C 
ENDBRANCH   5  11
BRANCH   1  19
HETATM   19  N1  UNL     1       2.991   0.968   1.159  1.00  0.00    -0.379 N 
ATOM     20  H1  UNL     1       3.171   1.703   1.842  1.00  0.00     0.160 HD
BRANCH  19  21
HETATM   21  C4  UNL     1       3.676  -0.247   1.248  1.00  0.00     0.091 C 
BRANCH  21  22
HETATM   22  C2  UNL     1       4.806  -0.468   0.304  1.00  0.00    -0.036 C 
HETATM   23  C1  UNL     1       5.468  -1.827   0.395  1.00  0.00     0.050 C 
HETATM   24  C3  UNL     1       5.273   0.386  -0.567  1.00  0.00     0.092 C 
HETATM   25 CL1  UNL     1       6.618  -0.030  -1.603  1.00  0.00    -0.096 Cl
ENDBRANCH  21  22
ENDBRANCH  19  21
ENDBRANCH   1  19
TORSDOF 4
