REMARK  9 active torsions:
REMARK  status: ('A' for Active; 'I' for Inactive)
REMARK    1  A    between atoms: C2_2  and  O1_4 
REMARK    2  A    between atoms: O1_4  and  C4_5 
REMARK    3  A    between atoms: C5_6  and  O2_7 
REMARK    4  A    between atoms: O2_7  and  C6_8 
REMARK    5  A    between atoms: C6_8  and  C7_9 
REMARK    6  A    between atoms: C7_9  and  O3_11 
REMARK    7  A    between atoms: C7_9  and  C9_13 
REMARK    8  A    between atoms: C13_22  and  N3_23 
REMARK    9  A    between atoms: C17_27  and  N4_28 
ROOT
HETATM    1  C4  UNL     1      -0.602  -0.149   0.409  1.00  0.00     0.164 A 
HETATM    2  C5  UNL     1       0.705  -0.433   0.824  1.00  0.00     0.181 A 
HETATM    3  N1  UNL     1       0.927  -1.179   1.902  1.00  0.00    -0.331 N 
ATOM      4  H1  UNL     1       1.883  -1.380   2.196  1.00  0.00     0.168 HD
HETATM    5  C12 UNL     1      -0.111  -1.668   2.605  1.00  0.00     0.184 A 
HETATM    6  N2  UNL     1      -1.373  -1.409   2.226  1.00  0.00    -0.336 N 
ATOM      7  H2  UNL     1      -2.145  -1.790   2.773  1.00  0.00     0.168 HD
HETATM    8  C13 UNL     1      -1.650  -0.641   1.116  1.00  0.00     0.142 A 
ENDROOT
BRANCH   2   9
HETATM    9  O2  UNL     1       1.822   0.043   0.142  1.00  0.00    -0.330 OA
BRANCH   9  10
HETATM   10  C6  UNL     1       3.136  -0.249   0.568  1.00  0.00     0.218 C 
BRANCH  10  11
HETATM   11  C7  UNL     1       4.115   0.407  -0.368  1.00  0.00     0.111 C 
HETATM   12  C8  UNL     1       3.845   1.894  -0.366  1.00  0.00     0.051 C 
BRANCH  11  13
HETATM   13  O3  UNL     1       3.920  -0.086  -1.652  1.00  0.00    -0.385 OA
ATOM     14  H3  UNL     1       4.538   0.328  -2.243  1.00  0.00     0.210 HD
ENDBRANCH  11  13
BRANCH  11  15
HETATM   15  C9  UNL     1       5.553   0.155   0.062  1.00  0.00     0.128 C 
HETATM   16  C10 UNL     1       5.855  -1.314   0.083  1.00  0.00     0.054 C 
HETATM   17  C11 UNL     1       5.827   0.771   1.402  1.00  0.00     0.054 C 
HETATM   18  F1  UNL     1       6.361   0.786  -0.868  1.00  0.00    -0.240 F 
ENDBRANCH  11  15
ENDBRANCH  10  11
ENDBRANCH   9  10
ENDBRANCH   2   9
BRANCH   1  19
HETATM   19  O1  UNL     1      -0.752   0.622  -0.698  1.00  0.00    -0.339 OA
BRANCH  19  20
HETATM   20  C2  UNL     1      -0.870   0.318  -2.035  1.00  0.00     0.121 C 
HETATM   21  C1  UNL     1       0.506   0.620  -2.674  1.00  0.00     0.040 C 
HETATM   22  C3  UNL     1      -1.826   1.260  -2.699  1.00  0.00     0.040 C 
ENDBRANCH  19  20
ENDBRANCH   1  19
BRANCH   8  23
HETATM   23  N3  UNL     1      -3.008  -0.448   0.775  1.00  0.00    -0.363 N 
HETATM   24  C14 UNL     1      -3.603  -1.181  -0.332  1.00  0.00     0.124 C 
HETATM   25  C15 UNL     1      -4.873  -1.887   0.116  1.00  0.00     0.022 C 
HETATM   26  C16 UNL     1      -5.773  -0.970   0.895  1.00  0.00     0.036 C 
HETATM   27  C17 UNL     1      -5.225   0.435   0.785  1.00  0.00     0.201 C 
HETATM   28  C18 UNL     1      -3.886   0.454   1.487  1.00  0.00     0.157 C 
BRANCH  27  29
HETATM   29  N4  UNL     1      -6.131   1.404   1.384  1.00  0.00    -0.073 N 
ATOM     30  H43 UNL     1      -7.068   1.335   0.987  1.00  0.00     0.274 HD
ATOM     31  H42 UNL     1      -6.352   1.163   2.350  1.00  0.00     0.274 HD
ATOM     32  H41 UNL     1      -5.761   2.352   1.310  1.00  0.00     0.274 HD
ENDBRANCH  27  29
ENDBRANCH   8  23
TORSDOF 9
