REMARK  6 active torsions:
REMARK  status: ('A' for Active; 'I' for Inactive)
REMARK    1  A    between atoms: C2_2  and  C3_3 
REMARK    2  A    between atoms: C3_3  and  C4_4 
REMARK    3  A    between atoms: C4_4  and  C5_5 
REMARK    4  A    between atoms: C5_5  and  C6_6 
REMARK    5  A    between atoms: N1_8  and  N2_10 
REMARK    6  A    between atoms: C10_17  and  N4_18 
ROOT
HETATM    1  N2  UNL     1       0.346   1.382   0.886  1.00  0.00    -0.062 N 
HETATM    2  C7  UNL     1      -0.902   0.860   0.668  1.00  0.00     0.197 A 
HETATM    3  C8  UNL     1      -2.019   1.585   1.002  1.00  0.00     0.075 A 
HETATM    4  C9  UNL     1      -1.812   2.844   1.558  1.00  0.00     0.270 A 
HETATM    5  O1  UNL     1      -2.850   3.502   1.861  1.00  0.00    -0.267 OA
HETATM    6  N3  UNL     1      -0.567   3.314   1.754  1.00  0.00    -0.154 N 
ATOM      7  H3  UNL     1      -0.446   4.240   2.165  1.00  0.00     0.187 HD
HETATM    8  C10 UNL     1       0.523   2.598   1.424  1.00  0.00     0.702 A 
HETATM    9  C11 UNL     1      -3.219   0.811   0.673  1.00  0.00     0.108 C 
HETATM   10  C12 UNL     1      -4.032   1.367  -0.457  1.00  0.00     0.186 C 
HETATM   11  O2  UNL     1      -5.137   0.497  -0.608  1.00  0.00    -0.355 OA
HETATM   12  C13 UNL     1      -4.686  -0.795  -0.827  1.00  0.00     0.159 C 
HETATM   13  C14 UNL     1      -5.315  -1.722   0.212  1.00  0.00     0.078 C 
HETATM   14  C15 UNL     1      -5.278  -1.219  -2.179  1.00  0.00     0.078 C 
HETATM   15  O3  UNL     1      -3.324  -0.920  -0.900  1.00  0.00    -0.325 OA
HETATM   16  C16 UNL     1      -2.708  -0.534   0.278  1.00  0.00     0.282 C 
HETATM   17  O4  UNL     1      -1.337  -0.339   0.141  1.00  0.00    -0.301 OA
ENDROOT
BRANCH   1  18
HETATM   18  N1  UNL     1       1.450   0.633   0.542  1.00  0.00    -0.270 N 
HETATM   19  C6  UNL     1       1.982   0.615  -0.610  1.00  0.00     0.096 C 
HETATM   20 CL1  UNL     1       1.320   1.590  -1.912  1.00  0.00    -0.068 Cl
ATOM     21  H1  UNL     1       1.870   0.050   1.266  1.00  0.00     0.189 HD
BRANCH  19  22
HETATM   22  C5  UNL     1       3.171  -0.223  -0.890  1.00  0.00     0.072 C 
BRANCH  22  23
HETATM   23  C4  UNL     1       3.562  -0.962   0.349  1.00  0.00     0.007 C 
BRANCH  23  24
HETATM   24  C3  UNL     1       4.779  -1.833   0.098  1.00  0.00     0.000 C 
BRANCH  24  25
HETATM   25  C2  UNL     1       5.969  -1.019  -0.340  1.00  0.00    -0.005 C 
HETATM   26  C1  UNL     1       7.120  -1.992  -0.559  1.00  0.00     0.005 C 
ENDBRANCH  24  25
ENDBRANCH  23  24
ENDBRANCH  22  23
ENDBRANCH  19  22
ENDBRANCH   1  18
BRANCH   8  27
HETATM   27  N4  UNL     1       1.731   3.046   1.610  1.00  0.00    -0.233 N 
ATOM     28  H42 UNL     1       2.557   2.503   1.360  1.00  0.00     0.174 HD
ATOM     29  H41 UNL     1       1.866   3.971   2.019  1.00  0.00     0.174 HD
ENDBRANCH   8  27
TORSDOF 6
