REMARK  7 active torsions:
REMARK  status: ('A' for Active; 'I' for Inactive)
REMARK    1  A    between atoms: C4_5  and  C5_6 
REMARK    2  A    between atoms: C6_9  and  S1_10 
REMARK    3  A    between atoms: S1_10  and  C7_11 
REMARK    4  A    between atoms: C7_11  and  C8_12 
REMARK    5  A    between atoms: C9_16  and  N2_17 
REMARK    6  A    between atoms: C10_19  and  C11_20 
REMARK    7  A    between atoms: C10_19  and  N3_22 
ROOT
HETATM    1  C1  UNL     1      -1.259  -1.548  -1.496  1.00  0.00     0.040 C 
HETATM    2  C2  UNL     1      -0.790  -1.076  -0.146  1.00  0.00     0.110 C 
HETATM    3  C3  UNL     1      -1.093  -2.183   0.809  1.00  0.00     0.077 C 
HETATM    4  N1  UNL     1      -1.353  -3.042   1.574  1.00  0.00    -0.196 NA
HETATM    5  C4  UNL     1       0.682  -0.927  -0.181  1.00  0.00     0.067 C 
HETATM    6  C6  UNL     1       1.177   0.238  -0.094  1.00  0.00     0.054 C 
HETATM    7  S2  UNL     1      -0.312   1.403  -0.064  1.00  0.00    -0.094 SA
HETATM    8  C9  UNL     1      -1.460   0.110   0.387  1.00  0.00     0.178 C 
ENDROOT
BRANCH   5   9
HETATM    9  C5  UNL     1       1.428  -2.182  -0.361  1.00  0.00     0.209 C 
HETATM   10  O1  UNL     1       0.774  -3.312  -0.440  1.00  0.00    -0.644 OA
HETATM   11  O2  UNL     1       2.762  -2.375  -0.466  1.00  0.00    -0.644 OA
ENDBRANCH   5   9
BRANCH   8  12
HETATM   12  N2  UNL     1      -2.794   0.327  -0.132  1.00  0.00    -0.358 N 
HETATM   13  C10 UNL     1      -3.581   1.213   0.333  1.00  0.00     0.161 C 
ATOM     14  H2  UNL     1      -3.118  -0.256  -0.904  1.00  0.00     0.162 HD
BRANCH  13  15
HETATM   15  C11 UNL     1      -3.224   2.132   1.466  1.00  0.00     0.197 C 
HETATM   16 CL1  UNL     1      -4.337   1.899   2.811  1.00  0.00    -0.122 Cl
ENDBRANCH  13  15
BRANCH  13  17
HETATM   17  N3  UNL     1      -4.880   1.387  -0.209  1.00  0.00    -0.102 N 
HETATM   18  O5  UNL     1      -5.867   1.122   0.495  1.00  0.00    -0.531 OA
HETATM   19  O6  UNL     1      -5.047   1.837  -1.485  1.00  0.00    -0.531 OA
ENDBRANCH  13  17
ENDBRANCH   8  12
BRANCH   6  20
HETATM   20  S1  UNL     1       2.721   0.984  -0.070  1.00  0.00    -0.112 SA
BRANCH  20  21
HETATM   21  C7  UNL     1       4.203   0.128   0.009  1.00  0.00     0.193 C 
BRANCH  21  22
HETATM   22  C8  UNL     1       5.374   1.138   0.130  1.00  0.00     0.182 C 
HETATM   23  O3  UNL     1       6.500   0.606   0.197  1.00  0.00    -0.647 OA
HETATM   24  O4  UNL     1       5.145   2.480   0.158  1.00  0.00    -0.647 OA
ENDBRANCH  21  22
ENDBRANCH  20  21
ENDBRANCH   6  20
TORSDOF 7
