REMARK  8 active torsions:
REMARK  status: ('A' for Active; 'I' for Inactive)
REMARK    1  A    between atoms: C2_2  and  O1_3 
REMARK    2  A    between atoms: O1_3  and  C3_4 
REMARK    3  A    between atoms: C3_4  and  C4_5 
REMARK    4  A    between atoms: C3_4  and  C6_7 
REMARK       I    between atoms: N1_9  and  C8_10 
REMARK    5  A    between atoms: C8_10  and  C9_12 
REMARK    6  A    between atoms: C9_12  and  S1_13 
REMARK    7  A    between atoms: S1_13  and  C10_14 
REMARK    8  A    between atoms: C11_17  and  N3_18 
ROOT
HETATM    1  C6  UNL     1      -1.281   0.394  -0.338  1.00  0.00     0.071 C 
HETATM    2  C7  UNL     1      -0.149  -0.546  -0.798  1.00  0.00     0.169 C 
HETATM    3  N1  UNL     1       0.967   0.358  -0.592  1.00  0.00    -0.224 N 
HETATM    4  C8  UNL     1       2.293   0.103  -0.987  1.00  0.00     0.253 C 
HETATM    5  O2  UNL     1       3.214   0.932  -0.777  1.00  0.00    -0.270 OA
HETATM    6  O3  UNL     1       0.569   1.488   0.033  1.00  0.00    -0.264 OA
HETATM    7  C12 UNL     1      -0.610   1.092   0.753  1.00  0.00     0.089 C 
HETATM    8  C13 UNL     1      -0.068   0.328   1.902  1.00  0.00     0.049 C 
HETATM    9  C14 UNL     1      -1.250   2.400   1.166  1.00  0.00     0.049 C 
ENDROOT
BRANCH   4  10
HETATM   10  C9  UNL     1       2.670  -1.161  -1.675  1.00  0.00     0.187 C 
BRANCH  10  11
HETATM   11  S1  UNL     1       4.421  -1.235  -2.069  1.00  0.00    -0.084 SA
BRANCH  11  12
HETATM   12  C10 UNL     1       5.429  -1.314  -0.552  1.00  0.00     0.152 A 
HETATM   13  N2  UNL     1       5.859  -0.245   0.035  1.00  0.00    -0.316 N 
HETATM   14  C11 UNL     1       6.590  -0.356   1.136  1.00  0.00     0.160 A 
ATOM     15  H2  UNL     1       5.638   0.675  -0.345  1.00  0.00     0.170 HD
HETATM   16  S2  UNL     1       6.659  -2.051   1.328  1.00  0.00     0.024 SA
HETATM   17  N4  UNL     1       5.745  -2.499  -0.017  1.00  0.00    -0.304 N 
ATOM     18  H4  UNL     1       5.497  -3.434  -0.340  1.00  0.00     0.176 HD
BRANCH  14  19
HETATM   19  N3  UNL     1       7.114   0.600   1.870  1.00  0.00    -0.378 N 
ATOM     20  H32 UNL     1       7.073   1.613   1.755  1.00  0.00     0.158 HD
ATOM     21  H31 UNL     1       7.676   0.515   2.717  1.00  0.00     0.158 HD
ENDBRANCH  14  19
ENDBRANCH  11  12
ENDBRANCH  10  11
ENDBRANCH   4  10
BRANCH   1  22
HETATM   22  C3  UNL     1      -2.600  -0.163  -0.324  1.00  0.00     0.129 C 
BRANCH  22  23
HETATM   23  O1  UNL     1      -3.582   0.721   0.099  1.00  0.00    -0.386 OA
BRANCH  23  24
HETATM   24  C2  UNL     1      -4.464   1.101  -0.897  1.00  0.00     0.163 C 
HETATM   25  C1  UNL     1      -3.820   1.816  -2.058  1.00  0.00     0.033 C 
ENDBRANCH  23  24
ENDBRANCH  22  23
BRANCH  22  26
HETATM   26  C4  UNL     1      -2.912  -1.492   0.268  1.00  0.00     0.028 C 
HETATM   27  C5  UNL     1      -2.969  -1.541   1.772  1.00  0.00     0.007 C 
ENDBRANCH  22  26
ENDBRANCH   1  22
TORSDOF 8
