REMARK  7 active torsions:
REMARK  status: ('A' for Active; 'I' for Inactive)
REMARK    1  A    between atoms: O1_2  and  S1_3 
REMARK    2  A    between atoms: S1_3  and  O4_6 
REMARK    3  A    between atoms: O4_6  and  C2_7 
REMARK    4  A    between atoms: C4_9  and  O5_10 
REMARK    5  A    between atoms: C7_14  and  C8_15 
REMARK    6  A    between atoms: C8_15  and  C9_16 
REMARK    7  A    between atoms: C10_17  and  O6_18 
ROOT
HETATM    1  C2  UNL     1       3.494  -0.476   0.183  1.00  0.00     0.159 C 
HETATM    2  C3  UNL     1       3.299  -1.947   0.488  1.00  0.00     0.066 C 
HETATM    3  C4  UNL     1       2.151  -2.182   1.434  1.00  0.00     0.124 C 
HETATM    4  C5  UNL     1       0.882  -1.807   0.738  1.00  0.00     0.066 C 
HETATM    5  C6  UNL     1       1.012  -0.582  -0.084  1.00  0.00    -0.071 C 
HETATM    6  C7  UNL     1      -0.087  -0.162  -0.713  1.00  0.00    -0.023 C 
HETATM    7  C17 UNL     1       2.246   0.198  -0.260  1.00  0.00     0.003 C 
HETATM    8  C18 UNL     1       2.314   0.599  -1.732  1.00  0.00     0.022 C 
HETATM    9  C19 UNL     1       2.048   1.507   0.515  1.00  0.00     0.022 C 
ENDROOT
BRANCH   6  10
HETATM   10  C8  UNL     1      -1.397  -0.861  -0.617  1.00  0.00     0.035 C 
BRANCH  10  11
HETATM   11  C9  UNL     1      -2.454   0.050  -0.039  1.00  0.00     0.026 C 
HETATM   12  C10 UNL     1      -2.663   1.286  -0.883  1.00  0.00     0.126 C 
HETATM   13  C11 UNL     1      -3.962   1.823  -0.312  1.00  0.00     0.070 C 
HETATM   14  C12 UNL     1      -4.794   0.566  -0.201  1.00  0.00     0.065 C 
HETATM   15  C13 UNL     1      -5.673   0.462  -1.427  1.00  0.00     0.046 C 
HETATM   16  O7  UNL     1      -5.602   0.549   0.908  1.00  0.00    -0.379 OA
HETATM   17  C16 UNL     1      -3.825  -0.589  -0.087  1.00  0.00     0.047 C 
HETATM   18  C14 UNL     1      -4.980  -0.154   1.908  1.00  0.00     0.189 C 
HETATM   19  C15 UNL     1      -4.164  -1.234   1.245  1.00  0.00     0.113 C 
HETATM   20 CL1  UNL     1      -5.124  -2.690   0.920  1.00  0.00    -0.122 Cl
BRANCH  12  21
HETATM   21  O6  UNL     1      -2.856   0.919  -2.212  1.00  0.00    -0.395 OA
ATOM     22  H6  UNL     1      -2.987   1.696  -2.743  1.00  0.00     0.210 HD
ENDBRANCH  12  21
ENDBRANCH  10  11
ENDBRANCH   6  10
BRANCH   3  23
HETATM   23  O5  UNL     1       2.106  -3.549   1.705  1.00  0.00    -0.395 OA
ATOM     24  H5  UNL     1       1.382  -3.697   2.302  1.00  0.00     0.210 HD
ENDBRANCH   3  23
BRANCH   1  25
HETATM   25  O4  UNL     1       4.428  -0.415  -0.847  1.00  0.00    -0.247 OA
BRANCH  25  26
HETATM   26  S1  UNL     1       5.826   0.378  -0.416  1.00  0.00     0.402 S 
HETATM   27  O2  UNL     1       6.065   1.492  -1.392  1.00  0.00    -0.169 OA
HETATM   28  O3  UNL     1       6.975  -0.591  -0.579  1.00  0.00    -0.169 OA
BRANCH  26  29
HETATM   29  O1  UNL     1       5.823   0.896   1.169  1.00  0.00    -0.259 OA
HETATM   30  C1  UNL     1       5.814   2.291   1.169  1.00  0.00     0.228 C 
ENDBRANCH  26  29
ENDBRANCH  25  26
ENDBRANCH   1  25
TORSDOF 7
