REMARK  8 active torsions:
REMARK  status: ('A' for Active; 'I' for Inactive)
REMARK    1  A    between atoms: C2_2  and  O1_3 
REMARK    2  A    between atoms: C9_12  and  N1_13 
REMARK    3  A    between atoms: N1_13  and  O2_14 
REMARK    4  A    between atoms: O2_14  and  C10_15 
REMARK    5  A    between atoms: C10_15  and  C11_16 
REMARK    6  A    between atoms: C11_16  and  O3_17 
REMARK    7  A    between atoms: C11_16  and  C12_19 
REMARK    8  A    between atoms: C12_19  and  N2_20 
ROOT
HETATM    1  C1  UNL     1      -5.775   1.221  -0.280  1.00  0.00     0.054 C 
HETATM    2  C2  UNL     1      -4.489   0.964  -1.072  1.00  0.00     0.116 C 
HETATM    3  C3  UNL     1      -3.311   1.575  -0.391  1.00  0.00     0.057 C 
HETATM    4  C4  UNL     1      -2.412   0.461   0.068  1.00  0.00    -0.013 C 
HETATM    5  C5  UNL     1      -2.038   0.678   1.536  1.00  0.00     0.018 C 
HETATM    6  C6  UNL     1      -3.254  -0.757  -0.012  1.00  0.00     0.092 C 
HETATM    7  C7  UNL     1      -2.533  -2.020  -0.095  1.00  0.00     0.008 C 
HETATM    8  C8  UNL     1      -1.220  -2.048  -0.174  1.00  0.00     0.048 C 
HETATM    9 BR1  UNL     1      -0.390  -3.760  -0.277  1.00  0.00    -0.048 Br
HETATM   10  C9  UNL     1      -0.387  -0.833  -0.184  1.00  0.00     0.143 C 
HETATM   11  C16 UNL     1      -1.141   0.383  -0.704  1.00  0.00     0.021 C 
HETATM   12  C17 UNL     1      -0.284   1.598  -0.434  1.00  0.00     0.023 C 
HETATM   13  C18 UNL     1      -1.281   0.250  -2.180  1.00  0.00     0.023 C 
HETATM   14  C19 UNL     1      -4.226  -0.522  -1.111  1.00  0.00     0.169 C 
HETATM   15  O4  UNL     1      -4.700  -1.324  -1.864  1.00  0.00    -0.294 OA
ENDROOT
BRANCH  10  16
HETATM   16  N1  UNL     1       0.774  -0.753   0.171  1.00  0.00    -0.284 NA
BRANCH  16  17
HETATM   17  O2  UNL     1       1.902  -1.089   0.611  1.00  0.00    -0.206 OA
BRANCH  17  18
HETATM   18  C10 UNL     1       2.955  -1.942   0.322  1.00  0.00     0.251 C 
BRANCH  18  19
HETATM   19  C11 UNL     1       4.071  -1.793   1.368  1.00  0.00     0.165 C 
BRANCH  19  20
HETATM   20  O3  UNL     1       3.600  -2.099   2.637  1.00  0.00    -0.392 OA
ATOM     21  H3  UNL     1       4.290  -2.007   3.284  1.00  0.00     0.210 HD
ENDBRANCH  19  20
BRANCH  19  22
HETATM   22  C12 UNL     1       4.600  -0.391   1.410  1.00  0.00     0.182 C 
BRANCH  22  23
HETATM   23  N2  UNL     1       5.163   0.075   0.179  1.00  0.00    -0.301 N 
HETATM   24  C13 UNL     1       6.461  -0.048  -0.214  1.00  0.00     0.111 A 
HETATM   25  C14 UNL     1       6.581   0.532  -1.447  1.00  0.00     0.037 A 
HETATM   26  C15 UNL     1       5.317   1.008  -1.787  1.00  0.00     0.108 A 
HETATM   27  N3  UNL     1       4.512   0.702  -0.769  1.00  0.00    -0.310 N 
ATOM     28  H3  UNL     1       3.518   0.927  -0.733  1.00  0.00     0.186 HD
ENDBRANCH  22  23
ENDBRANCH  19  22
ENDBRANCH  18  19
ENDBRANCH  17  18
ENDBRANCH  16  17
ENDBRANCH  10  16
BRANCH   2  29
HETATM   29  O1  UNL     1      -4.612   1.478  -2.355  1.00  0.00    -0.382 OA
ATOM     30  H1  UNL     1      -3.815   1.319  -2.846  1.00  0.00     0.211 HD
ENDBRANCH   2  29
TORSDOF 8
