REMARK  6 active torsions:
REMARK  status: ('A' for Active; 'I' for Inactive)
REMARK    1  A    between atoms: C2_2  and  C4_4 
REMARK    2  A    between atoms: C6_6  and  O1_7 
REMARK    3  A    between atoms: N1_10  and  C8_11 
REMARK    4  A    between atoms: C10_13  and  N2_14 
REMARK    5  A    between atoms: C15_20  and  N3_21 
REMARK    6  A    between atoms: C22_28  and  C23_29 
ROOT
HETATM    1  C8  UNL     1      -1.396  -0.222  -0.210  1.00  0.00     0.107 A 
HETATM    2  C9  UNL     1      -1.571   1.117   0.050  1.00  0.00     0.081 A 
HETATM    3  C10 UNL     1      -0.531   2.026   0.189  1.00  0.00     0.076 A 
HETATM    4  C14 UNL     1       0.754   1.557   0.060  1.00  0.00     0.186 A 
HETATM    5  F1  UNL     1       1.787   2.442   0.198  1.00  0.00    -0.200 F 
HETATM    6  C15 UNL     1       0.955   0.209  -0.203  1.00  0.00     0.147 A 
HETATM    7  N4  UNL     1      -0.085  -0.601  -0.323  1.00  0.00    -0.326 N 
ATOM      8  H4  UNL     1       0.105  -1.585  -0.515  1.00  0.00     0.169 HD
ENDROOT
BRANCH   6   9
HETATM    9  N3  UNL     1       2.282  -0.288  -0.351  1.00  0.00    -0.350 N 
HETATM   10  C16 UNL     1       3.070   0.268  -1.427  1.00  0.00     0.126 C 
HETATM   11  C17 UNL     1       4.505   0.500  -1.072  1.00  0.00     0.028 C 
HETATM   12  C18 UNL     1       5.058  -0.826  -0.584  1.00  0.00    -0.044 C 
HETATM   13  C19 UNL     1       6.512  -0.626  -0.244  1.00  0.00     0.015 C 
HETATM   14  C20 UNL     1       4.882  -1.929  -1.589  1.00  0.00     0.015 C 
HETATM   15  C21 UNL     1       4.331  -1.165   0.672  1.00  0.00     0.045 C 
HETATM   16  C22 UNL     1       2.826  -1.300   0.502  1.00  0.00     0.187 C 
BRANCH  16  17
HETATM   17  C23 UNL     1       2.272  -1.318   1.869  1.00  0.00     0.196 C 
HETATM   18  O2  UNL     1       1.438  -0.481   2.238  1.00  0.00    -0.646 OA
HETATM   19  O3  UNL     1       2.699  -2.293   2.747  1.00  0.00    -0.646 OA
ENDBRANCH  16  17
ENDBRANCH   6   9
BRANCH   3  20
HETATM   20  N2  UNL     1      -0.756   3.398   0.457  1.00  0.00    -0.378 N 
HETATM   21  C11 UNL     1      -0.449   4.649  -0.206  1.00  0.00     0.124 C 
HETATM   22  C12 UNL     1      -1.657   5.252   0.478  1.00  0.00     0.040 C 
HETATM   23  C13 UNL     1      -1.389   4.169   1.506  1.00  0.00     0.124 C 
ENDBRANCH   3  20
BRANCH   1  24
HETATM   24  N1  UNL     1      -2.384  -1.195  -0.344  1.00  0.00    -0.360 N 
HETATM   25  C4  UNL     1      -3.740  -1.408   0.005  1.00  0.00     0.091 C 
HETATM   26  C5  UNL     1      -4.370  -1.630  -1.367  1.00  0.00     0.059 C 
HETATM   27  C6  UNL     1      -3.264  -2.429  -2.071  1.00  0.00     0.138 C 
HETATM   28  C7  UNL     1      -2.100  -2.474  -1.077  1.00  0.00     0.156 C 
BRANCH  25  29
HETATM   29  C2  UNL     1      -4.461  -0.457   0.858  1.00  0.00     0.000 C 
HETATM   30  C1  UNL     1      -5.878  -1.066   1.052  1.00  0.00     0.011 C 
HETATM   31  C3  UNL     1      -3.841  -0.437   2.233  1.00  0.00     0.011 C 
ENDBRANCH  25  29
BRANCH  27  32
HETATM   32  O1  UNL     1      -2.824  -1.762  -3.197  1.00  0.00    -0.394 OA
ATOM     33  H1  UNL     1      -2.140  -2.256  -3.633  1.00  0.00     0.210 HD
ENDBRANCH  27  32
ENDBRANCH   1  24
TORSDOF 6
