REMARK  11 active torsions:
REMARK  status: ('A' for Active; 'I' for Inactive)
REMARK    1  A    between atoms: N1_1  and  C1_5 
REMARK    2  A    between atoms: C1_5  and  C2_6 
REMARK    3  A    between atoms: C2_6  and  N2_7 
REMARK    4  A    between atoms: N2_7  and  C3_9 
REMARK    5  A    between atoms: C3_9  and  C4_10 
REMARK    6  A    between atoms: C4_10  and  O1_11 
REMARK    7  A    between atoms: O1_11  and  C5_12 
REMARK    8  A    between atoms: C5_12  and  C6_13 
REMARK    9  A    between atoms: C6_13  and  N3_14 
REMARK       I    between atoms: N3_14  and  C7_16 
REMARK   10  A    between atoms: C7_16  and  C8_18 
REMARK   11  A    between atoms: N4_19  and  C9_21 
ROOT
HETATM    1  C8  UNL     1      -1.771  -1.380  -0.299  1.00  0.00     0.162 C 
HETATM    2  N4  UNL     1      -2.883  -0.614  -0.421  1.00  0.00    -0.359 N 
ATOM      3  H4  UNL     1      -2.540   0.267  -0.804  1.00  0.00     0.165 HD
ENDROOT
BRANCH   1   4
HETATM    4  C7  UNL     1      -0.433  -0.751  -0.621  1.00  0.00     0.256 C 
HETATM    5  N3  UNL     1       0.722  -1.559  -0.495  1.00  0.00    -0.354 N 
ATOM      6  H3  UNL     1       0.617  -2.530  -0.199  1.00  0.00     0.162 HD
HETATM    7  O2  UNL     1      -0.395   0.432  -0.978  1.00  0.00    -0.267 OA
BRANCH   5   8
HETATM    8  C6  UNL     1       2.035  -1.055  -0.770  1.00  0.00     0.149 C 
BRANCH   8   9
HETATM    9  C5  UNL     1       2.365   0.075   0.168  1.00  0.00     0.187 C 
BRANCH   9  10
HETATM   10  O1  UNL     1       3.661   0.491  -0.182  1.00  0.00    -0.388 OA
BRANCH  10  11
HETATM   11  C4  UNL     1       4.079   1.547   0.631  1.00  0.00     0.186 C 
BRANCH  11  12
HETATM   12  C3  UNL     1       5.460   1.971   0.240  1.00  0.00     0.140 C 
BRANCH  12  13
HETATM   13  N2  UNL     1       6.349   0.865   0.400  1.00  0.00    -0.418 N 
ATOM     14  H2  UNL     1       6.037  -0.047   0.733  1.00  0.00     0.153 HD
BRANCH  13  15
HETATM   15  C2  UNL     1       7.713   1.136   0.057  1.00  0.00     0.141 C 
BRANCH  15  16
HETATM   16  C1  UNL     1       8.520  -0.127   0.279  1.00  0.00     0.248 C 
BRANCH  16  17
HETATM   17  N1  UNL     1       9.921   0.052  -0.043  1.00  0.00    -0.078 N 
ATOM     18  H13 UNL     1      10.039   0.402  -0.994  1.00  0.00     0.274 HD
ATOM     19  H12 UNL     1      10.319   0.838   0.470  1.00  0.00     0.274 HD
ATOM     20  H11 UNL     1      10.464  -0.798   0.106  1.00  0.00     0.274 HD
ENDBRANCH  16  17
ENDBRANCH  15  16
ENDBRANCH  13  15
ENDBRANCH  12  13
ENDBRANCH  11  12
ENDBRANCH  10  11
ENDBRANCH   9  10
ENDBRANCH   8   9
ENDBRANCH   5   8
ENDBRANCH   1   4
BRANCH   2  21
HETATM   21  C9  UNL     1      -4.086  -0.442  -0.306  1.00  0.00     0.057 A 
HETATM   22  C10 UNL     1      -4.955  -1.413   0.186  1.00  0.00     0.018 A 
HETATM   23  C11 UNL     1      -4.527  -2.664   0.580  1.00  0.00     0.016 A 
HETATM   24  C15 UNL     1      -6.299  -1.085   0.273  1.00  0.00     0.045 A 
HETATM   25  C12 UNL     1      -5.406  -3.620   1.066  1.00  0.00     0.001 A 
HETATM   26  C13 UNL     1      -6.734  -3.290   1.150  1.00  0.00     0.002 A 
HETATM   27  C14 UNL     1      -7.173  -2.050   0.762  1.00  0.00     0.030 A 
HETATM   28  N5  UNL     1      -6.796   0.106  -0.091  1.00  0.00    -0.355 N 
HETATM   29  C16 UNL     1      -5.994   1.067  -0.570  1.00  0.00     0.045 A 
ATOM     30  H5  UNL     1      -7.797   0.283  -0.002  1.00  0.00     0.166 HD
HETATM   31  C17 UNL     1      -6.546   2.298  -0.942  1.00  0.00     0.030 A 
HETATM   32  C21 UNL     1      -4.658   0.799  -0.677  1.00  0.00     0.018 A 
HETATM   33  C18 UNL     1      -5.737   3.292  -1.437  1.00  0.00     0.002 A 
HETATM   34  C19 UNL     1      -4.390   3.047  -1.555  1.00  0.00     0.001 A 
HETATM   35  C20 UNL     1      -3.878   1.825  -1.180  1.00  0.00     0.016 A 
ENDBRANCH   2  21
TORSDOF 11
