REMARK  14 active torsions:
REMARK  status: ('A' for Active; 'I' for Inactive)
REMARK    1  A    between atoms: N1_2  and  C2_4 
REMARK    2  A    between atoms: C2_4  and  N2_6 
REMARK    3  A    between atoms: N2_6  and  C3_8 
REMARK    4  A    between atoms: C3_8  and  C4_9 
REMARK    5  A    between atoms: C4_9  and  N3_10 
REMARK    6  A    between atoms: N3_10  and  C5_13 
REMARK    7  A    between atoms: C5_13  and  C6_14 
REMARK    8  A    between atoms: C6_14  and  O1_15 
REMARK    9  A    between atoms: C6_14  and  C7_17 
REMARK   10  A    between atoms: C7_17  and  O2_18 
REMARK   11  A    between atoms: O2_18  and  C8_19 
REMARK   12  A    between atoms: C11_22  and  C12_23 
REMARK   13  A    between atoms: C12_23  and  C13_24 
REMARK   14  A    between atoms: C13_24  and  C14_25 
ROOT
HETATM    1  C7  UNL     1       1.103   0.835   1.081  1.00  0.00     0.209 C 
ENDROOT
BRANCH   1   2
HETATM    2  C6  UNL     1       2.265   1.586   1.665  1.00  0.00     0.168 C 
BRANCH   2   3
HETATM    3  C5  UNL     1       3.564   1.091   1.106  1.00  0.00     0.266 C 
BRANCH   3   4
HETATM    4  N3  UNL     1       3.657   1.191  -0.332  1.00  0.00    -0.071 N 
ATOM      5  H32 UNL     1       3.406   2.121  -0.667  1.00  0.00     0.277 HD
ATOM      6  H31 UNL     1       2.923   0.660  -0.800  1.00  0.00     0.277 HD
BRANCH   4   7
HETATM    7  C4  UNL     1       4.972   0.796  -0.770  1.00  0.00     0.252 C 
BRANCH   7   8
HETATM    8  C3  UNL     1       5.287  -0.659  -0.597  1.00  0.00     0.149 C 
BRANCH   8   9
HETATM    9  N2  UNL     1       6.610  -0.954  -1.053  1.00  0.00    -0.366 N 
ATOM     10  H2  UNL     1       6.710  -1.487  -1.917  1.00  0.00     0.161 HD
BRANCH   9  11
HETATM   11  C2  UNL     1       7.777  -0.557  -0.387  1.00  0.00     0.167 C 
HETATM   12  S1  UNL     1       7.685   0.249   1.024  1.00  0.00    -0.041 SA
BRANCH  11  13
HETATM   13  N1  UNL     1       9.067  -0.858  -0.887  1.00  0.00    -0.372 N 
HETATM   14  C1  UNL     1       9.294  -1.587  -2.106  1.00  0.00     0.148 C 
ATOM     15  H1  UNL     1       9.878  -0.541  -0.355  1.00  0.00     0.161 HD
ENDBRANCH  11  13
ENDBRANCH   9  11
ENDBRANCH   8   9
ENDBRANCH   7   8
ENDBRANCH   4   7
ENDBRANCH   3   4
ENDBRANCH   2   3
BRANCH   2  16
HETATM   16  O1  UNL     1       2.292   1.440   3.050  1.00  0.00    -0.392 OA
ATOM     17  H1  UNL     1       1.468   1.754   3.404  1.00  0.00     0.210 HD
ENDBRANCH   2  16
ENDBRANCH   1   2
BRANCH   1  18
HETATM   18  O2  UNL     1      -0.070   1.397   1.653  1.00  0.00    -0.349 OA
BRANCH  18  19
HETATM   19  C8  UNL     1      -1.290   0.897   1.288  1.00  0.00     0.068 A 
HETATM   20  C9  UNL     1      -1.517  -0.127   0.399  1.00  0.00     0.037 A 
HETATM   21  C10 UNL     1      -2.801  -0.555   0.100  1.00  0.00     0.010 A 
HETATM   22  C11 UNL     1      -3.918   0.014   0.670  1.00  0.00    -0.058 A 
HETATM   23  C19 UNL     1      -3.685   1.040   1.560  1.00  0.00     0.010 A 
HETATM   24  C20 UNL     1      -2.417   1.480   1.871  1.00  0.00     0.037 A 
BRANCH  22  25
HETATM   25  C12 UNL     1      -5.280  -0.430   0.362  1.00  0.00     0.043 C 
BRANCH  25  26
HETATM   26  C13 UNL     1      -5.917   0.285  -0.808  1.00  0.00     0.043 C 
BRANCH  26  27
HETATM   27  C14 UNL     1      -7.268  -0.261  -0.988  1.00  0.00    -0.055 A 
HETATM   28  C15 UNL     1      -7.463  -1.353  -1.794  1.00  0.00     0.024 A 
HETATM   29  C16 UNL     1      -8.749  -1.879  -1.978  1.00  0.00     0.088 A 
HETATM   30  N4  UNL     1      -9.803  -1.315  -1.363  1.00  0.00    -0.375 N 
HETATM   31  C17 UNL     1      -9.642  -0.250  -0.571  1.00  0.00     0.088 A 
ATOM     32  H4  UNL     1     -10.736  -1.704  -1.502  1.00  0.00     0.164 HD
HETATM   33  C18 UNL     1      -8.365   0.291  -0.374  1.00  0.00     0.024 A 
ENDBRANCH  26  27
ENDBRANCH  25  26
ENDBRANCH  22  25
ENDBRANCH  18  19
ENDBRANCH   1  18
TORSDOF 14
