REMARK  11 active torsions:
REMARK  status: ('A' for Active; 'I' for Inactive)
REMARK    1  A    between atoms: N1_2  and  C2_3 
REMARK    2  A    between atoms: N1_2  and  S1_16 
REMARK    3  A    between atoms: C2_3  and  C3_4 
REMARK    4  A    between atoms: C3_4  and  O1_5 
REMARK    5  A    between atoms: O1_5  and  C4_6 
REMARK    6  A    between atoms: C4_6  and  C5_7 
REMARK    7  A    between atoms: C5_7  and  C6_8 
REMARK    8  A    between atoms: C6_8  and  C7_9 
REMARK    9  A    between atoms: S1_16  and  N4_19 
REMARK   10  A    between atoms: N4_19  and  C10_21 
REMARK   11  A    between atoms: C13_24  and  C14_25 
ROOT
HETATM    1  S1  UNL     1       1.464   1.278   0.556  1.00  0.00     0.303 S 
HETATM    2  O2  UNL     1       1.534   0.183   1.576  1.00  0.00    -0.188 OA
HETATM    3  O3  UNL     1       0.636   2.381   1.208  1.00  0.00    -0.188 OA
ENDROOT
BRANCH   1   4
HETATM    4  N1  UNL     1       0.577   0.773  -0.826  1.00  0.00    -0.195 NA
HETATM    5  C1  UNL     1      -0.188   1.884  -1.325  1.00  0.00     0.131 C 
BRANCH   4   6
HETATM    6  C2  UNL     1      -0.255  -0.357  -0.604  1.00  0.00     0.134 C 
BRANCH   6   7
HETATM    7  C3  UNL     1      -1.616   0.143  -0.151  1.00  0.00     0.183 C 
BRANCH   7   8
HETATM    8  O1  UNL     1      -2.482  -0.924   0.085  1.00  0.00    -0.390 OA
BRANCH   8   9
HETATM    9  C4  UNL     1      -3.721  -0.510   0.499  1.00  0.00     0.168 C 
BRANCH   9  10
HETATM   10  C5  UNL     1      -4.450   0.372  -0.470  1.00  0.00     0.032 C 
BRANCH  10  11
HETATM   11  C6  UNL     1      -5.796   0.762   0.090  1.00  0.00     0.060 C 
BRANCH  11  12
HETATM   12  C7  UNL     1      -6.671  -0.395   0.366  1.00  0.00     0.025 A 
HETATM   13  C8  UNL     1      -7.578  -0.998  -0.496  1.00  0.00     0.114 A 
HETATM   14  N2  UNL     1      -8.150  -2.007   0.170  1.00  0.00    -0.360 N 
HETATM   15  C9  UNL     1      -7.654  -2.079   1.412  1.00  0.00     0.180 A 
ATOM     16  H2  UNL     1      -8.861  -2.631  -0.212  1.00  0.00     0.166 HD
HETATM   17  N3  UNL     1      -6.762  -1.100   1.516  1.00  0.00    -0.355 N 
ATOM     18  H3  UNL     1      -6.216  -0.905   2.355  1.00  0.00     0.166 HD
ENDBRANCH  11  12
ENDBRANCH  10  11
ENDBRANCH   9  10
ENDBRANCH   8   9
ENDBRANCH   7   8
ENDBRANCH   6   7
ENDBRANCH   4   6
ENDBRANCH   1   4
BRANCH   1  19
HETATM   19  N4  UNL     1       3.001   1.876   0.083  1.00  0.00    -0.272 N 
ATOM     20  H4  UNL     1       3.069   2.870  -0.133  1.00  0.00     0.180 HD
BRANCH  19  21
HETATM   21  C10 UNL     1       4.184   1.103  -0.032  1.00  0.00     0.043 A 
HETATM   22  C11 UNL     1       4.573   0.214   0.948  1.00  0.00     0.031 A 
HETATM   23  C12 UNL     1       5.728  -0.526   0.824  1.00  0.00     0.017 A 
HETATM   24  C13 UNL     1       6.574  -0.428  -0.291  1.00  0.00     0.005 A 
HETATM   25  C15 UNL     1       6.170   0.461  -1.255  1.00  0.00     0.017 A 
HETATM   26  C16 UNL     1       5.012   1.207  -1.137  1.00  0.00     0.031 A 
BRANCH  24  27
HETATM   27  C14 UNL     1       7.773  -1.227  -0.372  1.00  0.00     0.120 C 
HETATM   28  N5  UNL     1       8.558  -1.164  -1.362  1.00  0.00    -0.387 N 
ATOM     29  H52 UNL     1       8.328  -0.525  -2.123  1.00  0.00     0.157 HD
ATOM     30  H51 UNL     1       9.405  -1.729  -1.419  1.00  0.00     0.157 HD
HETATM   31  N6  UNL     1       8.094  -2.118   0.689  1.00  0.00    -0.082 NA
ENDBRANCH  24  27
ENDBRANCH  19  21
ENDBRANCH   1  19
TORSDOF 11
