REMARK  12 active torsions:
REMARK  status: ('A' for Active; 'I' for Inactive)
REMARK    1  A    between atoms: O1_2  and  C2_3 
REMARK    2  A    between atoms: C5_6  and  C6_7 
REMARK    3  A    between atoms: C6_7  and  C7_8 
REMARK    4  A    between atoms: C7_8  and  N1_9 
REMARK    5  A    between atoms: N1_9  and  C8_11 
REMARK    6  A    between atoms: C8_11  and  C9_12 
REMARK    7  A    between atoms: C9_12  and  O2_13 
REMARK    8  A    between atoms: C9_12  and  C10_15 
REMARK    9  A    between atoms: C10_15  and  O3_16 
REMARK   10  A    between atoms: O3_16  and  C11_17 
REMARK   11  A    between atoms: C15_21  and  C16_22 
REMARK   12  A    between atoms: C17_23  and  N2_24 
ROOT
HETATM    1  C9  UNL     1      -0.529  -0.122   1.163  1.00  0.00     0.159 C 
ENDROOT
BRANCH   1   2
HETATM    2  C8  UNL     1      -2.065  -0.037   1.057  1.00  0.00     0.147 C 
BRANCH   2   3
HETATM    3  N1  UNL     1      -2.465   0.763  -0.042  1.00  0.00    -0.418 N 
ATOM      4  H1  UNL     1      -2.915   1.667   0.103  1.00  0.00     0.153 HD
BRANCH   3   5
HETATM    5  C7  UNL     1      -2.222   0.272  -1.345  1.00  0.00     0.118 C 
BRANCH   5   6
HETATM    6  C6  UNL     1      -3.023  -0.924  -1.771  1.00  0.00     0.057 C 
BRANCH   6   7
HETATM    7  C5  UNL     1      -4.489  -0.705  -1.744  1.00  0.00    -0.057 A 
HETATM    8  C4  UNL     1      -5.194  -1.048  -0.602  1.00  0.00     0.010 A 
HETATM    9  C3  UNL     1      -6.557  -0.863  -0.508  1.00  0.00     0.037 A 
HETATM   10  C2  UNL     1      -7.244  -0.325  -1.570  1.00  0.00     0.068 A 
HETATM   11  C21 UNL     1      -6.547   0.016  -2.704  1.00  0.00     0.037 A 
HETATM   12  C20 UNL     1      -5.176  -0.165  -2.811  1.00  0.00     0.010 A 
BRANCH  10  13
HETATM   13  O1  UNL     1      -8.633  -0.118  -1.521  1.00  0.00    -0.356 OA
HETATM   14  C1  UNL     1      -9.387  -0.454  -0.384  1.00  0.00     0.210 C 
ENDBRANCH  10  13
ENDBRANCH   6   7
ENDBRANCH   5   6
ENDBRANCH   3   5
ENDBRANCH   2   3
ENDBRANCH   1   2
BRANCH   1  15
HETATM   15  O2  UNL     1      -0.261  -0.941   2.299  1.00  0.00    -0.392 OA
ATOM     16  H2  UNL     1       0.685  -0.993   2.364  1.00  0.00     0.210 HD
ENDBRANCH   1  15
BRANCH   1  17
HETATM   17  C10 UNL     1      -0.056   1.259   1.526  1.00  0.00     0.209 C 
BRANCH  17  18
HETATM   18  O3  UNL     1       1.251   1.323   1.845  1.00  0.00    -0.349 OA
BRANCH  18  19
HETATM   19  C11 UNL     1       2.373   1.096   1.114  1.00  0.00     0.069 A 
HETATM   20  C12 UNL     1       2.315   0.757  -0.213  1.00  0.00     0.037 A 
HETATM   21  C13 UNL     1       3.481   0.521  -0.950  1.00  0.00     0.004 A 
HETATM   22  C14 UNL     1       4.723   0.631  -0.340  1.00  0.00     0.011 A 
HETATM   23  C15 UNL     1       4.837   0.968   0.985  1.00  0.00    -0.032 A 
HETATM   24  C19 UNL     1       3.638   1.195   1.686  1.00  0.00     0.048 A 
BRANCH  23  25
HETATM   25  C16 UNL     1       6.085   1.102   1.681  1.00  0.00     0.028 C 
HETATM   26  C17 UNL     1       7.265   0.929   1.273  1.00  0.00     0.091 C 
BRANCH  26  27
HETATM   27  N2  UNL     1       7.699   0.548   0.002  1.00  0.00    -0.343 N 
HETATM   28  C18 UNL     1       8.466  -0.468  -0.150  1.00  0.00     0.200 C 
HETATM   29  N3  UNL     1       8.917  -0.866  -1.453  1.00  0.00    -0.067 NA
HETATM   30  N4  UNL     1       8.874  -1.206   0.977  1.00  0.00    -0.067 NA
ATOM     31  H2  UNL     1       7.403   1.083  -0.814  1.00  0.00     0.167 HD
ENDBRANCH  26  27
ENDBRANCH  23  25
ENDBRANCH  18  19
ENDBRANCH  17  18
ENDBRANCH   1  17
TORSDOF 12
