REMARK  16 active torsions:
REMARK  status: ('A' for Active; 'I' for Inactive)
REMARK    1  A    between atoms: C2_2  and  C3_4 
REMARK    2  A    between atoms: C3_4  and  O2_5 
REMARK    3  A    between atoms: C8_12  and  O4_13 
REMARK    4  A    between atoms: C12_19  and  O6_20 
REMARK    5  A    between atoms: C13_22  and  C14_23 
REMARK    6  A    between atoms: C14_23  and  O7_24 
REMARK    7  A    between atoms: C14_23  and  O8_26 
REMARK    8  A    between atoms: O8_26  and  C15_27 
REMARK    9  A    between atoms: C15_27  and  C16_29 
REMARK   10  A    between atoms: N1_30  and  C17_32 
REMARK   11  A    between atoms: C17_32  and  C18_33 
REMARK   12  A    between atoms: C18_33  and  C19_34 
REMARK   13  A    between atoms: C19_34  and  N3_38 
REMARK   14  A    between atoms: N3_38  and  O10_40 
REMARK   15  A    between atoms: C20_42  and  O11_43 
REMARK   16  A    between atoms: C22_46  and  O12_47 
ROOT
HETATM    1  C3  UNL     1      -4.913   1.454  -1.172  1.00  0.00     0.244 C 
HETATM    2  C4  UNL     1      -4.126   0.647  -2.145  1.00  0.00     0.181 C 
HETATM    3  O3  UNL     1      -4.665   0.364  -3.200  1.00  0.00    -0.293 OA
HETATM    4  C5  UNL     1      -2.743   0.174  -1.912  1.00  0.00     0.125 C 
HETATM    5  C6  UNL     1      -2.460  -0.020  -0.466  1.00  0.00    -0.000 A 
HETATM    6  C7  UNL     1      -3.140   0.639   0.541  1.00  0.00     0.057 A 
HETATM    7  C8  UNL     1      -2.872   0.442   1.888  1.00  0.00     0.095 A 
HETATM    8  C9  UNL     1      -1.867  -0.464   2.252  1.00  0.00     0.064 A 
HETATM    9  C10 UNL     1      -1.689  -0.586   3.614  1.00  0.00     0.188 C 
HETATM   10  O5  UNL     1      -2.314   0.288   4.274  1.00  0.00    -0.287 OA
HETATM   11  C11 UNL     1      -0.946  -1.504   4.318  1.00  0.00     0.093 C 
HETATM   12  C12 UNL     1       0.139  -2.310   3.829  1.00  0.00     0.087 C 
HETATM   13  C13 UNL     1       0.622  -2.292   2.543  1.00  0.00     0.089 C 
HETATM   14  C20 UNL     1      -0.175  -2.049   1.420  1.00  0.00     0.097 C 
HETATM   15  C21 UNL     1      -1.202  -1.110   1.237  1.00  0.00     0.049 A 
HETATM   16  C22 UNL     1      -1.476  -0.908  -0.107  1.00  0.00     0.087 A 
HETATM   17  C23 UNL     1      -4.166   1.587   0.113  1.00  0.00     0.212 C 
HETATM   18  O13 UNL     1      -4.430   2.549   0.850  1.00  0.00    -0.288 OA
ENDROOT
BRANCH  13  19
HETATM   19  C14 UNL     1       2.030  -2.557   2.321  1.00  0.00     0.202 C 
BRANCH  19  20
HETATM   20  O7  UNL     1       2.504  -3.731   2.865  1.00  0.00    -0.340 OA
ATOM     21  H7  UNL     1       3.427  -3.905   2.720  1.00  0.00     0.220 HD
ENDBRANCH  19  20
BRANCH  19  22
HETATM   22  O8  UNL     1       2.534  -2.228   1.067  1.00  0.00    -0.250 OA
BRANCH  22  23
HETATM   23  C15 UNL     1       3.443  -1.220   0.872  1.00  0.00     0.305 C 
HETATM   24  O9  UNL     1       3.829  -0.575   1.908  1.00  0.00    -0.258 OA
BRANCH  23  25
HETATM   25  C16 UNL     1       3.982  -0.853  -0.446  1.00  0.00     0.166 C 
HETATM   26  N1  UNL     1       4.831   0.109  -0.511  1.00  0.00    -0.394 N 
ATOM     27  H1  UNL     1       5.077   0.561   0.369  1.00  0.00     0.159 HD
BRANCH  26  28
HETATM   28  C17 UNL     1       5.466   0.611  -1.688  1.00  0.00     0.126 C 
BRANCH  28  29
HETATM   29  C18 UNL     1       5.134   2.083  -1.945  1.00  0.00     0.097 C 
BRANCH  29  30
HETATM   30  C19 UNL     1       5.838   2.513  -3.176  1.00  0.00     0.096 C 
HETATM   31  N2  UNL     1       6.578   1.695  -3.858  1.00  0.00    -0.388 N 
ATOM     32  H22 UNL     1       6.681   0.732  -3.538  1.00  0.00     0.157 HD
ATOM     33  H21 UNL     1       7.063   1.991  -4.705  1.00  0.00     0.157 HD
BRANCH  30  34
HETATM   34  N3  UNL     1       5.693   3.865  -3.626  1.00  0.00    -0.257 N 
ATOM     35  H3  UNL     1       6.443   4.532  -3.448  1.00  0.00     0.195 HD
BRANCH  34  36
HETATM   36  O10 UNL     1       4.576   4.281  -4.287  1.00  0.00    -0.288 OA
ATOM     37  H10 UNL     1       4.480   5.178  -4.585  1.00  0.00     0.244 HD
ENDBRANCH  34  36
ENDBRANCH  30  34
ENDBRANCH  29  30
ENDBRANCH  28  29
ENDBRANCH  26  28
ENDBRANCH  23  25
ENDBRANCH  22  23
ENDBRANCH  19  22
ENDBRANCH  13  19
BRANCH  12  38
HETATM   38  O6  UNL     1       0.684  -3.122   4.738  1.00  0.00    -0.359 OA
ATOM     39  H6  UNL     1       1.401  -3.655   4.415  1.00  0.00     0.217 HD
ENDBRANCH  12  38
BRANCH  14  40
HETATM   40  O11 UNL     1       0.084  -2.850   0.330  1.00  0.00    -0.359 OA
ATOM     41  H11 UNL     1      -0.457  -2.685  -0.433  1.00  0.00     0.217 HD
ENDBRANCH  14  40
BRANCH  16  42
HETATM   42  O12 UNL     1      -0.739  -1.615  -1.032  1.00  0.00    -0.359 OA
ATOM     43  H12 UNL     1      -0.058  -2.229  -0.784  1.00  0.00     0.217 HD
ENDBRANCH  16  42
BRANCH   7  44
HETATM   44  O4  UNL     1      -3.521   1.070   2.895  1.00  0.00    -0.359 OA
ATOM     45  H4  UNL     1      -3.337   0.935   3.817  1.00  0.00     0.217 HD
ENDBRANCH   7  44
BRANCH   1  46
HETATM   46  C2  UNL     1      -6.216   0.830  -0.846  1.00  0.00     0.173 C 
HETATM   47  C1  UNL     1      -6.245  -0.517  -0.200  1.00  0.00     0.095 C 
HETATM   48  O1  UNL     1      -7.245   1.424  -1.108  1.00  0.00    -0.294 OA
ENDBRANCH   1  46
BRANCH   1  49
HETATM   49  O2  UNL     1      -5.160   2.717  -1.735  1.00  0.00    -0.368 OA
ATOM     50  H2  UNL     1      -4.324   3.117  -1.944  1.00  0.00     0.212 HD
ENDBRANCH   1  49
TORSDOF 16
