REMARK  14 active torsions:
REMARK  status: ('A' for Active; 'I' for Inactive)
REMARK    1  A    between atoms: N1_1  and  C1_5 
REMARK    2  A    between atoms: C3_7  and  N2_8 
REMARK    3  A    between atoms: C4_12  and  O1_13 
REMARK    4  A    between atoms: O1_13  and  C5_14 
REMARK    5  A    between atoms: C6_16  and  O3_17 
REMARK    6  A    between atoms: O3_17  and  C7_18 
REMARK    7  A    between atoms: C9_20  and  O4_21 
REMARK    8  A    between atoms: C9_20  and  C15_28 
REMARK    9  A    between atoms: O4_21  and  C10_22 
REMARK   10  A    between atoms: C16_34  and  C17_35 
REMARK   11  A    between atoms: C17_35  and  O8_36 
REMARK   12  A    between atoms: C18_39  and  N4_40 
REMARK   13  A    between atoms: C20_45  and  N5_46 
REMARK   14  A    between atoms: C22_51  and  O10_52 
ROOT
HETATM    1  C5  UNL     1       2.763   0.452  -0.008  1.00  0.00     0.293 C 
HETATM    2  O2  UNL     1       1.515  -0.072  -0.055  1.00  0.00    -0.327 OA
HETATM    3  C6  UNL     1       0.487   0.583   0.473  1.00  0.00     0.296 C 
HETATM    4  C18 UNL     1       0.554   2.129   0.294  1.00  0.00     0.240 C 
HETATM    5  C19 UNL     1       1.923   2.675   0.216  1.00  0.00     0.075 C 
HETATM    6  C20 UNL     1       2.706   1.814  -0.759  1.00  0.00     0.240 C 
ENDROOT
BRANCH   3   7
HETATM    7  O3  UNL     1      -0.699   0.252  -0.183  1.00  0.00    -0.329 OA
BRANCH   7   8
HETATM    8  C7  UNL     1      -1.840   0.491   0.511  1.00  0.00     0.271 C 
HETATM    9  C8  UNL     1      -2.947  -0.507   0.433  1.00  0.00     0.142 C 
HETATM   10  C9  UNL     1      -4.280   0.149   0.019  1.00  0.00     0.324 C 
HETATM   11  N3  UNL     1      -4.081   0.643  -1.307  1.00  0.00    -0.004 N 
HETATM   12  C16 UNL     1      -2.730   1.113  -1.442  1.00  0.00     0.351 C 
ATOM     13  H32 UNL     1      -4.322  -0.048  -2.017  1.00  0.00     0.284 HD
ATOM     14  H31 UNL     1      -4.765   1.356  -1.560  1.00  0.00     0.284 HD
HETATM   15  O9  UNL     1      -2.343   1.667  -0.202  1.00  0.00    -0.326 OA
BRANCH  10  16
HETATM   16  O4  UNL     1      -5.283  -0.764   0.024  1.00  0.00    -0.315 OA
BRANCH  16  17
HETATM   17  C10 UNL     1      -6.082  -0.861   1.113  1.00  0.00     0.263 C 
HETATM   18  C11 UNL     1      -6.141  -2.252   1.666  1.00  0.00     0.061 C 
HETATM   19  C12 UNL     1      -6.249  -3.207   0.523  1.00  0.00     0.007 C 
HETATM   20  C13 UNL     1      -7.106  -2.575  -0.542  1.00  0.00     0.026 C 
HETATM   21  C14 UNL     1      -8.000  -1.486  -0.044  1.00  0.00     0.171 C 
HETATM   22  O5  UNL     1      -7.375  -0.484   0.673  1.00  0.00    -0.361 OA
ENDBRANCH  16  17
ENDBRANCH  10  16
BRANCH  10  23
HETATM   23  C15 UNL     1      -4.547   1.277   0.954  1.00  0.00     0.239 C 
HETATM   24  O6  UNL     1      -3.934   1.725   1.885  1.00  0.00    -0.644 OA
HETATM   25  O7  UNL     1      -5.796   1.931   0.672  1.00  0.00    -0.644 OA
ENDBRANCH  10  23
BRANCH  12  26
HETATM   26  C17 UNL     1      -2.707   2.147  -2.554  1.00  0.00     0.225 C 
BRANCH  26  27
HETATM   27  O8  UNL     1      -3.517   3.207  -2.157  1.00  0.00    -0.397 OA
ATOM     28  H8  UNL     1      -3.503   3.854  -2.853  1.00  0.00     0.209 HD
ENDBRANCH  26  27
ENDBRANCH  12  26
ENDBRANCH   7   8
ENDBRANCH   3   7
BRANCH   4  29
HETATM   29  N4  UNL     1      -0.090   2.756   1.455  1.00  0.00    -0.070 N 
ATOM     30  H43 UNL     1      -1.041   2.419   1.606  1.00  0.00     0.274 HD
ATOM     31  H42 UNL     1       0.309   2.446   2.341  1.00  0.00     0.274 HD
ATOM     32  H41 UNL     1      -0.046   3.768   1.338  1.00  0.00     0.274 HD
ENDBRANCH   4  29
BRANCH   1  33
HETATM   33  O1  UNL     1       3.662  -0.378  -0.673  1.00  0.00    -0.352 OA
BRANCH  33  34
HETATM   34  C4  UNL     1       4.920  -0.389  -0.098  1.00  0.00     0.157 C 
HETATM   35  C3  UNL     1       5.120  -1.693   0.662  1.00  0.00     0.214 C 
HETATM   36  C2  UNL     1       6.557  -1.826   1.116  1.00  0.00     0.070 C 
HETATM   37  C1  UNL     1       7.561  -1.510   0.050  1.00  0.00     0.214 C 
HETATM   38  C22 UNL     1       6.908  -1.320  -1.294  1.00  0.00     0.151 C 
HETATM   39  C21 UNL     1       5.943  -0.157  -1.155  1.00  0.00     0.068 C 
BRANCH  35  40
HETATM   40  N2  UNL     1       4.321  -1.601   1.868  1.00  0.00    -0.072 N 
ATOM     41  H23 UNL     1       4.472  -2.375   2.515  1.00  0.00     0.274 HD
ATOM     42  H22 UNL     1       4.619  -0.854   2.496  1.00  0.00     0.274 HD
ATOM     43  H21 UNL     1       3.352  -1.511   1.562  1.00  0.00     0.274 HD
ENDBRANCH  35  40
BRANCH  37  44
HETATM   44  N1  UNL     1       8.187  -0.234   0.393  1.00  0.00    -0.072 N 
ATOM     45  H13 UNL     1       7.509   0.515   0.534  1.00  0.00     0.274 HD
ATOM     46  H12 UNL     1       8.589  -0.229   1.330  1.00  0.00     0.274 HD
ATOM     47  H11 UNL     1       8.871  -0.019  -0.333  1.00  0.00     0.274 HD
ENDBRANCH  37  44
BRANCH  38  48
HETATM   48  O10 UNL     1       6.336  -2.462  -1.798  1.00  0.00    -0.393 OA
ATOM     49  H10 UNL     1       5.924  -2.342  -2.646  1.00  0.00     0.210 HD
ENDBRANCH  38  48
ENDBRANCH  33  34
ENDBRANCH   1  33
BRANCH   6  50
HETATM   50  N5  UNL     1       4.012   2.392  -0.905  1.00  0.00    -0.070 N 
ATOM     51  H53 UNL     1       4.482   2.483  -0.004  1.00  0.00     0.274 HD
ATOM     52  H52 UNL     1       4.658   1.744  -1.357  1.00  0.00     0.274 HD
ATOM     53  H51 UNL     1       3.975   3.285  -1.397  1.00  0.00     0.274 HD
ENDBRANCH   6  50
TORSDOF 14
