REMARK  16 active torsions:
REMARK  status: ('A' for Active; 'I' for Inactive)
REMARK    1  A    between atoms: C2_2  and  O2_7 
REMARK    2  A    between atoms: N1_3  and  O1_5 
REMARK    3  A    between atoms: O2_7  and  C3_8 
REMARK    4  A    between atoms: C3_8  and  C5_10 
REMARK    5  A    between atoms: C6_12  and  C7_13 
REMARK    6  A    between atoms: C10_16  and  O4_17 
REMARK    7  A    between atoms: C10_16  and  C11_19 
REMARK    8  A    between atoms: C14_25  and  C15_26 
REMARK    9  A    between atoms: C16_27  and  C17_28 
REMARK   10  A    between atoms: C17_28  and  O8_29 
REMARK   11  A    between atoms: C17_28  and  C18_31 
REMARK   12  A    between atoms: C18_31  and  O9_33 
REMARK   13  A    between atoms: C18_31  and  C20_35 
REMARK   14  A    between atoms: C20_35  and  O10_36 
REMARK   15  A    between atoms: C22_40  and  O12_41 
REMARK   16  A    between atoms: C23_44  and  O14_45 
ROOT
HETATM    1  C7  UNL     1       1.116  -0.361   0.950  1.00  0.00     0.060 C 
HETATM    2  C8  UNL     1       1.689  -1.475   1.805  1.00  0.00     0.014 C 
HETATM    3  C9  UNL     1       0.957  -2.731   1.498  1.00  0.00     0.053 C 
HETATM    4  C10 UNL     1      -0.424  -2.236   1.163  1.00  0.00     0.179 C 
HETATM    5  C12 UNL     1      -0.248  -0.790   0.706  1.00  0.00     0.129 C 
HETATM    6  C13 UNL     1      -1.250   0.107   1.463  1.00  0.00     0.211 C 
HETATM    7  O7  UNL     1      -1.518   1.266   0.726  1.00  0.00    -0.377 OA
HETATM    8  C14 UNL     1      -2.402   0.915  -0.288  1.00  0.00     0.168 C 
HETATM    9  C21 UNL     1      -2.089  -0.507  -0.678  1.00  0.00     0.205 C 
HETATM   10  O11 UNL     1      -0.718  -0.735  -0.592  1.00  0.00    -0.371 OA
ENDROOT
BRANCH   1  11
HETATM   11  C6  UNL     1       2.012   0.052  -0.151  1.00  0.00     0.184 C 
HETATM   12  O3  UNL     1       3.179   0.487   0.472  1.00  0.00    -0.368 OA
HETATM   13  C5  UNL     1       4.253   0.696  -0.325  1.00  0.00     0.206 C 
HETATM   14  C23 UNL     1       4.080   0.559  -1.785  1.00  0.00     0.291 C 
HETATM   15  O13 UNL     1       2.990  -0.116  -2.235  1.00  0.00    -0.327 OA
HETATM   16  C22 UNL     1       2.364  -0.885  -1.214  1.00  0.00     0.289 C 
BRANCH  13  17
HETATM   17  C3  UNL     1       4.891   2.037   0.036  1.00  0.00     0.160 C 
HETATM   18  C4  UNL     1       5.116   2.121   1.517  1.00  0.00     0.043 C 
BRANCH  17  19
HETATM   19  O2  UNL     1       6.013   2.341  -0.736  1.00  0.00    -0.330 OA
BRANCH  19  20
HETATM   20  C2  UNL     1       7.224   1.666  -0.693  1.00  0.00     0.133 C 
HETATM   21  C1  UNL     1       8.247   1.884  -1.766  1.00  0.00     0.099 C 
HETATM   22  N1  UNL     1       7.429   0.865   0.280  1.00  0.00    -0.251 N 
ATOM     23  H1  UNL     1       6.716   0.734   0.997  1.00  0.00     0.196 HD
BRANCH  22  24
HETATM   24  O1  UNL     1       8.624   0.177   0.354  1.00  0.00    -0.288 OA
ATOM     25  H1  UNL     1       8.777  -0.419   1.078  1.00  0.00     0.244 HD
ENDBRANCH  22  24
ENDBRANCH  19  20
ENDBRANCH  17  19
ENDBRANCH  13  17
BRANCH  14  26
HETATM   26  O14 UNL     1       5.210  -0.027  -2.406  1.00  0.00    -0.368 OA
ATOM     27  H14 UNL     1       5.099  -0.115  -3.345  1.00  0.00     0.212 HD
ENDBRANCH  14  26
BRANCH  16  28
HETATM   28  O12 UNL     1       3.294  -1.860  -0.886  1.00  0.00    -0.368 OA
ATOM     29  H12 UNL     1       3.523  -2.470  -1.578  1.00  0.00     0.212 HD
ENDBRANCH  16  28
ENDBRANCH   1  11
BRANCH   4  30
HETATM   30  O4  UNL     1      -1.003  -3.030   0.165  1.00  0.00    -0.376 OA
ATOM     31  H4  UNL     1      -1.875  -2.717  -0.046  1.00  0.00     0.211 HD
ENDBRANCH   4  30
BRANCH   4  32
HETATM   32  C11 UNL     1      -1.255  -2.376   2.363  1.00  0.00     0.212 C 
HETATM   33  O5  UNL     1      -2.293  -3.092   2.409  1.00  0.00    -0.646 OA
HETATM   34  O6  UNL     1      -0.913  -1.704   3.524  1.00  0.00    -0.646 OA
ENDBRANCH   4  32
BRANCH   8  35
HETATM   35  C15 UNL     1      -3.830   0.987   0.143  1.00  0.00     0.005 C 
HETATM   36  C16 UNL     1      -4.729   0.102  -0.249  1.00  0.00     0.006 C 
BRANCH  36  37
HETATM   37  C17 UNL     1      -6.128   0.227   0.211  1.00  0.00     0.176 C 
BRANCH  37  38
HETATM   38  O8  UNL     1      -6.518  -1.021   0.706  1.00  0.00    -0.389 OA
ATOM     39  H8  UNL     1      -7.417  -0.941   1.002  1.00  0.00     0.210 HD
ENDBRANCH  37  38
BRANCH  37  40
HETATM   40  C18 UNL     1      -7.042   0.681  -0.909  1.00  0.00     0.104 C 
HETATM   41  C19 UNL     1      -7.109  -0.380  -1.959  1.00  0.00     0.051 C 
BRANCH  40  42
HETATM   42  O9  UNL     1      -6.619   1.909  -1.363  1.00  0.00    -0.385 OA
ATOM     43  H9  UNL     1      -7.192   2.194  -2.065  1.00  0.00     0.210 HD
ENDBRANCH  40  42
BRANCH  40  44
HETATM   44  C20 UNL     1      -8.427   0.820  -0.306  1.00  0.00     0.204 C 
BRANCH  44  45
HETATM   45  O10 UNL     1      -9.305   1.287  -1.279  1.00  0.00    -0.398 OA
ATOM     46  H10 UNL     1     -10.172   1.374  -0.901  1.00  0.00     0.209 HD
ENDBRANCH  44  45
ENDBRANCH  40  44
ENDBRANCH  37  40
ENDBRANCH  36  37
ENDBRANCH   8  35
TORSDOF 16
