REMARK  12 active torsions:
REMARK  status: ('A' for Active; 'I' for Inactive)
REMARK    1  A    between atoms: O1_2  and  C2_3 
REMARK    2  A    between atoms: C3_4  and  O2_5 
REMARK    3  A    between atoms: O2_5  and  C4_6 
REMARK    4  A    between atoms: C4_6  and  C5_7 
REMARK    5  A    between atoms: C4_6  and  C7_15 
REMARK    6  A    between atoms: C5_7  and  N1_8 
REMARK       I    between atoms: C7_15  and  N5_17 
REMARK    7  A    between atoms: N5_17  and  N6_19 
REMARK       I    between atoms: N6_19  and  C8_21 
REMARK       I    between atoms: C8_21  and  N7_23 
REMARK    8  A    between atoms: N7_23  and  N8_25 
REMARK       I    between atoms: N8_25  and  C9_27 
REMARK    9  A    between atoms: C9_27  and  C10_29 
REMARK   10  A    between atoms: C13_32  and  O6_33 
REMARK   11  A    between atoms: C18_39  and  C19_40 
REMARK   12  A    between atoms: C22_47  and  O7_48 
ROOT
HETATM    1  C4  UNL     1      -1.358  -3.028   0.837  1.00  0.00     0.242 C 
ENDROOT
BRANCH   1   2
HETATM    2  O2  UNL     1      -1.908  -2.272  -0.138  1.00  0.00    -0.332 OA
BRANCH   2   3
HETATM    3  C3  UNL     1      -2.691  -1.183  -0.263  1.00  0.00     0.106 A 
HETATM    4  C2  UNL     1      -3.193  -0.416   0.729  1.00  0.00     0.136 A 
HETATM    5  C22 UNL     1      -4.011   0.706   0.516  1.00  0.00     0.116 A 
HETATM    6  C18 UNL     1      -4.329   1.061  -0.761  1.00  0.00     0.043 A 
HETATM    7  C17 UNL     1      -3.811   0.272  -1.799  1.00  0.00     0.021 A 
HETATM    8  C16 UNL     1      -3.021  -0.812  -1.582  1.00  0.00     0.041 A 
BRANCH   4   9
HETATM    9  O1  UNL     1      -2.934  -0.667   2.084  1.00  0.00    -0.351 OA
HETATM   10  C1  UNL     1      -1.859   0.133   2.611  1.00  0.00     0.210 C 
ENDBRANCH   4   9
BRANCH   5  11
HETATM   11  O7  UNL     1      -4.492   1.445   1.573  1.00  0.00    -0.357 OA
ATOM     12  H7  UNL     1      -5.045   2.204   1.429  1.00  0.00     0.217 HD
ENDBRANCH   5  11
BRANCH   6  13
HETATM   13  C19 UNL     1      -5.157   2.200  -1.061  1.00  0.00     0.110 C 
HETATM   14  N9  UNL     1      -5.133   2.779  -2.227  1.00  0.00    -0.374 N 
HETATM   15  C20 UNL     1      -6.039   3.898  -2.304  1.00  0.00     0.141 C 
ATOM     16  H9  UNL     1      -4.540   2.475  -2.999  1.00  0.00     0.161 HD
HETATM   17  C21 UNL     1      -6.991   3.603  -1.168  1.00  0.00     0.141 C 
HETATM   18  N10 UNL     1      -6.096   2.874  -0.276  1.00  0.00    -0.374 N 
ATOM     19  H10 UNL     1      -6.147   2.859   0.743  1.00  0.00     0.161 HD
ENDBRANCH   6  13
ENDBRANCH   2   3
ENDBRANCH   1   2
BRANCH   1  20
HETATM   20  C5  UNL     1      -1.754  -4.492   0.586  1.00  0.00     0.190 C 
BRANCH  20  21
HETATM   21  N1  UNL     1      -3.183  -4.672   0.603  1.00  0.00    -0.266 N 
HETATM   22  C6  UNL     1      -3.929  -4.966   1.677  1.00  0.00     0.216 A 
HETATM   23  N2  UNL     1      -5.199  -5.047   1.263  1.00  0.00    -0.282 N 
HETATM   24  N3  UNL     1      -5.243  -4.811  -0.034  1.00  0.00    -0.225 N 
ATOM     25  H2  UNL     1      -6.003  -5.257   1.855  1.00  0.00     0.189 HD
HETATM   26  N4  UNL     1      -4.005  -4.580  -0.439  1.00  0.00    -0.003 NA
ATOM     27  H3  UNL     1      -6.079  -4.807  -0.618  1.00  0.00     0.205 HD
ENDBRANCH  20  21
ENDBRANCH   1  20
BRANCH   1  28
HETATM   28  C7  UNL     1       0.138  -2.974   0.739  1.00  0.00     0.267 C 
HETATM   29  O3  UNL     1       0.839  -3.608   1.568  1.00  0.00    -0.269 OA
HETATM   30  N5  UNL     1       0.772  -2.226  -0.268  1.00  0.00    -0.264 N 
ATOM     31  H5  UNL     1       0.194  -1.714  -0.934  1.00  0.00     0.190 HD
BRANCH  30  32
HETATM   32  N6  UNL     1       2.148  -2.156  -0.392  1.00  0.00    -0.248 N 
HETATM   33  C8  UNL     1       2.894  -0.956  -0.439  1.00  0.00     0.353 C 
HETATM   34  O4  UNL     1       2.312   0.150  -0.364  1.00  0.00    -0.244 OA
HETATM   35  N7  UNL     1       4.293  -1.007  -0.569  1.00  0.00    -0.247 N 
ATOM     36  H7  UNL     1       4.746  -1.919  -0.627  1.00  0.00     0.192 HD
ATOM     37  H6  UNL     1       2.662  -3.035  -0.454  1.00  0.00     0.192 HD
BRANCH  35  38
HETATM   38  N8  UNL     1       5.094   0.149  -0.623  1.00  0.00    -0.262 N 
HETATM   39  C9  UNL     1       6.219   0.189   0.219  1.00  0.00     0.270 C 
HETATM   40  O5  UNL     1       6.518  -0.770   1.003  1.00  0.00    -0.266 OA
ATOM     41  H8  UNL     1       4.868   0.924  -1.246  1.00  0.00     0.190 HD
BRANCH  39  42
HETATM   42  C10 UNL     1       7.087   1.360   0.207  1.00  0.00     0.033 A 
HETATM   43  C11 UNL     1       8.285   1.345   0.914  1.00  0.00     0.020 A 
HETATM   44  C12 UNL     1       9.128   2.423   0.934  1.00  0.00     0.037 A 
HETATM   45  C13 UNL     1       8.816   3.574   0.248  1.00  0.00     0.065 A 
HETATM   46  C14 UNL     1       7.636   3.610  -0.456  1.00  0.00     0.037 A 
HETATM   47  C15 UNL     1       6.792   2.513  -0.470  1.00  0.00     0.020 A 
BRANCH  45  48
HETATM   48  O6  UNL     1       9.681   4.678   0.270  1.00  0.00    -0.361 OA
ATOM     49  H6  UNL     1       9.466   5.473  -0.204  1.00  0.00     0.217 HD
ENDBRANCH  45  48
ENDBRANCH  39  42
ENDBRANCH  35  38
ENDBRANCH  30  32
ENDBRANCH   1  28
TORSDOF 12
