REMARK  9 active torsions:
REMARK  status: ('A' for Active; 'I' for Inactive)
REMARK    1  A    between atoms: C2_2  and  C3_3 
REMARK    2  A    between atoms: C6_6  and  N1_7 
REMARK       I    between atoms: N1_7  and  C7_9 
REMARK       I    between atoms: C7_9  and  N2_11 
REMARK    3  A    between atoms: C8_13  and  C9_14 
REMARK    4  A    between atoms: C8_13  and  C17_25 
REMARK    5  A    between atoms: C9_14  and  C10_15 
REMARK    6  A    between atoms: C9_14  and  C15_21 
REMARK    7  A    between atoms: C10_15  and  C11_16 
REMARK    8  A    between atoms: C15_21  and  O4_23 
REMARK    9  A    between atoms: C17_25  and  O5_26 
ROOT
HETATM    1  N1  UNL     1       2.761   1.008   0.515  1.00  0.00    -0.294 N 
ATOM      2  H1  UNL     1       2.602   1.567   1.353  1.00  0.00     0.172 HD
HETATM    3  C7  UNL     1       1.716   0.944  -0.458  1.00  0.00     0.326 C 
HETATM    4  O1  UNL     1       2.001   1.481  -1.584  1.00  0.00    -0.247 OA
HETATM    5  N2  UNL     1       0.485   0.376  -0.285  1.00  0.00    -0.312 N 
ATOM      6  H2  UNL     1       0.474  -0.600  -0.580  1.00  0.00     0.170 HD
HETATM    7  C8  UNL     1      -0.643   0.747   0.146  1.00  0.00     0.039 C 
ENDROOT
BRANCH   7   8
HETATM    8  C9  UNL     1      -1.698  -0.337   0.112  1.00  0.00     0.137 C 
BRANCH   8   9
HETATM    9  C10 UNL     1      -0.969  -1.635  -0.090  1.00  0.00     0.052 C 
BRANCH   9  10
HETATM   10  C11 UNL     1      -1.708  -2.897  -0.096  1.00  0.00     0.122 C 
HETATM   11  C12 UNL     1      -2.757  -3.221  -1.050  1.00  0.00     0.034 C 
HETATM   12  C13 UNL     1      -4.018  -3.428  -0.226  1.00  0.00     0.029 C 
HETATM   13  C14 UNL     1      -3.571  -3.113   1.157  1.00  0.00     0.168 C 
HETATM   14  O2  UNL     1      -2.211  -3.113   1.204  1.00  0.00    -0.386 OA
ENDBRANCH   9  10
ENDBRANCH   8   9
BRANCH   8  15
HETATM   15  C15 UNL     1      -2.502  -0.137  -1.154  1.00  0.00     0.268 C 
HETATM   16  O3  UNL     1      -3.731   0.009  -1.194  1.00  0.00    -0.264 OA
BRANCH  15  17
HETATM   17  O4  UNL     1      -1.794  -0.118  -2.360  1.00  0.00    -0.326 OA
HETATM   18  C16 UNL     1      -2.521   0.071  -3.581  1.00  0.00     0.213 C 
ENDBRANCH  15  17
ENDBRANCH   8  15
ENDBRANCH   7   8
BRANCH   7  19
HETATM   19  C17 UNL     1      -0.859   2.119   0.622  1.00  0.00     0.097 C 
HETATM   20  C18 UNL     1      -1.888   2.840  -0.134  1.00  0.00     0.050 C 
HETATM   21  C19 UNL     1      -3.203   3.106   0.549  1.00  0.00     0.082 C 
HETATM   22  C20 UNL     1      -3.047   3.573   1.982  1.00  0.00     0.243 C 
HETATM   23  F1  UNL     1      -4.308   3.672   2.522  1.00  0.00    -0.206 F 
HETATM   24  F2  UNL     1      -2.366   4.747   2.092  1.00  0.00    -0.206 F 
HETATM   25  C21 UNL     1      -2.340   2.413   2.667  1.00  0.00     0.082 C 
HETATM   26  C22 UNL     1      -0.979   2.195   2.124  1.00  0.00     0.050 C 
BRANCH  19  27
HETATM   27  O5  UNL     1       0.365   2.807   0.367  1.00  0.00    -0.384 OA
ATOM     28  H5  UNL     1       0.225   3.695   0.675  1.00  0.00     0.211 HD
ENDBRANCH  19  27
ENDBRANCH   7  19
BRANCH   1  29
HETATM   29  C6  UNL     1       3.884   0.406   0.397  1.00  0.00     0.108 A 
HETATM   30  C5  UNL     1       4.204  -0.372  -0.689  1.00  0.00     0.049 A 
HETATM   31  C4  UNL     1       5.451  -0.984  -0.722  1.00  0.00     0.016 A 
HETATM   32  C3  UNL     1       6.382  -0.847   0.284  1.00  0.00    -0.021 A 
HETATM   33  C23 UNL     1       5.991  -0.040   1.361  1.00  0.00     0.101 A 
HETATM   34  N3  UNL     1       4.785   0.546   1.382  1.00  0.00    -0.351 N 
ATOM     35  H3  UNL     1       4.541   1.126   2.185  1.00  0.00     0.166 HD
BRANCH  32  36
HETATM   36  C2  UNL     1       7.688  -1.468   0.284  1.00  0.00     0.002 C 
HETATM   37  C1  UNL     1       8.070  -2.223  -0.711  1.00  0.00     0.012 C 
ENDBRANCH  32  36
ENDBRANCH   1  29
TORSDOF 9
