REMARK  6 active torsions:
REMARK  status: ('A' for Active; 'I' for Inactive)
REMARK    1  A    between atoms: O1_2  and  C2_3 
REMARK    2  A    between atoms: C3_4  and  C4_5 
REMARK    3  A    between atoms: C13_16  and  C14_17 
REMARK    4  A    between atoms: C16_20  and  O5_21 
REMARK    5  A    between atoms: C22_29  and  C23_30 
REMARK    6  A    between atoms: C23_30  and  O6_31 
ROOT
HETATM    1  C2  UNL     1       3.365  -0.574   0.204  1.00  0.00     0.171 C 
HETATM    2  C3  UNL     1       3.905   0.778   0.518  1.00  0.00     0.044 C 
HETATM    3  C5  UNL     1       3.285   1.884   0.230  1.00  0.00    -0.010 C 
HETATM    4  C6  UNL     1       1.988   1.972  -0.438  1.00  0.00     0.034 C 
HETATM    5  C7  UNL     1       1.356   0.665  -0.709  1.00  0.00     0.007 C 
HETATM    6  C8  UNL     1       0.235   0.293   0.277  1.00  0.00    -0.002 C 
HETATM    7  C9  UNL     1      -0.572   1.515   0.524  1.00  0.00     0.006 C 
HETATM    8  C10 UNL     1      -1.975   1.285   1.037  1.00  0.00     0.014 C 
HETATM    9  C11 UNL     1      -2.563  -0.034   0.686  1.00  0.00     0.005 C 
HETATM   10  C12 UNL     1      -2.184  -1.010   1.774  1.00  0.00     0.019 C 
HETATM   11  C13 UNL     1      -4.009  -0.084   0.389  1.00  0.00     0.097 C 
HETATM   12  C16 UNL     1      -4.198  -0.775  -0.963  1.00  0.00     0.160 C 
HETATM   13  C17 UNL     1      -2.845  -1.487  -1.137  1.00  0.00     0.079 C 
HETATM   14  C18 UNL     1      -1.925  -0.427  -0.656  1.00  0.00     0.118 C 
HETATM   15  F1  UNL     1      -2.010   0.628  -1.537  1.00  0.00    -0.242 F 
HETATM   16  C19 UNL     1      -0.537  -0.837  -0.360  1.00  0.00     0.031 C 
HETATM   17  C20 UNL     1       0.134  -1.447  -1.551  1.00  0.00     0.009 C 
HETATM   18  C21 UNL     1       1.578  -1.734  -1.143  1.00  0.00     0.015 C 
HETATM   19  C22 UNL     1       2.328  -0.446  -0.912  1.00  0.00     0.016 C 
ENDROOT
BRANCH   2  20
HETATM   20  C4  UNL     1       5.206   0.888   1.159  1.00  0.00     0.207 C 
HETATM   21  O2  UNL     1       5.888  -0.110   1.473  1.00  0.00    -0.644 OA
HETATM   22  O3  UNL     1       5.771   2.130   1.463  1.00  0.00    -0.644 OA
ENDBRANCH   2  20
BRANCH   1  23
HETATM   23  O1  UNL     1       2.855  -1.181   1.310  1.00  0.00    -0.385 OA
HETATM   24  C1  UNL     1       3.411  -2.364   1.716  1.00  0.00     0.202 C 
ENDBRANCH   1  23
BRANCH  19  25
HETATM   25  C23 UNL     1       3.093  -0.149  -2.211  1.00  0.00     0.177 C 
BRANCH  25  26
HETATM   26  O6  UNL     1       2.183  -0.026  -3.244  1.00  0.00    -0.400 OA
ATOM     27  H6  UNL     1       2.656   0.158  -4.047  1.00  0.00     0.209 HD
ENDBRANCH  25  26
ENDBRANCH  19  25
BRANCH  11  28
HETATM   28  C14 UNL     1      -4.772   1.156   0.505  1.00  0.00     0.130 C 
HETATM   29  C15 UNL     1      -4.932   1.887   1.790  1.00  0.00     0.091 C 
HETATM   30  O4  UNL     1      -5.334   1.671  -0.473  1.00  0.00    -0.298 OA
ENDBRANCH  11  28
BRANCH  12  31
HETATM   31  O5  UNL     1      -4.291   0.132  -2.013  1.00  0.00    -0.278 OA
HETATM   32 CL1  UNL     1      -5.679  -0.165  -2.970  1.00  0.00     0.062 Cl
ENDBRANCH  12  31
TORSDOF 6
