REMARK  7 active torsions:
REMARK  status: ('A' for Active; 'I' for Inactive)
REMARK    1  A    between atoms: O1_1  and  C1_3 
REMARK    2  A    between atoms: C1_3  and  C2_4 
REMARK    3  A    between atoms: C1_3  and  C8_12 
REMARK    4  A    between atoms: C2_4  and  C3_5 
REMARK    5  A    between atoms: C11_15  and  N2_16 
REMARK    6  A    between atoms: C15_22  and  N4_23 
REMARK    7  A    between atoms: N4_23  and  C16_25 
ROOT
HETATM    1  N2  UNL     1      -0.074   0.453  -1.143  1.00  0.00     0.102 N 
HETATM    2  C12 UNL     1       0.560  -0.833  -1.388  1.00  0.00     0.315 C 
HETATM    3  C13 UNL     1       1.980  -0.560  -1.044  1.00  0.00     0.011 A 
HETATM    4  C14 UNL     1       3.174  -1.217  -1.340  1.00  0.00     0.117 A 
HETATM    5  N3  UNL     1       4.357  -0.745  -0.867  1.00  0.00    -0.201 N 
ATOM      6  H3  UNL     1       5.212  -1.248  -1.103  1.00  0.00     0.183 HD
HETATM    7  C15 UNL     1       4.449   0.350  -0.106  1.00  0.00     0.678 A 
HETATM    8  N5  UNL     1       3.269   0.990   0.178  1.00  0.00    -0.193 N 
ATOM      9  H5  UNL     1       3.299   1.831   0.755  1.00  0.00     0.184 HD
HETATM   10  C22 UNL     1       2.087   0.567  -0.263  1.00  0.00     0.064 A 
HETATM   11  C23 UNL     1       0.685   1.084  -0.098  1.00  0.00     0.331 C 
ENDROOT
BRANCH   1  12
HETATM   12  C11 UNL     1      -1.473   0.322  -0.908  1.00  0.00     0.224 C 
HETATM   13  C10 UNL     1      -1.870  -0.433   0.323  1.00  0.00     0.036 C 
HETATM   14  C9  UNL     1      -3.356  -0.522   0.423  1.00  0.00     0.009 C 
HETATM   15  C8  UNL     1      -4.066  -0.101  -0.850  1.00  0.00     0.015 C 
HETATM   16  C25 UNL     1      -3.701   1.281  -1.275  1.00  0.00     0.009 C 
HETATM   17  C24 UNL     1      -2.244   1.604  -0.970  1.00  0.00     0.036 C 
BRANCH  15  18
HETATM   18  C1  UNL     1      -5.561  -0.243  -0.696  1.00  0.00     0.126 C 
BRANCH  18  19
HETATM   19  O1  UNL     1      -5.846  -1.593  -0.420  1.00  0.00    -0.395 OA
ATOM     20  H1  UNL     1      -5.471  -2.130  -1.108  1.00  0.00     0.210 HD
ENDBRANCH  18  19
BRANCH  18  21
HETATM   21  C2  UNL     1      -6.151   0.602   0.387  1.00  0.00     0.072 C 
BRANCH  21  22
HETATM   22  C3  UNL     1      -7.617   0.347   0.397  1.00  0.00    -0.040 A 
HETATM   23  C4  UNL     1      -8.060  -0.684   1.220  1.00  0.00     0.010 A 
HETATM   24  C5  UNL     1      -9.379  -1.036   1.335  1.00  0.00     0.018 A 
HETATM   25  C6  UNL     1     -10.275  -0.290   0.565  1.00  0.00     0.087 A 
HETATM   26  N1  UNL     1      -9.837   0.707  -0.229  1.00  0.00    -0.375 N 
HETATM   27  C7  UNL     1      -8.531   1.046  -0.335  1.00  0.00     0.094 A 
ATOM     28  H1  UNL     1     -10.521   1.230  -0.775  1.00  0.00     0.164 HD
ENDBRANCH  21  22
ENDBRANCH  18  21
ENDBRANCH  15  18
ENDBRANCH   1  12
BRANCH   7  29
HETATM   29  N4  UNL     1       5.556   0.785   0.362  1.00  0.00    -0.221 N 
ATOM     30  H4  UNL     1       5.518   1.630   0.931  1.00  0.00     0.178 HD
BRANCH  29  31
HETATM   31  C16 UNL     1       6.851   0.191   0.159  1.00  0.00     0.099 C 
HETATM   32  C17 UNL     1       7.085  -1.018   0.999  1.00  0.00     0.031 C 
HETATM   33  C18 UNL     1       8.451  -1.254   1.505  1.00  0.00     0.081 C 
HETATM   34  C19 UNL     1       9.512  -0.325   0.984  1.00  0.00     0.243 C 
HETATM   35  F1  UNL     1       9.578  -0.470  -0.389  1.00  0.00    -0.206 F 
HETATM   36  F2  UNL     1      10.691  -0.549   1.618  1.00  0.00    -0.206 F 
HETATM   37  C20 UNL     1       8.956   1.081   1.249  1.00  0.00     0.081 C 
HETATM   38  C21 UNL     1       7.872   1.273   0.247  1.00  0.00     0.031 C 
ENDBRANCH  29  31
ENDBRANCH   7  29
TORSDOF 7
