REMARK  3 active torsions:
REMARK  status: ('A' for Active; 'I' for Inactive)
REMARK    1  A    between atoms: C2_5  and  N3_6 
REMARK    2  A    between atoms: C4_13  and  N5_14 
REMARK    3  A    between atoms: N5_14  and  N6_16 
ROOT
HETATM    1  C1  UNL     1      -0.021   2.305   0.170  1.00  0.00     0.180 C 
HETATM    2  N1  UNL     1      -0.218   0.853   0.092  1.00  0.00    -0.261 N 
HETATM    3  N2  UNL     1      -1.464   0.406   0.235  1.00  0.00    -0.129 N 
ATOM      4  H2  UNL     1      -2.206   1.089   0.388  1.00  0.00     0.206 HD
HETATM    5  C2  UNL     1      -1.801  -0.897   0.189  1.00  0.00     0.693 A 
HETATM    6  N4  UNL     1      -0.801  -1.770  -0.015  1.00  0.00    -0.152 N 
ATOM      7  H4  UNL     1      -1.006  -2.768  -0.058  1.00  0.00     0.188 HD
HETATM    8  C3  UNL     1       0.469  -1.346  -0.163  1.00  0.00     0.306 A 
HETATM    9  O1  UNL     1       1.415  -2.154  -0.354  1.00  0.00    -0.263 OA
HETATM   10  C4  UNL     1       0.772  -0.002  -0.108  1.00  0.00     0.206 A 
ENDROOT
BRANCH  10  11
HETATM   11  N5  UNL     1       1.972   0.429  -0.246  1.00  0.00    -0.286 N 
ATOM     12  H5  UNL     1       2.174   1.428  -0.202  1.00  0.00     0.188 HD
BRANCH  11  13
HETATM   13  N6  UNL     1       2.986  -0.486  -0.455  1.00  0.00    -0.343 N 
ATOM     14  H62 UNL     1       2.768  -1.481  -0.496  1.00  0.00     0.176 HD
ATOM     15  H61 UNL     1       3.940  -0.143  -0.565  1.00  0.00     0.176 HD
ENDBRANCH  11  13
ENDBRANCH  10  11
BRANCH   5  16
HETATM   16  N3  UNL     1      -3.031  -1.292   0.333  1.00  0.00    -0.233 N 
ATOM     17  H32 UNL     1      -3.790  -0.629   0.488  1.00  0.00     0.174 HD
ATOM     18  H31 UNL     1      -3.286  -2.279   0.298  1.00  0.00     0.174 HD
ENDBRANCH   5  16
TORSDOF 3
