REMARK  2 active torsions:
REMARK  status: ('A' for Active; 'I' for Inactive)
REMARK    1  A    between atoms: C2_5  and  N3_6 
REMARK    2  A    between atoms: C3_9  and  N4_10 
ROOT
HETATM    1  C1  UNL     1       2.484   0.261  -0.014  1.00  0.00     0.183 C 
HETATM    2  N1  UNL     1       1.033   0.218  -0.009  1.00  0.00    -0.245 N 
HETATM    3  N2  UNL     1       0.338  -0.904   0.006  1.00  0.00    -0.277 N 
ATOM      4  H2  UNL     1       0.844  -1.789   0.015  1.00  0.00     0.189 HD
HETATM    5  C2  UNL     1      -1.008  -0.934   0.010  1.00  0.00     0.158 A 
HETATM    6  C3  UNL     1      -1.702   0.257  -0.001  1.00  0.00     0.148 A 
HETATM    7  N5  UNL     1      -1.012   1.416  -0.016  1.00  0.00    -0.290 N 
ATOM      8  H5  UNL     1      -1.500   2.312  -0.025  1.00  0.00     0.172 HD
HETATM    9  C4  UNL     1       0.336   1.367  -0.019  1.00  0.00     0.342 A 
HETATM   10  O1  UNL     1       0.994   2.455  -0.033  1.00  0.00    -0.245 OA
ENDROOT
BRANCH   5  11
HETATM   11  N3  UNL     1      -1.665  -2.033   0.024  1.00  0.00    -0.381 N 
ATOM     12  H32 UNL     1      -1.151  -2.914   0.032  1.00  0.00     0.157 HD
ATOM     13  H31 UNL     1      -2.685  -2.056   0.027  1.00  0.00     0.157 HD
ENDBRANCH   5  11
BRANCH   6  14
HETATM   14  N4  UNL     1      -2.986   0.212   0.003  1.00  0.00    -0.382 N 
ATOM     15  H42 UNL     1      -3.508  -0.664   0.014  1.00  0.00     0.157 HD
ATOM     16  H41 UNL     1      -3.500   1.093  -0.005  1.00  0.00     0.157 HD
ENDBRANCH   6  14
TORSDOF 2
