REMARK  0 active torsions:
REMARK  status: ('A' for Active; 'I' for Inactive)
ROOT
HETATM    1  N1  UNL     1      -1.794   2.243  -0.204  1.00  0.00    -0.063 NA
HETATM    2  C1  UNL     1      -1.115   1.004  -0.149  1.00  0.00     0.198 C 
HETATM    3  N2  UNL     1      -1.849  -0.078  -0.059  1.00  0.00    -0.281 N 
ATOM      4  H2  UNL     1      -2.855   0.089  -0.038  1.00  0.00     0.173 HD
HETATM    5  C2  UNL     1      -1.470  -1.455   0.014  1.00  0.00     0.341 C 
HETATM    6  O1  UNL     1      -2.392  -2.289  -0.177  1.00  0.00    -0.245 OA
HETATM    7  N3  UNL     1      -0.166  -1.963   0.279  1.00  0.00    -0.249 N 
ATOM      8  H3  UNL     1      -0.095  -2.970   0.428  1.00  0.00     0.192 HD
HETATM    9  N4  UNL     1       1.016  -1.248   0.358  1.00  0.00    -0.269 N 
ATOM     10  H4  UNL     1       1.834  -1.751   0.702  1.00  0.00     0.190 HD
HETATM   11  C3  UNL     1       1.205   0.121   0.007  1.00  0.00     0.209 C 
HETATM   12  N5  UNL     1       2.546   0.563  -0.144  1.00  0.00    -0.062 NA
HETATM   13  N6  UNL     1       0.312   1.029  -0.197  1.00  0.00    -0.303 N 
ATOM     14  H6  UNL     1       0.700   1.941  -0.439  1.00  0.00     0.171 HD
ENDROOT
TORSDOF 0
