REMARK  2 active torsions:
REMARK  status: ('A' for Active; 'I' for Inactive)
REMARK    1  A    between atoms: O1_1  and  C1_3 
REMARK    2  A    between atoms: C5_8  and  O2_9 
ROOT
HETATM    1  C1  UNL     1       1.650   0.021  -0.618  1.00  0.00     0.149 C 
HETATM    2  C2  UNL     1       1.030  -1.309  -0.479  1.00  0.00     0.303 C 
HETATM    3  N1  UNL     1      -0.388  -1.377  -0.527  1.00  0.00     0.091 N 
HETATM    4  C3  UNL     1      -1.020  -0.537  -1.482  1.00  0.00     0.275 C 
HETATM    5  C4  UNL     1      -1.392   0.752  -0.766  1.00  0.00     0.068 C 
HETATM    6  C5  UNL     1      -0.450   0.982   0.403  1.00  0.00     0.063 C 
HETATM    7  C6  UNL     1      -0.558  -0.075   1.451  1.00  0.00     0.068 C 
HETATM    8  C7  UNL     1      -1.031  -1.353   0.761  1.00  0.00     0.275 C 
HETATM    9  C8  UNL     1       0.947   1.188  -0.091  1.00  0.00     0.071 C 
ENDROOT
BRANCH   1  10
HETATM   10  O1  UNL     1       2.937  -0.051  -0.023  1.00  0.00    -0.394 OA
ATOM     11  H1  UNL     1       3.337   0.806  -0.113  1.00  0.00     0.210 HD
ENDBRANCH   1  10
BRANCH   6  12
HETATM   12  O2  UNL     1      -0.854   2.198   0.980  1.00  0.00    -0.390 OA
ATOM     13  H2  UNL     1      -0.265   2.342   1.711  1.00  0.00     0.210 HD
ENDBRANCH   6  12
TORSDOF 2
