REMARK  2 active torsions:
REMARK  status: ('A' for Active; 'I' for Inactive)
REMARK    1  A    between atoms: O1_1  and  C1_3 
REMARK    2  A    between atoms: C6_9  and  O2_10 
ROOT
HETATM    1  C1  UNL     1      -1.601  -0.094  -0.230  1.00  0.00     0.182 C 
HETATM    2  C2  UNL     1      -0.865  -1.233   0.439  1.00  0.00     0.307 C 
HETATM    3  N1  UNL     1       0.374  -1.420  -0.281  1.00  0.00     0.094 N 
HETATM    4  C3  UNL     1       1.536  -1.045   0.518  1.00  0.00     0.272 C 
HETATM    5  C4  UNL     1       1.676   0.446   0.641  1.00  0.00     0.033 C 
HETATM    6  C5  UNL     1       0.360   1.176   0.446  1.00  0.00     0.044 C 
HETATM    7  C6  UNL     1      -0.387   0.695  -0.745  1.00  0.00     0.112 C 
HETATM    8  C7  UNL     1       0.351  -0.481  -1.400  1.00  0.00     0.312 C 
ENDROOT
BRANCH   1   9
HETATM    9  O1  UNL     1      -2.384   0.637   0.613  1.00  0.00    -0.391 OA
ATOM     10  H1  UNL     1      -2.846   1.353   0.193  1.00  0.00     0.210 HD
ENDBRANCH   1   9
BRANCH   7  11
HETATM   11  O2  UNL     1      -0.740   1.660  -1.649  1.00  0.00    -0.385 OA
ATOM     12  H2  UNL     1       0.010   2.148  -1.967  1.00  0.00     0.210 HD
ENDBRANCH   7  11
TORSDOF 2
