REMARK  2 active torsions:
REMARK  status: ('A' for Active; 'I' for Inactive)
REMARK    1  A    between atoms: O1_1  and  C1_3 
REMARK    2  A    between atoms: C7_10  and  O3_11 
ROOT
HETATM    1  C1  UNL     1      -1.552   0.180   0.074  1.00  0.00     0.151 C 
HETATM    2  C2  UNL     1      -0.922  -0.629  -1.022  1.00  0.00     0.066 C 
HETATM    3  C3  UNL     1       0.491  -0.234  -1.328  1.00  0.00     0.124 C 
HETATM    4  C4  UNL     1       1.490  -1.080  -0.572  1.00  0.00     0.034 C 
HETATM    5  C5  UNL     1       1.651  -0.298   0.711  1.00  0.00     0.037 C 
HETATM    6  C6  UNL     1       0.818   0.918   0.465  1.00  0.00     0.153 C 
HETATM    7  O2  UNL     1       0.726   1.081  -0.917  1.00  0.00    -0.378 OA
HETATM    8  C7  UNL     1      -0.581   0.821   1.002  1.00  0.00     0.175 C 
ENDROOT
BRANCH   1   9
HETATM    9  O1  UNL     1      -2.539  -0.559   0.770  1.00  0.00    -0.393 OA
ATOM     10  H1  UNL     1      -2.938  -0.047   1.464  1.00  0.00     0.210 HD
ENDBRANCH   1   9
BRANCH   8  11
HETATM   11  O3  UNL     1      -0.984   2.154   1.257  1.00  0.00    -0.390 OA
ATOM     12  H3  UNL     1      -0.364   2.563   1.849  1.00  0.00     0.210 HD
ENDBRANCH   8  11
TORSDOF 2
