REMARK  2 active torsions:
REMARK  status: ('A' for Active; 'I' for Inactive)
REMARK    1  A    between atoms: N2_4  and  C2_5 
REMARK    2  A    between atoms: C2_5  and  C3_6 
ROOT
HETATM    1  C1  UNL     1       2.366   1.587   0.535  1.00  0.00     0.198 A 
HETATM    2  N1  UNL     1       1.187   1.362  -0.091  1.00  0.00    -0.293 N 
ATOM      3  H1  UNL     1       0.566   2.091  -0.444  1.00  0.00     0.188 HD
HETATM    4  N2  UNL     1       0.954   0.061  -0.180  1.00  0.00    -0.286 N 
HETATM    5  C6  UNL     1       2.012  -0.529   0.405  1.00  0.00     0.201 A 
HETATM    6  N3  UNL     1       2.884   0.397   0.847  1.00  0.00    -0.346 N 
ATOM      7  H3  UNL     1       3.767   0.223   1.326  1.00  0.00     0.167 HD
ENDROOT
BRANCH   4   8
HETATM    8  C2  UNL     1      -0.207  -0.590  -0.784  1.00  0.00     0.154 C 
BRANCH   8   9
HETATM    9  C3  UNL     1      -1.308  -0.809   0.194  1.00  0.00     0.005 A 
HETATM   10  C4  UNL     1      -1.953   0.326   0.908  1.00  0.00     0.007 A 
HETATM   11  C5  UNL     1      -2.668  -0.307  -0.222  1.00  0.00     0.007 A 
ENDBRANCH   8   9
ENDBRANCH   4   8
TORSDOF 2
