REMARK  2 active torsions:
REMARK  status: ('A' for Active; 'I' for Inactive)
REMARK    1  A    between atoms: O1_1  and  N1_3 
REMARK    2  A    between atoms: C4_7  and  O2_8 
ROOT
HETATM    1  N1  UNL     1      -1.467   0.789  -0.338  1.00  0.00    -0.200 NA
HETATM    2  C1  UNL     1      -1.676  -0.588  -0.114  1.00  0.00     0.120 C 
HETATM    3  C2  UNL     1      -0.460  -1.452  -0.175  1.00  0.00     0.019 C 
HETATM    4  C3  UNL     1       0.514  -1.159   0.966  1.00  0.00     0.033 C 
HETATM    5  C4  UNL     1       1.474  -0.094   0.583  1.00  0.00     0.119 C 
HETATM    6  C5  UNL     1       0.866   1.217   0.231  1.00  0.00     0.048 C 
HETATM    7  C6  UNL     1      -0.178   1.161  -0.833  1.00  0.00     0.123 C 
ENDROOT
BRANCH   1   8
HETATM    8  O1  UNL     1      -1.706   1.534   0.776  1.00  0.00    -0.313 OA
ATOM      9  H1  UNL     1      -1.565   2.461   0.625  1.00  0.00     0.237 HD
ENDBRANCH   1   8
BRANCH   5  10
HETATM   10  O2  UNL     1       2.222  -0.540  -0.501  1.00  0.00    -0.396 OA
ATOM     11  H2  UNL     1       2.837   0.142  -0.746  1.00  0.00     0.210 HD
ENDBRANCH   5  10
TORSDOF 2
