REMARK  3 active torsions:
REMARK  status: ('A' for Active; 'I' for Inactive)
REMARK    1  A    between atoms: O1_1  and  C1_3 
REMARK    2  A    between atoms: C3_5  and  O2_6 
REMARK    3  A    between atoms: C5_9  and  O3_10 
ROOT
HETATM    1  C1  UNL     1       1.395  -1.340  -0.033  1.00  0.00     0.132 A 
HETATM    2  C2  UNL     1       0.109  -1.121   0.626  1.00  0.00     0.052 A 
HETATM    3  C3  UNL     1      -1.070  -0.750  -0.236  1.00  0.00     0.127 C 
HETATM    4  C4  UNL     1      -0.952   0.736  -0.423  1.00  0.00     0.064 C 
HETATM    5  C5  UNL     1       0.512   1.077  -0.314  1.00  0.00     0.127 C 
HETATM    6  C6  UNL     1       1.104  -0.018   0.554  1.00  0.00     0.052 A 
ENDROOT
BRANCH   1   7
HETATM    7  O1  UNL     1       2.420  -2.083   0.528  1.00  0.00    -0.395 OA
ATOM      8  H1  UNL     1       3.256  -2.225   0.100  1.00  0.00     0.210 HD
ENDBRANCH   1   7
BRANCH   3   9
HETATM    9  O2  UNL     1      -2.289  -1.041   0.395  1.00  0.00    -0.395 OA
ATOM     10  H2  UNL     1      -3.032  -0.807  -0.148  1.00  0.00     0.210 HD
ENDBRANCH   3   9
BRANCH   5  11
HETATM   11  O3  UNL     1       0.625   2.326   0.274  1.00  0.00    -0.395 OA
ATOM     12  H3  UNL     1       1.548   2.541   0.343  1.00  0.00     0.210 HD
ENDBRANCH   5  11
TORSDOF 3
