REMARK  4 active torsions:
REMARK  status: ('A' for Active; 'I' for Inactive)
REMARK    1  A    between atoms: C2_2  and  C3_3 
REMARK    2  A    between atoms: C14_14  and  C16_16 
REMARK    3  A    between atoms: C17_17  and  C18_18 
REMARK    4  A    between atoms: C18_18  and  C19_20 
ROOT
HETATM    1  C3  UNL     1      -2.906   0.917  -0.182  1.00  0.00     0.007 C 
HETATM    2  C4  UNL     1      -4.002   1.053  -1.201  1.00  0.00     0.025 C 
HETATM    3  C5  UNL     1      -1.764   1.854  -0.388  1.00  0.00     0.019 C 
HETATM    4  C6  UNL     1      -0.507   1.156   0.131  1.00  0.00     0.008 C 
HETATM    5  C7  UNL     1      -0.098   0.123  -0.896  1.00  0.00     0.011 C 
HETATM    6  C8  UNL     1      -1.188  -0.907  -0.953  1.00  0.00    -0.004 C 
HETATM    7  C9  UNL     1      -1.685  -1.075  -2.398  1.00  0.00     0.021 C 
HETATM    8  C10 UNL     1      -0.773  -2.262  -0.489  1.00  0.00     0.015 C 
HETATM    9  C11 UNL     1       0.077  -2.149   0.726  1.00  0.00     0.006 C 
HETATM   10  C12 UNL     1       1.367  -1.466   0.391  1.00  0.00    -0.006 C 
HETATM   11  C13 UNL     1       2.375  -2.545   0.024  1.00  0.00     0.011 C 
HETATM   12  C14 UNL     1       1.272  -0.436  -0.685  1.00  0.00    -0.018 C 
HETATM   13  C15 UNL     1       1.780  -0.979  -2.027  1.00  0.00     0.020 C 
HETATM   14  C20 UNL     1      -2.388  -0.481  -0.171  1.00  0.00     0.008 C 
HETATM   15  S1  UNL     1      -3.136  -1.408   0.660  1.00  0.00    -0.088 SA
ENDROOT
BRANCH  12  16
HETATM   16  C16 UNL     1       2.175   0.691  -0.352  1.00  0.00    -0.013 C 
HETATM   17  C17 UNL     1       3.234   0.621   0.426  1.00  0.00     0.048 C 
BRANCH  17  18
HETATM   18  C18 UNL     1       4.030   1.819   0.662  1.00  0.00     0.162 C 
HETATM   19  O1  UNL     1       3.692   2.898   0.119  1.00  0.00    -0.292 OA
BRANCH  18  20
HETATM   20  C19 UNL     1       5.234   1.816   1.526  1.00  0.00     0.197 C 
HETATM   21 CL1  UNL     1       5.554   0.211   2.203  1.00  0.00    -0.122 Cl
ENDBRANCH  18  20
ENDBRANCH  17  18
ENDBRANCH  12  16
BRANCH   1  22
HETATM   22  C2  UNL     1      -3.514   1.253   1.158  1.00  0.00    -0.022 C 
HETATM   23  C1  UNL     1      -4.201   2.358   1.342  1.00  0.00     0.008 C 
ENDBRANCH   1  22
TORSDOF 4
