REMARK  5 active torsions:
REMARK  status: ('A' for Active; 'I' for Inactive)
REMARK    1  A    between atoms: C4_5  and  C6_7 
REMARK    2  A    between atoms: C6_7  and  C7_8 
REMARK    3  A    between atoms: C7_8  and  N2_9 
REMARK    4  A    between atoms: N2_9  and  C8_10 
REMARK    5  A    between atoms: N2_9  and  C14_16 
ROOT
HETATM    1  C7  UNL     1      -0.376  -0.453   0.449  1.00  0.00     0.275 C 
ENDROOT
BRANCH   1   2
HETATM    2  C6  UNL     1       0.890  -1.103   0.179  1.00  0.00     0.041 C 
BRANCH   2   3
HETATM    3  C4  UNL     1       2.138  -0.323   0.621  1.00  0.00    -0.018 C 
HETATM    4  C3  UNL     1       3.291  -1.248   0.184  1.00  0.00     0.030 C 
HETATM    5  C2  UNL     1       3.850  -0.816  -1.161  1.00  0.00     0.117 C 
HETATM    6  N1  UNL     1       4.499   0.421  -0.959  1.00  0.00    -0.415 N 
HETATM    7  C1  UNL     1       5.283   0.970  -1.978  1.00  0.00     0.143 C 
HETATM    8  C20 UNL     1       3.834   1.269  -0.054  1.00  0.00     0.142 C 
HETATM    9  C18 UNL     1       2.325   1.005   0.079  1.00  0.00     0.056 C 
HETATM   10  C19 UNL     1       1.846   2.148   0.976  1.00  0.00     0.035 C 
HETATM   11 CL1  UNL     1       1.669   1.300  -1.536  1.00  0.00    -0.117 Cl
HETATM   12  C5  UNL     1       2.223  -0.341   2.132  1.00  0.00     0.017 C 
ENDBRANCH   2   3
ENDBRANCH   1   2
BRANCH   1  13
HETATM   13  N2  UNL     1      -1.659  -1.000   0.144  1.00  0.00     0.101 N 
BRANCH  13  14
HETATM   14  C8  UNL     1      -2.524   0.127   0.383  1.00  0.00     0.224 C 
HETATM   15  C9  UNL     1      -3.945   0.116   0.418  1.00  0.00     0.036 C 
HETATM   16  C10 UNL     1      -4.425   1.587   0.164  1.00  0.00     0.002 C 
HETATM   17  C11 UNL     1      -3.603   2.572   0.916  1.00  0.00     0.000 C 
HETATM   18  C12 UNL     1      -3.127   1.832   2.151  1.00  0.00     0.002 C 
HETATM   19  C13 UNL     1      -2.129   0.748   1.756  1.00  0.00     0.036 C 
ENDBRANCH  13  14
BRANCH  13  20
HETATM   20  C14 UNL     1      -1.820  -1.748  -1.031  1.00  0.00     0.149 C 
HETATM   21  C15 UNL     1      -0.928  -2.966  -1.149  1.00  0.00     0.048 C 
HETATM   22  C16 UNL     1      -3.198  -2.386  -1.024  1.00  0.00     0.048 C 
HETATM   23  C17 UNL     1      -1.631  -1.013  -2.334  1.00  0.00     0.048 C 
ENDBRANCH  13  20
ENDBRANCH   1  13
TORSDOF 5
