REMARK  3 active torsions:
REMARK  status: ('A' for Active; 'I' for Inactive)
REMARK    1  A    between atoms: C3_7  and  N3_8 
REMARK    2  A    between atoms: C6_11  and  N4_12 
REMARK       I    between atoms: N4_12  and  C7_14 
REMARK    3  A    between atoms: C7_14  and  C8_16 
ROOT
HETATM    1  N3  UNL     1       2.105   0.147   0.500  1.00  0.00    -0.346 N 
HETATM    2  C4  UNL     1       1.534  -0.958  -0.255  1.00  0.00     0.128 C 
HETATM    3  C5  UNL     1       0.100  -1.119   0.199  1.00  0.00     0.045 C 
HETATM    4  C6  UNL     1      -0.654   0.162  -0.138  1.00  0.00     0.087 C 
HETATM    5  C11 UNL     1       0.084   1.393   0.345  1.00  0.00     0.045 C 
HETATM    6  C12 UNL     1       1.176   0.937   1.285  1.00  0.00     0.128 C 
ENDROOT
BRANCH   1   7
HETATM    7  C3  UNL     1       3.495   0.429   0.466  1.00  0.00     0.243 A 
HETATM    8  N2  UNL     1       4.152   1.388   1.093  1.00  0.00    -0.263 N 
HETATM    9  N1  UNL     1       5.457   1.323   0.804  1.00  0.00    -0.280 N 
ATOM     10  H2  UNL     1       3.725   2.080   1.710  1.00  0.00     0.190 HD
HETATM   11  C2  UNL     1       5.582   0.282  -0.029  1.00  0.00     0.138 A 
ATOM     12  H1  UNL     1       6.198   1.935   1.145  1.00  0.00     0.189 HD
HETATM   13  C1  UNL     1       6.801  -0.255  -0.669  1.00  0.00     0.099 C 
HETATM   14  O2  UNL     1       4.377  -0.250  -0.223  1.00  0.00    -0.264 OA
ENDBRANCH   1   7
BRANCH   4  15
HETATM   15  N4  UNL     1      -1.956   0.178   0.473  1.00  0.00    -0.356 N 
HETATM   16  C7  UNL     1      -3.125   0.186  -0.316  1.00  0.00     0.221 C 
HETATM   17  O1  UNL     1      -3.069   0.180  -1.573  1.00  0.00    -0.273 OA
ATOM     18  H4  UNL     1      -2.035   0.184   1.490  1.00  0.00     0.162 HD
BRANCH  16  19
HETATM   19  C8  UNL     1      -4.471   0.202   0.309  1.00  0.00     0.070 C 
HETATM   20  C9  UNL     1      -4.551  -1.070   1.162  1.00  0.00     0.019 C 
HETATM   21  C10 UNL     1      -5.552   0.122  -0.744  1.00  0.00     0.019 C 
ENDBRANCH  16  19
ENDBRANCH   4  15
TORSDOF 3
