REMARK  6 active torsions:
REMARK  status: ('A' for Active; 'I' for Inactive)
REMARK    1  A    between atoms: C3_3  and  C5_5 
REMARK    2  A    between atoms: C5_5  and  O2_7 
REMARK    3  A    between atoms: O2_7  and  C6_8 
REMARK    4  A    between atoms: C8_10  and  C9_11 
REMARK    5  A    between atoms: C9_11  and  O4_13 
REMARK    6  A    between atoms: C13_17  and  O5_18 
ROOT
HETATM    1  C6  UNL     1      -0.371   0.476  -1.141  1.00  0.00     0.190 C 
HETATM    2  C7  UNL     1      -1.459  -0.528  -1.111  1.00  0.00    -0.042 C 
HETATM    3  C8  UNL     1      -2.514  -0.682  -0.362  1.00  0.00     0.087 C 
HETATM    4  C11 UNL     1      -1.060  -1.447  -2.246  1.00  0.00     0.040 C 
HETATM    5  C12 UNL     1      -0.772  -0.431  -3.329  1.00  0.00     0.039 C 
HETATM    6  C13 UNL     1      -0.373   0.838  -2.635  1.00  0.00     0.152 C 
ENDROOT
BRANCH   1   7
HETATM    7  O2  UNL     1       0.841  -0.218  -0.917  1.00  0.00    -0.305 OA
BRANCH   7   8
HETATM    8  C5  UNL     1       1.772   0.205   0.036  1.00  0.00     0.289 C 
HETATM    9  O1  UNL     1       1.455   1.236   0.671  1.00  0.00    -0.260 OA
BRANCH   8  10
HETATM   10  C3  UNL     1       3.013  -0.496   0.273  1.00  0.00     0.009 C 
HETATM   11  C2  UNL     1       3.858  -0.074   1.169  1.00  0.00    -0.018 C 
HETATM   12  C1  UNL     1       3.701   1.114   2.036  1.00  0.00     0.036 C 
HETATM   13  C4  UNL     1       3.300  -1.707  -0.529  1.00  0.00     0.054 C 
ENDBRANCH   8  10
ENDBRANCH   7   8
ENDBRANCH   1   7
BRANCH   6  14
HETATM   14  O5  UNL     1      -1.215   1.889  -2.906  1.00  0.00    -0.393 OA
ATOM     15  H5  UNL     1      -1.216   2.113  -3.829  1.00  0.00     0.210 HD
ENDBRANCH   6  14
BRANCH   3  16
HETATM   16  C9  UNL     1      -2.946   0.152   0.733  1.00  0.00     0.282 C 
HETATM   17  O3  UNL     1      -2.293   1.161   1.075  1.00  0.00    -0.260 OA
BRANCH  16  18
HETATM   18  O4  UNL     1      -4.106  -0.176   1.415  1.00  0.00    -0.323 OA
HETATM   19  C10 UNL     1      -4.596   0.593   2.502  1.00  0.00     0.213 C 
ENDBRANCH  16  18
ENDBRANCH   3  16
TORSDOF 6
