REMARK  4 active torsions:
REMARK  status: ('A' for Active; 'I' for Inactive)
REMARK    1  A    between atoms: N1_9  and  C9_10 
REMARK    2  A    between atoms: C9_10  and  C10_11 
REMARK    3  A    between atoms: C10_11  and  C11_12 
REMARK    4  A    between atoms: C11_12  and  C12_13 
ROOT
HETATM    1  C10 UNL     1      -0.198  -0.366  -0.902  1.00  0.00     0.031 C 
ENDROOT
BRANCH   1   2
HETATM    2  C9  UNL     1       1.239  -0.645  -0.779  1.00  0.00     0.273 C 
BRANCH   2   3
HETATM    3  N1  UNL     1       2.081   0.160   0.034  1.00  0.00     0.097 N 
HETATM    4  C7  UNL     1       1.910   0.029   1.428  1.00  0.00     0.220 C 
HETATM    5  C6  UNL     1       3.184  -0.637   1.999  1.00  0.00     0.042 C 
HETATM    6  C8  UNL     1       1.745   1.391   2.097  1.00  0.00     0.043 C 
HETATM    7  C5  UNL     1       3.793  -1.203   0.747  1.00  0.00     0.021 C 
HETATM    8  C4  UNL     1       5.273  -1.458   0.888  1.00  0.00     0.007 C 
HETATM    9  C23 UNL     1       3.495  -0.115  -0.256  1.00  0.00     0.228 C 
HETATM   10  C3  UNL     1       6.061  -0.659  -0.123  1.00  0.00     0.005 C 
HETATM   11  C2  UNL     1       5.782   0.811   0.152  1.00  0.00    -0.017 C 
HETATM   12  C1  UNL     1       6.688   1.629  -0.707  1.00  0.00     0.010 C 
HETATM   13  C24 UNL     1       4.311   1.118  -0.068  1.00  0.00     0.040 C 
ENDBRANCH   2   3
ENDBRANCH   1   2
BRANCH   1  14
HETATM   14  C11 UNL     1      -1.076  -0.417   0.274  1.00  0.00     0.011 C 
BRANCH  14  15
HETATM   15  C12 UNL     1      -2.562  -0.166  -0.061  1.00  0.00    -0.039 C 
HETATM   16  C13 UNL     1      -3.231  -0.287   1.308  1.00  0.00     0.014 C 
HETATM   17  C14 UNL     1      -4.703  -0.528   1.210  1.00  0.00    -0.013 C 
HETATM   18  C15 UNL     1      -4.886  -1.857   0.512  1.00  0.00     0.009 C 
HETATM   19  C19 UNL     1      -5.371   0.610   0.530  1.00  0.00     0.010 C 
HETATM   20  C16 UNL     1      -4.401  -1.665  -0.908  1.00  0.00    -0.013 C 
HETATM   21  C17 UNL     1      -5.381  -0.743  -1.586  1.00  0.00     0.010 C 
HETATM   22  C22 UNL     1      -2.981  -1.222  -1.010  1.00  0.00     0.014 C 
HETATM   23  C18 UNL     1      -5.230   0.647  -0.953  1.00  0.00     0.001 C 
HETATM   24  C20 UNL     1      -4.006   1.344  -1.449  1.00  0.00     0.063 C 
HETATM   25  S1  UNL     1      -4.383   3.115  -1.591  1.00  0.00    -0.092 SA
HETATM   26  C21 UNL     1      -2.823   1.216  -0.527  1.00  0.00     0.026 C 
ENDBRANCH  14  15
ENDBRANCH   1  14
TORSDOF 4
