REMARK  5 active torsions:
REMARK  status: ('A' for Active; 'I' for Inactive)
REMARK    1  A    between atoms: C4_4  and  C5_5 
REMARK    2  A    between atoms: C5_5  and  C6_6 
REMARK    3  A    between atoms: C6_6  and  C7_7 
REMARK    4  A    between atoms: C25_25  and  O1_26 
REMARK    5  A    between atoms: O1_26  and  O2_27 
ROOT
HETATM    1  C7  UNL     1       1.375  -0.743   0.700  1.00  0.00     0.009 C 
HETATM    2  C8  UNL     1       2.230  -1.565   1.651  1.00  0.00     0.023 C 
HETATM    3  C9  UNL     1       0.554   0.118   1.559  1.00  0.00    -0.076 C 
HETATM    4  C10 UNL     1       1.228   0.740   2.761  1.00  0.00     0.044 C 
HETATM    5  C11 UNL     1      -0.723   0.420   1.406  1.00  0.00    -0.013 C 
HETATM    6  C12 UNL     1      -1.463  -0.144   0.258  1.00  0.00    -0.008 C 
HETATM    7  C13 UNL     1      -1.322   0.732  -0.919  1.00  0.00     0.015 C 
HETATM    8  C14 UNL     1      -2.466   1.521  -1.383  1.00  0.00     0.010 C 
HETATM    9  C15 UNL     1      -3.653   1.609  -0.475  1.00  0.00    -0.047 C 
HETATM   10  C16 UNL     1      -3.525   2.622   0.604  1.00  0.00     0.015 C 
HETATM   11  C17 UNL     1      -4.833   2.032  -1.366  1.00  0.00     0.015 C 
HETATM   12  C18 UNL     1      -3.967   0.223   0.000  1.00  0.00     0.015 C 
HETATM   13  C19 UNL     1      -2.881  -0.525   0.612  1.00  0.00     0.007 C 
HETATM   14  C20 UNL     1      -2.832  -2.003   0.300  1.00  0.00    -0.038 C 
HETATM   15  C21 UNL     1      -4.000  -2.826   0.359  1.00  0.00     0.015 C 
HETATM   16  C22 UNL     1      -1.882  -2.116  -0.905  1.00  0.00     0.023 C 
HETATM   17  C23 UNL     1      -0.901  -1.527   0.044  1.00  0.00     0.003 C 
HETATM   18  C24 UNL     1      -1.584  -2.401   1.110  1.00  0.00     0.023 C 
HETATM   19  C25 UNL     1       0.523  -1.687  -0.152  1.00  0.00     0.182 C 
ENDROOT
BRANCH   1  20
HETATM   20  C6  UNL     1       2.286  -0.030  -0.226  1.00  0.00     0.020 C 
BRANCH  20  21
HETATM   21  C5  UNL     1       3.272   0.921   0.366  1.00  0.00     0.028 C 
BRANCH  21  22
HETATM   22  C4  UNL     1       4.041   1.490  -0.770  1.00  0.00    -0.025 C 
HETATM   23  C2  UNL     1       5.348   1.316  -0.823  1.00  0.00    -0.091 C 
HETATM   24  C1  UNL     1       6.033   0.561   0.240  1.00  0.00     0.042 C 
HETATM   25  C3  UNL     1       6.189   1.857  -1.931  1.00  0.00     0.042 C 
ENDBRANCH  21  22
ENDBRANCH  20  21
ENDBRANCH   1  20
BRANCH  19  26
HETATM   26  O1  UNL     1       0.822  -1.570  -1.511  1.00  0.00    -0.236 OA
BRANCH  26  27
HETATM   27  O2  UNL     1       1.319  -2.639  -2.034  1.00  0.00    -0.250 OA
ATOM     28  H2  UNL     1       1.522  -2.559  -2.959  1.00  0.00     0.253 HD
ENDBRANCH  26  27
ENDBRANCH  19  26
TORSDOF 5
