REMARK  6 active torsions:
REMARK  status: ('A' for Active; 'I' for Inactive)
REMARK    1  A    between atoms: C3_3  and  C4_4 
REMARK    2  A    between atoms: C4_4  and  C5_5 
REMARK    3  A    between atoms: C7_7  and  C8_8 
REMARK    4  A    between atoms: C9_9  and  C10_10 
REMARK    5  A    between atoms: C15_15  and  N1_16 
REMARK    6  A    between atoms: N1_16  and  C16_18 
ROOT
HETATM    1  C8  UNL     1      -1.315  -0.893  -0.790  1.00  0.00     0.041 C 
HETATM    2  C9  UNL     1      -0.605  -2.101  -0.251  1.00  0.00     0.010 C 
HETATM    3  C14 UNL     1       0.853  -2.174  -0.551  1.00  0.00     0.082 C 
HETATM    4  C15 UNL     1       1.516  -0.854  -0.672  1.00  0.00     0.074 C 
HETATM    5  N2  UNL     1       0.849   0.058  -1.258  1.00  0.00    -0.371 N 
ATOM      6  H2  UNL     1       1.280   0.977  -1.355  1.00  0.00     0.161 HD
HETATM    7  C23 UNL     1      -0.481  -0.127  -1.795  1.00  0.00     0.031 C 
HETATM    8  C24 UNL     1      -1.086   1.280  -1.910  1.00  0.00     0.039 C 
HETATM    9  C25 UNL     1      -0.495  -0.690  -3.172  1.00  0.00     0.039 C 
ENDROOT
BRANCH   4  10
HETATM   10  N1  UNL     1       2.796  -0.631  -0.171  1.00  0.00    -0.375 N 
ATOM     11  H1  UNL     1       3.139  -1.346   0.471  1.00  0.00     0.161 HD
BRANCH  10  12
HETATM   12  C16 UNL     1       3.711   0.456  -0.421  1.00  0.00     0.082 C 
HETATM   13  C17 UNL     1       5.057   0.188   0.230  1.00  0.00     0.025 C 
HETATM   14  C18 UNL     1       5.859   1.403   0.556  1.00  0.00     0.002 C 
HETATM   15  C19 UNL     1       5.446   1.909   1.897  1.00  0.00     0.000 C 
HETATM   16  C20 UNL     1       4.019   1.626   2.209  1.00  0.00     0.000 C 
HETATM   17  C21 UNL     1       3.054   2.248   1.239  1.00  0.00     0.002 C 
HETATM   18  C22 UNL     1       3.201   1.818  -0.168  1.00  0.00     0.025 C 
ENDBRANCH  10  12
ENDBRANCH   4  10
BRANCH   2  19
HETATM   19  C10 UNL     1      -1.286  -3.409  -0.524  1.00  0.00    -0.047 C 
HETATM   20  C11 UNL     1      -2.673  -3.475   0.072  1.00  0.00     0.015 C 
HETATM   21  C12 UNL     1      -0.481  -4.494   0.211  1.00  0.00     0.015 C 
HETATM   22  C13 UNL     1      -1.375  -3.822  -1.941  1.00  0.00     0.015 C 
ENDBRANCH   2  19
BRANCH   1  23
HETATM   23  C7  UNL     1      -1.582   0.123   0.298  1.00  0.00    -0.017 C 
HETATM   24  C5  UNL     1      -2.752   0.542   0.672  1.00  0.00    -0.084 C 
HETATM   25  C6  UNL     1      -4.059   0.146   0.140  1.00  0.00     0.043 C 
BRANCH  24  26
HETATM   26  C4  UNL     1      -2.804   1.565   1.784  1.00  0.00     0.060 C 
BRANCH  26  27
HETATM   27  C3  UNL     1      -3.477   2.773   1.213  1.00  0.00    -0.027 C 
HETATM   28  C2  UNL     1      -4.592   3.201   1.758  1.00  0.00    -0.035 C 
HETATM   29  C1  UNL     1      -5.273   4.404   1.199  1.00  0.00     0.036 C 
ENDBRANCH  26  27
ENDBRANCH  24  26
ENDBRANCH   1  23
TORSDOF 6
