REMARK  5 active torsions:
REMARK  status: ('A' for Active; 'I' for Inactive)
REMARK    1  A    between atoms: C7_7  and  O1_9 
REMARK    2  A    between atoms: O1_9  and  C9_10 
REMARK    3  A    between atoms: C9_10  and  C10_11 
REMARK    4  A    between atoms: C10_11  and  C11_12 
REMARK    5  A    between atoms: C11_12  and  C12_13 
ROOT
HETATM    1  C1  UNL     1      -0.616   2.670  -1.508  1.00  0.00     0.020 C 
HETATM    2  C2  UNL     1      -0.715   1.613  -0.744  1.00  0.00    -0.058 C 
HETATM    3  C3  UNL     1      -0.084   1.684   0.601  1.00  0.00     0.010 C 
HETATM    4  C4  UNL     1       0.548   0.620   1.065  1.00  0.00    -0.072 C 
HETATM    5  C5  UNL     1       1.291   0.157   2.233  1.00  0.00     0.037 C 
HETATM    6  C6  UNL     1       1.098  -1.390   2.152  1.00  0.00     0.042 C 
HETATM    7  C7  UNL     1       1.419  -1.477   0.645  1.00  0.00     0.065 C 
HETATM    8  C8  UNL     1       1.484  -2.873   0.157  1.00  0.00     0.047 C 
HETATM    9  C14 UNL     1       0.520  -0.522   0.056  1.00  0.00     0.054 C 
HETATM   10  C15 UNL     1      -0.925  -0.745  -0.123  1.00  0.00     0.010 C 
HETATM   11  C16 UNL     1      -1.429  -2.017  -0.648  1.00  0.00     0.007 C 
HETATM   12  C17 UNL     1      -2.938  -2.023  -0.543  1.00  0.00     0.016 C 
HETATM   13  C18 UNL     1      -3.630  -0.742  -0.658  1.00  0.00     0.002 C 
HETATM   14  C19 UNL     1      -4.904  -1.000  -1.482  1.00  0.00     0.022 C 
HETATM   15  C20 UNL     1      -4.135  -0.256   0.664  1.00  0.00     0.035 C 
HETATM   16  N1  UNL     1      -4.587  -1.142   1.696  1.00  0.00    -0.106 NA
HETATM   17  C21 UNL     1      -4.093   1.057   0.709  1.00  0.00    -0.062 C 
HETATM   18  C22 UNL     1      -4.501   1.947   1.835  1.00  0.00     0.045 C 
HETATM   19  C23 UNL     1      -3.575   1.561  -0.561  1.00  0.00     0.042 C 
HETATM   20  C24 UNL     1      -2.885   0.421  -1.197  1.00  0.00     0.016 C 
HETATM   21  C25 UNL     1      -1.406   0.350  -1.102  1.00  0.00    -0.008 C 
HETATM   22  C26 UNL     1      -0.848  -0.027  -2.482  1.00  0.00     0.021 C 
ENDROOT
BRANCH   7  23
HETATM   23  O1  UNL     1       2.744  -0.990   0.613  1.00  0.00    -0.380 OA
BRANCH  23  24
HETATM   24  C9  UNL     1       3.350  -0.987  -0.596  1.00  0.00     0.168 C 
BRANCH  24  25
HETATM   25  C10 UNL     1       4.779  -0.469  -0.415  1.00  0.00     0.026 C 
BRANCH  25  26
HETATM   26  C11 UNL     1       4.836   0.913   0.133  1.00  0.00     0.002 C 
BRANCH  26  27
HETATM   27  C12 UNL     1       6.320   1.274   0.247  1.00  0.00    -0.004 C 
HETATM   28  C13 UNL     1       6.487   2.675   0.799  1.00  0.00     0.005 C 
ENDBRANCH  26  27
ENDBRANCH  25  26
ENDBRANCH  24  25
ENDBRANCH  23  24
ENDBRANCH   7  23
TORSDOF 5
