REMARK  3 active torsions:
REMARK  status: ('A' for Active; 'I' for Inactive)
REMARK    1  A    between atoms: C1_2  and  C2_3 
REMARK    2  A    between atoms: C2_3  and  N1_4 
REMARK    3  A    between atoms: N1_4  and  C3_7 
ROOT
HETATM    1  C3  UNL     1       0.875   0.135  -0.349  1.00  0.00     0.190 C 
HETATM    2  C4  UNL     1       0.341   1.211   0.583  1.00  0.00     0.067 C 
HETATM    3  C5  UNL     1      -1.057   0.881   0.603  1.00  0.00     0.213 C 
HETATM    4  C6  UNL     1      -2.292   1.246   1.145  1.00  0.00     0.265 C 
HETATM    5  N2  UNL     1      -3.211   0.190   0.644  1.00  0.00    -0.071 N 
ATOM      6  H21 UNL     1      -4.126   0.582   0.419  1.00  0.00     0.277 HD
ATOM      7  H22 UNL     1      -3.480  -0.444   1.397  1.00  0.00     0.277 HD
HETATM    8  C7  UNL     1      -2.666  -0.558  -0.501  1.00  0.00     0.265 C 
HETATM    9  C8  UNL     1      -1.305  -1.160  -0.265  1.00  0.00     0.213 C 
HETATM   10  C9  UNL     1      -0.184  -0.616  -1.145  1.00  0.00     0.067 C 
HETATM   11  N3  UNL     1      -0.940  -0.540   0.990  1.00  0.00    -0.063 N 
ATOM     12  H31 UNL     1      -1.480  -0.828   1.806  1.00  0.00     0.278 HD
ATOM     13  H32 UNL     1      -0.044  -0.824   1.386  1.00  0.00     0.278 HD
ENDROOT
BRANCH   1  14
HETATM   14  N1  UNL     1       1.915  -0.676   0.155  1.00  0.00    -0.065 N 
ATOM     15  H12 UNL     1       1.971  -1.580  -0.313  1.00  0.00     0.278 HD
ATOM     16  H11 UNL     1       1.725  -1.020   1.096  1.00  0.00     0.278 HD
BRANCH  14  17
HETATM   17  C2  UNL     1       3.147   0.072   0.073  1.00  0.00     0.301 C 
BRANCH  17  18
HETATM   18  C1  UNL     1       4.378  -0.873   0.212  1.00  0.00     0.258 C 
HETATM   19  O1  UNL     1       4.994  -0.879   1.126  1.00  0.00    -0.305 OA
ENDBRANCH  17  18
ENDBRANCH  14  17
ENDBRANCH   1  14
TORSDOF 3
