REMARK  3 active torsions:
REMARK  status: ('A' for Active; 'I' for Inactive)
REMARK    1  A    between atoms: C2_2  and  S1_3 
REMARK    2  A    between atoms: S1_3  and  N1_6 
REMARK    3  A    between atoms: N1_6  and  N2_8 
REMARK       I    between atoms: N2_8  and  C3_10 
REMARK       I    between atoms: C3_10  and  N4_14 
ROOT
HETATM    1  N2  UNL     1      -0.730  -0.092   0.801  1.00  0.00    -0.123 N 
ATOM      2  H2  UNL     1      -0.844  -0.341   1.784  1.00  0.00     0.206 HD
HETATM    3  C3  UNL     1      -1.589   0.856   0.224  1.00  0.00     0.686 C 
HETATM    4  N3  UNL     1      -2.757   1.055   0.860  1.00  0.00    -0.234 N 
ATOM      5  H31 UNL     1      -3.381   1.744   0.441  1.00  0.00     0.174 HD
ATOM      6  H32 UNL     1      -2.967   0.561   1.727  1.00  0.00     0.174 HD
HETATM    7  N4  UNL     1      -1.305   1.525  -0.950  1.00  0.00    -0.230 N 
ATOM      8  H4  UNL     1      -0.566   2.227  -0.994  1.00  0.00     0.177 HD
HETATM    9  C4  UNL     1      -2.111   1.185  -2.137  1.00  0.00     0.165 C 
ENDROOT
BRANCH   1  10
HETATM   10  N1  UNL     1       0.293  -0.708   0.038  1.00  0.00    -0.209 N 
ATOM     11  H1  UNL     1       0.159  -1.397  -0.702  1.00  0.00     0.201 HD
BRANCH  10  12
HETATM   12  S1  UNL     1       1.795  -0.088   0.580  1.00  0.00     0.265 S 
HETATM   13  O1  UNL     1       2.444   0.584  -0.620  1.00  0.00    -0.200 OA
HETATM   14  O2  UNL     1       1.531   0.916   1.684  1.00  0.00    -0.200 OA
BRANCH  12  15
HETATM   15  C2  UNL     1       2.879  -1.312   1.214  1.00  0.00     0.122 C 
HETATM   16  C1  UNL     1       2.399  -2.373   1.779  1.00  0.00     0.025 C 
ENDBRANCH  12  15
ENDBRANCH  10  12
ENDBRANCH   1  10
TORSDOF 3
