REMARK  3 active torsions:
REMARK  status: ('A' for Active; 'I' for Inactive)
REMARK    1  A    between atoms: N3_4  and  N4_6 
REMARK       I    between atoms: C2_8  and  N6_10 
REMARK    2  A    between atoms: N6_10  and  C3_12 
REMARK    3  A    between atoms: C3_12  and  C4_13 
ROOT
HETATM    1  N4  UNL     1      -0.953  -0.125  -1.109  1.00  0.00    -0.272 N 
ATOM      2  H4  UNL     1      -0.366  -0.843  -1.533  1.00  0.00     0.189 HD
HETATM    3  C2  UNL     1      -0.403   0.988  -0.837  1.00  0.00     0.203 C 
HETATM    4  N5  UNL     1      -1.168   2.009  -0.251  1.00  0.00    -0.062 NA
HETATM    5  N6  UNL     1       0.956   1.232  -1.106  1.00  0.00    -0.363 N 
ATOM      6  H6  UNL     1       1.200   2.134  -1.514  1.00  0.00     0.162 HD
ENDROOT
BRANCH   1   7
HETATM    7  N3  UNL     1      -2.285  -0.450  -0.879  1.00  0.00    -0.274 N 
HETATM    8  C1  UNL     1      -2.850  -0.584   0.256  1.00  0.00     0.215 C 
HETATM    9  N1  UNL     1      -2.145  -0.406   1.506  1.00  0.00    -0.065 NA
HETATM   10  N2  UNL     1      -4.217  -0.917   0.400  1.00  0.00    -0.065 NA
ATOM     11  H3  UNL     1      -2.870  -0.596  -1.702  1.00  0.00     0.189 HD
ENDBRANCH   1   7
BRANCH   5  12
HETATM   12  C3  UNL     1       2.024   0.310  -0.851  1.00  0.00     0.127 C 
BRANCH  12  13
HETATM   13  C4  UNL     1       2.279   0.077   0.611  1.00  0.00     0.003 A 
HETATM   14  C5  UNL     1       3.412  -0.900   0.883  1.00  0.00     0.007 A 
HETATM   15  C6  UNL     1       1.981  -1.202   1.270  1.00  0.00     0.007 A 
ENDBRANCH  12  13
ENDBRANCH   5  12
TORSDOF 3
