REMARK  4 active torsions:
REMARK  status: ('A' for Active; 'I' for Inactive)
REMARK    1  A    between atoms: O1_2  and  C2_3 
REMARK    2  A    between atoms: C5_6  and  N1_7 
REMARK    3  A    between atoms: N1_7  and  C6_9 
REMARK    4  A    between atoms: N4_22  and  C15_24 
ROOT
HETATM    1  C15 UNL     1      -5.458   3.219  -0.132  1.00  0.00     0.262 C 
HETATM    2  C16 UNL     1      -6.071   2.222   0.763  1.00  0.00     0.079 C 
HETATM    3  N5  UNL     1      -6.552   1.446   1.444  1.00  0.00    -0.196 NA
ENDROOT
BRANCH   1   4
HETATM    4  N4  UNL     1      -4.040   3.284   0.080  1.00  0.00    -0.212 N 
HETATM    5  C14 UNL     1      -3.277   2.238  -0.008  1.00  0.00     0.696 A 
HETATM    6  N3  UNL     1      -3.614   0.965  -0.292  1.00  0.00    -0.172 N 
HETATM    7  N6  UNL     1      -1.948   2.228   0.178  1.00  0.00    -0.109 N 
HETATM    8  C13 UNL     1      -2.503   0.208  -0.276  1.00  0.00     0.173 A 
ATOM      9  H3  UNL     1      -4.558   0.630  -0.487  1.00  0.00     0.186 HD
HETATM   10  C12 UNL     1      -2.291  -1.147  -0.499  1.00  0.00     0.038 A 
HETATM   11  N7  UNL     1      -1.455   1.008   0.021  1.00  0.00    -0.054 N 
HETATM   12  C7  UNL     1      -1.018  -1.650  -0.412  1.00  0.00     0.063 A 
HETATM   13  C11 UNL     1      -3.371  -1.971  -0.805  1.00  0.00     0.017 A 
HETATM   14  N2  UNL     1      -0.006  -0.801  -0.111  1.00  0.00    -0.189 N 
HETATM   15  C8  UNL     1      -0.798  -2.995  -0.631  1.00  0.00     0.031 A 
HETATM   16  C6  UNL     1      -0.209   0.511   0.104  1.00  0.00     0.706 A 
ATOM     17  H2  UNL     1       0.943  -1.170  -0.045  1.00  0.00     0.184 HD
HETATM   18  C9  UNL     1      -1.859  -3.804  -0.932  1.00  0.00     0.002 A 
HETATM   19  C10 UNL     1      -3.144  -3.308  -1.021  1.00  0.00     0.001 A 
ATOM     20  H6  UNL     1      -1.391   3.051   0.410  1.00  0.00     0.207 HD
ATOM     21  H4  UNL     1      -3.617   4.184   0.308  1.00  0.00     0.178 HD
BRANCH  16  22
HETATM   22  N1  UNL     1       0.806   1.250   0.385  1.00  0.00    -0.190 N 
ATOM     23  H1  UNL     1       0.642   2.244   0.546  1.00  0.00     0.184 HD
BRANCH  22  24
HETATM   24  C5  UNL     1       2.124   0.778   0.485  1.00  0.00     0.049 A 
HETATM   25  C4  UNL     1       2.973   1.041  -0.585  1.00  0.00     0.033 A 
HETATM   26  C3  UNL     1       4.269   0.583  -0.498  1.00  0.00     0.039 A 
HETATM   27  C2  UNL     1       4.732  -0.119   0.611  1.00  0.00     0.068 A 
HETATM   28  C18 UNL     1       3.859  -0.369   1.671  1.00  0.00     0.039 A 
HETATM   29  C17 UNL     1       2.559   0.083   1.598  1.00  0.00     0.033 A 
BRANCH  27  30
HETATM   30  O1  UNL     1       6.044  -0.566   0.667  1.00  0.00    -0.356 OA
HETATM   31  C1  UNL     1       6.920  -0.316  -0.394  1.00  0.00     0.210 C 
ENDBRANCH  27  30
ENDBRANCH  22  24
ENDBRANCH  16  22
ENDBRANCH   1   4
TORSDOF 4
