REMARK  7 active torsions:
REMARK  status: ('A' for Active; 'I' for Inactive)
REMARK    1  A    between atoms: C3_3  and  O1_4 
REMARK    2  A    between atoms: C3_3  and  O2_6 
REMARK    3  A    between atoms: O2_6  and  C4_7 
REMARK    4  A    between atoms: C8_11  and  C9_12 
REMARK    5  A    between atoms: C10_13  and  C11_14 
REMARK    6  A    between atoms: C11_14  and  N1_15 
REMARK    7  A    between atoms: C16_24  and  N4_25 
ROOT
HETATM    1  C1  UNL     1       6.682   3.823  -1.527  1.00  0.00     0.017 C 
HETATM    2  C2  UNL     1       6.350   2.907  -0.808  1.00  0.00    -0.057 C 
HETATM    3  C3  UNL     1       5.958   1.803   0.079  1.00  0.00     0.345 C 
ENDROOT
BRANCH   3   4
HETATM    4  O1  UNL     1       6.854   1.733   1.162  1.00  0.00    -0.361 OA
ATOM      5  H1  UNL     1       6.601   1.019   1.735  1.00  0.00     0.213 HD
ENDBRANCH   3   4
BRANCH   3   6
HETATM    6  O2  UNL     1       4.694   2.061   0.605  1.00  0.00    -0.309 OA
BRANCH   6   7
HETATM    7  C4  UNL     1       3.588   1.264   0.499  1.00  0.00     0.075 A 
HETATM    8  C5  UNL     1       2.417   1.726   1.110  1.00  0.00     0.038 A 
HETATM    9  C6  UNL     1       1.258   0.974   1.045  1.00  0.00     0.019 A 
HETATM   10  C7  UNL     1       1.244  -0.238   0.378  1.00  0.00     0.027 A 
HETATM   11  C8  UNL     1       0.091  -1.009   0.300  1.00  0.00     0.115 A 
HETATM   12  C18 UNL     1       2.381  -0.712  -0.229  1.00  0.00     0.065 A 
HETATM   13  N3  UNL     1       0.111  -2.174  -0.351  1.00  0.00    -0.183 N 
HETATM   14  C16 UNL     1       1.220  -2.647  -0.949  1.00  0.00     0.679 A 
ATOM     15  H3  UNL     1      -0.746  -2.726  -0.397  1.00  0.00     0.185 HD
HETATM   16  N5  UNL     1       2.324  -1.884  -0.861  1.00  0.00    -0.191 N 
ATOM     17  H5  UNL     1       3.175  -2.225  -1.308  1.00  0.00     0.184 HD
HETATM   18  C19 UNL     1       3.522   0.064  -0.146  1.00  0.00     0.067 A 
BRANCH  11  19
HETATM   19  C9  UNL     1      -1.131  -0.566   0.916  1.00  0.00    -0.045 C 
HETATM   20  C10 UNL     1      -2.160  -0.176   1.428  1.00  0.00    -0.078 C 
BRANCH  20  21
HETATM   21  C11 UNL     1      -3.393   0.316   2.046  1.00  0.00     0.242 C 
BRANCH  21  22
HETATM   22  N1  UNL     1      -4.326   0.704   0.982  1.00  0.00    -0.292 N 
HETATM   23  C12 UNL     1      -5.234  -0.085   0.398  1.00  0.00     0.119 A 
HETATM   24  C13 UNL     1      -5.933   0.620  -0.559  1.00  0.00    -0.028 A 
HETATM   25  C14 UNL     1      -7.027   0.149  -1.448  1.00  0.00     0.051 C 
HETATM   26  C15 UNL     1      -5.395   1.896  -0.524  1.00  0.00     0.115 A 
HETATM   27  N2  UNL     1      -4.436   1.894   0.415  1.00  0.00    -0.309 N 
ATOM     28  H2  UNL     1      -3.867   2.704   0.659  1.00  0.00     0.186 HD
ENDBRANCH  21  22
ENDBRANCH  20  21
ENDBRANCH  11  19
BRANCH  14  29
HETATM   29  N4  UNL     1       1.226  -3.788  -1.583  1.00  0.00    -0.230 N 
HETATM   30  C17 UNL     1      -0.014  -4.539  -1.623  1.00  0.00     0.165 C 
ATOM     31  H4  UNL     1       2.071  -4.138  -2.034  1.00  0.00     0.177 HD
ENDBRANCH  14  29
ENDBRANCH   6   7
ENDBRANCH   3   6
TORSDOF 7
