REMARK  4 active torsions:
REMARK  status: ('A' for Active; 'I' for Inactive)
REMARK    1  A    between atoms: N3_17  and  C10_19 
REMARK    2  A    between atoms: C10_19  and  C11_20 
REMARK    3  A    between atoms: C11_20  and  C12_21 
REMARK    4  A    between atoms: C15_24  and  O3_25 
ROOT
HETATM    1  C1  UNL     1      -2.496   3.943  -0.379  1.00  0.00     0.147 C 
HETATM    2  N1  UNL     1      -1.795   2.694  -0.267  1.00  0.00    -0.378 N 
ATOM      3  H1  UNL     1      -0.776   2.704  -0.215  1.00  0.00     0.160 HD
HETATM    4  C2  UNL     1      -2.410   1.560  -0.230  1.00  0.00     0.138 A 
HETATM    5  N2  UNL     1      -3.807   1.598  -0.304  1.00  0.00    -0.264 N 
ATOM      6  H2  UNL     1      -4.284   2.496  -0.381  1.00  0.00     0.180 HD
HETATM    7  S1  UNL     1      -4.721   0.157  -0.266  1.00  0.00     0.265 S 
HETATM    8  O1  UNL     1      -5.507   0.087  -1.562  1.00  0.00    -0.200 OA
HETATM    9  O2  UNL     1      -5.662   0.231   0.900  1.00  0.00    -0.200 OA
HETATM   10  C3  UNL     1      -3.626  -1.194  -0.128  1.00  0.00     0.092 A 
HETATM   11  C4  UNL     1      -4.182  -2.485  -0.079  1.00  0.00     0.026 A 
HETATM   12  C5  UNL     1      -3.357  -3.569   0.028  1.00  0.00     0.002 A 
HETATM   13  C6  UNL     1      -1.993  -3.443   0.091  1.00  0.00     0.001 A 
HETATM   14  C7  UNL     1      -1.475  -2.159   0.040  1.00  0.00     0.015 A 
HETATM   15  C8  UNL     1      -2.273  -1.012  -0.069  1.00  0.00     0.017 A 
HETATM   16  C9  UNL     1      -1.605   0.304  -0.114  1.00  0.00     0.085 A 
HETATM   17  N3  UNL     1      -0.388   0.458  -0.060  1.00  0.00    -0.386 N 
ATOM     18  H3  UNL     1      -0.291   1.472  -0.114  1.00  0.00     0.159 HD
ENDROOT
BRANCH  17  19
HETATM   19  C10 UNL     1       0.891   0.048   0.030  1.00  0.00     0.124 C 
BRANCH  19  20
HETATM   20  C11 UNL     1       1.923   1.213   0.088  1.00  0.00     0.058 C 
BRANCH  20  21
HETATM   21  C12 UNL     1       3.245   0.561   0.183  1.00  0.00    -0.057 A 
HETATM   22  C13 UNL     1       3.959   0.236  -0.957  1.00  0.00     0.010 A 
HETATM   23  C14 UNL     1       5.196  -0.374  -0.881  1.00  0.00     0.037 A 
HETATM   24  C15 UNL     1       5.770  -0.684   0.334  1.00  0.00     0.065 A 
HETATM   25  C16 UNL     1       5.053  -0.358   1.467  1.00  0.00     0.037 A 
HETATM   26  C17 UNL     1       3.817   0.252   1.399  1.00  0.00     0.010 A 
BRANCH  24  27
HETATM   27  O3  UNL     1       7.014  -1.298   0.414  1.00  0.00    -0.361 OA
ATOM     28  H3  UNL     1       7.409  -1.512   1.251  1.00  0.00     0.217 HD
ENDBRANCH  24  27
ENDBRANCH  20  21
ENDBRANCH  19  20
ENDBRANCH  17  19
TORSDOF 4
