REMARK  8 active torsions:
REMARK  status: ('A' for Active; 'I' for Inactive)
REMARK    1  A    between atoms: C2_2  and  O1_4 
REMARK    2  A    between atoms: O1_4  and  C4_5 
REMARK    3  A    between atoms: C4_5  and  C5_6 
REMARK    4  A    between atoms: C5_6  and  O2_7 
REMARK    5  A    between atoms: C7_11  and  S1_12 
REMARK    6  A    between atoms: S1_12  and  C8_13 
REMARK    7  A    between atoms: C11_18  and  O5_19 
REMARK    8  A    between atoms: C12_21  and  O6_22 
ROOT
HETATM    1  C4  UNL     1      -1.343  -0.266  -0.108  1.00  0.00     0.132 C 
HETATM    2  C6  UNL     1      -0.445  -1.499  -0.078  1.00  0.00     0.212 C 
HETATM    3  O3  UNL     1       0.412  -1.425   1.021  1.00  0.00    -0.370 OA
HETATM    4  C7  UNL     1       1.474  -0.580   0.670  1.00  0.00     0.215 C 
HETATM    5  C11 UNL     1       0.895   0.773   0.392  1.00  0.00     0.189 C 
HETATM    6  C12 UNL     1      -0.595   0.848   0.562  1.00  0.00     0.189 C 
ENDROOT
BRANCH   1   7
HETATM    7  O1  UNL     1      -2.504  -0.635   0.543  1.00  0.00    -0.368 OA
BRANCH   7   8
HETATM    8  C2  UNL     1      -3.555   0.239   0.388  1.00  0.00     0.114 C 
HETATM    9  C1  UNL     1      -4.177   0.422   1.768  1.00  0.00     0.039 C 
HETATM   10  C3  UNL     1      -4.656  -0.300  -0.502  1.00  0.00     0.039 C 
ENDBRANCH   7   8
ENDBRANCH   1   7
BRANCH   1  11
HETATM   11  C5  UNL     1      -1.632   0.017  -1.559  1.00  0.00     0.207 C 
BRANCH  11  12
HETATM   12  O2  UNL     1      -2.101  -1.131  -2.175  1.00  0.00    -0.398 OA
ATOM     13  H2  UNL     1      -2.283  -0.953  -3.090  1.00  0.00     0.209 HD
ENDBRANCH  11  12
ENDBRANCH   1  11
BRANCH   6  14
HETATM   14  O6  UNL     1      -0.984   2.114   0.096  1.00  0.00    -0.390 OA
ATOM     15  H6  UNL     1      -0.510   2.820   0.520  1.00  0.00     0.210 HD
ENDBRANCH   6  14
BRANCH   5  16
HETATM   16  O5  UNL     1       1.231   1.279  -0.854  1.00  0.00    -0.389 OA
ATOM     17  H5  UNL     1       0.864   2.137  -1.030  1.00  0.00     0.210 HD
ENDBRANCH   5  16
BRANCH   4  18
HETATM   18  S1  UNL     1       2.281  -1.325  -0.757  1.00  0.00    -0.117 SA
BRANCH  18  19
HETATM   19  C8  UNL     1       4.020  -0.909  -0.890  1.00  0.00     0.137 C 
HETATM   20  C9  UNL     1       4.327   0.496  -0.377  1.00  0.00     0.194 C 
HETATM   21  O4  UNL     1       5.680   0.532  -0.098  1.00  0.00    -0.379 OA
HETATM   22  C10 UNL     1       5.908  -0.350   0.972  1.00  0.00     0.242 C 
HETATM   23  S2  UNL     1       5.041  -1.825   0.323  1.00  0.00    -0.126 SA
ENDBRANCH  18  19
ENDBRANCH   4  18
TORSDOF 8
