REMARK  7 active torsions:
REMARK  status: ('A' for Active; 'I' for Inactive)
REMARK    1  A    between atoms: C6_6  and  O1_7 
REMARK    2  A    between atoms: C7_9  and  C8_10 
REMARK    3  A    between atoms: C8_10  and  N1_11 
REMARK    4  A    between atoms: N1_11  and  C9_14 
REMARK    5  A    between atoms: C9_14  and  C10_15 
REMARK    6  A    between atoms: C10_15  and  C11_16 
REMARK    7  A    between atoms: C11_16  and  N2_17 
ROOT
HETATM    1  C1  UNL     1       0.325  -2.133  -0.069  1.00  0.00     0.010 C 
HETATM    2  C2  UNL     1       0.378  -0.909   0.785  1.00  0.00    -0.005 C 
HETATM    3  C3  UNL     1      -0.980  -0.459   1.278  1.00  0.00     0.076 C 
HETATM    4  C4  UNL     1      -1.749   0.134   0.170  1.00  0.00     0.203 C 
HETATM    5  C5  UNL     1      -1.070   1.306  -0.449  1.00  0.00     0.103 C 
HETATM    6  C6  UNL     1       0.337   0.962  -0.882  1.00  0.00     0.129 C 
HETATM    7  C7  UNL     1       1.101   0.255   0.180  1.00  0.00     0.044 C 
HETATM    8  O2  UNL     1      -2.103  -0.731  -0.864  1.00  0.00    -0.197 OA
HETATM    9  O3  UNL     1      -3.007   0.064  -1.463  1.00  0.00    -0.197 OA
HETATM   10  C12 UNL     1      -3.887   0.259  -0.403  1.00  0.00     0.204 C 
HETATM   11  C13 UNL     1      -4.699  -0.995  -0.276  1.00  0.00     0.098 C 
HETATM   12  C14 UNL     1      -6.060  -0.857   0.279  1.00  0.00     0.173 C 
HETATM   13  O4  UNL     1      -6.558   0.424   0.360  1.00  0.00    -0.391 OA
HETATM   14  C15 UNL     1      -6.193   1.216  -0.729  1.00  0.00     0.173 C 
HETATM   15  C16 UNL     1      -4.719   1.502  -0.585  1.00  0.00     0.098 C 
HETATM   16  O5  UNL     1      -3.013   0.478   0.660  1.00  0.00    -0.313 OA
ENDROOT
BRANCH   7  17
HETATM   17  C8  UNL     1       2.470  -0.177  -0.233  1.00  0.00     0.239 C 
BRANCH  17  18
HETATM   18  N1  UNL     1       3.253   0.847  -0.831  1.00  0.00    -0.075 N 
ATOM     19  H12 UNL     1       2.798   1.228  -1.660  1.00  0.00     0.277 HD
ATOM     20  H11 UNL     1       3.267   1.690  -0.257  1.00  0.00     0.277 HD
BRANCH  18  21
HETATM   21  C9  UNL     1       4.582   0.389  -1.124  1.00  0.00     0.233 C 
BRANCH  21  22
HETATM   22  C10 UNL     1       5.346   0.200   0.143  1.00  0.00     0.055 C 
BRANCH  22  23
HETATM   23  C11 UNL     1       6.755  -0.275  -0.159  1.00  0.00     0.231 C 
BRANCH  23  24
HETATM   24  N2  UNL     1       7.422  -0.432   1.128  1.00  0.00    -0.079 N 
ATOM     25  H23 UNL     1       7.394   0.410   1.703  1.00  0.00     0.274 HD
ATOM     26  H22 UNL     1       6.919  -1.042   1.772  1.00  0.00     0.274 HD
ATOM     27  H21 UNL     1       8.369  -0.751   0.925  1.00  0.00     0.274 HD
ENDBRANCH  23  24
ENDBRANCH  22  23
ENDBRANCH  21  22
ENDBRANCH  18  21
ENDBRANCH  17  18
ENDBRANCH   7  17
BRANCH   6  28
HETATM   28  O1  UNL     1       0.430   0.283  -2.061  1.00  0.00    -0.395 OA
ATOM     29  H1  UNL     1       1.314   0.067  -2.333  1.00  0.00     0.210 HD
ENDBRANCH   6  28
TORSDOF 7
