REMARK  9 active torsions:
REMARK  status: ('A' for Active; 'I' for Inactive)
REMARK    1  A    between atoms: C2_2  and  O1_3 
REMARK    2  A    between atoms: O1_3  and  C3_4 
REMARK    3  A    between atoms: N1_6  and  O2_8 
REMARK    4  A    between atoms: O2_8  and  C5_9 
REMARK    5  A    between atoms: C5_9  and  C6_10 
REMARK    6  A    between atoms: C8_12  and  O3_13 
REMARK    7  A    between atoms: C8_12  and  C9_15 
REMARK    8  A    between atoms: C14_22  and  C15_23 
REMARK    9  A    between atoms: C15_23  and  O6_24 
ROOT
HETATM    1  C6  UNL     1       0.474   0.813   1.319  1.00  0.00     0.156 C 
HETATM    2  C7  UNL     1      -0.337   0.915   0.044  1.00  0.00     0.106 C 
HETATM    3  C8  UNL     1      -1.431   0.906   1.119  1.00  0.00     0.198 C 
HETATM    4  O7  UNL     1      -0.583   0.070   1.846  1.00  0.00    -0.344 OA
ENDROOT
BRANCH   3   5
HETATM    5  O3  UNL     1      -1.548   2.123   1.744  1.00  0.00    -0.363 OA
ATOM      6  H3  UNL     1      -2.226   2.117   2.410  1.00  0.00     0.213 HD
ENDBRANCH   3   5
BRANCH   3   7
HETATM    7  C9  UNL     1      -2.714   0.258   0.662  1.00  0.00     0.145 C 
HETATM    8  C10 UNL     1      -3.554  -0.040   1.847  1.00  0.00     0.055 C 
HETATM    9  O4  UNL     1      -2.371  -0.960   0.057  1.00  0.00    -0.337 OA
HETATM   10  C11 UNL     1      -3.196  -1.132  -1.023  1.00  0.00     0.159 C 
HETATM   11  C12 UNL     1      -4.405  -1.986  -0.731  1.00  0.00     0.078 C 
HETATM   12  C13 UNL     1      -2.410  -1.851  -2.128  1.00  0.00     0.078 C 
HETATM   13  O5  UNL     1      -3.635   0.098  -1.455  1.00  0.00    -0.345 OA
HETATM   14  C14 UNL     1      -3.374   0.997  -0.435  1.00  0.00     0.188 C 
BRANCH  14  15
HETATM   15  C15 UNL     1      -4.643   1.697  -0.060  1.00  0.00     0.199 C 
BRANCH  15  16
HETATM   16  O6  UNL     1      -4.485   2.619   0.954  1.00  0.00    -0.398 OA
ATOM     17  H6  UNL     1      -5.290   3.063   1.192  1.00  0.00     0.209 HD
ENDBRANCH  15  16
ENDBRANCH  14  15
ENDBRANCH   3   7
BRANCH   1  18
HETATM   18  C5  UNL     1       1.764   0.049   1.202  1.00  0.00     0.233 C 
BRANCH  18  19
HETATM   19  O2  UNL     1       2.760   0.870   0.667  1.00  0.00    -0.276 OA
BRANCH  19  20
HETATM   20  N1  UNL     1       4.047   0.458   0.439  1.00  0.00    -0.249 N 
HETATM   21  C3  UNL     1       4.396  -0.395  -0.441  1.00  0.00     0.133 C 
HETATM   22  C4  UNL     1       3.481  -1.089  -1.369  1.00  0.00     0.099 C 
ATOM     23  H1  UNL     1       4.782   0.865   1.018  1.00  0.00     0.196 HD
BRANCH  21  24
HETATM   24  O1  UNL     1       5.753  -0.697  -0.536  1.00  0.00    -0.338 OA
BRANCH  24  25
HETATM   25  C2  UNL     1       6.724   0.179   0.037  1.00  0.00     0.172 C 
HETATM   26  C1  UNL     1       8.080  -0.436  -0.242  1.00  0.00     0.034 C 
ENDBRANCH  24  25
ENDBRANCH  21  24
ENDBRANCH  19  20
ENDBRANCH  18  19
ENDBRANCH   1  18
TORSDOF 9
