REMARK  9 active torsions:
REMARK  status: ('A' for Active; 'I' for Inactive)
REMARK    1  A    between atoms: C2_2  and  C3_3 
REMARK    2  A    between atoms: C3_3  and  C4_4 
REMARK    3  A    between atoms: N1_6  and  N2_8 
REMARK    4  A    between atoms: N2_8  and  C6_10 
REMARK    5  A    between atoms: C7_12  and  C8_13 
REMARK       I    between atoms: C8_13  and  N3_15 
REMARK    6  A    between atoms: N3_15  and  C9_17 
REMARK    7  A    between atoms: C9_17  and  C10_18 
REMARK    8  A    between atoms: C10_18  and  C11_19 
REMARK    9  A    between atoms: C15_26  and  N6_27 
ROOT
HETATM    1  C6  UNL     1      -1.166  -0.667  -0.216  1.00  0.00     0.134 A 
HETATM    2  S1  UNL     1       0.346   0.072   0.049  1.00  0.00    -0.058 SA
HETATM    3  C7  UNL     1       1.373  -0.840   1.059  1.00  0.00     0.116 A 
HETATM    4  C14 UNL     1       0.798  -2.018   1.485  1.00  0.00     0.140 A 
HETATM    5  N4  UNL     1       1.632  -2.828   2.346  1.00  0.00    -0.081 NA
HETATM    6  N5  UNL     1      -0.409  -2.435   1.171  1.00  0.00    -0.327 N 
ATOM      7  H5  UNL     1      -0.669  -3.334   1.577  1.00  0.00     0.168 HD
HETATM    8  C15 UNL     1      -1.343  -1.878   0.413  1.00  0.00     0.140 A 
ENDROOT
BRANCH   1   9
HETATM    9  N2  UNL     1      -2.056  -0.116  -0.951  1.00  0.00    -0.291 N 
ATOM     10  H2  UNL     1      -2.948  -0.593  -1.085  1.00  0.00     0.187 HD
BRANCH   9  11
HETATM   11  N1  UNL     1      -1.853   1.099  -1.569  1.00  0.00    -0.308 N 
HETATM   12  C4  UNL     1      -2.536   1.571  -2.541  1.00  0.00    -0.000 C 
HETATM   13  C5  UNL     1      -3.658   0.748  -3.068  1.00  0.00     0.065 C 
ATOM     14  H1  UNL     1      -1.087   1.675  -1.219  1.00  0.00     0.186 HD
BRANCH  12  15
HETATM   15  C3  UNL     1      -2.246   2.880  -3.138  1.00  0.00     0.053 C 
BRANCH  15  16
HETATM   16  C2  UNL     1      -1.089   3.583  -2.485  1.00  0.00     0.001 C 
HETATM   17  C1  UNL     1      -1.417   3.803  -1.029  1.00  0.00     0.005 C 
ENDBRANCH  15  16
ENDBRANCH  12  15
ENDBRANCH   9  11
ENDBRANCH   1   9
BRANCH   8  18
HETATM   18  N6  UNL     1      -2.579  -2.612   0.271  1.00  0.00    -0.362 N 
HETATM   19  C16 UNL     1      -2.764  -3.899   0.943  1.00  0.00     0.154 C 
HETATM   20  C17 UNL     1      -3.978  -3.731   1.835  1.00  0.00     0.291 C 
HETATM   21  N7  UNL     1      -5.118  -3.566   0.968  1.00  0.00     0.087 N 
HETATM   22  C18 UNL     1      -5.834  -4.845   0.968  1.00  0.00     0.310 C 
HETATM   23  C19 UNL     1      -4.773  -3.271  -0.387  1.00  0.00     0.291 C 
HETATM   24  C20 UNL     1      -3.701  -2.183  -0.500  1.00  0.00     0.154 C 
ENDBRANCH   8  18
BRANCH   3  25
HETATM   25  C8  UNL     1       2.727  -0.439   1.450  1.00  0.00     0.262 C 
HETATM   26  O1  UNL     1       3.413  -1.173   2.199  1.00  0.00    -0.267 OA
HETATM   27  N3  UNL     1       3.261   0.783   0.980  1.00  0.00    -0.356 N 
ATOM     28  H3  UNL     1       2.708   1.386   0.371  1.00  0.00     0.162 HD
BRANCH  27  29
HETATM   29  C9  UNL     1       4.594   1.170   1.369  1.00  0.00     0.123 C 
BRANCH  29  30
HETATM   30  C10 UNL     1       4.924   2.495   0.744  1.00  0.00     0.023 C 
BRANCH  30  31
HETATM   31  C11 UNL     1       6.310   2.963   1.110  1.00  0.00    -0.021 C 
HETATM   32  C12 UNL     1       6.523   4.310   0.418  1.00  0.00     0.009 C 
HETATM   33  C13 UNL     1       7.337   1.972   0.588  1.00  0.00     0.009 C 
ENDBRANCH  30  31
ENDBRANCH  29  30
ENDBRANCH  27  29
ENDBRANCH   3  25
TORSDOF 9
