REMARK  10 active torsions:
REMARK  status: ('A' for Active; 'I' for Inactive)
REMARK    1  A    between atoms: O1_2  and  C2_3 
REMARK    2  A    between atoms: C6_7  and  C7_8 
REMARK    3  A    between atoms: C7_8  and  C8_9 
REMARK    4  A    between atoms: C8_9  and  C9_10 
REMARK    5  A    between atoms: C9_10  and  O2_11 
REMARK    6  A    between atoms: O2_11  and  N1_12 
REMARK    7  A    between atoms: C13_17  and  O3_18 
REMARK    8  A    between atoms: C15_22  and  C16_23 
REMARK    9  A    between atoms: C16_23  and  O5_24 
REMARK   10  A    between atoms: N2_26  and  C17_27 
ROOT
HETATM    1  C2  UNL     1      -0.176   1.632  -2.174  1.00  0.00     0.104 A 
HETATM    2  C3  UNL     1      -1.263   1.205  -1.435  1.00  0.00     0.072 A 
HETATM    3  C4  UNL     1      -1.079   0.214  -0.486  1.00  0.00     0.071 A 
HETATM    4  C5  UNL     1       0.186  -0.350  -0.275  1.00  0.00     0.104 A 
HETATM    5  C6  UNL     1       1.268   0.068  -1.003  1.00  0.00     0.014 A 
HETATM    6  C13 UNL     1       1.083   1.064  -1.957  1.00  0.00     0.108 A 
HETATM    7  O4  UNL     1       0.286  -1.325   0.682  1.00  0.00    -0.346 OA
HETATM    8  C14 UNL     1      -0.804  -1.814   1.438  1.00  0.00     0.203 C 
HETATM    9  C15 UNL     1      -1.905  -0.736   1.592  1.00  0.00     0.137 C 
HETATM   10  N2  UNL     1      -2.226  -0.248   0.280  1.00  0.00    -0.345 N 
ENDROOT
BRANCH   5  11
HETATM   11  C7  UNL     1       2.603  -0.502  -0.803  1.00  0.00     0.046 C 
BRANCH  11  12
HETATM   12  C8  UNL     1       3.271   0.025   0.455  1.00  0.00     0.033 C 
BRANCH  12  13
HETATM   13  C9  UNL     1       4.647  -0.635   0.554  1.00  0.00     0.201 C 
BRANCH  13  14
HETATM   14  O2  UNL     1       5.327  -0.182   1.711  1.00  0.00    -0.281 OA
BRANCH  14  15
HETATM   15  N1  UNL     1       6.570  -0.660   1.966  1.00  0.00    -0.276 N 
HETATM   16  C10 UNL     1       7.608  -0.217   1.328  1.00  0.00     0.002 C 
HETATM   17  C11 UNL     1       7.480   0.827   0.294  1.00  0.00     0.065 C 
HETATM   18  C12 UNL     1       8.950  -0.790   1.663  1.00  0.00     0.065 C 
ATOM     19  H1  UNL     1       6.691  -1.383   2.675  1.00  0.00     0.193 HD
ENDBRANCH  14  15
ENDBRANCH  13  14
ENDBRANCH  12  13
ENDBRANCH  11  12
ENDBRANCH   5  11
BRANCH   6  20
HETATM   20  O3  UNL     1       2.170   1.476  -2.681  1.00  0.00    -0.357 OA
ATOM     21  H3  UNL     1       3.025   1.090  -2.534  1.00  0.00     0.217 HD
ENDBRANCH   6  20
BRANCH   1  22
HETATM   22  O1  UNL     1      -0.373   2.619  -3.115  1.00  0.00    -0.353 OA
HETATM   23  C1  UNL     1      -1.650   3.187  -3.326  1.00  0.00     0.210 C 
ENDBRANCH   1  22
BRANCH  10  24
HETATM   24  C17 UNL     1      -3.481  -0.191  -0.343  1.00  0.00     0.095 C 
HETATM   25  C18 UNL     1      -4.690  -0.187   0.118  1.00  0.00    -0.058 C 
HETATM   26  C19 UNL     1      -5.201  -0.240   1.485  1.00  0.00     0.055 C 
HETATM   27  C22 UNL     1      -5.826  -0.141  -0.910  1.00  0.00     0.079 C 
HETATM   28  C20 UNL     1      -5.868  -1.602   1.662  1.00  0.00     0.123 C 
HETATM   29  N3  UNL     1      -6.301  -2.164   0.439  1.00  0.00    -0.402 N 
HETATM   30  C21 UNL     1      -6.692  -1.321  -0.598  1.00  0.00     0.060 C 
ATOM     31  H3  UNL     1      -6.327  -3.176   0.318  1.00  0.00     0.158 HD
ENDBRANCH  10  24
BRANCH   9  32
HETATM   32  C16 UNL     1      -1.301   0.372   2.418  1.00  0.00     0.192 C 
BRANCH  32  33
HETATM   33  O5  UNL     1      -2.167   1.445   2.523  1.00  0.00    -0.399 OA
ATOM     34  H5  UNL     1      -1.787   2.143   3.043  1.00  0.00     0.209 HD
ENDBRANCH  32  33
ENDBRANCH   9  32
TORSDOF 10
