REMARK  11 active torsions:
REMARK  status: ('A' for Active; 'I' for Inactive)
REMARK    1  A    between atoms: C2_2  and  C3_3 
REMARK    2  A    between atoms: C3_3  and  C4_5 
REMARK    3  A    between atoms: C6_9  and  N2_10 
REMARK    4  A    between atoms: N2_10  and  C7_11 
REMARK    5  A    between atoms: N2_10  and  C9_13 
REMARK    6  A    between atoms: C12_16  and  C13_17 
REMARK    7  A    between atoms: C13_17  and  C14_18 
REMARK    8  A    between atoms: C17_21  and  N3_22 
REMARK    9  A    between atoms: C20_28  and  C21_29 
REMARK   10  A    between atoms: C21_29  and  O2_30 
REMARK   11  A    between atoms: C22_34  and  N4_35 
ROOT
HETATM    1  C9  UNL     1       0.937   0.276  -0.306  1.00  0.00     0.226 C 
HETATM    2  C10 UNL     1       0.007   1.392  -0.165  1.00  0.00     0.054 C 
HETATM    3  C11 UNL     1      -1.465   0.978  -0.220  1.00  0.00     0.011 C 
HETATM    4  C12 UNL     1      -1.728  -0.179   0.728  1.00  0.00     0.017 C 
HETATM    5  C20 UNL     1      -0.483  -1.029   0.820  1.00  0.00     0.151 C 
HETATM    6  O3  UNL     1       0.187  -0.934  -0.425  1.00  0.00    -0.359 OA
ENDROOT
BRANCH   1   7
HETATM    7  N2  UNL     1       2.013   0.307  -1.226  1.00  0.00    -0.321 N 
BRANCH   7   8
HETATM    8  C6  UNL     1       3.355   0.005  -0.749  1.00  0.00     0.230 A 
HETATM    9  N1  UNL     1       4.379   0.804  -1.003  1.00  0.00    -0.331 N 
HETATM   10  C5  UNL     1       5.633   0.527  -0.561  1.00  0.00     0.111 A 
ATOM     11  H1  UNL     1       4.222   1.653  -1.547  1.00  0.00     0.168 HD
HETATM   12  C4  UNL     1       5.839  -0.616   0.168  1.00  0.00     0.076 A 
HETATM   13  C22 UNL     1       4.725  -1.427   0.409  1.00  0.00     0.160 A 
HETATM   14  O4  UNL     1       3.560  -1.082  -0.054  1.00  0.00    -0.261 OA
BRANCH  12  15
HETATM   15  C3  UNL     1       7.152  -0.992   0.684  1.00  0.00     0.164 C 
HETATM   16  O1  UNL     1       7.264  -2.066   1.322  1.00  0.00    -0.292 OA
BRANCH  15  17
HETATM   17  C2  UNL     1       8.333  -0.150   0.478  1.00  0.00     0.079 C 
HETATM   18  C1  UNL     1       8.542   0.797   1.660  1.00  0.00     0.013 C 
ENDBRANCH  15  17
ENDBRANCH  12  15
BRANCH  13  19
HETATM   19  N4  UNL     1       4.909  -2.503   1.091  1.00  0.00    -0.379 N 
ATOM     20  H42 UNL     1       5.823  -2.774   1.454  1.00  0.00     0.158 HD
ATOM     21  H41 UNL     1       4.097  -3.094   1.267  1.00  0.00     0.158 HD
ENDBRANCH  13  19
ENDBRANCH   7   8
BRANCH   7  22
HETATM   22  C7  UNL     1       1.940   0.585  -2.638  1.00  0.00     0.124 C 
HETATM   23  C8  UNL     1       1.662   2.014  -2.945  1.00  0.00     0.026 C 
ENDBRANCH   7  22
ENDBRANCH   1   7
BRANCH   5  24
HETATM   24  C21 UNL     1      -0.701  -2.451   1.181  1.00  0.00     0.196 C 
BRANCH  24  25
HETATM   25  O2  UNL     1      -1.352  -2.584   2.414  1.00  0.00    -0.398 OA
ATOM     26  H2  UNL     1      -1.492  -3.495   2.645  1.00  0.00     0.209 HD
ENDBRANCH  24  25
ENDBRANCH   5  24
BRANCH   4  27
HETATM   27  C13 UNL     1      -2.886  -0.967   0.227  1.00  0.00     0.012 C 
BRANCH  27  28
HETATM   28  C14 UNL     1      -4.153  -0.197   0.108  1.00  0.00    -0.014 C 
HETATM   29  C15 UNL     1      -5.224  -1.148  -0.405  1.00  0.00     0.007 C 
HETATM   30  C16 UNL     1      -6.467  -0.396  -0.748  1.00  0.00     0.033 C 
HETATM   31  C17 UNL     1      -6.877   0.641   0.238  1.00  0.00     0.183 C 
HETATM   32  C18 UNL     1      -5.780   1.352   0.950  1.00  0.00     0.033 C 
HETATM   33  C19 UNL     1      -4.693   0.369   1.386  1.00  0.00     0.007 C 
BRANCH  31  34
HETATM   34  N3  UNL     1      -7.713   1.601  -0.472  1.00  0.00    -0.075 N 
ATOM     35  H33 UNL     1      -7.260   1.992  -1.298  1.00  0.00     0.274 HD
ATOM     36  H32 UNL     1      -8.504   1.167  -0.949  1.00  0.00     0.274 HD
ATOM     37  H31 UNL     1      -7.994   2.312   0.204  1.00  0.00     0.274 HD
ENDBRANCH  31  34
ENDBRANCH  27  28
ENDBRANCH   4  27
TORSDOF 11
