REMARK  12 active torsions:
REMARK  status: ('A' for Active; 'I' for Inactive)
REMARK    1  A    between atoms: C2_2  and  O1_3 
REMARK    2  A    between atoms: O1_3  and  C3_4 
REMARK    3  A    between atoms: C3_4  and  C4_6 
REMARK    4  A    between atoms: C4_6  and  C5_7 
REMARK    5  A    between atoms: C4_6  and  N2_17 
REMARK    6  A    between atoms: C5_7  and  C6_8 
REMARK    7  A    between atoms: C6_8  and  C7_9 
REMARK       I    between atoms: C7_9  and  N1_11 
REMARK    8  A    between atoms: N1_11  and  C8_13 
REMARK    9  A    between atoms: C12_18  and  O4_19 
REMARK   10  A    between atoms: C15_23  and  O5_24 
REMARK   11  A    between atoms: C17_27  and  C18_28 
REMARK   12  A    between atoms: C18_28  and  O6_29 
ROOT
HETATM    1  N2  UNL     1      -1.105   0.130  -0.497  1.00  0.00    -0.293 N 
HETATM    2  C12 UNL     1      -1.537  -1.135  -0.552  1.00  0.00     0.152 A 
HETATM    3  C13 UNL     1      -2.720  -1.161  -1.189  1.00  0.00     0.004 A 
HETATM    4  C14 UNL     1      -3.035   0.147  -1.544  1.00  0.00     0.004 A 
HETATM    5  C15 UNL     1      -2.012   0.916  -1.099  1.00  0.00     0.152 A 
HETATM    6  C16 UNL     1      -4.291   0.444  -2.269  1.00  0.00     0.050 C 
HETATM    7  C17 UNL     1      -5.485  -0.346  -1.717  1.00  0.00     0.014 C 
HETATM    8  C20 UNL     1      -5.067  -1.620  -1.097  1.00  0.00     0.011 C 
HETATM    9  C21 UNL     1      -3.729  -2.168  -1.591  1.00  0.00     0.044 C 
ENDROOT
BRANCH   1  10
HETATM   10  C4  UNL     1       0.113   0.645   0.093  1.00  0.00     0.194 C 
BRANCH  10  11
HETATM   11  C3  UNL     1      -0.075   0.853   1.532  1.00  0.00     0.282 C 
HETATM   12  O2  UNL     1      -1.036   0.242   2.126  1.00  0.00    -0.263 OA
BRANCH  11  13
HETATM   13  O1  UNL     1       0.692   1.658   2.347  1.00  0.00    -0.320 OA
BRANCH  13  14
HETATM   14  C2  UNL     1       0.412   1.784   3.748  1.00  0.00     0.174 C 
HETATM   15  C1  UNL     1       1.391   2.714   4.388  1.00  0.00     0.034 C 
ENDBRANCH  13  14
ENDBRANCH  11  13
ENDBRANCH  10  11
BRANCH  10  16
HETATM   16  C5  UNL     1       1.323  -0.123  -0.251  1.00  0.00     0.045 C 
BRANCH  16  17
HETATM   17  C6  UNL     1       2.551   0.598   0.240  1.00  0.00     0.105 C 
BRANCH  17  18
HETATM   18  C7  UNL     1       3.799  -0.137  -0.126  1.00  0.00     0.218 C 
HETATM   19  O3  UNL     1       3.664  -1.212  -0.766  1.00  0.00    -0.274 OA
HETATM   20  N1  UNL     1       5.083   0.305   0.202  1.00  0.00    -0.353 N 
ATOM     21  H1  UNL     1       5.173   1.178   0.721  1.00  0.00     0.163 HD
BRANCH  20  22
HETATM   22  C8  UNL     1       6.291  -0.404  -0.152  1.00  0.00     0.022 C 
HETATM   23  C9  UNL     1       7.527   0.343   0.365  1.00  0.00     0.037 C 
HETATM   24  C10 UNL     1       6.307  -1.795   0.390  1.00  0.00     0.037 C 
HETATM   25  C11 UNL     1       6.478  -0.488  -1.666  1.00  0.00     0.037 C 
ENDBRANCH  20  22
ENDBRANCH  17  18
ENDBRANCH  16  17
ENDBRANCH  10  16
ENDBRANCH   1  10
BRANCH   2  26
HETATM   26  O4  UNL     1      -0.844  -2.215  -0.024  1.00  0.00    -0.345 OA
ATOM     27  H4  UNL     1      -1.151  -3.113  -0.063  1.00  0.00     0.219 HD
ENDBRANCH   2  26
BRANCH   5  28
HETATM   28  O5  UNL     1      -1.947   2.311  -1.260  1.00  0.00    -0.345 OA
ATOM     29  H5  UNL     1      -2.589   2.867  -1.686  1.00  0.00     0.219 HD
ENDBRANCH   5  28
BRANCH   7  30
HETATM   30  C18 UNL     1      -6.256   0.536  -0.776  1.00  0.00     0.172 C 
BRANCH  30  31
HETATM   31  O6  UNL     1      -7.358   0.128  -0.173  1.00  0.00    -0.396 OA
HETATM   32  C19 UNL     1      -7.462  -0.893   0.689  1.00  0.00     0.201 C 
ENDBRANCH  30  31
ENDBRANCH   7  30
TORSDOF 12
