REMARK  7 active torsions:
REMARK  status: ('A' for Active; 'I' for Inactive)
REMARK    1  A    between atoms: C2_2  and  O1_3 
REMARK    2  A    between atoms: O1_3  and  C3_4 
REMARK    3  A    between atoms: C4_5  and  O2_6 
REMARK    4  A    between atoms: C5_8  and  O3_9 
REMARK    5  A    between atoms: C7_11  and  O4_12 
REMARK    6  A    between atoms: C12_23  and  C13_24 
REMARK    7  A    between atoms: C12_23  and  C14_26 
ROOT
HETATM    1  C3  UNL     1      -0.417   0.462  -0.610  1.00  0.00     0.205 C 
HETATM    2  C4  UNL     1       0.760  -0.263  -1.151  1.00  0.00     0.183 C 
HETATM    3  C5  UNL     1       2.028  -0.026  -0.348  1.00  0.00     0.183 C 
HETATM    4  C7  UNL     1       2.040  -0.969   0.802  1.00  0.00     0.174 C 
HETATM    5  C9  UNL     1       1.015  -0.626   1.879  1.00  0.00     0.106 C 
HETATM    6  C10 UNL     1       1.213   0.696   2.505  1.00  0.00     0.034 C 
HETATM    7  N1  UNL     1      -0.264  -0.964   1.401  1.00  0.00    -0.385 N 
ATOM      8  H1  UNL     1      -0.645  -1.880   1.637  1.00  0.00     0.156 HD
HETATM    9  C11 UNL     1      -1.034  -0.104   0.620  1.00  0.00     0.171 A 
HETATM   10  N2  UNL     1      -1.771   0.937   1.263  1.00  0.00    -0.306 N 
ATOM     11  H2  UNL     1      -1.427   1.795   1.693  1.00  0.00     0.183 HD
HETATM   12  N3  UNL     1      -2.914   0.536   1.165  1.00  0.00    -0.322 N 
ATOM     13  H3  UNL     1      -3.829   0.884   1.451  1.00  0.00     0.181 HD
HETATM   14  C12 UNL     1      -2.448  -0.610   0.493  1.00  0.00     0.109 A 
ENDROOT
BRANCH   1  15
HETATM   15  O1  UNL     1      -0.009   1.765  -0.323  1.00  0.00    -0.379 OA
BRANCH  15  16
HETATM   16  C2  UNL     1      -0.671   2.705  -1.126  1.00  0.00     0.164 C 
HETATM   17  C1  UNL     1      -0.252   4.103  -0.838  1.00  0.00     0.033 C 
ENDBRANCH  15  16
ENDBRANCH   1  15
BRANCH  14  18
HETATM   18  C13 UNL     1      -2.694  -1.902   1.276  1.00  0.00     0.152 C 
HETATM   19 CL1  UNL     1      -2.395  -1.711   2.995  1.00  0.00    -0.128 Cl
ENDBRANCH  14  18
BRANCH  14  20
HETATM   20  C14 UNL     1      -2.944  -0.807  -0.912  1.00  0.00     0.021 A 
HETATM   21  C15 UNL     1      -4.374  -1.288  -1.093  1.00  0.00     0.008 A 
HETATM   22  C16 UNL     1      -4.021   0.153  -1.345  1.00  0.00     0.008 A 
ENDBRANCH  14  20
BRANCH   2  23
HETATM   23  O2  UNL     1       0.608  -1.605  -1.364  1.00  0.00    -0.390 OA
ATOM     24  H2  UNL     1       1.361  -2.069  -1.710  1.00  0.00     0.210 HD
ENDBRANCH   2  23
BRANCH   3  25
HETATM   25  O3  UNL     1       3.095  -0.346  -1.178  1.00  0.00    -0.385 OA
HETATM   26  C6  UNL     1       3.925   0.767  -1.393  1.00  0.00     0.202 C 
ENDBRANCH   3  25
BRANCH   4  27
HETATM   27  O4  UNL     1       3.270  -1.279   1.296  1.00  0.00    -0.386 OA
HETATM   28  C8  UNL     1       3.673  -2.582   1.169  1.00  0.00     0.202 C 
ENDBRANCH   4  27
TORSDOF 7
