REMARK  8 active torsions:
REMARK  status: ('A' for Active; 'I' for Inactive)
REMARK    1  A    between atoms: N1_1  and  N2_4 
REMARK    2  A    between atoms: N3_6  and  C1_8 
REMARK    3  A    between atoms: C1_8  and  C2_9 
REMARK    4  A    between atoms: C6_14  and  O2_15 
REMARK    5  A    between atoms: O2_15  and  C7_16 
REMARK    6  A    between atoms: C7_16  and  C8_17 
REMARK    7  A    between atoms: C8_17  and  O3_18 
REMARK    8  A    between atoms: N4_20  and  O4_22 
ROOT
HETATM    1  C2  UNL     1       3.102   0.555  -0.494  1.00  0.00     0.172 C 
HETATM    2  C3  UNL     1       2.266   1.358   0.448  1.00  0.00     0.210 C 
HETATM    3  O1  UNL     1       1.082   0.647   0.844  1.00  0.00    -0.346 OA
HETATM    4  C4  UNL     1       0.369  -0.129  -0.052  1.00  0.00     0.104 A 
HETATM    5  C5  UNL     1      -0.971  -0.446   0.089  1.00  0.00     0.077 A 
HETATM    6  C6  UNL     1      -1.688  -1.220  -0.801  1.00  0.00     0.089 A 
HETATM    7  C9  UNL     1      -1.005  -1.720  -1.929  1.00  0.00     0.047 A 
HETATM    8 BR1  UNL     1      -1.915  -2.804  -3.220  1.00  0.00    -0.048 Br
HETATM    9  C10 UNL     1       0.316  -1.405  -2.064  1.00  0.00     0.061 A 
HETATM   10  C11 UNL     1       1.028  -0.619  -1.152  1.00  0.00     0.104 A 
HETATM   11  O5  UNL     1       2.357  -0.321  -1.318  1.00  0.00    -0.339 OA
ENDROOT
BRANCH   6  12
HETATM   12  O2  UNL     1      -2.993  -1.562  -0.714  1.00  0.00    -0.342 OA
BRANCH  12  13
HETATM   13  C7  UNL     1      -3.885  -1.200   0.273  1.00  0.00     0.261 C 
BRANCH  13  14
HETATM   14  C8  UNL     1      -4.152   0.240   0.416  1.00  0.00     0.160 C 
HETATM   15  N4  UNL     1      -4.170   0.841   1.530  1.00  0.00    -0.249 N 
ATOM     16  H4  UNL     1      -3.992   0.313   2.384  1.00  0.00     0.196 HD
BRANCH  14  17
HETATM   17  O3  UNL     1      -4.398   0.950  -0.758  1.00  0.00    -0.346 OA
ATOM     18  H3  UNL     1      -4.570   1.880  -0.666  1.00  0.00     0.219 HD
ENDBRANCH  14  17
BRANCH  15  19
HETATM   19  O4  UNL     1      -4.420   2.168   1.613  1.00  0.00    -0.288 OA
ATOM     20  H4  UNL     1      -4.434   2.619   2.449  1.00  0.00     0.244 HD
ENDBRANCH  15  19
ENDBRANCH  13  14
ENDBRANCH  12  13
ENDBRANCH   6  12
BRANCH   1  21
HETATM   21  C1  UNL     1       4.191  -0.224   0.205  1.00  0.00     0.175 C 
BRANCH  21  22
HETATM   22  N3  UNL     1       4.956   0.687   1.054  1.00  0.00    -0.320 N 
HETATM   23  N2  UNL     1       5.444   0.177   2.072  1.00  0.00    -0.254 N 
ATOM     24  H2  UNL     1       5.626  -0.776   1.758  1.00  0.00     0.207 HD
ATOM     25  H3  UNL     1       5.079   1.673   0.825  1.00  0.00     0.181 HD
BRANCH  23  26
HETATM   26  N1  UNL     1       5.843   0.135   3.245  1.00  0.00    -0.331 N 
ATOM     27  H12 UNL     1       5.643   1.098   3.514  1.00  0.00     0.178 HD
ATOM     28  H11 UNL     1       6.245  -0.285   4.083  1.00  0.00     0.178 HD
ENDBRANCH  23  26
ENDBRANCH  21  22
ENDBRANCH   1  21
TORSDOF 8
