REMARK  8 active torsions:
REMARK  status: ('A' for Active; 'I' for Inactive)
REMARK    1  A    between atoms: C2_2  and  C3_3 
REMARK    2  A    between atoms: C3_3  and  C4_4 
REMARK    3  A    between atoms: C5_7  and  C6_8 
REMARK    4  A    between atoms: C6_8  and  N2_9 
REMARK    5  A    between atoms: C9_12  and  N3_13 
REMARK       I    between atoms: N3_13  and  C10_15 
REMARK    6  A    between atoms: C10_15  and  O2_17 
REMARK    7  A    between atoms: O2_17  and  C11_18 
REMARK    8  A    between atoms: C15_22  and  N4_23 
ROOT
HETATM    1  N2  UNL     1       1.087  -0.541   0.517  1.00  0.00    -0.404 N 
HETATM    2  C7  UNL     1       0.834   0.568  -0.317  1.00  0.00     0.119 C 
HETATM    3  C8  UNL     1      -0.323   0.550  -1.217  1.00  0.00     0.047 C 
HETATM    4  C9  UNL     1      -1.337  -0.515  -1.047  1.00  0.00     0.120 C 
HETATM    5  C15 UNL     1      -0.654  -1.794  -0.618  1.00  0.00     0.223 C 
HETATM    6  C16 UNL     1       0.043  -1.490   0.686  1.00  0.00     0.152 C 
ENDROOT
BRANCH   1   7
HETATM    7  C6  UNL     1       2.393  -1.135   0.343  1.00  0.00     0.195 C 
BRANCH   7   8
HETATM    8  C5  UNL     1       3.470  -0.147   0.635  1.00  0.00     0.121 A 
HETATM    9  N1  UNL     1       4.788  -0.343   0.533  1.00  0.00    -0.326 N 
HETATM   10  C4  UNL     1       5.457   0.780   0.882  1.00  0.00     0.148 A 
ATOM     11  H1  UNL     1       5.227  -1.214   0.235  1.00  0.00     0.169 HD
HETATM   12  O3  UNL     1       4.540   1.661   1.197  1.00  0.00    -0.223 OA
HETATM   13  N5  UNL     1       3.340   1.141   1.061  1.00  0.00    -0.245 N 
ATOM     14  H5  UNL     1       2.459   1.621   1.244  1.00  0.00     0.196 HD
BRANCH  10  15
HETATM   15  C3  UNL     1       6.939   0.972   0.903  1.00  0.00     0.086 C 
BRANCH  15  16
HETATM   16  C2  UNL     1       7.445   1.482  -0.427  1.00  0.00     0.004 C 
HETATM   17  C1  UNL     1       8.944   1.646  -0.314  1.00  0.00     0.005 C 
ENDBRANCH  15  16
ENDBRANCH  10  15
ENDBRANCH   7   8
ENDBRANCH   1   7
BRANCH   5  18
HETATM   18  N4  UNL     1      -1.586  -2.869  -0.501  1.00  0.00    -0.071 N 
ATOM     19  H43 UNL     1      -2.356  -2.629   0.123  1.00  0.00     0.274 HD
ATOM     20  H42 UNL     1      -2.116  -2.999  -1.363  1.00  0.00     0.274 HD
ATOM     21  H41 UNL     1      -1.125  -3.732  -0.212  1.00  0.00     0.274 HD
ENDBRANCH   5  18
BRANCH   4  22
HETATM   22  N3  UNL     1      -2.405  -0.156  -0.130  1.00  0.00    -0.330 N 
HETATM   23  C10 UNL     1      -3.756  -0.139  -0.551  1.00  0.00     0.361 C 
HETATM   24  O1  UNL     1      -4.095  -0.432  -1.726  1.00  0.00    -0.238 OA
ATOM     25  H3  UNL     1      -2.177   0.088   0.834  1.00  0.00     0.165 HD
BRANCH  23  26
HETATM   26  O2  UNL     1      -4.740   0.201   0.325  1.00  0.00    -0.294 OA
BRANCH  26  27
HETATM   27  C11 UNL     1      -6.103   0.265   0.070  1.00  0.00     0.061 C 
HETATM   28  C12 UNL     1      -6.549  -1.132  -0.369  1.00  0.00     0.046 C 
HETATM   29  C13 UNL     1      -6.531   1.229  -0.971  1.00  0.00     0.046 C 
HETATM   30  C14 UNL     1      -6.825   0.586   1.363  1.00  0.00     0.046 C 
ENDBRANCH  26  27
ENDBRANCH  23  26
ENDBRANCH   4  22
TORSDOF 8
