REMARK  1 active torsions:
REMARK  status: ('A' for Active; 'I' for Inactive)
REMARK    1  A    between atoms: N1_9  and  O2_11 
ROOT
HETATM    1  C1  UNL     1       1.446  -2.189   0.360  1.00  0.00     0.046 C 
HETATM    2  C2  UNL     1       0.368  -1.161   0.273  1.00  0.00     0.164 C 
HETATM    3  O1  UNL     1      -0.523  -1.370  -0.774  1.00  0.00    -0.380 OA
HETATM    4  C3  UNL     1      -1.751  -0.840  -0.437  1.00  0.00     0.168 C 
HETATM    5  C4  UNL     1      -1.839   0.649  -0.607  1.00  0.00     0.027 C 
HETATM    6  C5  UNL     1      -1.182   1.428   0.482  1.00  0.00     0.008 C 
HETATM    7  C6  UNL     1       0.316   1.507   0.359  1.00  0.00     0.057 C 
HETATM    8  C7  UNL     1       0.936   0.190   0.112  1.00  0.00     0.038 C 
HETATM    9  N1  UNL     1       2.142   0.243  -0.301  1.00  0.00    -0.275 N 
ATOM     10  H1  UNL     1       2.618  -0.640  -0.487  1.00  0.00     0.193 HD
ENDROOT
BRANCH   9  11
HETATM   11  O2  UNL     1       2.841   1.396  -0.512  1.00  0.00    -0.290 OA
ATOM     12  H2  UNL     1       3.739   1.435  -0.820  1.00  0.00     0.244 HD
ENDBRANCH   9  11
TORSDOF 1
