REMARK  1 active torsions:
REMARK  status: ('A' for Active; 'I' for Inactive)
REMARK    1  A    between atoms: C6_8  and  O3_10 
ROOT
HETATM    1  C1  UNL     1      -0.197  -1.660   0.407  1.00  0.00     0.019 C 
HETATM    2  C2  UNL     1       0.081  -0.207   0.566  1.00  0.00     0.083 C 
HETATM    3  C3  UNL     1      -0.886   0.688  -0.151  1.00  0.00     0.097 C 
HETATM    4  C4  UNL     1      -1.752  -0.061  -1.144  1.00  0.00     0.049 C 
HETATM    5  C5  UNL     1      -1.745   1.434   0.824  1.00  0.00     0.049 C 
HETATM    6  O1  UNL     1      -0.101   1.567  -0.862  1.00  0.00    -0.227 OA
HETATM    7  O2  UNL     1       1.117   1.494  -0.431  1.00  0.00    -0.200 OA
HETATM    8  C6  UNL     1       1.356   0.136  -0.223  1.00  0.00     0.197 C 
HETATM    9  C7  UNL     1       2.592  -0.151   0.547  1.00  0.00     0.082 C 
ENDROOT
BRANCH   8  10
HETATM   10  O3  UNL     1       1.253  -0.512  -1.431  1.00  0.00    -0.363 OA
ATOM     11  H3  UNL     1       2.040  -0.300  -1.918  1.00  0.00     0.213 HD
ENDBRANCH   8  10
TORSDOF 1
