REMARK  1 active torsions:
REMARK  status: ('A' for Active; 'I' for Inactive)
REMARK    1  A    between atoms: N1_5  and  O1_7 
ROOT
HETATM    1  C1  UNL     1       2.791  -0.028   0.502  1.00  0.00     0.021 C 
HETATM    2  C2  UNL     1       1.379  -0.230   0.053  1.00  0.00     0.048 C 
HETATM    3  C3  UNL     1       0.560   1.064   0.176  1.00  0.00     0.069 C 
HETATM    4  C4  UNL     1      -0.889   0.763   0.082  1.00  0.00     0.011 C 
HETATM    5  N1  UNL     1      -1.713   1.688   0.423  1.00  0.00    -0.277 N 
ATOM      6  H1  UNL     1      -1.326   2.577   0.738  1.00  0.00     0.193 HD
HETATM    7  C5  UNL     1      -1.347  -0.554  -0.386  1.00  0.00     0.064 C 
HETATM    8  C6  UNL     1      -1.070  -1.663   0.580  1.00  0.00     0.080 C 
HETATM    9  S1  UNL     1       0.614  -1.418   1.228  1.00  0.00    -0.164 SA
ENDROOT
BRANCH   5  10
HETATM   10  O1  UNL     1      -3.075   1.561   0.392  1.00  0.00    -0.290 OA
ATOM     11  H1  UNL     1      -3.684   2.245   0.644  1.00  0.00     0.244 HD
ENDBRANCH   5  10
TORSDOF 1
