REMARK  8 active torsions:
REMARK  status: ('A' for Active; 'I' for Inactive)
REMARK    1  A    between atoms: N1_1  and  C1_4 
REMARK    2  A    between atoms: C2_7  and  C3_8 
REMARK    3  A    between atoms: C3_8  and  N3_9 
REMARK    4  A    between atoms: C4_11  and  C5_12 
REMARK    5  A    between atoms: C5_12  and  O1_13 
REMARK    6  A    between atoms: O1_13  and  C6_14 
REMARK    7  A    between atoms: C7_17  and  N5_18 
REMARK    8  A    between atoms: C8_23  and  N7_24 
ROOT
HETATM    1  N3  UNL     1      -0.787  -0.170   0.026  1.00  0.00    -0.354 N 
ATOM      2  H3  UNL     1      -0.151  -0.439  -0.724  1.00  0.00     0.162 HD
HETATM    3  C4  UNL     1      -0.375   0.521   1.020  1.00  0.00     0.085 C 
ENDROOT
BRANCH   1   4
HETATM    4  C3  UNL     1      -2.147  -0.550  -0.005  1.00  0.00     0.307 C 
HETATM    5  N9  UNL     1      -2.509  -1.323  -1.165  1.00  0.00    -0.031 N 
HETATM    6  C9  UNL     1      -2.052  -2.660  -0.988  1.00  0.00     0.247 C 
ATOM      7  H92 UNL     1      -3.508  -1.277  -1.368  1.00  0.00     0.281 HD
ATOM      8  H91 UNL     1      -2.169  -0.907  -2.032  1.00  0.00     0.281 HD
HETATM    9  C10 UNL     1      -2.754  -3.215   0.261  1.00  0.00     0.106 C 
HETATM   10  S1  UNL     1      -2.556  -1.736   1.338  1.00  0.00    -0.099 SA
BRANCH   4  11
HETATM   11  C2  UNL     1      -3.084   0.579   0.110  1.00  0.00     0.180 A 
HETATM   12  N2  UNL     1      -2.743   1.863   0.233  1.00  0.00    -0.173 N 
HETATM   13  C1  UNL     1      -3.850   2.620   0.312  1.00  0.00     0.692 A 
ATOM     14  H2  UNL     1      -1.787   2.216   0.263  1.00  0.00     0.185 HD
HETATM   15  N11 UNL     1      -4.870   1.741   0.231  1.00  0.00    -0.131 N 
HETATM   16  N10 UNL     1      -4.412   0.513   0.110  1.00  0.00    -0.270 N 
ATOM     17  H11 UNL     1      -5.858   1.993   0.260  1.00  0.00     0.205 HD
ATOM     18  H10 UNL     1      -4.974  -0.335   0.031  1.00  0.00     0.189 HD
BRANCH  13  19
HETATM   19  N1  UNL     1      -3.931   3.912   0.439  1.00  0.00    -0.233 N 
ATOM     20  H12 UNL     1      -3.160   4.577   0.500  1.00  0.00     0.174 HD
ATOM     21  H11 UNL     1      -4.772   4.487   0.499  1.00  0.00     0.174 HD
ENDBRANCH  13  19
ENDBRANCH   4  11
ENDBRANCH   1   4
BRANCH   3  22
HETATM   22  C5  UNL     1       1.058   0.918   1.044  1.00  0.00     0.223 C 
BRANCH  22  23
HETATM   23  O1  UNL     1       1.821  -0.083   0.363  1.00  0.00    -0.316 OA
BRANCH  23  24
HETATM   24  C6  UNL     1       3.189   0.093   0.269  1.00  0.00     0.252 A 
HETATM   25  N4  UNL     1       3.805   1.165   0.796  1.00  0.00    -0.154 N 
HETATM   26  C7  UNL     1       5.131   1.334   0.705  1.00  0.00     0.693 A 
ATOM     27  H4  UNL     1       3.247   1.870   1.279  1.00  0.00     0.188 HD
HETATM   28  N6  UNL     1       5.877   0.424   0.078  1.00  0.00    -0.023 N 
HETATM   29  C8  UNL     1       5.294  -0.664  -0.463  1.00  0.00     0.693 A 
ATOM     30  H6  UNL     1       6.887   0.551   0.008  1.00  0.00     0.203 HD
HETATM   31  N8  UNL     1       3.961  -0.812  -0.359  1.00  0.00    -0.154 N 
ATOM     32  H8  UNL     1       3.522  -1.636  -0.769  1.00  0.00     0.188 HD
BRANCH  26  33
HETATM   33  N5  UNL     1       5.675   2.380   1.227  1.00  0.00    -0.234 N 
ATOM     34  H52 UNL     1       5.104   3.076   1.707  1.00  0.00     0.174 HD
ATOM     35  H51 UNL     1       6.684   2.509   1.158  1.00  0.00     0.174 HD
ENDBRANCH  26  33
BRANCH  29  36
HETATM   36  N7  UNL     1       6.050  -1.524  -1.063  1.00  0.00    -0.234 N 
ATOM     37  H72 UNL     1       7.061  -1.412  -1.142  1.00  0.00     0.174 HD
ATOM     38  H71 UNL     1       5.609  -2.347  -1.472  1.00  0.00     0.174 HD
ENDBRANCH  29  36
ENDBRANCH  23  24
ENDBRANCH  22  23
ENDBRANCH   3  22
TORSDOF 8
