REMARK  9 active torsions:
REMARK  status: ('A' for Active; 'I' for Inactive)
REMARK    1  A    between atoms: N1_1  and  C1_4 
REMARK    2  A    between atoms: C4_12  and  C5_13 
REMARK    3  A    between atoms: C5_13  and  O2_14 
REMARK    4  A    between atoms: C5_13  and  N4_16 
REMARK    5  A    between atoms: N4_16  and  C6_19 
REMARK    6  A    between atoms: C6_19  and  N5_20 
REMARK    7  A    between atoms: C6_19  and  C7_24 
REMARK    8  A    between atoms: C7_24  and  N6_25 
REMARK    9  A    between atoms: C10_32  and  N9_33 
ROOT
HETATM    1  C1  UNL     1      -5.965   0.133   0.151  1.00  0.00     0.680 A 
HETATM    2  N2  UNL     1      -5.476   1.218   0.780  1.00  0.00    -0.154 N 
ATOM      3  H2  UNL     1      -6.132   1.878   1.199  1.00  0.00     0.187 HD
HETATM    4  C2  UNL     1      -4.157   1.468   0.879  1.00  0.00     0.290 A 
HETATM    5  O1  UNL     1      -3.711   2.484   1.469  1.00  0.00    -0.265 OA
HETATM    6  C3  UNL     1      -3.236   0.596   0.324  1.00  0.00     0.147 A 
HETATM    7  N3  UNL     1      -1.908   0.816   0.404  1.00  0.00    -0.345 N 
ATOM      8  H3  UNL     1      -1.573   1.649   0.888  1.00  0.00     0.166 HD
HETATM    9  C4  UNL     1      -1.002  -0.039  -0.141  1.00  0.00     0.110 A 
HETATM   10  C10 UNL     1      -1.508  -1.144  -0.782  1.00  0.00     0.128 A 
HETATM   11  N10 UNL     1      -2.854  -1.359  -0.859  1.00  0.00    -0.325 N 
ATOM     12  H10 UNL     1      -3.195  -2.190  -1.343  1.00  0.00     0.169 HD
HETATM   13  C11 UNL     1      -3.742  -0.513  -0.319  1.00  0.00     0.155 A 
HETATM   14  N11 UNL     1      -5.074  -0.720  -0.392  1.00  0.00    -0.174 N 
ATOM     15  H11 UNL     1      -5.418  -1.550  -0.875  1.00  0.00     0.186 HD
ENDROOT
BRANCH   9  16
HETATM   16  C5  UNL     1       0.454   0.247  -0.012  1.00  0.00     0.376 C 
BRANCH  16  17
HETATM   17  O2  UNL     1       0.744   1.567  -0.323  1.00  0.00    -0.365 OA
ATOM     18  H2  UNL     1       1.673   1.749  -0.241  1.00  0.00     0.212 HD
ENDBRANCH  16  17
BRANCH  16  19
HETATM   19  N4  UNL     1       1.308  -0.724  -0.606  1.00  0.00    -0.013 N 
ATOM     20  H42 UNL     1       1.194  -1.649  -0.191  1.00  0.00     0.283 HD
ATOM     21  H41 UNL     1       1.027  -0.960  -1.558  1.00  0.00     0.283 HD
BRANCH  19  22
HETATM   22  C6  UNL     1       2.689  -0.244  -0.533  1.00  0.00     0.403 C 
BRANCH  22  23
HETATM   23  N5  UNL     1       3.583  -1.201  -1.181  1.00  0.00    -0.048 N 
ATOM     24  H53 UNL     1       3.483  -2.140  -0.795  1.00  0.00     0.276 HD
ATOM     25  H52 UNL     1       3.298  -1.403  -2.139  1.00  0.00     0.276 HD
ATOM     26  H51 UNL     1       4.545  -0.867  -1.130  1.00  0.00     0.276 HD
ENDBRANCH  22  23
BRANCH  22  27
HETATM   27  C7  UNL     1       3.171  -0.076   0.889  1.00  0.00     0.212 C 
BRANCH  27  28
HETATM   28  N6  UNL     1       4.538   0.392   0.821  1.00  0.00    -0.283 N 
HETATM   29  C8  UNL     1       4.949   1.648   0.781  1.00  0.00     0.201 A 
HETATM   30  N7  UNL     1       6.308   1.675   0.722  1.00  0.00    -0.346 N 
HETATM   31  C9  UNL     1       6.692   0.390   0.727  1.00  0.00     0.198 A 
ATOM     32  H7  UNL     1       6.908   2.499   0.682  1.00  0.00     0.167 HD
HETATM   33  N8  UNL     1       5.595  -0.386   0.788  1.00  0.00    -0.293 N 
ATOM     34  H8  UNL     1       5.586  -1.406   0.806  1.00  0.00     0.188 HD
ENDBRANCH  27  28
ENDBRANCH  22  27
ENDBRANCH  19  22
ENDBRANCH  16  19
ENDBRANCH   9  16
BRANCH  10  35
HETATM   35  N9  UNL     1      -0.725  -2.004  -1.338  1.00  0.00    -0.384 N 
ATOM     36  H92 UNL     1       0.281  -1.843  -1.280  1.00  0.00     0.157 HD
ATOM     37  H91 UNL     1      -1.101  -2.824  -1.814  1.00  0.00     0.157 HD
ENDBRANCH  10  35
BRANCH   1  38
HETATM   38  N1  UNL     1      -7.231  -0.105   0.056  1.00  0.00    -0.234 N 
ATOM     39  H12 UNL     1      -7.905   0.541   0.467  1.00  0.00     0.174 HD
ATOM     40  H11 UNL     1      -7.602  -0.927  -0.421  1.00  0.00     0.174 HD
ENDBRANCH   1  38
TORSDOF 9
