REMARK  8 active torsions:
REMARK  status: ('A' for Active; 'I' for Inactive)
REMARK    1  A    between atoms: C2_2  and  N1_3 
REMARK    2  A    between atoms: C2_2  and  C15_25 
REMARK       I    between atoms: N1_3  and  C3_5 
REMARK       I    between atoms: C3_5  and  N2_7 
REMARK    3  A    between atoms: N2_7  and  C4_9 
REMARK    4  A    between atoms: C4_9  and  C5_10 
REMARK       I    between atoms: C5_10  and  N3_12 
REMARK    5  A    between atoms: N3_12  and  C6_14 
REMARK    6  A    between atoms: C6_14  and  C7_15 
REMARK    7  A    between atoms: C6_14  and  C14_22 
REMARK    8  A    between atoms: C7_15  and  C8_16 
ROOT
HETATM    1  C4  UNL     1       0.969  -2.436   1.159  1.00  0.00     0.227 C 
ENDROOT
BRANCH   1   2
HETATM    2  N2  UNL     1      -0.391  -2.372   0.711  1.00  0.00    -0.334 N 
HETATM    3  C3  UNL     1      -0.796  -1.576  -0.392  1.00  0.00     0.316 C 
HETATM    4  N1  UNL     1      -2.158  -1.527  -0.793  1.00  0.00    -0.338 N 
HETATM    5  O1  UNL     1       0.085  -0.920  -0.996  1.00  0.00    -0.247 OA
ATOM      6  H1  UNL     1      -2.865  -2.065  -0.291  1.00  0.00     0.164 HD
ATOM      7  H2  UNL     1      -1.096  -2.920   1.204  1.00  0.00     0.164 HD
BRANCH   4   8
HETATM    8  C2  UNL     1      -2.524  -0.714  -1.909  1.00  0.00     0.087 C 
HETATM    9  C1  UNL     1      -3.042  -1.589  -3.061  1.00  0.00     0.032 C 
BRANCH   8  10
HETATM   10  C15 UNL     1      -3.600   0.286  -1.631  1.00  0.00     0.026 C 
HETATM   11  C16 UNL     1      -4.908  -0.295  -1.234  1.00  0.00     0.008 C 
HETATM   12  C17 UNL     1      -5.656   0.902  -0.685  1.00  0.00     0.002 C 
HETATM   13  C18 UNL     1      -4.630   1.989  -0.434  1.00  0.00     0.020 C 
HETATM   14  C19 UNL     1      -3.296   1.231  -0.504  1.00  0.00     0.088 C 
HETATM   15 CL1  UNL     1      -3.090   0.363   1.045  1.00  0.00    -0.125 Cl
ENDBRANCH   8  10
ENDBRANCH   4   8
ENDBRANCH   1   2
BRANCH   1  16
HETATM   16  C5  UNL     1       1.465  -1.119   1.626  1.00  0.00     0.236 C 
HETATM   17  O2  UNL     1       0.714  -0.124   1.617  1.00  0.00    -0.272 OA
HETATM   18  N3  UNL     1       2.800  -0.968   2.092  1.00  0.00    -0.345 N 
ATOM     19  H3  UNL     1       3.430  -1.770   2.107  1.00  0.00     0.163 HD
BRANCH  18  20
HETATM   20  C6  UNL     1       3.255   0.308   2.538  1.00  0.00     0.189 C 
BRANCH  20  21
HETATM   21  C7  UNL     1       4.416   0.775   1.656  1.00  0.00     0.074 C 
BRANCH  21  22
HETATM   22  C8  UNL     1       4.035   0.901   0.247  1.00  0.00    -0.056 A 
HETATM   23  C9  UNL     1       3.542   2.094  -0.226  1.00  0.00     0.007 A 
HETATM   24  C10 UNL     1       3.182   2.222  -1.554  1.00  0.00     0.001 A 
HETATM   25  C11 UNL     1       3.318   1.134  -2.423  1.00  0.00     0.000 A 
HETATM   26  C12 UNL     1       3.810  -0.061  -1.956  1.00  0.00     0.001 A 
HETATM   27  C13 UNL     1       4.166  -0.163  -0.616  1.00  0.00     0.007 A 
ENDBRANCH  21  22
ENDBRANCH  20  21
BRANCH  20  28
HETATM   28  C14 UNL     1       3.720   0.312   3.936  1.00  0.00     0.197 C 
HETATM   29  O3  UNL     1       3.716  -0.710   4.666  1.00  0.00    -0.646 OA
HETATM   30  O4  UNL     1       4.190   1.490   4.497  1.00  0.00    -0.646 OA
ENDBRANCH  20  28
ENDBRANCH  18  20
ENDBRANCH   1  16
TORSDOF 8
