REMARK  9 active torsions:
REMARK  status: ('A' for Active; 'I' for Inactive)
REMARK       I    between atoms: C1_4  and  N3_6 
REMARK    1  A    between atoms: N3_6  and  C2_8 
REMARK    2  A    between atoms: C2_8  and  C3_9 
REMARK    3  A    between atoms: C3_9  and  C4_10 
REMARK    4  A    between atoms: C4_10  and  C5_11 
REMARK    5  A    between atoms: C5_11  and  N5_15 
REMARK    6  A    between atoms: N5_15  and  C6_17 
REMARK    7  A    between atoms: C6_17  and  C7_18 
REMARK    8  A    between atoms: C7_18  and  N6_19 
REMARK    9  A    between atoms: C13_25  and  C14_26 
ROOT
HETATM    1  C6  UNL     1       1.251   0.237  -0.521  1.00  0.00     0.149 C 
ENDROOT
BRANCH   1   2
HETATM    2  N5  UNL     1       2.506  -0.415  -0.790  1.00  0.00    -0.377 N 
ATOM      3  H5  UNL     1       2.994  -0.162  -1.649  1.00  0.00     0.160 HD
BRANCH   2   4
HETATM    4  C5  UNL     1       3.108  -1.373   0.041  1.00  0.00     0.087 C 
HETATM    5  N4  UNL     1       2.579  -1.821   1.113  1.00  0.00    -0.288 N 
HETATM    6 CL1  UNL     1       3.297  -2.983   2.152  1.00  0.00     0.012 Cl
ATOM      7  H4  UNL     1       1.660  -1.461   1.372  1.00  0.00     0.181 HD
BRANCH   4   8
HETATM    8  C4  UNL     1       4.461  -1.918  -0.319  1.00  0.00     0.078 C 
BRANCH   8   9
HETATM    9  C3  UNL     1       5.384  -0.695  -0.323  1.00  0.00     0.027 C 
BRANCH   9  10
HETATM   10  C2  UNL     1       6.809  -1.065  -0.670  1.00  0.00     0.122 C 
BRANCH  10  11
HETATM   11  N3  UNL     1       7.579   0.156  -0.642  1.00  0.00    -0.365 N 
HETATM   12  C1  UNL     1       7.777   0.791   0.619  1.00  0.00     0.181 C 
HETATM   13  N1  UNL     1       8.585   0.209   1.451  1.00  0.00    -0.374 N 
HETATM   14  N2  UNL     1       7.129   2.001   0.960  1.00  0.00    -0.064 NA
ATOM     15  H12 UNL     1       8.727   0.663   2.353  1.00  0.00     0.158 HD
ATOM     16  H11 UNL     1       9.052  -0.664   1.205  1.00  0.00     0.158 HD
ATOM     17  H3  UNL     1       7.969   0.552  -1.497  1.00  0.00     0.162 HD
ENDBRANCH  10  11
ENDBRANCH   9  10
ENDBRANCH   8   9
ENDBRANCH   4   8
ENDBRANCH   2   4
ENDBRANCH   1   2
BRANCH   1  18
HETATM   18  C7  UNL     1       0.146  -0.752  -0.641  1.00  0.00     0.257 C 
BRANCH  18  19
HETATM   19  N6  UNL     1      -1.165  -0.171  -0.397  1.00  0.00    -0.065 N 
HETATM   20  C8  UNL     1      -1.585   0.406  -1.654  1.00  0.00     0.238 C 
HETATM   21  C9  UNL     1      -2.310   1.693  -1.336  1.00  0.00     0.033 C 
HETATM   22  C10 UNL     1      -3.246   1.365  -0.164  1.00  0.00    -0.003 C 
HETATM   23  C11 UNL     1      -2.415   1.248   1.049  1.00  0.00     0.033 C 
HETATM   24  C13 UNL     1      -4.056   0.169  -0.557  1.00  0.00     0.024 C 
HETATM   25  C12 UNL     1      -1.000   0.859   0.632  1.00  0.00     0.238 C 
HETATM   26  C20 UNL     1      -3.444  -1.146  -0.262  1.00  0.00     0.037 C 
HETATM   27  C21 UNL     1      -2.021  -1.176   0.130  1.00  0.00     0.238 C 
BRANCH  24  28
HETATM   28  C14 UNL     1      -5.447   0.234  -0.036  1.00  0.00    -0.054 A 
HETATM   29  C15 UNL     1      -5.751  -0.049   1.284  1.00  0.00     0.007 A 
HETATM   30  C16 UNL     1      -7.059   0.047   1.683  1.00  0.00     0.001 A 
HETATM   31  C17 UNL     1      -8.094   0.413   0.832  1.00  0.00     0.000 A 
HETATM   32  C18 UNL     1      -7.758   0.689  -0.476  1.00  0.00     0.001 A 
HETATM   33  C19 UNL     1      -6.459   0.608  -0.930  1.00  0.00     0.007 A 
ENDBRANCH  24  28
ENDBRANCH  18  19
ENDBRANCH   1  18
TORSDOF 9
