REMARK  7 active torsions:
REMARK  status: ('A' for Active; 'I' for Inactive)
REMARK    1  A    between atoms: C1_2  and  C2_4 
REMARK    2  A    between atoms: C2_4  and  N2_5 
REMARK       I    between atoms: N2_5  and  C3_7 
REMARK    3  A    between atoms: C3_7  and  C4_9 
REMARK    4  A    between atoms: C4_9  and  C5_10 
REMARK    5  A    between atoms: C4_9  and  N3_17 
REMARK    6  A    between atoms: C5_10  and  C6_11 
REMARK       I    between atoms: N3_17  and  C12_19 
REMARK       I    between atoms: C12_19  and  N4_21 
REMARK    7  A    between atoms: N4_21  and  C13_23 
ROOT
HETATM    1  C4  UNL     1      -1.933   0.281  -0.240  1.00  0.00     0.182 C 
ENDROOT
BRANCH   1   2
HETATM    2  C3  UNL     1      -2.681  -0.944   0.006  1.00  0.00     0.241 C 
HETATM    3  N2  UNL     1      -3.902  -1.205  -0.660  1.00  0.00    -0.351 N 
ATOM      4  H2  UNL     1      -4.235  -0.502  -1.320  1.00  0.00     0.163 HD
HETATM    5  O2  UNL     1      -2.253  -1.804   0.814  1.00  0.00    -0.271 OA
BRANCH   3   6
HETATM    6  C2  UNL     1      -4.710  -2.377  -0.484  1.00  0.00     0.222 C 
BRANCH   6   7
HETATM    7  C1  UNL     1      -5.177  -2.506   0.899  1.00  0.00     0.248 C 
HETATM    8  N1  UNL     1      -5.985  -3.642   1.214  1.00  0.00    -0.061 NA
HETATM    9  O1  UNL     1      -4.890  -1.665   1.778  1.00  0.00    -0.275 OA
ENDBRANCH   6   7
ENDBRANCH   3   6
ENDBRANCH   1   2
BRANCH   1  10
HETATM   10  C5  UNL     1      -2.479   1.555   0.289  1.00  0.00     0.073 C 
BRANCH  10  11
HETATM   11  C6  UNL     1      -3.790   1.997  -0.148  1.00  0.00    -0.056 A 
HETATM   12  C7  UNL     1      -4.934   1.753   0.581  1.00  0.00     0.007 A 
HETATM   13  C8  UNL     1      -6.185   2.164   0.176  1.00  0.00     0.001 A 
HETATM   14  C9  UNL     1      -6.342   2.855  -1.006  1.00  0.00     0.000 A 
HETATM   15  C10 UNL     1      -5.213   3.111  -1.752  1.00  0.00     0.001 A 
HETATM   16  C11 UNL     1      -3.962   2.699  -1.346  1.00  0.00     0.007 A 
ENDBRANCH  10  11
ENDBRANCH   1  10
BRANCH   1  17
HETATM   17  N3  UNL     1      -0.643   0.108   0.483  1.00  0.00    -0.330 N 
HETATM   18  C12 UNL     1       0.580   0.116  -0.205  1.00  0.00     0.317 C 
HETATM   19  O3  UNL     1       0.537   0.277  -1.465  1.00  0.00    -0.247 OA
HETATM   20  N4  UNL     1       1.804  -0.050   0.485  1.00  0.00    -0.338 N 
ATOM     21  H4  UNL     1       1.805  -0.179   1.497  1.00  0.00     0.164 HD
ATOM     22  H3  UNL     1      -0.648  -0.018   1.495  1.00  0.00     0.165 HD
BRANCH  20  23
HETATM   23  C13 UNL     1       3.028  -0.037  -0.228  1.00  0.00     0.094 C 
HETATM   24  C14 UNL     1       3.765  -1.368  -0.164  1.00  0.00     0.009 C 
HETATM   25  C15 UNL     1       4.838  -1.295  -1.245  1.00  0.00     0.011 C 
HETATM   26  C19 UNL     1       4.441  -1.597   1.145  1.00  0.00     0.011 C 
HETATM   27  C16 UNL     1       5.746  -0.129  -1.014  1.00  0.00    -0.013 C 
HETATM   28  C17 UNL     1       6.446  -0.354   0.325  1.00  0.00     0.009 C 
HETATM   29  C22 UNL     1       5.009   1.182  -0.901  1.00  0.00     0.011 C 
HETATM   30  C18 UNL     1       5.419  -0.475   1.413  1.00  0.00    -0.013 C 
HETATM   31  C20 UNL     1       4.636   0.803   1.503  1.00  0.00     0.011 C 
HETATM   32  C21 UNL     1       3.967   1.072   0.193  1.00  0.00     0.009 C 
ENDBRANCH  20  23
ENDBRANCH   1  17
TORSDOF 7
