REMARK  2 active torsions:
REMARK  status: ('A' for Active; 'I' for Inactive)
REMARK    1  A    between atoms: O1_1  and  C1_3 
REMARK    2  A    between atoms: C3_5  and  O2_6 
ROOT
HETATM    1  C1  UNL     1      -0.324   0.470   0.651  1.00  0.00     0.149 A 
HETATM    2  C2  UNL     1      -1.010  -0.484  -0.242  1.00  0.00     0.068 A 
HETATM    3  C3  UNL     1       0.406  -0.692   0.007  1.00  0.00     0.149 A 
ENDROOT
BRANCH   1   4
HETATM    4  O1  UNL     1      -0.117   1.753   0.159  1.00  0.00    -0.393 OA
ATOM      5  H1  UNL     1       0.325   2.367   0.734  1.00  0.00     0.210 HD
ENDBRANCH   1   4
BRANCH   3   6
HETATM    6  O2  UNL     1       1.404  -0.271  -0.882  1.00  0.00    -0.393 OA
ATOM      7  H2  UNL     1       1.861  -0.999  -1.286  1.00  0.00     0.210 HD
ENDBRANCH   3   6
TORSDOF 2
