REMARK  2 active torsions:
REMARK  status: ('A' for Active; 'I' for Inactive)
REMARK    1  A    between atoms: C2_2  and  O1_3 
REMARK    2  A    between atoms: C2_2  and  C3_5 
ROOT
HETATM    1  C1  UNL     1      -1.247   0.784   0.040  1.00  0.00     0.058 C 
HETATM    2  C2  UNL     1      -0.276  -0.093  -0.007  1.00  0.00     0.133 C 
ENDROOT
BRANCH   2   3
HETATM    3  O1  UNL     1      -0.563  -1.418   0.296  1.00  0.00    -0.355 OA
ATOM      4  H1  UNL     1       0.142  -2.054   0.262  1.00  0.00     0.218 HD
ENDBRANCH   2   3
BRANCH   2   5
HETATM    5  C3  UNL     1       1.075   0.314  -0.369  1.00  0.00     0.232 C 
HETATM    6  O2  UNL     1       1.313   1.509  -0.638  1.00  0.00    -0.642 OA
HETATM    7  O3  UNL     1       2.085  -0.609  -0.416  1.00  0.00    -0.642 OA
ENDBRANCH   2   5
TORSDOF 2
