REMARK  4 active torsions:
REMARK  status: ('A' for Active; 'I' for Inactive)
REMARK    1  A    between atoms: N1_1  and  C1_4 
REMARK    2  A    between atoms: C2_7  and  S1_8 
REMARK    3  A    between atoms: S1_8  and  C3_10 
REMARK    4  A    between atoms: C4_15  and  N5_16 
ROOT
HETATM    1  S1  UNL     1      -0.037   1.247   1.521  1.00  0.00     0.146 S 
HETATM    2  O1  UNL     1       0.074   0.859   3.150  1.00  0.00    -0.242 OA
ENDROOT
BRANCH   1   3
HETATM    3  C2  UNL     1      -1.481   0.607   0.799  1.00  0.00     0.211 A 
HETATM    4  N2  UNL     1      -2.690   1.182   0.696  1.00  0.00    -0.165 N 
HETATM    5  C1  UNL     1      -3.504   0.322   0.064  1.00  0.00     0.692 A 
ATOM      6  H2  UNL     1      -2.945   2.109   1.038  1.00  0.00     0.186 HD
HETATM    7  N7  UNL     1      -2.802  -0.806  -0.235  1.00  0.00    -0.130 N 
HETATM    8  N6  UNL     1      -1.561  -0.611   0.224  1.00  0.00    -0.263 N 
ATOM      9  H7  UNL     1      -3.153  -1.635  -0.714  1.00  0.00     0.205 HD
ATOM     10  H6  UNL     1      -0.794  -1.279   0.151  1.00  0.00     0.189 HD
BRANCH   5  11
HETATM   11  N1  UNL     1      -4.744   0.493  -0.231  1.00  0.00    -0.233 N 
ATOM     12  H12 UNL     1      -5.270   1.338  -0.007  1.00  0.00     0.174 HD
ATOM     13  H11 UNL     1      -5.363  -0.161  -0.711  1.00  0.00     0.174 HD
ENDBRANCH   5  11
ENDBRANCH   1   3
BRANCH   1  14
HETATM   14  C3  UNL     1       1.415   0.624   0.724  1.00  0.00     0.168 A 
HETATM   15  N3  UNL     1       2.127  -0.440   0.982  1.00  0.00    -0.284 N 
HETATM   16  N4  UNL     1       3.154  -0.738   0.295  1.00  0.00    -0.279 N 
ATOM     17  H3  UNL     1       1.852  -1.047   1.754  1.00  0.00     0.188 HD
HETATM   18  C4  UNL     1       3.499   0.070  -0.713  1.00  0.00     0.159 A 
ATOM     19  H4  UNL     1       3.701  -1.572   0.507  1.00  0.00     0.189 HD
HETATM   20  S2  UNL     1       2.284   1.267  -0.625  1.00  0.00    -0.024 SA
BRANCH  18  21
HETATM   21  N5  UNL     1       4.506  -0.042  -1.541  1.00  0.00    -0.379 N 
ATOM     22  H52 UNL     1       5.232  -0.757  -1.594  1.00  0.00     0.158 HD
ATOM     23  H51 UNL     1       4.769   0.574  -2.310  1.00  0.00     0.158 HD
ENDBRANCH  18  21
ENDBRANCH   1  14
TORSDOF 4
