REMARK  6 active torsions:
REMARK  status: ('A' for Active; 'I' for Inactive)
REMARK    1  A    between atoms: C2_2  and  O1_3 
REMARK    2  A    between atoms: C4_7  and  N1_8 
REMARK    3  A    between atoms: N1_8  and  N2_9 
REMARK       I    between atoms: N2_9  and  C5_11 
REMARK       I    between atoms: C5_11  and  N3_13 
REMARK    4  A    between atoms: N3_13  and  C6_15 
REMARK    5  A    between atoms: C6_15  and  O4_16 
REMARK    6  A    between atoms: N4_18  and  O5_20 
ROOT
HETATM    1  N2  UNL     1       0.927  -0.450   0.296  1.00  0.00    -0.253 N 
ATOM      2  H2  UNL     1       0.944  -0.218   1.289  1.00  0.00     0.187 HD
HETATM    3  C5  UNL     1       2.141  -0.380  -0.411  1.00  0.00     0.339 C 
HETATM    4  O3  UNL     1       2.228  -0.642  -1.625  1.00  0.00    -0.245 OA
HETATM    5  N3  UNL     1       3.317   0.003   0.275  1.00  0.00    -0.272 N 
ATOM      6  H3  UNL     1       3.255   0.217   1.270  1.00  0.00     0.174 HD
ENDROOT
BRANCH   1   7
HETATM    7  N1  UNL     1      -0.297  -0.813  -0.263  1.00  0.00    -0.105 NA
BRANCH   7   8
HETATM    8  C4  UNL     1      -1.078   0.365  -0.612  1.00  0.00     0.237 C 
HETATM    9  O2  UNL     1      -1.204   1.120   0.550  1.00  0.00    -0.365 OA
HETATM   10  C3  UNL     1      -2.107   0.449   1.350  1.00  0.00     0.207 C 
HETATM   11  C2  UNL     1      -3.106  -0.191   0.427  1.00  0.00     0.079 C 
HETATM   12  C1  UNL     1      -4.466   0.475   0.525  1.00  0.00     0.048 C 
HETATM   13  C7  UNL     1      -2.504   0.021  -0.935  1.00  0.00     0.090 C 
BRANCH  11  14
HETATM   14  O1  UNL     1      -3.226  -1.543   0.714  1.00  0.00    -0.388 OA
ATOM     15  H1  UNL     1      -2.375  -1.960   0.653  1.00  0.00     0.210 HD
ENDBRANCH  11  14
ENDBRANCH   7   8
ENDBRANCH   1   7
BRANCH   5  16
HETATM   16  C6  UNL     1       4.601   0.103  -0.376  1.00  0.00     0.245 C 
HETATM   17  N4  UNL     1       5.585   0.467   0.356  1.00  0.00    -0.233 N 
ATOM     18  H4  UNL     1       5.383   0.659   1.337  1.00  0.00     0.198 HD
BRANCH  16  19
HETATM   19  O4  UNL     1       4.778  -0.174  -1.718  1.00  0.00    -0.331 OA
ATOM     20  H4  UNL     1       5.623  -0.108  -2.147  1.00  0.00     0.221 HD
ENDBRANCH  16  19
BRANCH  17  21
HETATM   21  O5  UNL     1       6.868   0.622  -0.045  1.00  0.00    -0.287 OA
ATOM     22  H5  UNL     1       7.599   0.892   0.499  1.00  0.00     0.244 HD
ENDBRANCH  17  21
ENDBRANCH   5  16
TORSDOF 6
