REMARK  5 active torsions:
REMARK  status: ('A' for Active; 'I' for Inactive)
REMARK    1  A    between atoms: C8_9  and  C9_10 
REMARK    2  A    between atoms: C12_16  and  C13_17 
REMARK    3  A    between atoms: C13_17  and  N3_18 
REMARK    4  A    between atoms: C16_21  and  C17_22 
REMARK    5  A    between atoms: C17_22  and  C18_23 
ROOT
HETATM    1  C9  UNL     1      -2.082  -0.443   0.341  1.00  0.00     0.045 C 
HETATM    2  C10 UNL     1      -1.677  -0.694   1.765  1.00  0.00     0.239 C 
HETATM    3  N2  UNL     1      -0.282  -0.931   1.889  1.00  0.00    -0.074 N 
ATOM      4  H21 UNL     1      -0.066  -1.389   2.774  1.00  0.00     0.277 HD
ATOM      5  H22 UNL     1       0.227  -0.058   2.027  1.00  0.00     0.277 HD
HETATM    6  C11 UNL     1       0.262  -1.682   0.764  1.00  0.00     0.238 C 
HETATM    7  C12 UNL     1       0.148  -0.963  -0.512  1.00  0.00     0.040 C 
HETATM    8  C21 UNL     1      -0.958   0.135  -0.425  1.00  0.00     0.016 C 
ENDROOT
BRANCH   7   9
HETATM    9  C13 UNL     1       1.333  -0.432  -1.200  1.00  0.00     0.278 C 
BRANCH   9  10
HETATM   10  N3  UNL     1       2.164   0.540  -0.614  1.00  0.00     0.088 N 
HETATM   11  C14 UNL     1       3.067   1.103  -1.632  1.00  0.00     0.272 C 
HETATM   12  C15 UNL     1       4.514   0.933  -1.324  1.00  0.00     0.035 C 
HETATM   13  C16 UNL     1       4.781  -0.518  -0.988  1.00  0.00    -0.004 C 
HETATM   14  C19 UNL     1       4.033  -0.836   0.258  1.00  0.00     0.035 C 
HETATM   15  C20 UNL     1       2.963   0.211   0.511  1.00  0.00     0.272 C 
BRANCH  13  16
HETATM   16  C17 UNL     1       6.266  -0.802  -0.916  1.00  0.00     0.084 C 
BRANCH  16  17
HETATM   17  C18 UNL     1       6.975  -0.009   0.095  1.00  0.00     0.113 A 
HETATM   18  N4  UNL     1       7.533   1.196  -0.115  1.00  0.00    -0.272 N 
HETATM   19  N5  UNL     1       8.081   1.609   1.011  1.00  0.00    -0.227 N 
ATOM     20  H4  UNL     1       7.533   1.706  -0.998  1.00  0.00     0.190 HD
HETATM   21  N6  UNL     1       7.878   0.686   1.926  1.00  0.00    -0.227 N 
ATOM     22  H5  UNL     1       8.576   2.490   1.148  1.00  0.00     0.210 HD
HETATM   23  N7  UNL     1       7.206  -0.305   1.385  1.00  0.00    -0.272 N 
ATOM     24  H6  UNL     1       8.191   0.732   2.896  1.00  0.00     0.210 HD
ATOM     25  H7  UNL     1       6.910  -1.156   1.864  1.00  0.00     0.190 HD
ENDBRANCH  16  17
ENDBRANCH  13  16
ENDBRANCH   9  10
ENDBRANCH   7   9
BRANCH   1  26
HETATM   26  C8  UNL     1      -3.356   0.373   0.264  1.00  0.00     0.232 C 
HETATM   27  N1  UNL     1      -3.801   0.680  -1.052  1.00  0.00     0.094 N 
HETATM   28  C1  UNL     1      -3.599   2.103  -1.380  1.00  0.00     0.310 C 
HETATM   29  C2  UNL     1      -5.256   0.500  -1.187  1.00  0.00     0.223 C 
HETATM   30  C3  UNL     1      -5.530  -0.982  -1.116  1.00  0.00     0.036 C 
HETATM   31  C7  UNL     1      -6.023   1.199  -0.094  1.00  0.00     0.036 C 
HETATM   32  C4  UNL     1      -5.104  -1.434   0.266  1.00  0.00     0.009 C 
HETATM   33  C5  UNL     1      -4.468  -0.279   1.053  1.00  0.00     0.019 C 
HETATM   34  C6  UNL     1      -5.528   0.783   1.273  1.00  0.00     0.009 C 
ENDBRANCH   1  26
TORSDOF 5
