REMARK  4 active torsions:
REMARK  status: ('A' for Active; 'I' for Inactive)
REMARK    1  A    between atoms: O1_3  and  C2_4 
REMARK    2  A    between atoms: C3_5  and  O2_6 
REMARK    3  A    between atoms: C4_8  and  O3_9 
REMARK    4  A    between atoms: C7_13  and  N2_14 
ROOT
HETATM    1  N1  UNL     1      -0.084  -3.108   2.371  1.00  0.00    -0.164 NA
HETATM    2  C1  UNL     1      -0.185  -2.573   1.330  1.00  0.00     0.229 C 
HETATM    3  O1  UNL     1      -0.320  -1.960   0.117  1.00  0.00    -0.273 OA
ENDROOT
BRANCH   3   4
HETATM    4  C2  UNL     1      -0.648  -0.616   0.003  1.00  0.00     0.202 C 
HETATM    5  C3  UNL     1      -1.975  -0.403  -0.723  1.00  0.00     0.183 C 
HETATM    6  C4  UNL     1      -2.480   0.961  -0.240  1.00  0.00     0.172 C 
HETATM    7  C5  UNL     1      -1.401   1.936  -0.554  1.00  0.00     0.005 C 
HETATM    8  C6  UNL     1      -0.150   1.613  -0.758  1.00  0.00     0.001 C 
HETATM    9  C7  UNL     1       0.379   0.215  -0.707  1.00  0.00     0.163 C 
BRANCH   5  10
HETATM   10  O2  UNL     1      -2.904  -1.367  -0.402  1.00  0.00    -0.390 OA
ATOM     11  H2  UNL     1      -3.729  -1.235  -0.854  1.00  0.00     0.210 HD
ENDBRANCH   5  10
BRANCH   6  12
HETATM   12  O3  UNL     1      -2.537   0.866   1.156  1.00  0.00    -0.389 OA
ATOM     13  H3  UNL     1      -2.850   1.712   1.455  1.00  0.00     0.210 HD
ENDBRANCH   6  12
BRANCH   9  14
HETATM   14  N2  UNL     1       1.677   0.179  -0.094  1.00  0.00    -0.293 N 
HETATM   15  C8  UNL     1       2.672  -0.652  -0.503  1.00  0.00     0.112 A 
HETATM   16  C9  UNL     1       3.757  -0.419   0.297  1.00  0.00     0.037 A 
HETATM   17  C10 UNL     1       3.370   0.566   1.180  1.00  0.00     0.108 A 
HETATM   18  N3  UNL     1       2.100   0.910   0.917  1.00  0.00    -0.309 N 
ATOM     19  H3  UNL     1       1.556   1.615   1.414  1.00  0.00     0.186 HD
ENDBRANCH   9  14
ENDBRANCH   3   4
TORSDOF 4
