REMARK  4 active torsions:
REMARK  status: ('A' for Active; 'I' for Inactive)
REMARK    1  A    between atoms: O1_2  and  C2_3 
REMARK    2  A    between atoms: C3_4  and  O2_5 
REMARK    3  A    between atoms: C8_13  and  O5_14 
REMARK    4  A    between atoms: C8_13  and  O6_16 
ROOT
HETATM    1  C2  UNL     1      -0.380   0.820  -0.169  1.00  0.00     0.214 C 
HETATM    2  C3  UNL     1       1.085   0.904  -0.375  1.00  0.00     0.184 C 
HETATM    3  C4  UNL     1       1.918  -0.297  -0.225  1.00  0.00     0.184 C 
HETATM    4  O3  UNL     1       2.789  -0.235   0.893  1.00  0.00    -0.356 OA
HETATM    5  C5  UNL     1       3.307  -1.530   0.835  1.00  0.00     0.339 C 
HETATM    6  O4  UNL     1       2.208  -2.359   0.647  1.00  0.00    -0.359 OA
HETATM    7  C6  UNL     1       1.230  -1.585   0.024  1.00  0.00     0.161 C 
HETATM    8  C7  UNL     1       0.141  -1.326   1.031  1.00  0.00     0.106 C 
HETATM    9  C8  UNL     1      -0.917  -0.438   0.401  1.00  0.00     0.192 C 
ENDROOT
BRANCH   9  10
HETATM   10  O5  UNL     1      -1.824  -0.221   1.469  1.00  0.00    -0.363 OA
ATOM     11  H5  UNL     1      -2.168  -1.028   1.834  1.00  0.00     0.213 HD
ENDBRANCH   9  10
BRANCH   9  12
HETATM   12  O6  UNL     1      -1.585  -1.259  -0.495  1.00  0.00    -0.358 OA
HETATM   13  C9  UNL     1      -2.745  -0.785  -1.015  1.00  0.00     0.205 C 
ENDBRANCH   9  12
BRANCH   1  14
HETATM   14  O1  UNL     1      -0.882   1.869   0.635  1.00  0.00    -0.383 OA
HETATM   15  C1  UNL     1      -1.744   2.703   0.014  1.00  0.00     0.202 C 
ENDBRANCH   1  14
BRANCH   2  16
HETATM   16  O2  UNL     1       1.358   1.429  -1.664  1.00  0.00    -0.390 OA
ATOM     17  H2  UNL     1       2.297   1.483  -1.796  1.00  0.00     0.210 HD
ENDBRANCH   2  16
TORSDOF 4
