REMARK  9 active torsions:
REMARK  status: ('A' for Active; 'I' for Inactive)
REMARK    1  A    between atoms: C2_2  and  C3_3 
REMARK    2  A    between atoms: C3_3  and  C4_4 
REMARK    3  A    between atoms: C4_4  and  C5_5 
REMARK    4  A    between atoms: C5_5  and  C6_6 
REMARK    5  A    between atoms: C6_6  and  C7_7 
REMARK    6  A    between atoms: C7_7  and  O1_8 
REMARK    7  A    between atoms: O1_8  and  C8_9 
REMARK    8  A    between atoms: N2_14  and  C11_15 
REMARK    9  A    between atoms: C14_23  and  N5_24 
ROOT
HETATM    1  C11 UNL     1      -2.326  -1.032   0.044  1.00  0.00     0.087 C 
HETATM    2  N3  UNL     1      -2.618   0.060  -0.580  1.00  0.00    -0.343 N 
ATOM      3  H3  UNL     1      -1.993   0.513  -1.246  1.00  0.00     0.163 HD
HETATM    4  C12 UNL     1      -3.917   0.569  -0.236  1.00  0.00     0.258 C 
HETATM    5  C13 UNL     1      -5.012   0.145  -1.159  1.00  0.00     0.301 C 
HETATM    6  N4  UNL     1      -6.081   1.084  -0.800  1.00  0.00    -0.018 N 
ATOM      7  H41 UNL     1      -6.672   0.773  -0.029  1.00  0.00     0.281 HD
ATOM      8  H42 UNL     1      -6.829   1.153  -1.490  1.00  0.00     0.281 HD
HETATM    9  C14 UNL     1      -5.391   2.313  -0.554  1.00  0.00     0.580 C 
HETATM   10  N6  UNL     1      -4.018   1.990  -0.209  1.00  0.00     0.010 N 
ATOM     11  H61 UNL     1      -3.332   2.455  -0.804  1.00  0.00     0.285 HD
ATOM     12  H62 UNL     1      -3.717   2.399   0.675  1.00  0.00     0.285 HD
HETATM   13  C15 UNL     1      -4.135  -0.060   1.153  1.00  0.00     0.235 C 
HETATM   14  F1  UNL     1      -3.402   0.598   2.103  1.00  0.00    -0.244 F 
HETATM   15  C16 UNL     1      -3.472  -1.393   0.909  1.00  0.00     0.118 C 
ENDROOT
BRANCH   1  16
HETATM   16  N2  UNL     1      -1.130  -1.800  -0.055  1.00  0.00    -0.301 N 
HETATM   17  C8  UNL     1       0.074  -1.607   0.654  1.00  0.00     0.223 A 
HETATM   18  N1  UNL     1       0.954  -2.497   0.298  1.00  0.00    -0.354 N 
HETATM   19  C9  UNL     1       0.446  -3.398  -0.695  1.00  0.00     0.143 A 
ATOM     20  H1  UNL     1       1.898  -2.548   0.682  1.00  0.00     0.163 HD
HETATM   21  C10 UNL     1      -0.974  -2.930  -0.931  1.00  0.00     0.153 A 
BRANCH  17  22
HETATM   22  O1  UNL     1       0.376  -0.636   1.614  1.00  0.00    -0.322 OA
BRANCH  22  23
HETATM   23  C7  UNL     1       1.710  -0.140   1.717  1.00  0.00     0.178 C 
BRANCH  23  24
HETATM   24  C6  UNL     1       2.064   0.476   0.406  1.00  0.00     0.027 C 
BRANCH  24  25
HETATM   25  C5  UNL     1       3.466   1.044   0.385  1.00  0.00     0.002 C 
BRANCH  25  26
HETATM   26  C4  UNL     1       4.506  -0.001   0.651  1.00  0.00     0.000 C 
BRANCH  26  27
HETATM   27  C3  UNL     1       5.875   0.631   0.621  1.00  0.00    -0.000 C 
BRANCH  27  28
HETATM   28  C2  UNL     1       6.178   1.269  -0.728  1.00  0.00    -0.005 C 
HETATM   29  C1  UNL     1       6.132   0.261  -1.848  1.00  0.00     0.005 C 
ENDBRANCH  27  28
ENDBRANCH  26  27
ENDBRANCH  25  26
ENDBRANCH  24  25
ENDBRANCH  23  24
ENDBRANCH  22  23
ENDBRANCH  17  22
ENDBRANCH   1  16
BRANCH   9  30
HETATM   30  N5  UNL     1      -5.942   3.058   0.560  1.00  0.00    -0.026 N 
ATOM     31  H53 UNL     1      -6.941   3.220   0.431  1.00  0.00     0.278 HD
ATOM     32  H52 UNL     1      -5.974   2.483   1.402  1.00  0.00     0.278 HD
ATOM     33  H51 UNL     1      -5.450   3.934   0.735  1.00  0.00     0.278 HD
ENDBRANCH   9  30
TORSDOF 9
