REMARK  9 active torsions:
REMARK  status: ('A' for Active; 'I' for Inactive)
REMARK    1  A    between atoms: C2_3  and  C3_4 
REMARK    2  A    between atoms: C3_4  and  O2_5 
REMARK    3  A    between atoms: C4_7  and  N1_8 
REMARK    4  A    between atoms: C5_9  and  C6_10 
REMARK    5  A    between atoms: C6_10  and  O3_11 
REMARK    6  A    between atoms: C6_10  and  N2_13 
REMARK    7  A    between atoms: N3_16  and  C9_17 
REMARK    8  A    between atoms: C9_17  and  C10_18 
REMARK    9  A    between atoms: C10_18  and  O4_19 
ROOT
HETATM    1  N1  UNL     1       2.753  -0.361   1.074  1.00  0.00    -0.318 N 
HETATM    2  C5  UNL     1       1.525  -0.787   0.838  1.00  0.00     0.069 A 
HETATM    3  C13 UNL     1       0.921  -1.522   1.820  1.00  0.00     0.082 A 
HETATM    4  S1  UNL     1       2.116  -1.578   3.034  1.00  0.00    -0.070 SA
HETATM    5  C14 UNL     1       3.313  -0.668   2.233  1.00  0.00     0.146 A 
HETATM    6  S2  UNL     1       4.827  -0.250   2.778  1.00  0.00    -0.052 SA
ENDROOT
BRANCH   2   7
HETATM    7  C6  UNL     1       0.760  -0.502  -0.450  1.00  0.00     0.271 C 
BRANCH   7   8
HETATM    8  O3  UNL     1       1.017   0.815  -0.849  1.00  0.00    -0.371 OA
ATOM      9  H3  UNL     1       0.540   0.993  -1.651  1.00  0.00     0.212 HD
ENDBRANCH   7   8
BRANCH   7  10
HETATM   10  N2  UNL     1      -0.641  -0.618  -0.248  1.00  0.00    -0.356 N 
HETATM   11  C7  UNL     1      -1.261   0.322   0.615  1.00  0.00     0.145 C 
HETATM   12  C8  UNL     1      -2.625  -0.282   0.994  1.00  0.00     0.142 C 
HETATM   13  N3  UNL     1      -3.410  -0.247  -0.178  1.00  0.00    -0.385 N 
HETATM   14  C11 UNL     1      -2.805  -0.555  -1.408  1.00  0.00     0.102 C 
HETATM   15  C12 UNL     1      -1.399  -1.059  -1.349  1.00  0.00     0.105 C 
BRANCH  13  16
HETATM   16  C9  UNL     1      -4.806  -0.471  -0.044  1.00  0.00     0.148 C 
BRANCH  16  17
HETATM   17  C10 UNL     1      -5.399   0.728   0.702  1.00  0.00     0.183 C 
BRANCH  17  18
HETATM   18  O4  UNL     1      -6.766   0.505   0.826  1.00  0.00    -0.399 OA
ATOM     19  H4  UNL     1      -7.134   1.249   1.289  1.00  0.00     0.209 HD
ENDBRANCH  17  18
ENDBRANCH  16  17
ENDBRANCH  13  16
ENDBRANCH   7  10
ENDBRANCH   2   7
BRANCH   1  20
HETATM   20  C4  UNL     1       3.521   0.441   0.080  1.00  0.00     0.174 A 
HETATM   21  C1  UNL     1       3.933  -0.160  -1.173  1.00  0.00     0.159 A 
HETATM   22  O1  UNL     1       3.727  -0.606  -2.281  1.00  0.00    -0.295 OA
HETATM   23  C2  UNL     1       4.957   0.131  -0.148  1.00  0.00     0.112 A 
BRANCH  23  24
HETATM   24  C3  UNL     1       5.921   1.289  -0.339  1.00  0.00     0.179 C 
BRANCH  24  25
HETATM   25  O2  UNL     1       5.192   2.471  -0.443  1.00  0.00    -0.400 OA
ATOM     26  H2  UNL     1       5.795   3.195  -0.562  1.00  0.00     0.209 HD
ENDBRANCH  24  25
ENDBRANCH  23  24
ENDBRANCH   1  20
TORSDOF 9
