REMARK  10 active torsions:
REMARK  status: ('A' for Active; 'I' for Inactive)
REMARK    1  A    between atoms: C2_2  and  C3_3 
REMARK    2  A    between atoms: C3_3  and  S1_4 
REMARK    3  A    between atoms: S1_4  and  C4_5 
REMARK    4  A    between atoms: C4_5  and  C5_6 
REMARK    5  A    between atoms: N1_8  and  C7_9 
REMARK    6  A    between atoms: C8_11  and  C9_12 
REMARK    7  A    between atoms: C9_12  and  O2_13 
REMARK    8  A    between atoms: C10_15  and  O3_16 
REMARK    9  A    between atoms: C11_18  and  C12_19 
REMARK   10  A    between atoms: C13_22  and  O4_23 
ROOT
HETATM    1  C7  UNL     1      -1.147  -0.528  -0.787  1.00  0.00     0.274 C 
HETATM    2  O1  UNL     1      -1.535  -0.629   0.547  1.00  0.00    -0.352 OA
HETATM    3  C8  UNL     1      -2.881  -0.950   0.575  1.00  0.00     0.177 C 
HETATM    4  C10 UNL     1      -3.700  -0.295  -0.481  1.00  0.00     0.158 C 
HETATM    5  C11 UNL     1      -3.088   0.864  -1.167  1.00  0.00     0.083 C 
HETATM    6  C13 UNL     1      -1.578   0.851  -1.233  1.00  0.00     0.177 C 
ENDROOT
BRANCH   1   7
HETATM    7  N1  UNL     1       0.227  -0.807  -1.009  1.00  0.00    -0.255 N 
HETATM    8  C6  UNL     1       0.990  -1.616  -0.260  1.00  0.00     0.142 A 
HETATM    9  C5  UNL     1       2.296  -1.664  -0.762  1.00  0.00     0.053 A 
HETATM   10  N3  UNL     1       2.233  -0.839  -1.835  1.00  0.00    -0.288 N 
HETATM   11  N2  UNL     1       1.017  -0.350  -1.959  1.00  0.00    -0.238 N 
ATOM     12  H3  UNL     1       3.014  -0.628  -2.456  1.00  0.00     0.188 HD
ATOM     13  H2  UNL     1       0.726   0.296  -2.692  1.00  0.00     0.208 HD
BRANCH   9  14
HETATM   14  C4  UNL     1       3.378  -2.489  -0.221  1.00  0.00     0.134 C 
BRANCH  14  15
HETATM   15  S1  UNL     1       4.204  -1.827   1.192  1.00  0.00    -0.163 SA
BRANCH  15  16
HETATM   16  C3  UNL     1       5.211  -0.398   0.997  1.00  0.00     0.074 C 
BRANCH  16  17
HETATM   17  C2  UNL     1       4.444   0.854   0.748  1.00  0.00     0.006 C 
HETATM   18  C1  UNL     1       5.461   1.993   0.619  1.00  0.00     0.006 C 
ENDBRANCH  16  17
ENDBRANCH  15  16
ENDBRANCH  14  15
ENDBRANCH   9  14
ENDBRANCH   1   7
BRANCH   6  19
HETATM   19  O4  UNL     1      -1.078   1.833  -0.356  1.00  0.00    -0.391 OA
ATOM     20  H4  UNL     1      -1.349   2.699  -0.636  1.00  0.00     0.210 HD
ENDBRANCH   6  19
BRANCH   3  21
HETATM   21  C9  UNL     1      -3.455  -0.826   1.974  1.00  0.00     0.198 C 
BRANCH  21  22
HETATM   22  O2  UNL     1      -3.358   0.428   2.517  1.00  0.00    -0.398 OA
ATOM     23  H2  UNL     1      -3.717   0.506   3.393  1.00  0.00     0.209 HD
ENDBRANCH  21  22
ENDBRANCH   3  21
BRANCH   5  24
HETATM   24  C12 UNL     1      -3.615   2.219  -0.700  1.00  0.00     0.187 C 
HETATM   25 CL1  UNL     1      -2.793   3.511  -1.605  1.00  0.00    -0.108 Cl
HETATM   26 CL2  UNL     1      -5.346   2.292  -1.186  1.00  0.00    -0.108 Cl
ENDBRANCH   5  24
BRANCH   4  27
HETATM   27  O3  UNL     1      -4.878   0.167   0.156  1.00  0.00    -0.392 OA
ATOM     28  H3  UNL     1      -5.401   0.585  -0.518  1.00  0.00     0.210 HD
ENDBRANCH   4  27
TORSDOF 10
