REMARK  8 active torsions:
REMARK  status: ('A' for Active; 'I' for Inactive)
REMARK    1  A    between atoms: C3_4  and  C4_5 
REMARK    2  A    between atoms: C4_5  and  S1_6 
REMARK    3  A    between atoms: S1_6  and  C5_7 
REMARK    4  A    between atoms: C5_7  and  C6_8 
REMARK    5  A    between atoms: C8_11  and  O2_12 
REMARK    6  A    between atoms: C9_14  and  O3_15 
REMARK    7  A    between atoms: C10_18  and  N1_19 
REMARK    8  A    between atoms: C12_23  and  C13_24 
ROOT
HETATM    1  C1  UNL     1       1.095  -1.282   1.347  1.00  0.00     0.059 C 
HETATM    2  C2  UNL     1       1.510  -0.092   0.508  1.00  0.00     0.170 C 
HETATM    3  F1  UNL     1       1.990   0.964   1.215  1.00  0.00    -0.236 F 
HETATM    4  C3  UNL     1       0.403   0.395  -0.425  1.00  0.00     0.177 C 
HETATM    5  O4  UNL     1       1.417   0.709  -1.337  1.00  0.00    -0.353 OA
HETATM    6  C10 UNL     1       2.104  -0.406  -0.813  1.00  0.00     0.270 C 
ENDROOT
BRANCH   4   7
HETATM    7  C4  UNL     1      -0.279   1.611   0.167  1.00  0.00     0.109 C 
BRANCH   7   8
HETATM    8  S1  UNL     1      -1.603   2.250  -0.874  1.00  0.00    -0.164 SA
BRANCH   8   9
HETATM    9  C5  UNL     1      -2.991   1.116  -1.007  1.00  0.00     0.108 C 
BRANCH   9  10
HETATM   10  C6  UNL     1      -3.741   0.902   0.270  1.00  0.00     0.162 C 
HETATM   11  O1  UNL     1      -2.987   0.382   1.294  1.00  0.00    -0.380 OA
HETATM   12  C7  UNL     1      -3.829  -0.328   2.126  1.00  0.00     0.202 C 
HETATM   13  C8  UNL     1      -4.927  -0.902   1.261  1.00  0.00     0.173 C 
HETATM   14  C9  UNL     1      -4.848  -0.079   0.019  1.00  0.00     0.178 C 
BRANCH  13  15
HETATM   15  O2  UNL     1      -4.685  -2.250   1.021  1.00  0.00    -0.391 OA
ATOM     16  H2  UNL     1      -5.375  -2.611   0.477  1.00  0.00     0.210 HD
ENDBRANCH  13  15
BRANCH  14  17
HETATM   17  O3  UNL     1      -4.620  -0.821  -1.135  1.00  0.00    -0.390 OA
ATOM     18  H3  UNL     1      -5.321  -1.442  -1.294  1.00  0.00     0.210 HD
ENDBRANCH  14  17
ENDBRANCH   9  10
ENDBRANCH   8   9
ENDBRANCH   7   8
ENDBRANCH   4   7
BRANCH   6  19
HETATM   19  N1  UNL     1       3.502  -0.417  -0.995  1.00  0.00    -0.320 N 
HETATM   20  C11 UNL     1       4.111  -1.107  -2.006  1.00  0.00     0.185 A 
HETATM   21  N2  UNL     1       5.440  -0.927  -1.920  1.00  0.00    -0.346 N 
HETATM   22  C12 UNL     1       5.714  -0.133  -0.872  1.00  0.00     0.126 A 
ATOM     23  H2  UNL     1       6.132  -1.330  -2.552  1.00  0.00     0.167 HD
HETATM   24  C14 UNL     1       4.480   0.174  -0.306  1.00  0.00     0.131 A 
BRANCH  22  25
HETATM   25  C13 UNL     1       7.015   0.332  -0.394  1.00  0.00     0.228 C 
HETATM   26  O5  UNL     1       7.070   1.076   0.612  1.00  0.00    -0.643 OA
HETATM   27  O6  UNL     1       8.179  -0.045  -1.047  1.00  0.00    -0.643 OA
ENDBRANCH  22  25
ENDBRANCH   6  19
TORSDOF 8
