REMARK  0 active torsions:
REMARK  status: ('A' for Active; 'I' for Inactive)
ROOT
HETATM    1  C1  UNL     1      -0.976   1.008   0.487  1.00  0.00     0.082 C 
HETATM    2  N1  UNL     1       0.233   1.338   0.678  1.00  0.00    -0.399 N 
ATOM      3  H1  UNL     1       0.434   2.195   1.193  1.00  0.00     0.158 HD
HETATM    4  C2  UNL     1       1.326   0.550   0.196  1.00  0.00     0.146 C 
HETATM    5  C3  UNL     1       0.864  -0.897   0.203  1.00  0.00     0.252 C 
HETATM    6  N2  UNL     1      -0.237  -0.941  -0.766  1.00  0.00    -0.069 N 
ATOM      7  H21 UNL     1      -0.479  -1.897  -1.028  1.00  0.00     0.277 HD
ATOM      8  H22 UNL     1       0.048  -0.603  -1.685  1.00  0.00     0.277 HD
HETATM    9  C4  UNL     1      -1.382  -0.210  -0.245  1.00  0.00     0.276 C 
ENDROOT
TORSDOF 0
