REMARK  2 active torsions:
REMARK  status: ('A' for Active; 'I' for Inactive)
REMARK    1  A    between atoms: O1_1  and  C1_3 
REMARK    2  A    between atoms: C1_3  and  C2_5 
ROOT
HETATM    1  C2  UNL     1       0.765   0.165   0.273  1.00  0.00     0.100 C 
HETATM    2  C3  UNL     1       0.434  -1.198   0.783  1.00  0.00     0.092 C 
HETATM    3  S1  UNL     1      -1.224  -1.747   0.357  1.00  0.00    -0.167 SA
HETATM    4  C4  UNL     1      -2.385  -0.374   0.186  1.00  0.00     0.084 C 
HETATM    5  C5  UNL     1      -1.957   0.620  -0.866  1.00  0.00     0.084 C 
HETATM    6  S2  UNL     1      -0.196   0.501  -1.203  1.00  0.00    -0.159 SA
ENDROOT
BRANCH   1   7
HETATM    7  C1  UNL     1       2.242   0.275  -0.063  1.00  0.00     0.228 C 
HETATM    8 CL1  UNL     1       3.240  -0.042   1.390  1.00  0.00    -0.094 Cl
BRANCH   7   9
HETATM    9  O1  UNL     1       2.591   1.513  -0.536  1.00  0.00    -0.379 OA
ATOM     10  H1  UNL     1       2.062   1.681  -1.307  1.00  0.00     0.211 HD
ENDBRANCH   7   9
ENDBRANCH   1   7
TORSDOF 2
