REMARK  6 active torsions:
REMARK  status: ('A' for Active; 'I' for Inactive)
REMARK    1  A    between atoms: C3_6  and  C4_7 
REMARK    2  A    between atoms: C4_7  and  C5_8 
REMARK    3  A    between atoms: C5_8  and  C6_9 
REMARK    4  A    between atoms: C6_9  and  C7_10 
REMARK    5  A    between atoms: C7_10  and  N2_11 
REMARK    6  A    between atoms: N3_14  and  C10_15 
ROOT
HETATM    1  C6  UNL     1       0.877  -0.200   0.311  1.00  0.00     0.020 C 
ENDROOT
BRANCH   1   2
HETATM    2  C5  UNL     1       2.268   0.440   0.372  1.00  0.00     0.004 C 
BRANCH   2   3
HETATM    3  C4  UNL     1       3.228  -0.287  -0.537  1.00  0.00     0.027 C 
BRANCH   3   4
HETATM    4  C3  UNL     1       4.571   0.378  -0.447  1.00  0.00     0.104 C 
HETATM    5  C2  UNL     1       5.596  -0.291  -1.343  1.00  0.00     0.149 C 
HETATM    6  N1  UNL     1       6.781  -0.282  -0.540  1.00  0.00    -0.341 N 
HETATM    7  C1  UNL     1       6.487   0.156   0.774  1.00  0.00     0.316 C 
ATOM      8  H1  UNL     1       7.708  -0.553  -0.869  1.00  0.00     0.164 HD
HETATM    9  O1  UNL     1       7.335   0.428   1.664  1.00  0.00    -0.247 OA
HETATM   10  N4  UNL     1       5.076   0.228   0.888  1.00  0.00    -0.337 N 
ATOM     11  H4  UNL     1       4.529   0.182   1.747  1.00  0.00     0.164 HD
ENDBRANCH   3   4
ENDBRANCH   2   3
ENDBRANCH   1   2
BRANCH   1  12
HETATM   12  C7  UNL     1       0.004   0.599   1.250  1.00  0.00     0.127 C 
BRANCH  12  13
HETATM   13  N2  UNL     1      -1.344   0.063   1.260  1.00  0.00    -0.333 N 
HETATM   14  C8  UNL     1      -1.940  -0.947   2.085  1.00  0.00     0.147 C 
HETATM   15  C9  UNL     1      -3.002  -1.528   1.162  1.00  0.00     0.148 C 
HETATM   16  N3  UNL     1      -3.399  -0.433   0.291  1.00  0.00    -0.328 N 
HETATM   17  C14 UNL     1      -2.357   0.509   0.367  1.00  0.00     0.321 C 
HETATM   18  O2  UNL     1      -2.350   1.592  -0.281  1.00  0.00    -0.247 OA
BRANCH  16  19
HETATM   19  C10 UNL     1      -4.620  -0.424  -0.441  1.00  0.00     0.089 C 
HETATM   20  C11 UNL     1      -4.611   0.063  -1.846  1.00  0.00     0.025 C 
HETATM   21  C12 UNL     1      -5.821   0.939  -1.505  1.00  0.00     0.004 C 
HETATM   22  C13 UNL     1      -5.432   0.822  -0.065  1.00  0.00     0.025 C 
ENDBRANCH  16  19
ENDBRANCH  12  13
ENDBRANCH   1  12
TORSDOF 6
