REMARK  7 active torsions:
REMARK  status: ('A' for Active; 'I' for Inactive)
REMARK    1  A    between atoms: C2_2  and  C3_3 
REMARK    2  A    between atoms: C3_3  and  C4_4 
REMARK    3  A    between atoms: C4_4  and  N1_5 
REMARK    4  A    between atoms: C6_9  and  N3_10 
REMARK    5  A    between atoms: N3_10  and  C7_12 
REMARK    6  A    between atoms: N5_20  and  C13_22 
REMARK    7  A    between atoms: C13_22  and  C14_23 
ROOT
HETATM    1  N1  UNL     1      -0.713   0.562  -1.129  1.00  0.00    -0.178 N 
HETATM    2  C5  UNL     1       0.471   1.059  -1.571  1.00  0.00     0.218 A 
HETATM    3  N2  UNL     1       1.665   0.536  -1.274  1.00  0.00    -0.187 N 
ATOM      4  H2  UNL     1       2.523   0.953  -1.634  1.00  0.00     0.185 HD
HETATM    5  C6  UNL     1       1.704  -0.554  -0.489  1.00  0.00     0.693 A 
HETATM    6  N4  UNL     1       0.570  -1.079  -0.031  1.00  0.00    -0.022 N 
ATOM      7  H4  UNL     1       0.609  -1.906   0.565  1.00  0.00     0.203 HD
HETATM    8  C12 UNL     1      -0.662  -0.528  -0.346  1.00  0.00     0.695 A 
HETATM    9  N5  UNL     1      -1.642  -1.113   0.122  1.00  0.00    -0.225 N 
ATOM     10  H5  UNL     1      -1.292  -1.896   0.673  1.00  0.00     0.177 HD
ENDROOT
BRANCH   5  11
HETATM   11  N3  UNL     1       2.868  -1.093  -0.178  1.00  0.00    -0.221 N 
ATOM     12  H3  UNL     1       2.878  -1.920   0.420  1.00  0.00     0.178 HD
BRANCH  11  13
HETATM   13  C7  UNL     1       4.121  -0.567  -0.644  1.00  0.00     0.099 C 
HETATM   14  C8  UNL     1       5.178  -1.626  -0.296  1.00  0.00     0.026 C 
HETATM   15  C9  UNL     1       5.175  -1.555   1.211  1.00  0.00     0.002 C 
HETATM   16  C10 UNL     1       4.786  -0.137   1.566  1.00  0.00     0.002 C 
HETATM   17  C11 UNL     1       4.619   0.587   0.230  1.00  0.00     0.026 C 
ENDBRANCH  11  13
ENDBRANCH   5  11
BRANCH   1  18
HETATM   18  C4  UNL     1      -1.889   1.254  -1.520  1.00  0.00     0.152 C 
BRANCH  18  19
HETATM   19  C3  UNL     1      -2.246   2.394  -0.579  1.00  0.00     0.047 C 
BRANCH  19  20
HETATM   20  C2  UNL     1      -3.489   3.021  -1.107  1.00  0.00    -0.035 C 
HETATM   21  C1  UNL     1      -3.502   4.286  -1.457  1.00  0.00     0.007 C 
ENDBRANCH  19  20
ENDBRANCH  18  19
ENDBRANCH   1  18
BRANCH   9  22
HETATM   22  C13 UNL     1      -3.009  -1.139   0.203  1.00  0.00     0.142 C 
BRANCH  22  23
HETATM   23  C14 UNL     1      -3.566  -2.220   1.138  1.00  0.00     0.004 A 
HETATM   24  C15 UNL     1      -5.075  -2.213   1.197  1.00  0.00     0.007 A 
HETATM   25  C16 UNL     1      -4.219  -1.846   2.404  1.00  0.00     0.007 A 
ENDBRANCH  22  23
ENDBRANCH   9  22
TORSDOF 7
