REMARK  4 active torsions:
REMARK  status: ('A' for Active; 'I' for Inactive)
REMARK    1  A    between atoms: N1_1  and  C1_4 
REMARK    2  A    between atoms: C2_11  and  N5_12 
REMARK    3  A    between atoms: N5_12  and  C3_14 
REMARK    4  A    between atoms: C6_17  and  C7_18 
ROOT
HETATM    1  C1  UNL     1      -3.412  -0.350  -0.557  1.00  0.00     0.706 A 
HETATM    2  N2  UNL     1      -4.484   0.038   0.155  1.00  0.00    -0.117 N 
ATOM      3  H2  UNL     1      -5.425  -0.178  -0.175  1.00  0.00     0.207 HD
HETATM    4  N3  UNL     1      -4.311   0.701   1.285  1.00  0.00    -0.214 N 
ATOM      5  H3  UNL     1      -5.126   0.994   1.824  1.00  0.00     0.209 HD
HETATM    6  N4  UNL     1      -3.082   0.995   1.736  1.00  0.00    -0.116 N 
ATOM      7  H4  UNL     1      -2.982   1.509   2.612  1.00  0.00     0.207 HD
HETATM    8  C2  UNL     1      -1.980   0.628   1.060  1.00  0.00     0.713 A 
HETATM    9  N6  UNL     1      -2.168  -0.045  -0.087  1.00  0.00    -0.020 N 
ATOM     10  H6  UNL     1      -1.353  -0.338  -0.625  1.00  0.00     0.203 HD
ENDROOT
BRANCH   8  11
HETATM   11  N5  UNL     1      -0.834   0.920   1.513  1.00  0.00    -0.190 N 
ATOM     12  H5  UNL     1      -0.807   1.433   2.394  1.00  0.00     0.184 HD
BRANCH  11  13
HETATM   13  C3  UNL     1       0.402   0.610   0.927  1.00  0.00     0.049 A 
HETATM   14  C4  UNL     1       0.869  -0.685   0.817  1.00  0.00     0.031 A 
HETATM   15  C5  UNL     1       2.092  -0.975   0.236  1.00  0.00     0.020 A 
HETATM   16  C6  UNL     1       2.889   0.023  -0.254  1.00  0.00     0.041 A 
HETATM   17  C8  UNL     1       2.450   1.320  -0.157  1.00  0.00     0.020 A 
HETATM   18  C9  UNL     1       1.218   1.605   0.428  1.00  0.00     0.031 A 
BRANCH  16  19
HETATM   19  C7  UNL     1       4.185  -0.291  -0.868  1.00  0.00     0.209 C 
HETATM   20  O1  UNL     1       4.908   0.635  -1.315  1.00  0.00    -0.644 OA
HETATM   21  O2  UNL     1       4.594  -1.615  -0.948  1.00  0.00    -0.644 OA
ENDBRANCH  16  19
ENDBRANCH  11  13
ENDBRANCH   8  11
BRANCH   1  22
HETATM   22  N1  UNL     1      -3.569  -0.995  -1.656  1.00  0.00    -0.233 N 
ATOM     23  H12 UNL     1      -4.499  -1.223  -2.007  1.00  0.00     0.174 HD
ATOM     24  H11 UNL     1      -2.756  -1.289  -2.196  1.00  0.00     0.174 HD
ENDBRANCH   1  22
TORSDOF 4
