REMARK  4 active torsions:
REMARK  status: ('A' for Active; 'I' for Inactive)
REMARK    1  A    between atoms: N1_1  and  C1_4 
REMARK    2  A    between atoms: C2_11  and  C3_12 
REMARK       I    between atoms: C3_12  and  N5_14 
REMARK    3  A    between atoms: N5_14  and  N6_16 
REMARK    4  A    between atoms: C4_18  and  C5_19 
ROOT
HETATM    1  C3  UNL     1      -1.121   0.061  -0.159  1.00  0.00     0.291 C 
HETATM    2  O1  UNL     1      -0.777  -1.130  -0.186  1.00  0.00    -0.264 OA
HETATM    3  N5  UNL     1      -0.146   1.099  -0.194  1.00  0.00    -0.265 N 
ATOM      4  H5  UNL     1      -0.428   2.079  -0.171  1.00  0.00     0.190 HD
ENDROOT
BRANCH   1   5
HETATM    5  C2  UNL     1      -2.553   0.412  -0.089  1.00  0.00     0.164 A 
HETATM    6  C1  UNL     1      -3.662  -0.380  -0.046  1.00  0.00     0.149 A 
HETATM    7  N2  UNL     1      -4.765   0.437   0.013  1.00  0.00    -0.269 N 
HETATM    8  N3  UNL     1      -4.325   1.669   0.005  1.00  0.00    -0.240 N 
ATOM      9  H2  UNL     1      -5.740   0.140   0.055  1.00  0.00     0.190 HD
HETATM   10  N4  UNL     1      -3.018   1.700  -0.055  1.00  0.00    -0.278 N 
ATOM     11  H3  UNL     1      -4.921   2.496   0.041  1.00  0.00     0.208 HD
ATOM     12  H4  UNL     1      -2.442   2.542  -0.073  1.00  0.00     0.189 HD
BRANCH   6  13
HETATM   13  N1  UNL     1      -3.717  -1.660  -0.056  1.00  0.00    -0.382 N 
ATOM     14  H12 UNL     1      -4.547  -2.252  -0.024  1.00  0.00     0.157 HD
ATOM     15  H11 UNL     1      -2.898  -2.267  -0.100  1.00  0.00     0.157 HD
ENDBRANCH   6  13
ENDBRANCH   1   5
BRANCH   3  16
HETATM   16  N6  UNL     1       1.193   0.750  -0.260  1.00  0.00    -0.308 N 
HETATM   17  C4  UNL     1       1.698  -0.064   0.598  1.00  0.00     0.119 C 
ATOM     18  H6  UNL     1       1.783   1.142  -0.994  1.00  0.00     0.186 HD
BRANCH  17  19
HETATM   19  C5  UNL     1       3.134  -0.458   0.554  1.00  0.00    -0.012 A 
HETATM   20  C6  UNL     1       3.978   0.010  -0.378  1.00  0.00     0.020 A 
HETATM   21  C7  UNL     1       5.279  -0.424  -0.318  1.00  0.00     0.050 A 
HETATM   22  S1  UNL     1       5.281  -1.465   1.028  1.00  0.00    -0.113 SA
HETATM   23  C8  UNL     1       3.645  -1.328   1.481  1.00  0.00     0.062 A 
ENDBRANCH  17  19
ENDBRANCH   3  16
TORSDOF 4
