REMARK  2 active torsions:
REMARK  status: ('A' for Active; 'I' for Inactive)
REMARK       I    between atoms: C2_5  and  N3_6 
REMARK       I    between atoms: C2_5  and  N8_15 
REMARK    1  A    between atoms: N3_6  and  C3_8 
REMARK    2  A    between atoms: N8_15  and  N9_17 
ROOT
HETATM    1  N1  UNL     1      -1.671   3.089   1.893  1.00  0.00    -0.171 NA
HETATM    2  C1  UNL     1      -0.950   2.216   1.651  1.00  0.00     0.196 C 
HETATM    3  N2  UNL     1      -0.090   1.159   1.337  1.00  0.00    -0.124 N 
ATOM      4  H2  UNL     1       0.389   0.646   2.077  1.00  0.00     0.197 HD
HETATM    5  C2  UNL     1       0.091   0.839   0.095  1.00  0.00     0.720 C 
HETATM    6  N3  UNL     1       0.937  -0.208  -0.312  1.00  0.00    -0.018 N 
ATOM      7  H3  UNL     1       1.789   0.048  -0.810  1.00  0.00     0.203 HD
HETATM    8  N8  UNL     1      -0.583   1.563  -0.943  1.00  0.00    -0.137 N 
ATOM      9  H8  UNL     1      -1.378   1.123  -1.407  1.00  0.00     0.205 HD
ENDROOT
BRANCH   6  10
HETATM   10  C3  UNL     1       0.729  -1.449  -0.111  1.00  0.00     0.722 A 
HETATM   11  N4  UNL     1       1.539  -2.445  -0.502  1.00  0.00    -0.116 N 
HETATM   12  N5  UNL     1       1.029  -3.619  -0.135  1.00  0.00     0.006 NA
ATOM     13  H4  UNL     1       2.417  -2.321  -1.006  1.00  0.00     0.202 HD
HETATM   14  N6  UNL     1      -0.111  -3.360   0.491  1.00  0.00     0.006 NA
HETATM   15  N7  UNL     1      -0.304  -2.041   0.511  1.00  0.00    -0.116 N 
ATOM     16  H7  UNL     1      -1.102  -1.562   0.928  1.00  0.00     0.202 HD
ENDBRANCH   6  10
BRANCH   8  17
HETATM   17  N9  UNL     1      -0.203   2.835  -1.345  1.00  0.00    -0.331 N 
ATOM     18  H92 UNL     1       0.594   3.260  -0.871  1.00  0.00     0.177 HD
ATOM     19  H91 UNL     1      -0.682   3.350  -2.083  1.00  0.00     0.177 HD
ENDBRANCH   8  17
TORSDOF 2
