REMARK  6 active torsions:
REMARK  status: ('A' for Active; 'I' for Inactive)
REMARK       I    between atoms: C2_2  and  N1_4 
REMARK    1  A    between atoms: N1_4  and  C3_6 
REMARK    2  A    between atoms: C4_9  and  N3_10 
REMARK    3  A    between atoms: N5_20  and  O2_21 
REMARK    4  A    between atoms: O2_21  and  S1_22 
REMARK    5  A    between atoms: S1_22  and  N6_23 
REMARK    6  A    between atoms: S1_22  and  N7_26 
ROOT
HETATM    1  C3  UNL     1       1.248  -0.512  -0.171  1.00  0.00     0.709 C 
HETATM    2  N2  UNL     1       1.449  -1.791   0.219  1.00  0.00    -0.171 N 
ATOM      3  H2  UNL     1       2.395  -2.156   0.327  1.00  0.00     0.181 HD
HETATM    4  C4  UNL     1       0.318  -2.624   0.477  1.00  0.00     0.499 C 
HETATM    5  N4  UNL     1      -0.696  -2.276  -0.532  1.00  0.00     0.000 N 
ATOM      6  H41 UNL     1      -1.430  -2.975  -0.646  1.00  0.00     0.284 HD
ATOM      7  H42 UNL     1      -0.359  -2.311  -1.494  1.00  0.00     0.284 HD
HETATM    8  C5  UNL     1      -1.186  -0.942  -0.107  1.00  0.00     0.239 C 
HETATM    9  C6  UNL     1      -1.746  -1.075   1.292  1.00  0.00     0.073 C 
HETATM   10  C7  UNL     1      -2.335  -0.578  -1.025  1.00  0.00     0.073 C 
HETATM   11  N5  UNL     1      -0.076  -0.023  -0.234  1.00  0.00    -0.034 N 
ENDROOT
BRANCH  11  12
HETATM   12  O2  UNL     1      -0.340   1.265  -0.418  1.00  0.00    -0.132 OA
BRANCH  12  13
HETATM   13  S1  UNL     1      -1.063   2.157   0.739  1.00  0.00     0.248 S 
HETATM   14  O3  UNL     1      -0.817   1.756   2.144  1.00  0.00    -0.197 OA
BRANCH  13  15
HETATM   15  N6  UNL     1      -0.554   3.680   0.689  1.00  0.00    -0.322 N 
ATOM     16  H62 UNL     1       0.131   4.027   0.017  1.00  0.00     0.169 HD
ATOM     17  H61 UNL     1      -1.006   4.238   1.413  1.00  0.00     0.169 HD
ENDBRANCH  13  15
BRANCH  13  18
HETATM   18  N7  UNL     1      -2.776   2.343   0.407  1.00  0.00    -0.322 N 
ATOM     19  H72 UNL     1      -3.242   1.940  -0.406  1.00  0.00     0.169 HD
ATOM     20  H71 UNL     1      -3.228   2.901   1.131  1.00  0.00     0.169 HD
ENDBRANCH  13  18
ENDBRANCH  12  13
ENDBRANCH  11  12
BRANCH   1  21
HETATM   21  N1  UNL     1       2.427   0.199  -0.404  1.00  0.00    -0.158 N 
HETATM   22  C2  UNL     1       2.752   1.467  -0.867  1.00  0.00     0.232 C 
HETATM   23  C1  UNL     1       4.222   1.877  -0.952  1.00  0.00     0.118 C 
HETATM   24  O1  UNL     1       1.936   2.320  -1.227  1.00  0.00    -0.273 OA
ATOM     25  H1  UNL     1       3.256  -0.350  -0.178  1.00  0.00     0.187 HD
ENDBRANCH   1  21
BRANCH   4  26
HETATM   26  N3  UNL     1       0.654  -4.021   0.217  1.00  0.00    -0.032 N 
ATOM     27  H33 UNL     1       1.021  -4.156  -0.725  1.00  0.00     0.279 HD
ATOM     28  H32 UNL     1       1.476  -4.320   0.742  1.00  0.00     0.279 HD
ATOM     29  H31 UNL     1      -0.154  -4.616   0.401  1.00  0.00     0.279 HD
ENDBRANCH   4  26
TORSDOF 6
