REMARK  12 active torsions:
REMARK  status: ('A' for Active; 'I' for Inactive)
REMARK    1  A    between atoms: C4_7  and  C5_8 
REMARK    2  A    between atoms: C5_8  and  C6_9 
REMARK    3  A    between atoms: C6_9  and  N2_10 
REMARK    4  A    between atoms: C6_9  and  C28_40 
REMARK       I    between atoms: N2_10  and  C7_12 
REMARK    5  A    between atoms: C7_12  and  C8_14 
REMARK    6  A    between atoms: C11_17  and  N3_18 
REMARK    7  A    between atoms: C19_26  and  C20_27 
REMARK       I    between atoms: C20_27  and  N4_29 
REMARK    8  A    between atoms: N4_29  and  C21_31 
REMARK    9  A    between atoms: C21_31  and  C22_32 
REMARK   10  A    between atoms: C22_32  and  C23_33 
REMARK   11  A    between atoms: C23_33  and  N5_34 
REMARK   12  A    between atoms: C28_40  and  C29_42 
ROOT
HETATM    1  C8  UNL     1      -0.427   0.761   1.764  1.00  0.00     0.091 C 
HETATM    2  C9  UNL     1      -1.277   2.003   1.955  1.00  0.00     0.017 C 
HETATM    3  C10 UNL     1      -0.522   3.285   1.953  1.00  0.00     0.036 C 
HETATM    4  C11 UNL     1       0.386   3.531   0.807  1.00  0.00     0.224 C 
HETATM    5  C18 UNL     1       0.625   2.227   0.063  1.00  0.00     0.050 C 
HETATM    6  C19 UNL     1       0.858   1.196   1.170  1.00  0.00     0.093 C 
ENDROOT
BRANCH   1   7
HETATM    7  C7  UNL     1      -1.234  -0.174   0.955  1.00  0.00     0.223 C 
HETATM    8  N2  UNL     1      -2.423  -0.692   1.491  1.00  0.00    -0.349 N 
ATOM      9  H2  UNL     1      -2.709  -0.405   2.427  1.00  0.00     0.163 HD
HETATM   10  O2  UNL     1      -0.918  -0.540  -0.200  1.00  0.00    -0.273 OA
BRANCH   8  11
HETATM   11  C6  UNL     1      -3.288  -1.655   0.730  1.00  0.00     0.162 C 
BRANCH  11  12
HETATM   12  C5  UNL     1      -3.482  -2.756   1.690  1.00  0.00     0.047 C 
BRANCH  12  13
HETATM   13  C4  UNL     1      -4.270  -3.943   1.395  1.00  0.00     0.081 C 
HETATM   14  C1  UNL     1      -5.692  -3.802   1.085  1.00  0.00     0.221 C 
HETATM   15  O1  UNL     1      -6.507  -3.041   1.642  1.00  0.00    -0.273 OA
HETATM   16  N1  UNL     1      -5.996  -4.694   0.029  1.00  0.00    -0.361 N 
HETATM   17  C2  UNL     1      -4.859  -5.605  -0.170  1.00  0.00     0.123 C 
ATOM     18  H1  UNL     1      -6.864  -4.703  -0.507  1.00  0.00     0.162 HD
HETATM   19  C3  UNL     1      -3.677  -4.882   0.374  1.00  0.00     0.034 C 
ENDBRANCH  12  13
ENDBRANCH  11  12
BRANCH  11  20
HETATM   20  C28 UNL     1      -4.478  -0.940   0.262  1.00  0.00     0.205 C 
HETATM   21  O5  UNL     1      -5.093  -0.088   0.959  1.00  0.00    -0.288 OA
BRANCH  20  22
HETATM   22  C29 UNL     1      -5.041  -1.177  -1.090  1.00  0.00     0.122 A 
HETATM   23  N6  UNL     1      -6.111  -0.647  -1.650  1.00  0.00    -0.357 N 
HETATM   24  C30 UNL     1      -6.434  -0.960  -2.860  1.00  0.00     0.096 A 
ATOM     25  H6  UNL     1      -6.685   0.013  -1.125  1.00  0.00     0.166 HD
HETATM   26  C31 UNL     1      -5.633  -1.850  -3.529  1.00  0.00     0.069 A 
HETATM   27  S1  UNL     1      -4.445  -2.185  -2.348  1.00  0.00    -0.079 SA
ENDBRANCH  20  22
ENDBRANCH  11  20
ENDBRANCH   8  11
ENDBRANCH   1   7
BRANCH   6  28
HETATM   28  C20 UNL     1       1.809   0.148   0.791  1.00  0.00     0.222 C 
HETATM   29  O3  UNL     1       1.551  -1.041   0.994  1.00  0.00    -0.273 OA
HETATM   30  N4  UNL     1       3.068   0.463   0.175  1.00  0.00    -0.361 N 
ATOM     31  H4  UNL     1       3.289   1.445   0.012  1.00  0.00     0.162 HD
BRANCH  30  32
HETATM   32  C21 UNL     1       4.024  -0.511  -0.221  1.00  0.00     0.124 C 
BRANCH  32  33
HETATM   33  C22 UNL     1       3.486  -1.441  -1.266  1.00  0.00     0.040 C 
BRANCH  33  34
HETATM   34  C23 UNL     1       4.543  -2.457  -1.673  1.00  0.00     0.129 C 
BRANCH  34  35
HETATM   35  N5  UNL     1       5.000  -3.270  -0.608  1.00  0.00    -0.370 N 
HETATM   36  C24 UNL     1       4.110  -4.210  -0.056  1.00  0.00     0.089 C 
HETATM   37  C25 UNL     1       4.771  -5.394   0.604  1.00  0.00     0.212 C 
HETATM   38  O4  UNL     1       5.925  -5.748  -0.100  1.00  0.00    -0.381 OA
HETATM   39  C26 UNL     1       6.849  -4.753   0.111  1.00  0.00     0.212 C 
HETATM   40  C27 UNL     1       6.389  -3.449  -0.449  1.00  0.00     0.089 C 
ENDBRANCH  34  35
ENDBRANCH  33  34
ENDBRANCH  32  33
ENDBRANCH  30  32
ENDBRANCH   6  28
BRANCH   4  41
HETATM   41  N3  UNL     1       0.041   4.633  -0.030  1.00  0.00     0.093 N 
HETATM   42  C12 UNL     1       0.127   5.852   0.752  1.00  0.00     0.273 C 
HETATM   43  C13 UNL     1      -0.657   6.958   0.102  1.00  0.00     0.030 C 
HETATM   44  C14 UNL     1       0.325   7.955  -0.520  1.00  0.00     0.002 C 
HETATM   45  C15 UNL     1       1.288   7.207  -1.418  1.00  0.00     0.002 C 
HETATM   46  C16 UNL     1       0.682   5.944  -1.991  1.00  0.00     0.030 C 
HETATM   47  C17 UNL     1       0.956   4.733  -1.128  1.00  0.00     0.273 C 
ENDBRANCH   4  41
TORSDOF 12
