REMARK  13 active torsions:
REMARK  status: ('A' for Active; 'I' for Inactive)
REMARK    1  A    between atoms: C2_2  and  O2_4 
REMARK    2  A    between atoms: O2_4  and  C3_5 
REMARK    3  A    between atoms: C5_7  and  O3_8 
REMARK    4  A    between atoms: C10_14  and  C12_16 
REMARK    5  A    between atoms: C12_16  and  O4_17 
REMARK    6  A    between atoms: C14_20  and  C16_22 
REMARK    7  A    between atoms: C17_23  and  C18_24 
REMARK    8  A    between atoms: C18_24  and  C19_25 
REMARK    9  A    between atoms: C19_25  and  C20_26 
REMARK   10  A    between atoms: C20_26  and  C21_27 
REMARK   11  A    between atoms: C21_27  and  O5_28 
REMARK   12  A    between atoms: C21_27  and  O6_30 
REMARK   13  A    between atoms: O6_30  and  C22_31 
ROOT
HETATM    1  C3  UNL     1      -1.699   1.995   0.537  1.00  0.00     0.146 C 
HETATM    2  C4  UNL     1      -2.925   1.939   1.377  1.00  0.00     0.065 C 
HETATM    3  C5  UNL     1      -3.976   0.968   0.935  1.00  0.00     0.125 C 
HETATM    4  C6  UNL     1      -3.482  -0.107   0.053  1.00  0.00     0.020 C 
HETATM    5  C7  UNL     1      -3.703   0.038  -1.396  1.00  0.00     0.007 C 
HETATM    6  C8  UNL     1      -3.209  -1.226  -2.067  1.00  0.00     0.001 C 
HETATM    7  C9  UNL     1      -2.812  -2.286  -1.116  1.00  0.00     0.012 C 
HETATM    8  C10 UNL     1      -1.832  -1.827  -0.017  1.00  0.00    -0.018 C 
HETATM    9  C11 UNL     1      -0.506  -2.323  -0.470  1.00  0.00     0.018 C 
HETATM   10  C13 UNL     1      -2.036  -0.474   0.442  1.00  0.00     0.016 C 
HETATM   11  C14 UNL     1      -1.050   0.615   0.304  1.00  0.00     0.005 C 
HETATM   12  C15 UNL     1      -0.274   0.734  -0.951  1.00  0.00     0.022 C 
ENDROOT
BRANCH  11  13
HETATM   13  C16 UNL     1      -0.016   0.385   1.370  1.00  0.00    -0.019 C 
HETATM   14  C17 UNL     1       1.268   0.601   1.245  1.00  0.00    -0.030 C 
BRANCH  14  15
HETATM   15  C18 UNL     1       2.258   0.360   2.327  1.00  0.00     0.027 C 
BRANCH  15  16
HETATM   16  C19 UNL     1       3.251  -0.665   1.819  1.00  0.00     0.009 C 
BRANCH  16  17
HETATM   17  C20 UNL     1       3.973  -0.194   0.589  1.00  0.00     0.061 C 
BRANCH  17  18
HETATM   18  C21 UNL     1       4.934  -1.324   0.197  1.00  0.00     0.267 C 
BRANCH  18  19
HETATM   19  O5  UNL     1       4.211  -2.471  -0.060  1.00  0.00    -0.371 OA
ATOM     20  H5  UNL     1       4.806  -3.171  -0.303  1.00  0.00     0.212 HD
ENDBRANCH  18  19
BRANCH  18  21
HETATM   21  O6  UNL     1       5.668  -0.946  -0.964  1.00  0.00    -0.275 OA
BRANCH  21  22
HETATM   22  C22 UNL     1       7.054  -0.865  -0.955  1.00  0.00     0.375 C 
HETATM   23  N1  UNL     1       7.815  -0.491  -2.099  1.00  0.00    -0.032 NA
HETATM   24  O7  UNL     1       7.640  -1.138   0.116  1.00  0.00    -0.242 OA
ENDBRANCH  21  22
ENDBRANCH  18  21
ENDBRANCH  17  18
ENDBRANCH  16  17
ENDBRANCH  15  16
ENDBRANCH  14  15
ENDBRANCH  11  13
BRANCH   1  25
HETATM   25  O2  UNL     1      -1.696   2.829  -0.545  1.00  0.00    -0.315 OA
BRANCH  25  26
HETATM   26  C2  UNL     1      -1.039   3.984  -0.750  1.00  0.00     0.255 C 
HETATM   27  C1  UNL     1      -1.097   4.815  -1.953  1.00  0.00     0.126 C 
HETATM   28  O1  UNL     1      -0.348   4.283   0.233  1.00  0.00    -0.266 OA
ENDBRANCH  25  26
ENDBRANCH   1  25
BRANCH   8  29
HETATM   29  C12 UNL     1      -2.212  -2.834   1.108  1.00  0.00     0.173 C 
BRANCH  29  30
HETATM   30  O4  UNL     1      -1.434  -2.605   2.216  1.00  0.00    -0.400 OA
ATOM     31  H4  UNL     1      -1.666  -3.219   2.902  1.00  0.00     0.209 HD
ENDBRANCH  29  30
ENDBRANCH   8  29
BRANCH   3  32
HETATM   32  O3  UNL     1      -5.040   1.620   0.262  1.00  0.00    -0.395 OA
ATOM     33  H3  UNL     1      -5.707   1.004  -0.018  1.00  0.00     0.210 HD
ENDBRANCH   3  32
TORSDOF 13
