REMARK  8 active torsions:
REMARK  status: ('A' for Active; 'I' for Inactive)
REMARK    1  A    between atoms: C2_2  and  C3_3 
REMARK    2  A    between atoms: C2_2  and  N1_6 
REMARK    3  A    between atoms: C3_3  and  O1_4 
REMARK    4  A    between atoms: N1_6  and  C5_8 
REMARK    5  A    between atoms: C8_11  and  N2_12 
REMARK    6  A    between atoms: C10_16  and  N4_17 
REMARK    7  A    between atoms: N4_17  and  C11_19 
REMARK    8  A    between atoms: C16_25  and  C17_26 
ROOT
HETATM    1  C5  UNL     1      -3.587  -0.066  -0.006  1.00  0.00     0.224 C 
HETATM    2  C6  UNL     1      -3.373   1.395  -0.275  1.00  0.00     0.038 C 
HETATM    3  C7  UNL     1      -2.083   1.681  -0.980  1.00  0.00     0.032 C 
HETATM    4  C8  UNL     1      -1.098   0.540  -0.886  1.00  0.00     0.144 C 
HETATM    5  C21 UNL     1      -1.130  -0.102   0.467  1.00  0.00     0.121 C 
HETATM    6  C22 UNL     1      -0.803   0.925   1.458  1.00  0.00     0.066 C 
HETATM    7  N6  UNL     1      -0.535   1.734   2.253  1.00  0.00    -0.197 NA
HETATM    8  C23 UNL     1      -2.480  -0.736   0.733  1.00  0.00     0.057 C 
ENDROOT
BRANCH   4   9
HETATM    9  N2  UNL     1       0.260   1.009  -1.135  1.00  0.00    -0.227 N 
HETATM   10  N3  UNL     1       0.667   2.225  -1.444  1.00  0.00    -0.291 N 
HETATM   11  C9  UNL     1       1.993   2.280  -1.598  1.00  0.00     0.158 A 
ATOM     12  H3  UNL     1       0.045   3.026  -1.552  1.00  0.00     0.188 HD
HETATM   13  C10 UNL     1       2.455   0.978  -1.364  1.00  0.00     0.139 A 
HETATM   14  N5  UNL     1       1.368   0.251  -1.088  1.00  0.00    -0.267 N 
ATOM     15  H5  UNL     1       1.378  -0.746  -0.871  1.00  0.00     0.190 HD
BRANCH  13  16
HETATM   16  N4  UNL     1       3.687   0.602  -1.406  1.00  0.00    -0.340 N 
ATOM     17  H4  UNL     1       4.411   1.286  -1.624  1.00  0.00     0.167 HD
BRANCH  16  18
HETATM   18  C11 UNL     1       4.050  -0.722  -1.159  1.00  0.00     0.043 A 
HETATM   19  C12 UNL     1       3.544  -1.741  -1.933  1.00  0.00     0.030 A 
HETATM   20  C13 UNL     1       3.908  -3.065  -1.705  1.00  0.00     0.005 A 
HETATM   21  C14 UNL     1       4.788  -3.341  -0.685  1.00  0.00     0.043 A 
HETATM   22  C15 UNL     1       5.302  -2.295   0.102  1.00  0.00     0.125 A 
HETATM   23  F1  UNL     1       6.151  -2.727   1.060  1.00  0.00    -0.205 F 
HETATM   24  C16 UNL     1       4.939  -0.987  -0.127  1.00  0.00     0.015 A 
BRANCH  24  25
HETATM   25  C17 UNL     1       5.480   0.076   0.685  1.00  0.00    -0.019 C 
HETATM   26  C18 UNL     1       6.446  -0.326   1.776  1.00  0.00     0.019 C 
HETATM   27  C19 UNL     1       6.299   0.964  -0.274  1.00  0.00     0.019 C 
HETATM   28  C20 UNL     1       4.480   0.999   1.318  1.00  0.00     0.019 C 
ENDBRANCH  24  25
ENDBRANCH  16  18
ENDBRANCH  13  16
ENDBRANCH   4   9
BRANCH   1  29
HETATM   29  N1  UNL     1      -4.825  -0.251   0.675  1.00  0.00     0.095 N 
HETATM   30  C4  UNL     1      -4.911   0.448   1.945  1.00  0.00     0.310 C 
BRANCH  29  31
HETATM   31  C2  UNL     1      -5.976   0.165  -0.105  1.00  0.00     0.242 C 
HETATM   32  C1  UNL     1      -7.217  -0.285   0.639  1.00  0.00     0.045 C 
BRANCH  31  33
HETATM   33  C3  UNL     1      -6.020  -0.405  -1.484  1.00  0.00     0.199 C 
BRANCH  33  34
HETATM   34  O1  UNL     1      -6.053  -1.805  -1.443  1.00  0.00    -0.399 OA
ATOM     35  H1  UNL     1      -6.081  -2.168  -2.321  1.00  0.00     0.209 HD
ENDBRANCH  33  34
ENDBRANCH  31  33
ENDBRANCH  29  31
ENDBRANCH   1  29
TORSDOF 8
