REMARK  7 active torsions:
REMARK  status: ('A' for Active; 'I' for Inactive)
REMARK    1  A    between atoms: C4_5  and  C5_6 
REMARK    2  A    between atoms: C6_7  and  C7_8 
REMARK    3  A    between atoms: C10_12  and  O2_13 
REMARK    4  A    between atoms: O2_13  and  C11_14 
REMARK    5  A    between atoms: C14_18  and  C15_19 
REMARK    6  A    between atoms: C17_22  and  O5_23 
REMARK    7  A    between atoms: C19_26  and  O6_27 
ROOT
HETATM    1  C7  UNL     1       0.174  -0.288  -0.356  1.00  0.00     0.047 C 
HETATM    2  C8  UNL     1      -0.259  -1.350   0.631  1.00  0.00     0.063 C 
HETATM    3  C9  UNL     1      -1.570  -1.072   1.256  1.00  0.00     0.047 C 
HETATM    4 BR1  UNL     1      -1.867  -1.369   3.125  1.00  0.00    -0.051 Br
HETATM    5  C10 UNL     1      -2.531  -0.609   0.472  1.00  0.00     0.195 C 
HETATM    6  O3  UNL     1      -2.188  -0.432  -0.880  1.00  0.00    -0.319 OA
HETATM    7  C14 UNL     1      -0.939   0.204  -1.211  1.00  0.00     0.174 C 
ENDROOT
BRANCH   1   8
HETATM    8  C6  UNL     1       1.306  -0.856  -1.147  1.00  0.00    -0.020 C 
HETATM    9  C5  UNL     1       2.539  -0.445  -1.148  1.00  0.00     0.004 C 
BRANCH   9  10
HETATM   10  C4  UNL     1       3.087   0.679  -0.363  1.00  0.00     0.173 C 
HETATM   11  O1  UNL     1       2.912   0.550   1.001  1.00  0.00    -0.375 OA
HETATM   12  C3  UNL     1       3.660  -0.420   1.597  1.00  0.00     0.202 C 
HETATM   13  C2  UNL     1       4.822  -0.890   0.859  1.00  0.00    -0.063 C 
HETATM   14  C1  UNL     1       5.302  -2.100   1.076  1.00  0.00     0.016 C 
HETATM   15  C20 UNL     1       5.481  -0.025  -0.141  1.00  0.00     0.070 C 
HETATM   16  C19 UNL     1       4.518   0.943  -0.750  1.00  0.00     0.155 C 
BRANCH  16  17
HETATM   17  O6  UNL     1       4.612   0.859  -2.139  1.00  0.00    -0.392 OA
ATOM     18  H6  UNL     1       5.515   1.026  -2.383  1.00  0.00     0.210 HD
ENDBRANCH  16  17
ENDBRANCH   9  10
ENDBRANCH   1   8
BRANCH   7  19
HETATM   19  C15 UNL     1      -1.192   1.664  -1.125  1.00  0.00    -0.001 A 
HETATM   20  C16 UNL     1      -0.450   2.659  -0.520  1.00  0.00     0.154 A 
HETATM   21  O4  UNL     1      -1.047   3.829  -0.688  1.00  0.00    -0.300 OA
HETATM   22  C17 UNL     1      -2.141   3.691  -1.365  1.00  0.00     0.183 A 
HETATM   23  C18 UNL     1      -2.279   2.351  -1.664  1.00  0.00     0.075 A 
BRANCH  22  24
HETATM   24  O5  UNL     1      -3.006   4.720  -1.716  1.00  0.00    -0.341 OA
ATOM     25  H5  UNL     1      -3.809   4.619  -2.213  1.00  0.00     0.220 HD
ENDBRANCH  22  24
ENDBRANCH   7  19
BRANCH   5  26
HETATM   26  O2  UNL     1      -3.757  -0.341   1.012  1.00  0.00    -0.325 OA
BRANCH  26  27
HETATM   27  C11 UNL     1      -4.985  -0.829   0.542  1.00  0.00     0.123 C 
HETATM   28  C12 UNL     1      -6.075  -0.272   1.449  1.00  0.00     0.040 C 
HETATM   29  C13 UNL     1      -5.075  -2.335   0.576  1.00  0.00     0.040 C 
ENDBRANCH  26  27
ENDBRANCH   5  26
TORSDOF 7
