REMARK  10 active torsions:
REMARK  status: ('A' for Active; 'I' for Inactive)
REMARK    1  A    between atoms: C2_2  and  C3_3 
REMARK    2  A    between atoms: C3_3  and  C4_4 
REMARK    3  A    between atoms: C4_4  and  C5_5 
REMARK    4  A    between atoms: C5_5  and  C6_6 
REMARK    5  A    between atoms: C7_7  and  C8_8 
REMARK    6  A    between atoms: C8_8  and  N1_9 
REMARK    7  A    between atoms: C11_12  and  O1_13 
REMARK    8  A    between atoms: O1_13  and  C12_14 
REMARK    9  A    between atoms: C12_14  and  C13_15 
REMARK   10  A    between atoms: C13_15  and  O2_16 
ROOT
HETATM    1  N1  UNL     1       0.236  -0.309  -1.265  1.00  0.00     0.129 N 
HETATM    2  C9  UNL     1       1.146   0.803  -1.120  1.00  0.00     0.423 C 
HETATM    3  C10 UNL     1       2.332   0.467  -0.244  1.00  0.00     0.104 C 
HETATM    4  C11 UNL     1       2.766  -0.966  -0.297  1.00  0.00     0.071 A 
HETATM    5  C15 UNL     1       3.552  -1.394  -1.508  1.00  0.00     0.048 A 
HETATM    6  C16 UNL     1       2.164  -1.806  -1.352  1.00  0.00     0.058 A 
HETATM    7  C17 UNL     1       1.039  -1.168  -2.116  1.00  0.00     0.258 C 
HETATM    8  C18 UNL     1       1.531  -0.221  -3.166  1.00  0.00     0.271 C 
HETATM    9  N2  UNL     1       1.519   1.040  -2.500  1.00  0.00    -0.041 N 
ATOM     10  H21 UNL     1       2.400   1.546  -2.592  1.00  0.00     0.279 HD
ATOM     11  H22 UNL     1       0.922   1.727  -2.960  1.00  0.00     0.279 HD
ENDROOT
BRANCH   1  12
HETATM   12  C8  UNL     1      -0.912   0.147  -2.029  1.00  0.00     0.303 C 
BRANCH  12  13
HETATM   13  C7  UNL     1      -1.743   1.103  -1.291  1.00  0.00    -0.001 C 
HETATM   14  C6  UNL     1      -2.999   0.907  -0.994  1.00  0.00    -0.029 C 
BRANCH  14  15
HETATM   15  C5  UNL     1      -3.767  -0.268  -1.339  1.00  0.00     0.027 C 
BRANCH  15  16
HETATM   16  C4  UNL     1      -4.324  -1.149  -0.290  1.00  0.00     0.004 C 
BRANCH  16  17
HETATM   17  C3  UNL     1      -5.313  -0.721   0.686  1.00  0.00    -0.000 C 
BRANCH  17  18
HETATM   18  C2  UNL     1      -4.932   0.358   1.614  1.00  0.00    -0.005 C 
HETATM   19  C1  UNL     1      -6.117   0.548   2.596  1.00  0.00     0.005 C 
ENDBRANCH  17  18
ENDBRANCH  16  17
ENDBRANCH  15  16
ENDBRANCH  14  15
ENDBRANCH  12  13
ENDBRANCH   1  12
BRANCH   4  20
HETATM   20  O1  UNL     1       3.073  -1.571   0.872  1.00  0.00    -0.378 OA
BRANCH  20  21
HETATM   21  C12 UNL     1       4.084  -1.209   1.657  1.00  0.00     0.195 C 
BRANCH  21  22
HETATM   22  C13 UNL     1       4.142   0.159   2.240  1.00  0.00     0.193 C 
BRANCH  22  23
HETATM   23  O2  UNL     1       5.306   0.307   3.051  1.00  0.00    -0.394 OA
HETATM   24  C14 UNL     1       5.328   1.604   3.577  1.00  0.00     0.201 C 
ENDBRANCH  22  23
ENDBRANCH  21  22
ENDBRANCH  20  21
ENDBRANCH   4  20
TORSDOF 10
