REMARK  10 active torsions:
REMARK  status: ('A' for Active; 'I' for Inactive)
REMARK    1  A    between atoms: C2_2  and  C3_3 
REMARK    2  A    between atoms: C3_3  and  N1_5 
REMARK    3  A    between atoms: N1_5  and  C5_6 
REMARK    4  A    between atoms: C5_6  and  C6_7 
REMARK    5  A    between atoms: C8_9  and  C9_10 
REMARK    6  A    between atoms: C9_10  and  N2_11 
REMARK    7  A    between atoms: C9_10  and  C10_15 
REMARK    8  A    between atoms: C10_15  and  O1_16 
REMARK    9  A    between atoms: O1_16  and  C11_17 
REMARK   10  A    between atoms: C11_17  and  C12_19 
ROOT
HETATM    1  C9  UNL     1      -0.688  -1.195   0.577  1.00  0.00     0.246 C 
ENDROOT
BRANCH   1   2
HETATM    2  C8  UNL     1      -1.962  -0.396   0.457  1.00  0.00     0.098 C 
HETATM    3  N1  UNL     1      -3.081  -0.899  -0.097  1.00  0.00    -0.364 N 
BRANCH   3   4
HETATM    4  C3  UNL     1      -4.313  -0.233   0.362  1.00  0.00     0.106 C 
HETATM    5  C4  UNL     1      -4.695  -0.961   1.644  1.00  0.00     0.037 C 
BRANCH   4   6
HETATM    6  C2  UNL     1      -4.118   1.223   0.620  1.00  0.00    -0.012 C 
HETATM    7  C1  UNL     1      -4.914   1.829   1.423  1.00  0.00     0.009 C 
ENDBRANCH   4   6
ENDBRANCH   3   4
BRANCH   3   8
HETATM    8  C5  UNL     1      -3.410  -1.995  -0.854  1.00  0.00     0.063 C 
BRANCH   8   9
HETATM    9  C6  UNL     1      -2.416  -2.710  -1.702  1.00  0.00     0.040 C 
HETATM   10  C7  UNL     1      -3.116  -3.886  -2.448  1.00  0.00     0.010 C 
ENDBRANCH   8   9
ENDBRANCH   3   8
ENDBRANCH   1   2
BRANCH   1  11
HETATM   11  N2  UNL     1      -1.053  -2.365   1.447  1.00  0.00    -0.068 N 
ATOM     12  H23 UNL     1      -1.465  -2.104   2.343  1.00  0.00     0.275 HD
ATOM     13  H22 UNL     1      -1.850  -2.903   1.107  1.00  0.00     0.275 HD
ATOM     14  H21 UNL     1      -0.192  -2.905   1.528  1.00  0.00     0.275 HD
ENDBRANCH   1  11
BRANCH   1  15
HETATM   15  C10 UNL     1       0.255  -0.416   1.487  1.00  0.00     0.217 C 
BRANCH  15  16
HETATM   16  O1  UNL     1       0.829   0.716   0.952  1.00  0.00    -0.319 OA
BRANCH  16  17
HETATM   17  C11 UNL     1       1.693   0.634  -0.127  1.00  0.00     0.263 C 
HETATM   18  O2  UNL     1       1.917  -0.526  -0.583  1.00  0.00    -0.265 OA
BRANCH  17  19
HETATM   19  C12 UNL     1       2.353   1.840  -0.751  1.00  0.00     0.085 C 
HETATM   20  C13 UNL     1       3.100   2.536   0.374  1.00  0.00     0.015 C 
HETATM   21  C14 UNL     1       4.465   1.920   0.573  1.00  0.00     0.005 C 
HETATM   22  C15 UNL     1       5.298   2.269  -0.621  1.00  0.00    -0.019 C 
HETATM   23  C16 UNL     1       6.678   1.591  -0.541  1.00  0.00     0.010 C 
HETATM   24  C17 UNL     1       4.637   1.856  -1.873  1.00  0.00     0.005 C 
HETATM   25  C18 UNL     1       3.250   1.355  -1.827  1.00  0.00     0.015 C 
ENDBRANCH  17  19
ENDBRANCH  16  17
ENDBRANCH  15  16
ENDBRANCH   1  15
TORSDOF 10
