REMARK  3 active torsions:
REMARK  status: ('A' for Active; 'I' for Inactive)
REMARK    1  A    between atoms: C3_7  and  C4_8 
REMARK    2  A    between atoms: C7_11  and  N3_12 
REMARK    3  A    between atoms: N3_12  and  C8_14 
ROOT
HETATM    1  C1  UNL     1      -0.326   3.461  -0.850  1.00  0.00     0.072 C 
HETATM    2  C2  UNL     1      -1.148   2.318  -0.324  1.00  0.00     0.050 A 
HETATM    3  N1  UNL     1      -2.282   2.545   0.311  1.00  0.00    -0.302 N 
ATOM      4  H1  UNL     1      -2.657   3.463   0.552  1.00  0.00     0.186 HD
HETATM    5  N2  UNL     1      -2.863   1.359   0.588  1.00  0.00    -0.298 N 
ATOM      6  H2  UNL     1      -3.748   1.234   1.080  1.00  0.00     0.187 HD
HETATM    7  C3  UNL     1      -2.082   0.362   0.108  1.00  0.00     0.078 A 
HETATM    8  C7  UNL     1      -0.986   1.004  -0.461  1.00  0.00     0.081 A 
ENDROOT
BRANCH   8   9
HETATM    9  N3  UNL     1       0.163   0.309  -0.970  1.00  0.00    -0.375 N 
ATOM     10  H3  UNL     1       0.214   0.077  -1.962  1.00  0.00     0.160 HD
BRANCH   9  11
HETATM   11  C8  UNL     1       1.251  -0.066  -0.090  1.00  0.00     0.155 C 
HETATM   12  C9  UNL     1       2.023   1.066   0.496  1.00  0.00     0.142 C 
HETATM   13  S1  UNL     1       3.589   0.476   1.140  1.00  0.00     0.035 S 
HETATM   14  O1  UNL     1       4.722   0.622  -0.151  1.00  0.00    -0.256 OA
HETATM   15  C10 UNL     1       3.419  -1.306   1.323  1.00  0.00     0.229 C 
HETATM   16  N4  UNL     1       3.016  -1.782   0.015  1.00  0.00    -0.372 N 
HETATM   17  C11 UNL     1       2.159  -0.992  -0.797  1.00  0.00     0.097 C 
ATOM     18  H4  UNL     1       3.348  -2.685  -0.323  1.00  0.00     0.161 HD
HETATM   19  S2  UNL     1       2.138  -1.014  -2.418  1.00  0.00    -0.063 SA
ENDBRANCH   9  11
ENDBRANCH   8   9
BRANCH   7  20
HETATM   20  C4  UNL     1      -2.412  -1.067   0.068  1.00  0.00    -0.057 C 
HETATM   21  C5  UNL     1      -2.385  -1.729   1.395  1.00  0.00     0.045 C 
HETATM   22  C6  UNL     1      -2.038  -1.845  -1.118  1.00  0.00     0.045 C 
ENDBRANCH   7  20
TORSDOF 3
