REMARK  7 active torsions:
REMARK  status: ('A' for Active; 'I' for Inactive)
REMARK    1  A    between atoms: O1_1  and  C1_3 
REMARK    2  A    between atoms: C1_3  and  C2_4 
REMARK    3  A    between atoms: C2_4  and  O2_5 
REMARK    4  A    between atoms: C2_4  and  C3_7 
REMARK    5  A    between atoms: C2_4  and  C16_25 
REMARK    6  A    between atoms: C5_11  and  N2_12 
REMARK    7  A    between atoms: N2_12  and  C6_13 
ROOT
HETATM    1  C3  UNL     1       3.183  -0.025   0.354  1.00  0.00     0.004 A 
HETATM    2  C4  UNL     1       2.300   0.821   0.979  1.00  0.00     0.101 A 
HETATM    3  N1  UNL     1       0.992   0.840   0.703  1.00  0.00    -0.340 N 
ATOM      4  H1  UNL     1       0.397   1.496   1.209  1.00  0.00     0.167 HD
HETATM    5  C5  UNL     1       0.413   0.013  -0.234  1.00  0.00     0.194 A 
HETATM    6  C14 UNL     1       1.294  -0.866  -0.889  1.00  0.00     0.092 A 
HETATM    7 CL1  UNL     1       0.604  -1.949  -2.107  1.00  0.00    -0.079 Cl
HETATM    8  C15 UNL     1       2.636  -0.879  -0.598  1.00  0.00     0.041 A 
ENDROOT
BRANCH   1   9
HETATM    9  C2  UNL     1       4.624  -0.097   0.602  1.00  0.00     0.205 C 
BRANCH   9  10
HETATM   10  C1  UNL     1       5.283  -0.651  -0.681  1.00  0.00     0.216 C 
BRANCH  10  11
HETATM   11  O1  UNL     1       4.962   0.187  -1.708  1.00  0.00    -0.397 OA
ATOM     12  H1  UNL     1       5.367  -0.154  -2.497  1.00  0.00     0.209 HD
ENDBRANCH  10  11
ENDBRANCH   9  10
BRANCH   9  13
HETATM   13  O2  UNL     1       4.872  -0.966   1.670  1.00  0.00    -0.375 OA
ATOM     14  H2  UNL     1       4.467  -0.625   2.459  1.00  0.00     0.211 HD
ENDBRANCH   9  13
BRANCH   9  15
HETATM   15  C16 UNL     1       5.312   1.232   0.828  1.00  0.00     0.424 C 
HETATM   16  F2  UNL     1       4.919   1.910   1.941  1.00  0.00    -0.167 F 
HETATM   17  F3  UNL     1       5.164   2.015  -0.313  1.00  0.00    -0.167 F 
HETATM   18  F4  UNL     1       6.672   0.993   0.924  1.00  0.00    -0.167 F 
ENDBRANCH   9  15
ENDBRANCH   1   9
BRANCH   5  19
HETATM   19  N2  UNL     1      -0.760   0.046  -0.505  1.00  0.00    -0.423 NA
BRANCH  19  20
HETATM   20  C6  UNL     1      -2.049   0.066  -0.818  1.00  0.00     0.170 C 
HETATM   21  C7  UNL     1      -2.749  -1.266  -0.549  1.00  0.00     0.044 C 
HETATM   22  C8  UNL     1      -3.618  -1.081   0.666  1.00  0.00    -0.009 C 
HETATM   23  C9  UNL     1      -5.018  -0.816   0.225  1.00  0.00     0.042 C 
HETATM   24  C13 UNL     1      -3.076   0.189   1.310  1.00  0.00     0.012 C 
HETATM   25  C10 UNL     1      -5.315   0.578  -0.190  1.00  0.00     0.171 C 
HETATM   26  F1  UNL     1      -6.201   0.520  -1.273  1.00  0.00    -0.249 F 
HETATM   27  C11 UNL     1      -4.114   1.351  -0.666  1.00  0.00     0.045 C 
HETATM   28  C12 UNL     1      -2.865   1.020   0.071  1.00  0.00     0.024 C 
ENDBRANCH  19  20
ENDBRANCH   5  19
TORSDOF 7
