REMARK  3 active torsions:
REMARK  status: ('A' for Active; 'I' for Inactive)
REMARK       I    between atoms: N1_5  and  C4_6 
REMARK       I    between atoms: C4_6  and  N2_8 
REMARK    1  A    between atoms: N2_8  and  C5_10 
REMARK    2  A    between atoms: C5_10  and  C6_11 
REMARK    3  A    between atoms: C6_11  and  C7_12 
ROOT
HETATM    1  C1  UNL     1      -3.309   2.269   0.151  1.00  0.00     0.057 C 
HETATM    2  C2  UNL     1      -2.355   1.195  -0.263  1.00  0.00     0.158 C 
HETATM    3  F1  UNL     1      -1.844   1.609  -1.508  1.00  0.00    -0.238 F 
HETATM    4  C3  UNL     1      -1.172   1.257   0.679  1.00  0.00     0.176 C 
HETATM    5  N1  UNL     1      -0.123   0.344   0.291  1.00  0.00    -0.316 N 
HETATM    6  C4  UNL     1       1.223   0.742   0.480  1.00  0.00     0.319 C 
HETATM    7  O1  UNL     1       1.515   1.881   0.981  1.00  0.00    -0.247 OA
HETATM    8  N2  UNL     1       2.321  -0.093   0.126  1.00  0.00    -0.343 N 
ATOM      9  H2  UNL     1       2.128  -1.010  -0.277  1.00  0.00     0.164 HD
HETATM   10  C8  UNL     1      -0.522  -0.928  -0.270  1.00  0.00     0.170 C 
HETATM   11  S1  UNL     1      -0.219  -1.055  -2.038  1.00  0.00    -0.069 SA
HETATM   12  C9  UNL     1      -1.927  -1.164   0.132  1.00  0.00     0.079 C 
HETATM   13  C10 UNL     1      -2.481  -2.510  -0.309  1.00  0.00     0.092 C 
HETATM   14  S2  UNL     1      -4.210  -2.259   0.310  1.00  0.00    -0.113 SA
HETATM   15  C11 UNL     1      -4.182  -0.471   0.212  1.00  0.00     0.084 C 
HETATM   16  N3  UNL     1      -5.072   0.287   0.638  1.00  0.00    -0.394 N 
ATOM     17  H31 UNL     1      -5.056   1.305   0.582  1.00  0.00     0.156 HD
ATOM     18  H32 UNL     1      -5.952   0.070   1.105  1.00  0.00     0.156 HD
HETATM   19  C12 UNL     1      -2.913  -0.158  -0.461  1.00  0.00     0.195 C 
HETATM   20  F5  UNL     1      -3.103  -0.441  -1.813  1.00  0.00    -0.231 F 
ENDROOT
BRANCH   8  21
HETATM   21  C5  UNL     1       3.683   0.301   0.313  1.00  0.00     0.133 C 
BRANCH  21  22
HETATM   22  C6  UNL     1       4.664  -0.745  -0.133  1.00  0.00     0.137 C 
BRANCH  22  23
HETATM   23  C7  UNL     1       6.079  -0.278   0.086  1.00  0.00     0.389 C 
HETATM   24  F2  UNL     1       6.961  -1.250  -0.329  1.00  0.00    -0.171 F 
HETATM   25  F3  UNL     1       6.255   0.064   1.408  1.00  0.00    -0.171 F 
HETATM   26  F4  UNL     1       6.278   0.837  -0.719  1.00  0.00    -0.171 F 
ENDBRANCH  22  23
ENDBRANCH  21  22
ENDBRANCH   8  21
TORSDOF 3
