REMARK  7 active torsions:
REMARK  status: ('A' for Active; 'I' for Inactive)
REMARK    1  A    between atoms: C5_6  and  C6_7 
REMARK    2  A    between atoms: C6_7  and  N2_8 
REMARK    3  A    between atoms: N2_8  and  C7_10 
REMARK    4  A    between atoms: C7_10  and  O1_11 
REMARK    5  A    between atoms: C7_10  and  C8_13 
REMARK    6  A    between atoms: C7_10  and  C9_16 
REMARK    7  A    between atoms: C16_26  and  O2_27 
ROOT
HETATM    1  C1  UNL     1       2.894   1.343   1.218  1.00  0.00     0.016 C 
HETATM    2  C2  UNL     1       2.590   1.062  -0.236  1.00  0.00    -0.035 C 
HETATM    3  C3  UNL     1       1.430   1.957  -0.622  1.00  0.00     0.040 C 
HETATM    4  C4  UNL     1       0.123   1.516  -0.052  1.00  0.00     0.274 C 
HETATM    5  N1  UNL     1      -0.098   0.130  -0.392  1.00  0.00     0.099 N 
HETATM    6  C5  UNL     1      -1.280  -0.418   0.210  1.00  0.00     0.240 C 
HETATM    7  C10 UNL     1      -1.085  -1.915  -0.057  1.00  0.00     0.040 C 
HETATM    8  C11 UNL     1       0.421  -2.077  -0.131  1.00  0.00     0.038 C 
HETATM    9  C12 UNL     1       0.937  -0.701   0.248  1.00  0.00     0.228 C 
HETATM   10  C13 UNL     1       2.226  -0.389  -0.465  1.00  0.00     0.027 C 
HETATM   11  C14 UNL     1       3.325  -1.280  -0.029  1.00  0.00     0.010 C 
HETATM   12  C15 UNL     1       4.699  -0.780  -0.265  1.00  0.00     0.032 C 
HETATM   13  C16 UNL     1       4.828   0.383  -1.171  1.00  0.00     0.118 C 
HETATM   14  C17 UNL     1       3.727   1.369  -1.155  1.00  0.00     0.041 C 
ENDROOT
BRANCH   6  15
HETATM   15  C6  UNL     1      -2.560   0.042  -0.473  1.00  0.00     0.153 C 
BRANCH  15  16
HETATM   16  N2  UNL     1      -3.639  -0.579   0.231  1.00  0.00    -0.378 N 
ATOM     17  H2  UNL     1      -3.476  -1.191   1.031  1.00  0.00     0.156 HD
BRANCH  16  18
HETATM   18  C7  UNL     1      -4.952  -0.299  -0.242  1.00  0.00     0.288 C 
BRANCH  18  19
HETATM   19  O1  UNL     1      -5.012  -0.666  -1.590  1.00  0.00    -0.360 OA
ATOM     20  H1  UNL     1      -5.888  -0.479  -1.906  1.00  0.00     0.213 HD
ENDBRANCH  18  19
BRANCH  18  21
HETATM   21  C8  UNL     1      -5.341   1.144  -0.156  1.00  0.00     0.417 C 
HETATM   22  F1  UNL     1      -5.326   1.660   1.097  1.00  0.00    -0.209 F 
HETATM   23  F2  UNL     1      -6.624   1.282  -0.671  1.00  0.00    -0.209 F 
ENDBRANCH  18  21
BRANCH  18  24
HETATM   24  C9  UNL     1      -5.907  -1.214   0.489  1.00  0.00     0.443 C 
HETATM   25  F3  UNL     1      -5.882  -1.036   1.848  1.00  0.00    -0.166 F 
HETATM   26  F4  UNL     1      -7.204  -1.049   0.048  1.00  0.00    -0.166 F 
HETATM   27  F5  UNL     1      -5.552  -2.525   0.227  1.00  0.00    -0.166 F 
ENDBRANCH  18  24
ENDBRANCH  16  18
ENDBRANCH  15  16
ENDBRANCH   6  15
BRANCH  13  28
HETATM   28  O2  UNL     1       6.014   1.068  -0.818  1.00  0.00    -0.396 OA
ATOM     29  H2  UNL     1       6.097   1.815  -1.400  1.00  0.00     0.210 HD
ENDBRANCH  13  28
TORSDOF 7
