REMARK  5 active torsions:
REMARK  status: ('A' for Active; 'I' for Inactive)
REMARK    1  A    between atoms: C2_2  and  C3_3 
REMARK    2  A    between atoms: C2_2  and  C8_18 
REMARK       I    between atoms: C3_3  and  N1_5 
REMARK    3  A    between atoms: N1_5  and  N2_7 
REMARK       I    between atoms: N2_7  and  C4_9 
REMARK    4  A    between atoms: C4_9  and  C5_11 
REMARK    5  A    between atoms: C5_11  and  N3_14 
ROOT
HETATM    1  C3  UNL     1      -0.465   0.869  -0.723  1.00  0.00     0.265 C 
HETATM    2  O1  UNL     1       0.361   1.186  -1.659  1.00  0.00    -0.266 OA
HETATM    3  N1  UNL     1       0.154   0.665   0.522  1.00  0.00    -0.263 N 
ATOM      4  H1  UNL     1      -0.417   0.412   1.329  1.00  0.00     0.190 HD
ENDROOT
BRANCH   1   5
HETATM    5  C2  UNL     1      -1.848   0.774  -1.069  1.00  0.00     0.010 C 
HETATM    6  C1  UNL     1      -2.123   1.041  -2.371  1.00  0.00     0.025 C 
BRANCH   5   7
HETATM    7  C8  UNL     1      -3.004   0.409  -0.269  1.00  0.00     0.071 C 
HETATM    8  C9  UNL     1      -4.096  -0.261  -1.203  1.00  0.00     0.133 C 
HETATM    9 CL1  UNL     1      -3.355  -1.420  -2.326  1.00  0.00    -0.121 Cl
HETATM   10  C10 UNL     1      -4.613  -0.935   0.057  1.00  0.00     0.152 C 
HETATM   11 CL2  UNL     1      -5.745   0.025   1.025  1.00  0.00    -0.098 Cl
HETATM   12 CL3  UNL     1      -5.179  -2.584  -0.126  1.00  0.00    -0.098 Cl
HETATM   13  C11 UNL     1      -3.132  -0.812   0.532  1.00  0.00     0.079 C 
HETATM   14  C12 UNL     1      -3.173  -0.510   2.039  1.00  0.00     0.036 C 
HETATM   15 CL4  UNL     1      -2.136  -2.197   0.209  1.00  0.00    -0.115 Cl
ENDBRANCH   5   7
ENDBRANCH   1   5
BRANCH   3  16
HETATM   16  N2  UNL     1       1.564   0.804   0.680  1.00  0.00    -0.265 N 
HETATM   17  C4  UNL     1       2.438  -0.267   0.407  1.00  0.00     0.271 C 
HETATM   18  O2  UNL     1       1.938  -1.369   0.014  1.00  0.00    -0.269 OA
ATOM     19  H2  UNL     1       1.947   1.695   0.996  1.00  0.00     0.190 HD
BRANCH  17  20
HETATM   20  C5  UNL     1       3.898  -0.201   0.544  1.00  0.00     0.197 C 
HETATM   21  C6  UNL     1       4.213   0.081   2.010  1.00  0.00     0.056 C 
HETATM   22  C7  UNL     1       4.514   0.922  -0.254  1.00  0.00     0.056 C 
BRANCH  20  23
HETATM   23  N3  UNL     1       4.557  -1.428   0.196  1.00  0.00    -0.062 N 
ATOM     24  H33 UNL     1       4.178  -2.208   0.733  1.00  0.00     0.275 HD
ATOM     25  H32 UNL     1       4.294  -1.727  -0.743  1.00  0.00     0.275 HD
ATOM     26  H31 UNL     1       5.572  -1.382   0.291  1.00  0.00     0.275 HD
ENDBRANCH  20  23
ENDBRANCH  17  20
ENDBRANCH   3  16
TORSDOF 5
