REMARK  7 active torsions:
REMARK  status: ('A' for Active; 'I' for Inactive)
REMARK    1  A    between atoms: C2_2  and  N1_3 
REMARK    2  A    between atoms: C3_4  and  C4_5 
REMARK    3  A    between atoms: C4_5  and  O1_6 
REMARK    4  A    between atoms: C7_12  and  N3_13 
REMARK    5  A    between atoms: N3_13  and  N4_15 
REMARK    6  A    between atoms: N4_15  and  N5_16 
REMARK       I    between atoms: N6_19  and  C8_20 
REMARK       I    between atoms: C8_20  and  N8_24 
REMARK    7  A    between atoms: N8_24  and  N9_26 
ROOT
HETATM    1  N1  UNL     1      -1.919   0.301   0.243  1.00  0.00    -0.327 N 
HETATM    2  C3  UNL     1      -2.760   1.374   0.138  1.00  0.00     0.130 A 
HETATM    3  N2  UNL     1      -2.049   2.482  -0.109  1.00  0.00    -0.339 N 
ATOM      4  H2  UNL     1      -2.426   3.422  -0.233  1.00  0.00     0.167 HD
HETATM    5  C5  UNL     1      -0.771   2.142  -0.164  1.00  0.00     0.066 A 
HETATM    6  C6  UNL     1      -0.679   0.765   0.057  1.00  0.00     0.110 A 
HETATM    7  C7  UNL     1       0.499   0.167   0.060  1.00  0.00     0.170 A 
HETATM    8  N6  UNL     1       1.671   0.977  -0.174  1.00  0.00    -0.139 N 
HETATM    9  C8  UNL     1       2.917   0.308  -0.167  1.00  0.00     0.698 C 
HETATM   10  N7  UNL     1       3.484  -0.080  -1.242  1.00  0.00    -0.233 N 
ATOM     11  H71 UNL     1       4.383  -0.563  -1.237  1.00  0.00     0.174 HD
ATOM     12  H72 UNL     1       3.026   0.097  -2.136  1.00  0.00     0.174 HD
HETATM   13  N8  UNL     1       3.550   0.063   1.067  1.00  0.00    -0.138 N 
ATOM     14  H8  UNL     1       3.094  -0.533   1.758  1.00  0.00     0.205 HD
HETATM   15  C9  UNL     1       1.585   2.382  -0.402  1.00  0.00     0.119 A 
HETATM   16  C10 UNL     1       0.424   2.961  -0.401  1.00  0.00     0.050 A 
ENDROOT
BRANCH   7  17
HETATM   17  N3  UNL     1       0.682  -1.210   0.282  1.00  0.00    -0.267 N 
ATOM     18  H3  UNL     1       0.562  -1.554   1.235  1.00  0.00     0.186 HD
BRANCH  17  19
HETATM   19  N4  UNL     1       1.017  -2.147  -0.708  1.00  0.00    -0.028 NA
BRANCH  19  20
HETATM   20  N5  UNL     1       0.720  -3.441  -0.341  1.00  0.00    -0.329 N 
ATOM     21  H52 UNL     1       0.301  -3.677   0.559  1.00  0.00     0.174 HD
ATOM     22  H51 UNL     1       0.963  -4.122  -1.060  1.00  0.00     0.174 HD
ENDBRANCH  19  20
ENDBRANCH  17  19
ENDBRANCH   7  17
BRANCH  13  23
HETATM   23  N9  UNL     1       4.797   0.628   1.356  1.00  0.00    -0.331 N 
ATOM     24  H92 UNL     1       5.239   1.222   0.654  1.00  0.00     0.177 HD
ATOM     25  H91 UNL     1       5.255   0.451   2.250  1.00  0.00     0.177 HD
ENDBRANCH  13  23
BRANCH   1  26
HETATM   26  C2  UNL     1      -2.330  -1.048   0.512  1.00  0.00     0.126 C 
HETATM   27  C1  UNL     1      -2.685  -1.810  -0.758  1.00  0.00     0.027 C 
ENDBRANCH   1  26
BRANCH   2  28
HETATM   28  C4  UNL     1      -4.072   1.350   0.250  1.00  0.00     0.179 C 
BRANCH  28  29
HETATM   29  O1  UNL     1      -4.809   2.508   0.123  1.00  0.00    -0.369 OA
ATOM     30  H1  UNL     1      -5.755   2.491   0.204  1.00  0.00     0.216 HD
ENDBRANCH  28  29
ENDBRANCH   2  28
TORSDOF 7
