REMARK  10 active torsions:
REMARK  status: ('A' for Active; 'I' for Inactive)
REMARK    1  A    between atoms: C2_2  and  N1_3 
REMARK    2  A    between atoms: C2_2  and  C3_7 
REMARK    3  A    between atoms: C3_7  and  N2_8 
REMARK    4  A    between atoms: N2_8  and  N3_9 
REMARK    5  A    between atoms: N3_9  and  C4_11 
REMARK    6  A    between atoms: C4_11  and  N4_12 
REMARK    7  A    between atoms: C4_11  and  S1_17 
REMARK    8  A    between atoms: N4_12  and  N5_14 
REMARK    9  A    between atoms: S1_17  and  N6_18 
REMARK   10  A    between atoms: C5_23  and  N9_24 
ROOT
HETATM    1  C4  UNL     1       0.195   0.339   0.814  1.00  0.00     0.193 C 
ENDROOT
BRANCH   1   2
HETATM    2  N3  UNL     1      -1.083   0.754   1.210  1.00  0.00    -0.281 N 
ATOM      3  H3  UNL     1      -1.178   1.622   1.737  1.00  0.00     0.184 HD
BRANCH   2   4
HETATM    4  N2  UNL     1      -2.220   0.027   0.911  1.00  0.00    -0.137 NA
BRANCH   4   5
HETATM    5  C3  UNL     1      -2.758   0.396  -0.391  1.00  0.00     0.167 C 
BRANCH   5   6
HETATM    6  C2  UNL     1      -3.988  -0.378  -0.736  1.00  0.00     0.195 C 
HETATM    7  C1  UNL     1      -4.462   0.080  -2.098  1.00  0.00     0.041 C 
BRANCH   6   8
HETATM    8  N1  UNL     1      -5.038  -0.135   0.248  1.00  0.00    -0.074 N 
ATOM      9  H13 UNL     1      -5.345   0.838   0.253  1.00  0.00     0.274 HD
ATOM     10  H12 UNL     1      -5.924  -0.566  -0.018  1.00  0.00     0.274 HD
ATOM     11  H11 UNL     1      -4.718  -0.444   1.166  1.00  0.00     0.274 HD
ENDBRANCH   6   8
ENDBRANCH   5   6
ENDBRANCH   4   5
ENDBRANCH   2   4
ENDBRANCH   1   2
BRANCH   1  12
HETATM   12  N4  UNL     1       0.335  -0.867   0.080  1.00  0.00    -0.284 N 
ATOM     13  H4  UNL     1      -0.497  -1.411  -0.147  1.00  0.00     0.188 HD
BRANCH  12  14
HETATM   14  N5  UNL     1       1.592  -1.329  -0.341  1.00  0.00    -0.343 N 
ATOM     15  H52 UNL     1       2.414  -0.773  -0.105  1.00  0.00     0.176 HD
ATOM     16  H51 UNL     1       1.693  -2.196  -0.869  1.00  0.00     0.176 HD
ENDBRANCH  12  14
ENDBRANCH   1  12
BRANCH   1  17
HETATM   17  S1  UNL     1       1.526   1.210   1.176  1.00  0.00     0.056 SA
BRANCH  17  18
HETATM   18  N6  UNL     1       3.150   0.693   0.678  1.00  0.00    -0.154 N 
HETATM   19  N7  UNL     1       3.659   1.031  -0.506  1.00  0.00    -0.211 N 
HETATM   20  N8  UNL     1       4.871   0.627  -0.838  1.00  0.00    -0.117 N 
ATOM     21  H7  UNL     1       3.114   1.600  -1.154  1.00  0.00     0.210 HD
HETATM   22  C5  UNL     1       5.655  -0.123  -0.047  1.00  0.00     0.695 A 
ATOM     23  H8  UNL     1       5.234   0.901  -1.751  1.00  0.00     0.207 HD
HETATM   24  N10 UNL     1       5.161  -0.475   1.153  1.00  0.00    -0.138 N 
HETATM   25  C6  UNL     1       3.926  -0.064   1.492  1.00  0.00     0.367 A 
ATOM     26  H10 UNL     1       5.713  -1.044   1.795  1.00  0.00     0.189 HD
HETATM   27  O1  UNL     1       3.410  -0.367   2.612  1.00  0.00    -0.243 OA
BRANCH  22  28
HETATM   28  N9  UNL     1       6.854  -0.507  -0.408  1.00  0.00    -0.233 N 
ATOM     29  H92 UNL     1       7.229  -0.240  -1.318  1.00  0.00     0.174 HD
ATOM     30  H91 UNL     1       7.450  -1.077   0.193  1.00  0.00     0.174 HD
ENDBRANCH  22  28
ENDBRANCH  17  18
ENDBRANCH   1  17
TORSDOF 10
