REMARK  9 active torsions:
REMARK  status: ('A' for Active; 'I' for Inactive)
REMARK    1  A    between atoms: N1_1  and  C1_4 
REMARK    2  A    between atoms: C2_7  and  N3_8 
REMARK    3  A    between atoms: C3_11  and  C4_12 
REMARK    4  A    between atoms: C4_12  and  O3_13 
REMARK    5  A    between atoms: C4_12  and  C5_15 
REMARK    6  A    between atoms: C5_15  and  N4_16 
REMARK    7  A    between atoms: C5_15  and  O4_20 
REMARK    8  A    between atoms: O4_20  and  C6_21 
REMARK    9  A    between atoms: C7_24  and  N6_25 
ROOT
HETATM    1  C1  UNL     1      -3.620  -0.632   0.211  1.00  0.00     0.679 A 
HETATM    2  N2  UNL     1      -3.197   0.596   0.517  1.00  0.00    -0.170 N 
ATOM      3  H2  UNL     1      -3.895   1.277   0.817  1.00  0.00     0.186 HD
HETATM    4  C2  UNL     1      -1.898   1.005   0.457  1.00  0.00     0.204 A 
HETATM    5  C3  UNL     1      -0.946   0.069   0.035  1.00  0.00     0.092 A 
HETATM    6  C7  UNL     1      -1.443  -1.182  -0.273  1.00  0.00     0.131 A 
HETATM    7  N7  UNL     1      -2.748  -1.527  -0.187  1.00  0.00    -0.176 N 
ATOM      8  H7  UNL     1      -3.050  -2.471  -0.429  1.00  0.00     0.186 HD
ENDROOT
BRANCH   5   9
HETATM    9  C4  UNL     1       0.419   0.489  -0.238  1.00  0.00     0.117 C 
BRANCH   9  10
HETATM   10  O3  UNL     1       0.700   1.809  -0.434  1.00  0.00    -0.359 OA
ATOM     11  H3  UNL     1       1.592   2.083  -0.612  1.00  0.00     0.217 HD
ENDBRANCH   9  10
BRANCH   9  12
HETATM   12  C5  UNL     1       1.600  -0.278   0.163  1.00  0.00     0.386 C 
BRANCH  12  13
HETATM   13  N4  UNL     1       1.582  -1.694   0.348  1.00  0.00    -0.046 N 
ATOM     14  H43 UNL     1       0.840  -1.905   1.015  1.00  0.00     0.277 HD
ATOM     15  H42 UNL     1       1.226  -2.110  -0.513  1.00  0.00     0.277 HD
ATOM     16  H41 UNL     1       2.405  -2.228   0.627  1.00  0.00     0.277 HD
ENDBRANCH  12  13
BRANCH  12  17
HETATM   17  O4  UNL     1       2.755   0.119  -0.612  1.00  0.00    -0.266 OA
BRANCH  17  18
HETATM   18  C6  UNL     1       3.947   0.479   0.061  1.00  0.00     0.375 C 
HETATM   19  N5  UNL     1       5.068   0.908  -0.689  1.00  0.00    -0.032 NA
HETATM   20  O5  UNL     1       4.007   0.417   1.306  1.00  0.00    -0.242 OA
ENDBRANCH  17  18
ENDBRANCH  12  17
ENDBRANCH   9  12
ENDBRANCH   5   9
BRANCH   4  21
HETATM   21  N3  UNL     1      -1.694   2.309   0.883  1.00  0.00    -0.096 N 
HETATM   22  O1  UNL     1      -0.647   2.864   1.095  1.00  0.00    -0.530 OA
HETATM   23  O2  UNL     1      -2.813   3.107   1.189  1.00  0.00    -0.530 OA
ENDBRANCH   4  21
BRANCH   6  24
HETATM   24  N6  UNL     1      -0.672  -2.098  -0.774  1.00  0.00    -0.384 N 
ATOM     25  H62 UNL     1       0.312  -1.838  -0.839  1.00  0.00     0.157 HD
ATOM     26  H61 UNL     1      -1.039  -3.022  -1.002  1.00  0.00     0.157 HD
ENDBRANCH   6  24
BRANCH   1  27
HETATM   27  N1  UNL     1      -4.901  -0.928   0.326  1.00  0.00    -0.234 N 
ATOM     28  H12 UNL     1      -5.579  -0.232   0.636  1.00  0.00     0.174 HD
ATOM     29  H11 UNL     1      -5.224  -1.867   0.092  1.00  0.00     0.174 HD
ENDBRANCH   1  27
TORSDOF 9
