REMARK  10 active torsions:
REMARK  status: ('A' for Active; 'I' for Inactive)
REMARK    1  A    between atoms: N1_1  and  C1_4 
REMARK    2  A    between atoms: C2_7  and  S1_8 
REMARK    3  A    between atoms: S1_8  and  C3_9 
REMARK    4  A    between atoms: C4_10  and  C5_11 
REMARK    5  A    between atoms: C5_11  and  O1_12 
REMARK    6  A    between atoms: C5_11  and  O2_14 
REMARK    7  A    between atoms: N3_16  and  O3_17 
REMARK    8  A    between atoms: C6_19  and  N4_20 
REMARK    9  A    between atoms: N4_20  and  N5_22 
REMARK   10  A    between atoms: C7_25  and  N6_26 
ROOT
HETATM    1  C1  UNL     1      -1.304   2.245  -0.669  1.00  0.00     0.679 C 
HETATM    2  N2  UNL     1      -0.203   1.598  -0.182  1.00  0.00    -0.168 N 
ATOM      3  H2  UNL     1       0.697   2.068  -0.284  1.00  0.00     0.186 HD
HETATM    4  C2  UNL     1      -0.203   0.383   0.426  1.00  0.00     0.192 C 
HETATM    5  N3  UNL     1      -1.254  -0.437   0.678  1.00  0.00    -0.179 N 
HETATM    6  C6  UNL     1      -2.490  -0.477   0.127  1.00  0.00     0.194 C 
HETATM    7  C7  UNL     1      -2.916   0.422  -0.828  1.00  0.00     0.163 C 
HETATM    8  N7  UNL     1      -2.446   1.663  -1.122  1.00  0.00    -0.173 N 
ATOM      9  H7  UNL     1      -3.016   2.223  -1.756  1.00  0.00     0.186 HD
ENDROOT
BRANCH   4  10
HETATM   10  S1  UNL     1       1.398  -0.182   0.934  1.00  0.00    -0.063 SA
BRANCH  10  11
HETATM   11  C3  UNL     1       2.646   1.009   0.507  1.00  0.00     0.054 C 
HETATM   12  C4  UNL     1       3.887   0.633   0.227  1.00  0.00     0.040 C 
BRANCH  12  13
HETATM   13  C5  UNL     1       4.179  -0.845   0.290  1.00  0.00     0.278 C 
BRANCH  13  14
HETATM   14  O1  UNL     1       5.456  -0.986   0.808  1.00  0.00    -0.368 OA
ATOM     15  H1  UNL     1       5.640  -1.917   0.848  1.00  0.00     0.213 HD
ENDBRANCH  13  14
BRANCH  13  16
HETATM   16  O2  UNL     1       4.167  -1.431  -0.973  1.00  0.00    -0.368 OA
ATOM     17  H2  UNL     1       4.351  -2.362  -0.933  1.00  0.00     0.213 HD
ENDBRANCH  13  16
ENDBRANCH  12  13
ENDBRANCH  10  11
ENDBRANCH   4  10
BRANCH   5  18
HETATM   18  O3  UNL     1      -1.008  -1.367   1.640  1.00  0.00    -0.279 OA
ATOM     19  H3  UNL     1      -1.744  -1.941   1.816  1.00  0.00     0.245 HD
ENDBRANCH   5  18
BRANCH   1  20
HETATM   20  N1  UNL     1      -1.200   3.523  -0.679  1.00  0.00    -0.234 N 
ATOM     21  H12 UNL     1      -0.343   3.960  -0.339  1.00  0.00     0.174 HD
ATOM     22  H11 UNL     1      -2.022   4.006  -1.042  1.00  0.00     0.174 HD
ENDBRANCH   1  20
BRANCH   6  23
HETATM   23  N4  UNL     1      -3.369  -1.497   0.578  1.00  0.00    -0.287 N 
ATOM     24  H4  UNL     1      -4.049  -1.252   1.297  1.00  0.00     0.188 HD
BRANCH  23  25
HETATM   25  N5  UNL     1      -3.369  -2.812   0.107  1.00  0.00    -0.343 N 
ATOM     26  H52 UNL     1      -2.682  -3.039  -0.612  1.00  0.00     0.176 HD
ATOM     27  H51 UNL     1      -4.000  -3.545   0.431  1.00  0.00     0.176 HD
ENDBRANCH  23  25
ENDBRANCH   6  23
BRANCH   7  28
HETATM   28  N6  UNL     1      -3.910   0.012  -1.532  1.00  0.00    -0.382 N 
ATOM     29  H62 UNL     1      -4.263  -0.919  -1.311  1.00  0.00     0.157 HD
ATOM     30  H61 UNL     1      -4.225   0.677  -2.238  1.00  0.00     0.157 HD
ENDBRANCH   7  28
TORSDOF 10
