REMARK  8 active torsions:
REMARK  status: ('A' for Active; 'I' for Inactive)
REMARK    1  A    between atoms: N1_1  and  C1_4 
REMARK    2  A    between atoms: C2_9  and  N4_10 
REMARK    3  A    between atoms: N4_10  and  C3_12 
REMARK    4  A    between atoms: C5_16  and  C6_17 
REMARK    5  A    between atoms: C6_17  and  N6_18 
REMARK    6  A    between atoms: N6_18  and  O1_19 
REMARK    7  A    between atoms: O1_19  and  C7_20 
REMARK       I    between atoms: C7_20  and  N7_22 
REMARK    8  A    between atoms: N7_22  and  N8_24 
ROOT
HETATM    1  C3  UNL     1      -1.823   1.458   0.549  1.00  0.00     0.151 A 
HETATM    2  C4  UNL     1      -1.217   0.479   1.311  1.00  0.00     0.139 A 
HETATM    3  N5  UNL     1       0.137   0.300   1.308  1.00  0.00    -0.350 N 
ATOM      4  H5  UNL     1       0.574  -0.426   1.875  1.00  0.00     0.166 HD
HETATM    5  C5  UNL     1       0.865   1.105   0.541  1.00  0.00     0.113 A 
HETATM    6  N9  UNL     1       0.276   2.063  -0.205  1.00  0.00    -0.286 N 
ATOM      7  H9  UNL     1       0.858   2.667  -0.785  1.00  0.00     0.188 HD
HETATM    8  N10 UNL     1      -1.034   2.241  -0.206  1.00  0.00    -0.283 N 
ATOM      9  H10 UNL     1      -1.447   2.975  -0.782  1.00  0.00     0.188 HD
ENDROOT
BRANCH   1  10
HETATM   10  N4  UNL     1      -3.229   1.591   0.598  1.00  0.00    -0.172 N 
ATOM     11  H4  UNL     1      -3.620   2.466   0.948  1.00  0.00     0.186 HD
BRANCH  10  12
HETATM   12  C2  UNL     1      -4.044   0.665   0.223  1.00  0.00     0.713 A 
HETATM   13  N3  UNL     1      -3.734  -0.548  -0.263  1.00  0.00    -0.117 N 
HETATM   14  N2  UNL     1      -4.846  -1.225  -0.539  1.00  0.00    -0.118 N 
ATOM     15  H3  UNL     1      -2.786  -0.899  -0.400  1.00  0.00     0.206 HD
HETATM   16  C1  UNL     1      -5.858  -0.425  -0.221  1.00  0.00     0.705 A 
ATOM     17  H2  UNL     1      -4.909  -2.170  -0.919  1.00  0.00     0.206 HD
HETATM   18  N11 UNL     1      -5.385   0.747   0.252  1.00  0.00    -0.020 N 
ATOM     19  H11 UNL     1      -5.939   1.542   0.570  1.00  0.00     0.203 HD
BRANCH  16  20
HETATM   20  N1  UNL     1      -7.107  -0.681  -0.328  1.00  0.00    -0.233 N 
ATOM     21  H12 UNL     1      -7.465  -1.567  -0.686  1.00  0.00     0.174 HD
ATOM     22  H11 UNL     1      -7.884  -0.067  -0.084  1.00  0.00     0.174 HD
ENDBRANCH  16  20
ENDBRANCH  10  12
ENDBRANCH   1  10
BRANCH   5  23
HETATM   23  C6  UNL     1       2.340   1.004   0.458  1.00  0.00     0.221 C 
BRANCH  23  24
HETATM   24  N6  UNL     1       2.873  -0.041   1.284  1.00  0.00    -0.082 NA
BRANCH  24  25
HETATM   25  O1  UNL     1       4.240  -0.046   1.132  1.00  0.00    -0.188 OA
BRANCH  25  26
HETATM   26  C7  UNL     1       4.875  -0.637   0.040  1.00  0.00     0.397 C 
HETATM   27  O2  UNL     1       4.121  -1.173  -0.812  1.00  0.00    -0.235 OA
HETATM   28  N7  UNL     1       6.286  -0.629  -0.095  1.00  0.00    -0.251 N 
ATOM     29  H7  UNL     1       6.860  -0.182   0.620  1.00  0.00     0.191 HD
BRANCH  28  30
HETATM   30  N8  UNL     1       6.894  -1.226  -1.195  1.00  0.00    -0.341 N 
ATOM     31  H82 UNL     1       6.305  -1.669  -1.901  1.00  0.00     0.177 HD
ATOM     32  H81 UNL     1       7.909  -1.220  -1.292  1.00  0.00     0.177 HD
ENDBRANCH  28  30
ENDBRANCH  25  26
ENDBRANCH  24  25
ENDBRANCH  23  24
ENDBRANCH   5  23
TORSDOF 8
