REMARK  6 active torsions:
REMARK  status: ('A' for Active; 'I' for Inactive)
REMARK    1  A    between atoms: C14_16  and  C16_18 
REMARK    2  A    between atoms: C16_18  and  O3_19 
REMARK    3  A    between atoms: C17_21  and  O4_22 
REMARK    4  A    between atoms: C17_21  and  C18_24 
REMARK    5  A    between atoms: C18_24  and  C19_25 
REMARK    6  A    between atoms: C19_25  and  O5_26 
ROOT
HETATM    1  C1  UNL     1      -3.109  -0.639  -1.760  1.00  0.00     0.011 C 
HETATM    2  C2  UNL     1      -2.589   0.106  -0.515  1.00  0.00     0.000 C 
HETATM    3  C3  UNL     1      -3.655   0.116   0.523  1.00  0.00     0.083 C 
HETATM    4  C4  UNL     1      -3.354  -0.447   1.824  1.00  0.00     0.127 C 
HETATM    5  O1  UNL     1      -4.251  -0.526   2.639  1.00  0.00    -0.298 OA
HETATM    6  C5  UNL     1      -2.014  -0.928   2.201  1.00  0.00     0.083 C 
HETATM    7  C6  UNL     1      -1.238  -1.331   0.958  1.00  0.00     0.000 C 
HETATM    8  C7  UNL     1      -1.955  -2.609   0.523  1.00  0.00     0.011 C 
HETATM    9  C8  UNL     1      -1.212  -0.304  -0.113  1.00  0.00    -0.002 C 
HETATM   10  C9  UNL     1      -0.537  -0.832  -1.335  1.00  0.00     0.014 C 
HETATM   11  C10 UNL     1       0.899  -1.126  -1.236  1.00  0.00     0.009 C 
HETATM   12  C11 UNL     1       1.668  -0.608  -0.094  1.00  0.00     0.031 C 
HETATM   13  C12 UNL     1       0.947   0.364   0.811  1.00  0.00     0.052 C 
HETATM   14  C13 UNL     1       2.049   1.202   1.281  1.00  0.00     0.177 C 
HETATM   15  O2  UNL     1       3.148   1.094   0.420  1.00  0.00    -0.377 OA
HETATM   16  C14 UNL     1       3.004  -0.018  -0.356  1.00  0.00     0.082 C 
HETATM   17  C15 UNL     1       3.305   0.332  -1.790  1.00  0.00     0.049 C 
HETATM   18  C17 UNL     1      -0.322   0.914   0.292  1.00  0.00     0.074 C 
ENDROOT
BRANCH  18  19
HETATM   19  O4  UNL     1      -1.022   1.511   1.341  1.00  0.00    -0.388 OA
ATOM     20  H4  UNL     1      -0.481   2.252   1.587  1.00  0.00     0.210 HD
ENDBRANCH  18  19
BRANCH  18  21
HETATM   21  C18 UNL     1      -0.235   1.907  -0.772  1.00  0.00     0.065 C 
BRANCH  21  22
HETATM   22  C19 UNL     1       0.505   3.191  -0.552  1.00  0.00     0.167 C 
BRANCH  22  23
HETATM   23  O5  UNL     1       0.013   3.968   0.487  1.00  0.00    -0.401 OA
ATOM     24  H5  UNL     1       0.482   4.782   0.626  1.00  0.00     0.209 HD
ENDBRANCH  22  23
ENDBRANCH  21  22
ENDBRANCH  18  21
BRANCH  16  25
HETATM   25  C16 UNL     1       4.158  -0.945   0.058  1.00  0.00     0.202 C 
BRANCH  25  26
HETATM   26  O3  UNL     1       4.079  -1.266   1.404  1.00  0.00    -0.398 OA
ATOM     27  H3  UNL     1       4.792  -1.839   1.660  1.00  0.00     0.209 HD
ENDBRANCH  25  26
ENDBRANCH  16  25
TORSDOF 6
