REMARK  6 active torsions:
REMARK  status: ('A' for Active; 'I' for Inactive)
REMARK    1  A    between atoms: C2_2  and  C3_3 
REMARK    2  A    between atoms: C3_3  and  C5_5 
REMARK    3  A    between atoms: C3_3  and  N4_16 
REMARK    4  A    between atoms: C5_5  and  N1_6 
REMARK       I    between atoms: N4_16  and  C12_18 
REMARK    5  A    between atoms: C12_18  and  C13_20 
REMARK    6  A    between atoms: C16_23  and  N5_24 
ROOT
HETATM    1  C3  UNL     1      -0.649  -1.814  -0.981  1.00  0.00     0.061 C 
HETATM    2  C4  UNL     1      -0.315  -3.247  -0.504  1.00  0.00     0.044 C 
ENDROOT
BRANCH   1   3
HETATM    3  C2  UNL     1      -0.489  -1.821  -2.450  1.00  0.00     0.032 C 
HETATM    4  C1  UNL     1      -1.413  -2.793  -3.167  1.00  0.00     0.008 C 
ENDBRANCH   1   3
BRANCH   1   5
HETATM    5  C5  UNL     1      -2.046  -1.592  -0.461  1.00  0.00     0.096 C 
BRANCH   5   6
HETATM    6  N1  UNL     1      -2.707  -0.395  -0.785  1.00  0.00    -0.347 N 
HETATM    7  C6  UNL     1      -3.217   0.063  -2.037  1.00  0.00     0.130 C 
HETATM    8  C7  UNL     1      -3.787   1.466  -1.844  1.00  0.00     0.034 C 
HETATM    9  C8  UNL     1      -3.102   1.935  -0.581  1.00  0.00     0.076 C 
HETATM   10  C9  UNL     1      -3.980   2.766   0.315  1.00  0.00     0.154 C 
HETATM   11  C11 UNL     1      -3.004   0.643   0.178  1.00  0.00     0.103 C 
HETATM   12  N2  UNL     1      -3.465   2.273   1.611  1.00  0.00    -0.330 N 
HETATM   13  C10 UNL     1      -3.312   3.118   2.760  1.00  0.00     0.170 C 
HETATM   14  N3  UNL     1      -3.205   0.916   1.415  1.00  0.00    -0.291 N 
ATOM     15  H3  UNL     1      -3.178   0.225   2.165  1.00  0.00     0.188 HD
ENDBRANCH   5   6
ENDBRANCH   1   5
BRANCH   1  16
HETATM   16  N4  UNL     1       0.301  -0.948  -0.362  1.00  0.00    -0.347 N 
HETATM   17  C12 UNL     1       1.686  -1.171  -0.413  1.00  0.00     0.222 C 
HETATM   18  O1  UNL     1       2.151  -2.165  -1.009  1.00  0.00    -0.273 OA
ATOM     19  H4  UNL     1      -0.042  -0.129   0.141  1.00  0.00     0.163 HD
BRANCH  17  20
HETATM   20  C13 UNL     1       2.659  -0.238   0.239  1.00  0.00     0.078 C 
HETATM   21  C14 UNL     1       4.070  -0.721   0.033  1.00  0.00     0.016 C 
HETATM   22  C15 UNL     1       5.032   0.302   0.572  1.00  0.00     0.033 C 
HETATM   23  C16 UNL     1       4.714   0.718   1.974  1.00  0.00     0.183 C 
HETATM   24  C17 UNL     1       3.268   1.075   2.189  1.00  0.00     0.033 C 
HETATM   25  C18 UNL     1       2.419  -0.101   1.722  1.00  0.00     0.016 C 
BRANCH  23  26
HETATM   26  N5  UNL     1       5.569   1.861   2.285  1.00  0.00    -0.075 N 
ATOM     27  H53 UNL     1       6.560   1.671   2.138  1.00  0.00     0.274 HD
ATOM     28  H52 UNL     1       5.481   2.622   1.612  1.00  0.00     0.274 HD
ATOM     29  H51 UNL     1       5.352   2.145   3.241  1.00  0.00     0.274 HD
ENDBRANCH  23  26
ENDBRANCH  17  20
ENDBRANCH   1  16
TORSDOF 6
