REMARK  11 active torsions:
REMARK  status: ('A' for Active; 'I' for Inactive)
REMARK    1  A    between atoms: O1_2  and  C2_3 
REMARK    2  A    between atoms: C2_3  and  C3_5 
REMARK    3  A    between atoms: C3_5  and  C4_6 
REMARK    4  A    between atoms: C3_5  and  C11_24 
REMARK    5  A    between atoms: C4_6  and  C5_7 
REMARK    6  A    between atoms: C8_15  and  N3_16 
REMARK       I    between atoms: C11_24  and  N6_26 
REMARK    7  A    between atoms: N6_26  and  C12_28 
REMARK    8  A    between atoms: C12_28  and  C13_29 
REMARK    9  A    between atoms: C12_28  and  C14_31 
REMARK   10  A    between atoms: C14_31  and  C15_33 
REMARK       I    between atoms: C15_33  and  N7_35 
REMARK   11  A    between atoms: N7_35  and  C16_37 
ROOT
HETATM    1  C16 UNL     1      -7.800  -0.010  -0.762  1.00  0.00     0.247 C 
HETATM    2  C17 UNL     1      -8.457  -0.123  -2.051  1.00  0.00     0.078 C 
HETATM    3  N8  UNL     1      -8.976  -0.227  -3.088  1.00  0.00    -0.196 NA
ENDROOT
BRANCH   1   4
HETATM    4  N7  UNL     1      -6.361   0.035  -0.925  1.00  0.00    -0.342 N 
HETATM    5  C15 UNL     1      -5.491   0.144   0.179  1.00  0.00     0.290 C 
HETATM    6  O6  UNL     1      -5.968   0.203   1.327  1.00  0.00    -0.264 OA
ATOM      7  H7  UNL     1      -5.967  -0.014  -1.864  1.00  0.00     0.163 HD
BRANCH   5   8
HETATM    8  C14 UNL     1      -4.064   0.187  -0.020  1.00  0.00     0.239 C 
HETATM    9  O5  UNL     1      -3.636   0.107  -1.208  1.00  0.00    -0.285 OA
BRANCH   8  10
HETATM   10  C12 UNL     1      -3.054   0.316   1.069  1.00  0.00     0.174 C 
BRANCH  10  11
HETATM   11  N6  UNL     1      -1.725   0.270   0.497  1.00  0.00    -0.348 N 
HETATM   12  C11 UNL     1      -0.857  -0.778   0.854  1.00  0.00     0.232 C 
HETATM   13  O4  UNL     1      -1.223  -1.657   1.651  1.00  0.00    -0.273 OA
ATOM     14  H6  UNL     1      -1.421   0.990  -0.158  1.00  0.00     0.163 HD
BRANCH  12  15
HETATM   15  C3  UNL     1       0.503  -0.826   0.270  1.00  0.00     0.184 C 
BRANCH  15  16
HETATM   16  C2  UNL     1       0.411  -0.908  -1.186  1.00  0.00     0.272 C 
HETATM   17  O2  UNL     1       0.838  -0.078  -1.994  1.00  0.00    -0.264 OA
BRANCH  16  18
HETATM   18  O1  UNL     1      -0.225  -2.038  -1.729  1.00  0.00    -0.326 OA
HETATM   19  C1  UNL     1      -0.377  -2.234  -3.102  1.00  0.00     0.213 C 
ENDBRANCH  16  18
ENDBRANCH  15  16
BRANCH  15  20
HETATM   20  C4  UNL     1       1.259   0.348   0.813  1.00  0.00     0.101 C 
BRANCH  20  21
HETATM   21  C5  UNL     1       2.676   0.429   0.404  1.00  0.00     0.086 A 
HETATM   22  N1  UNL     1       3.209   1.057  -0.651  1.00  0.00    -0.338 N 
HETATM   23  C6  UNL     1       4.536   0.904  -0.688  1.00  0.00     0.148 A 
ATOM     24  H1  UNL     1       2.671   1.585  -1.339  1.00  0.00     0.167 HD
HETATM   25  C7  UNL     1       5.558   1.318  -1.520  1.00  0.00     0.290 A 
HETATM   26  C9  UNL     1       4.884   0.139   0.395  1.00  0.00     0.157 A 
HETATM   27  O3  UNL     1       5.227   2.022  -2.514  1.00  0.00    -0.265 OA
HETATM   28  N2  UNL     1       6.845   0.988  -1.282  1.00  0.00    -0.154 N 
HETATM   29  C8  UNL     1       7.174   0.231  -0.206  1.00  0.00     0.680 A 
ATOM     30  H2  UNL     1       7.576   1.310  -1.916  1.00  0.00     0.187 HD
HETATM   31  N4  UNL     1       6.177  -0.166   0.594  1.00  0.00    -0.174 N 
ATOM     32  H4  UNL     1       6.414  -0.736   1.406  1.00  0.00     0.186 HD
HETATM   33  N5  UNL     1       3.730  -0.138   1.046  1.00  0.00    -0.325 N 
HETATM   34  C10 UNL     1       3.651  -0.919   2.239  1.00  0.00     0.159 C 
BRANCH  29  35
HETATM   35  N3  UNL     1       8.418  -0.099   0.040  1.00  0.00    -0.234 N 
ATOM     36  H32 UNL     1       9.178   0.204  -0.570  1.00  0.00     0.174 HD
ATOM     37  H31 UNL     1       8.665  -0.668   0.849  1.00  0.00     0.174 HD
ENDBRANCH  29  35
ENDBRANCH  20  21
ENDBRANCH  15  20
ENDBRANCH  12  15
ENDBRANCH  10  11
BRANCH  10  38
HETATM   38  C13 UNL     1      -3.264   1.582   1.868  1.00  0.00     0.119 C 
HETATM   39  S1  UNL     1      -3.080   3.071   0.892  1.00  0.00    -0.095 SA
ENDBRANCH  10  38
ENDBRANCH   8  10
ENDBRANCH   5   8
ENDBRANCH   1   4
TORSDOF 11
