REMARK  7 active torsions:
REMARK  status: ('A' for Active; 'I' for Inactive)
REMARK    1  A    between atoms: C2_3  and  N2_4 
REMARK       I    between atoms: N2_4  and  C3_6 
REMARK    2  A    between atoms: C3_6  and  C4_8 
REMARK    3  A    between atoms: N3_10  and  C6_11 
REMARK    4  A    between atoms: C6_11  and  C7_12 
REMARK    5  A    between atoms: C7_12  and  C8_13 
REMARK    6  A    between atoms: C8_13  and  O2_14 
REMARK    7  A    between atoms: O2_14  and  C9_15 
ROOT
HETATM    1  N1  UNL     1       7.178   0.225   2.179  1.00  0.00    -0.195 NA
HETATM    2  C1  UNL     1       6.963   0.249   1.033  1.00  0.00     0.091 C 
HETATM    3  C2  UNL     1       6.715   0.286  -0.418  1.00  0.00     0.122 A 
HETATM    4  C17 UNL     1       7.753  -0.338  -1.253  1.00  0.00     0.050 A 
HETATM    5  C18 UNL     1       7.686   1.160  -1.180  1.00  0.00     0.050 A 
ENDROOT
BRANCH   3   6
HETATM    6  N2  UNL     1       5.325   0.298  -0.795  1.00  0.00    -0.337 N 
HETATM    7  C3  UNL     1       4.427  -0.746  -0.443  1.00  0.00     0.251 C 
HETATM    8  O1  UNL     1       4.869  -1.706   0.217  1.00  0.00    -0.271 OA
ATOM      9  H2  UNL     1       4.971   1.087  -1.336  1.00  0.00     0.164 HD
BRANCH   7  10
HETATM   10  C4  UNL     1       3.002  -0.742  -0.824  1.00  0.00     0.307 C 
HETATM   11  C5  UNL     1       2.284   0.419  -0.168  1.00  0.00     0.317 C 
HETATM   12  N3  UNL     1       1.744  -0.138   1.054  1.00  0.00     0.116 N 
HETATM   13  C16 UNL     1       1.664  -1.549   0.898  1.00  0.00     0.503 C 
HETATM   14  N5  UNL     1       2.326  -1.924  -0.333  1.00  0.00    -0.034 N 
ATOM     15  H52 UNL     1       1.694  -2.339  -1.018  1.00  0.00     0.280 HD
ATOM     16  H51 UNL     1       2.947  -2.726  -0.227  1.00  0.00     0.280 HD
BRANCH  12  17
HETATM   17  C6  UNL     1       0.575   0.513   1.548  1.00  0.00     0.277 C 
BRANCH  17  18
HETATM   18  C7  UNL     1      -0.656   0.335   0.687  1.00  0.00     0.056 C 
BRANCH  18  19
HETATM   19  C8  UNL     1      -1.779   1.086   1.368  1.00  0.00     0.170 C 
BRANCH  19  20
HETATM   20  O2  UNL     1      -2.981   1.022   0.710  1.00  0.00    -0.384 OA
BRANCH  20  21
HETATM   21  C9  UNL     1      -3.500  -0.236   0.541  1.00  0.00     0.144 C 
HETATM   22  C10 UNL     1      -3.618  -0.519  -0.939  1.00  0.00     0.038 C 
HETATM   23  C11 UNL     1      -5.119  -0.605  -1.175  1.00  0.00    -0.009 C 
HETATM   24  C12 UNL     1      -5.631   0.799  -1.240  1.00  0.00     0.024 C 
HETATM   25  C15 UNL     1      -5.584  -1.271   0.103  1.00  0.00     0.032 C 
HETATM   26  C13 UNL     1      -6.163   1.353   0.032  1.00  0.00     0.114 C 
HETATM   27  N4  UNL     1      -5.593   0.841   1.236  1.00  0.00    -0.415 N 
HETATM   28  C14 UNL     1      -4.884  -0.392   1.126  1.00  0.00     0.105 C 
ATOM     29  H4  UNL     1      -5.687   1.330   2.126  1.00  0.00     0.153 HD
ENDBRANCH  20  21
ENDBRANCH  19  20
ENDBRANCH  18  19
ENDBRANCH  17  18
ENDBRANCH  12  17
ENDBRANCH   7  10
ENDBRANCH   3   6
TORSDOF 7
