REMARK  8 active torsions:
REMARK  status: ('A' for Active; 'I' for Inactive)
REMARK    1  A    between atoms: O1_2  and  C2_3 
REMARK    2  A    between atoms: C2_3  and  C3_4 
REMARK    3  A    between atoms: C3_4  and  C4_5 
REMARK    4  A    between atoms: C4_5  and  N1_6 
REMARK       I    between atoms: N1_6  and  C5_8 
REMARK    5  A    between atoms: C5_8  and  C6_10 
REMARK    6  A    between atoms: N2_14  and  C10_15 
REMARK    7  A    between atoms: C13_19  and  C14_20 
REMARK       I    between atoms: C14_20  and  N4_22 
REMARK    8  A    between atoms: N4_22  and  C15_24 
ROOT
HETATM    1  C10 UNL     1      -2.982  -2.862   0.447  1.00  0.00     0.183 C 
HETATM    2  C11 UNL     1      -3.200  -4.379   0.342  1.00  0.00     0.048 C 
HETATM    3  C12 UNL     1      -3.751  -2.271  -0.618  1.00  0.00     0.084 C 
HETATM    4  N3  UNL     1      -4.395  -1.800  -1.484  1.00  0.00    -0.195 NA
ENDROOT
BRANCH   1   5
HETATM    5  N2  UNL     1      -1.621  -2.598   0.356  1.00  0.00    -0.383 N 
HETATM    6  C9  UNL     1      -0.745  -3.093   1.317  1.00  0.00     0.119 C 
HETATM    7  C8  UNL     1       0.420  -3.711   0.524  1.00  0.00     0.020 C 
HETATM    8  C7  UNL     1       1.099  -2.579  -0.139  1.00  0.00     0.018 C 
HETATM    9  C6  UNL     1       0.224  -1.618  -0.910  1.00  0.00     0.109 C 
HETATM   10  C13 UNL     1      -1.185  -1.510  -0.477  1.00  0.00     0.186 C 
BRANCH   9  11
HETATM   11  C5  UNL     1       0.988  -0.350  -0.955  1.00  0.00     0.224 C 
HETATM   12  N1  UNL     1       1.360   0.304   0.242  1.00  0.00    -0.361 N 
ATOM     13  H1  UNL     1       1.073  -0.127   1.121  1.00  0.00     0.162 HD
HETATM   14  O2  UNL     1       1.348   0.207  -2.048  1.00  0.00    -0.273 OA
BRANCH  12  15
HETATM   15  C4  UNL     1       2.103   1.516   0.319  1.00  0.00     0.124 C 
BRANCH  15  16
HETATM   16  C3  UNL     1       3.480   1.426  -0.321  1.00  0.00     0.046 C 
BRANCH  16  17
HETATM   17  C2  UNL     1       4.175   2.770  -0.158  1.00  0.00     0.168 C 
BRANCH  17  18
HETATM   18  O1  UNL     1       5.426   2.821  -0.709  1.00  0.00    -0.396 OA
HETATM   19  C1  UNL     1       6.344   1.926  -0.229  1.00  0.00     0.201 C 
ENDBRANCH  17  18
ENDBRANCH  16  17
ENDBRANCH  15  16
ENDBRANCH  12  15
ENDBRANCH   9  11
BRANCH  10  20
HETATM   20  C14 UNL     1      -1.650  -0.217   0.043  1.00  0.00     0.241 C 
HETATM   21  O3  UNL     1      -2.103  -0.211   1.238  1.00  0.00    -0.271 OA
HETATM   22  N4  UNL     1      -1.657   1.023  -0.633  1.00  0.00    -0.351 N 
ATOM     23  H4  UNL     1      -1.293   1.043  -1.586  1.00  0.00     0.163 HD
BRANCH  22  24
HETATM   24  C15 UNL     1      -2.135   2.249  -0.082  1.00  0.00     0.022 C 
HETATM   25  C16 UNL     1      -1.469   2.725   1.164  1.00  0.00     0.037 C 
HETATM   26  C17 UNL     1      -1.924   3.362  -1.121  1.00  0.00     0.037 C 
HETATM   27  C18 UNL     1      -3.635   2.206   0.145  1.00  0.00     0.037 C 
ENDBRANCH  22  24
ENDBRANCH  10  20
ENDBRANCH   1   5
TORSDOF 8
