REMARK  1 active torsions:
REMARK  status: ('A' for Active; 'I' for Inactive)
REMARK       I    between atoms: N1_1  and  C1_5 
REMARK       I    between atoms: C1_5  and  N2_6 
REMARK       I    between atoms: C1_5  and  N3_10 
REMARK    1  A    between atoms: N3_10  and  C2_12 
ROOT
HETATM    1  C2  UNL     1       0.833  -0.016   0.476  1.00  0.00     0.685 A 
HETATM    2  N4  UNL     1       0.568   0.051  -0.835  1.00  0.00    -0.155 N 
ATOM      3  H4  UNL     1       1.325   0.114  -1.516  1.00  0.00     0.187 HD
HETATM    4  C3  UNL     1      -0.726   0.033  -1.240  1.00  0.00     0.279 A 
HETATM    5  O1  UNL     1      -1.004   0.096  -2.486  1.00  0.00    -0.266 OA
HETATM    6  C4  UNL     1      -1.761  -0.053  -0.333  1.00  0.00     0.145 A 
HETATM    7  C5  UNL     1      -3.091  -0.075  -0.694  1.00  0.00     0.265 A 
HETATM    8  O2  UNL     1      -3.376  -0.014  -1.914  1.00  0.00    -0.267 OA
HETATM    9  N5  UNL     1      -4.053  -0.162   0.263  1.00  0.00    -0.319 N 
ATOM     10  H5  UNL     1      -5.032  -0.178  -0.021  1.00  0.00     0.169 HD
HETATM   11  C6  UNL     1      -3.754  -0.228   1.572  1.00  0.00     0.184 A 
HETATM   12  N6  UNL     1      -2.462  -0.208   1.946  1.00  0.00    -0.337 N 
ATOM     13  H6  UNL     1      -2.222  -0.258   2.936  1.00  0.00     0.168 HD
HETATM   14  C7  UNL     1      -1.469  -0.122   1.014  1.00  0.00     0.143 A 
HETATM   15  N7  UNL     1      -0.175  -0.100   1.357  1.00  0.00    -0.175 N 
ATOM     16  H7  UNL     1       0.059  -0.150   2.349  1.00  0.00     0.186 HD
ENDROOT
BRANCH   1  17
HETATM   17  N3  UNL     1       2.021  -0.001   0.882  1.00  0.00    -0.173 N 
HETATM   18  C1  UNL     1       3.242   0.079   0.186  1.00  0.00     0.494 C 
HETATM   19  N1  UNL     1       3.314   1.364  -0.486  1.00  0.00    -0.032 N 
HETATM   20  N2  UNL     1       3.515  -0.976  -0.740  1.00  0.00    -0.032 N 
ATOM     21  H13 UNL     1       4.206   1.496  -0.963  1.00  0.00     0.278 HD
ATOM     22  H12 UNL     1       2.702   1.403  -1.301  1.00  0.00     0.278 HD
ATOM     23  H11 UNL     1       3.119   2.116   0.174  1.00  0.00     0.278 HD
ATOM     24  H23 UNL     1       2.903  -0.937  -1.555  1.00  0.00     0.278 HD
ATOM     25  H22 UNL     1       4.407  -0.844  -1.217  1.00  0.00     0.278 HD
ATOM     26  H21 UNL     1       3.464  -1.879  -0.268  1.00  0.00     0.278 HD
ATOM     27  H3  UNL     1       2.119  -0.057   1.896  1.00  0.00     0.181 HD
ENDBRANCH   1  17
TORSDOF 1
