REMARK  3 active torsions:
REMARK  status: ('A' for Active; 'I' for Inactive)
REMARK    1  A    between atoms: N2_7  and  C4_8 
REMARK    2  A    between atoms: C4_8  and  C5_9 
REMARK    3  A    between atoms: C5_9  and  O2_10 
ROOT
HETATM    1  O1  UNL     1       4.016   2.079   0.213  1.00  0.00    -0.246 OA
HETATM    2  C1  UNL     1       3.082   1.254   0.093  1.00  0.00     0.335 C 
HETATM    3  N1  UNL     1       3.235  -0.032   0.707  1.00  0.00    -0.341 N 
ATOM      4  H1  UNL     1       3.978  -0.130   1.399  1.00  0.00     0.164 HD
HETATM    5  C2  UNL     1       2.414  -1.228   0.428  1.00  0.00     0.141 C 
HETATM    6  C3  UNL     1       1.642  -0.965  -0.819  1.00  0.00     0.135 C 
HETATM    7  N2  UNL     1       0.443  -0.194  -0.703  1.00  0.00    -0.210 NA
HETATM    8  N5  UNL     1       0.640   1.156  -0.511  1.00  0.00    -0.258 N 
ATOM      9  H5  UNL     1      -0.137   1.773  -0.276  1.00  0.00     0.202 HD
HETATM   10  N6  UNL     1       1.920   1.646  -0.647  1.00  0.00    -0.241 N 
ATOM     11  H6  UNL     1       2.056   2.369  -1.354  1.00  0.00     0.193 HD
ENDROOT
BRANCH   7  12
HETATM   12  C4  UNL     1      -0.543  -0.808   0.138  1.00  0.00     0.189 C 
BRANCH  12  13
HETATM   13  C5  UNL     1      -1.876  -0.222  -0.067  1.00  0.00     0.272 C 
HETATM   14  C6  UNL     1      -2.937  -0.859   0.788  1.00  0.00     0.126 C 
HETATM   15  N3  UNL     1      -3.890  -0.023   0.859  1.00  0.00    -0.375 N 
HETATM   16  C7  UNL     1      -3.575   1.173   0.112  1.00  0.00     0.358 C 
ATOM     17  H3  UNL     1      -4.758  -0.175   1.373  1.00  0.00     0.160 HD
HETATM   18  N4  UNL     1      -2.087   1.165   0.233  1.00  0.00    -0.021 N 
ATOM     19  H42 UNL     1      -1.696   1.510   1.110  1.00  0.00     0.283 HD
ATOM     20  H41 UNL     1      -1.576   1.841  -0.336  1.00  0.00     0.283 HD
BRANCH  13  21
HETATM   21  O2  UNL     1      -2.260  -0.401  -1.419  1.00  0.00    -0.360 OA
ATOM     22  H2  UNL     1      -3.121  -0.022  -1.551  1.00  0.00     0.213 HD
ENDBRANCH  13  21
ENDBRANCH  12  13
ENDBRANCH   7  12
TORSDOF 3
