REMARK  4 active torsions:
REMARK  status: ('A' for Active; 'I' for Inactive)
REMARK    1  A    between atoms: N1_1  and  N2_4 
REMARK    2  A    between atoms: N2_4  and  C1_6 
REMARK    3  A    between atoms: C2_11  and  C3_12 
REMARK    4  A    between atoms: C3_12  and  N5_13 
ROOT
HETATM    1  C1  UNL     1       3.077  -0.477  -0.087  1.00  0.00     0.712 A 
HETATM    2  N3  UNL     1       2.939   0.577  -0.892  1.00  0.00    -0.129 N 
ATOM      3  H3  UNL     1       3.658   1.265  -1.115  1.00  0.00     0.205 HD
HETATM    4  N4  UNL     1       1.698   0.565  -1.347  1.00  0.00    -0.273 N 
ATOM      5  H4  UNL     1       1.303   1.255  -1.987  1.00  0.00     0.189 HD
HETATM    6  C2  UNL     1       1.031  -0.490  -0.843  1.00  0.00     0.132 A 
HETATM    7  N8  UNL     1       1.893  -1.148  -0.051  1.00  0.00    -0.175 N 
ATOM      8  H8  UNL     1       1.696  -1.996   0.481  1.00  0.00     0.185 HD
ENDROOT
BRANCH   6   9
HETATM    9  C3  UNL     1      -0.379  -0.866  -1.105  1.00  0.00     0.228 C 
BRANCH   9  10
HETATM   10  N5  UNL     1      -1.232  -0.154  -0.214  1.00  0.00    -0.239 N 
HETATM   11  N6  UNL     1      -1.743   1.096  -0.567  1.00  0.00    -0.133 NA
HETATM   12  C4  UNL     1      -3.166   1.074  -0.497  1.00  0.00     0.155 C 
HETATM   13  C5  UNL     1      -3.735   0.507   0.751  1.00  0.00     0.142 C 
HETATM   14  N7  UNL     1      -2.752  -0.062   1.650  1.00  0.00    -0.341 N 
HETATM   15  C6  UNL     1      -1.606  -0.658   1.061  1.00  0.00     0.334 C 
ATOM     16  H7  UNL     1      -2.878  -0.036   2.662  1.00  0.00     0.164 HD
HETATM   17  O1  UNL     1      -0.945  -1.575   1.608  1.00  0.00    -0.246 OA
ENDBRANCH   9  10
ENDBRANCH   6   9
BRANCH   1  18
HETATM   18  N2  UNL     1       4.121  -0.869   0.582  1.00  0.00    -0.137 N 
ATOM     19  H2  UNL     1       4.097  -1.704   1.168  1.00  0.00     0.205 HD
BRANCH  18  20
HETATM   20  N1  UNL     1       5.278  -0.093   0.461  1.00  0.00    -0.331 N 
ATOM     21  H12 UNL     1       5.286   0.739  -0.129  1.00  0.00     0.177 HD
ATOM     22  H11 UNL     1       6.097  -0.400   0.986  1.00  0.00     0.177 HD
ENDBRANCH  18  20
ENDBRANCH   1  18
TORSDOF 4
