REMARK  5 active torsions:
REMARK  status: ('A' for Active; 'I' for Inactive)
REMARK    1  A    between atoms: C3_3  and  C4_5 
REMARK       I    between atoms: C4_5  and  N1_7 
REMARK    2  A    between atoms: N1_7  and  C5_9 
REMARK       I    between atoms: N2_13  and  C8_14 
REMARK    3  A    between atoms: C8_14  and  C9_16 
REMARK    4  A    between atoms: C9_16  and  C10_17 
REMARK       I    between atoms: C10_17  and  N3_19 
REMARK    5  A    between atoms: C15_25  and  C16_26 
ROOT
HETATM    1  C5  UNL     1       2.222  -0.960  -1.165  1.00  0.00     0.152 C 
HETATM    2  C6  UNL     1       1.177  -0.692  -2.216  1.00  0.00     0.213 C 
HETATM    3  F1  UNL     1       1.369  -1.459  -3.357  1.00  0.00    -0.245 F 
HETATM    4  C7  UNL     1      -0.118  -1.032  -1.550  1.00  0.00     0.166 C 
HETATM    5  N2  UNL     1       0.127  -1.017  -0.126  1.00  0.00    -0.334 N 
HETATM    6  C8  UNL     1      -0.807  -0.646   0.876  1.00  0.00     0.229 C 
HETATM    7  O2  UNL     1      -0.486  -0.668   2.100  1.00  0.00    -0.273 OA
HETATM    8  C15 UNL     1       1.498  -1.450   0.066  1.00  0.00     0.202 C 
ENDROOT
BRANCH   6   9
HETATM    9  C9  UNL     1      -2.157  -0.233   0.498  1.00  0.00     0.205 C 
BRANCH   9  10
HETATM   10  C10 UNL     1      -3.033   0.128   1.640  1.00  0.00     0.228 C 
HETATM   11  O3  UNL     1      -2.608   0.070   2.840  1.00  0.00    -0.273 OA
HETATM   12  N3  UNL     1      -4.362   0.541   1.351  1.00  0.00    -0.349 N 
HETATM   13  C11 UNL     1      -5.327   0.922   2.362  1.00  0.00     0.129 C 
HETATM   14  C14 UNL     1      -4.987   0.657   0.051  1.00  0.00     0.162 C 
HETATM   15  C12 UNL     1      -6.525   1.443   1.635  1.00  0.00     0.058 C 
HETATM   16  C13 UNL     1      -6.476   0.696   0.310  1.00  0.00     0.189 C 
HETATM   17  F2  UNL     1      -6.965  -0.566   0.444  1.00  0.00    -0.248 F 
ENDBRANCH   9  10
ENDBRANCH   6   9
BRANCH   8  18
HETATM   18  C16 UNL     1       1.583  -2.925   0.221  1.00  0.00     0.256 C 
HETATM   19  N4  UNL     1       2.819  -3.581   0.420  1.00  0.00    -0.060 NA
HETATM   20  O4  UNL     1       0.540  -3.626   0.178  1.00  0.00    -0.274 OA
ENDBRANCH   8  18
BRANCH   1  21
HETATM   21  N1  UNL     1       2.999   0.218  -0.849  1.00  0.00    -0.346 N 
HETATM   22  C4  UNL     1       4.388   0.268  -1.063  1.00  0.00     0.263 C 
HETATM   23  O1  UNL     1       5.040  -0.711  -1.544  1.00  0.00    -0.267 OA
ATOM     24  H1  UNL     1       2.527   1.034  -0.460  1.00  0.00     0.163 HD
BRANCH  22  25
HETATM   25  C3  UNL     1       5.134   1.470  -0.733  1.00  0.00     0.097 C 
HETATM   26  C2  UNL     1       6.432   1.505  -0.938  1.00  0.00    -0.001 C 
HETATM   27  C1  UNL     1       7.187   2.733  -0.598  1.00  0.00     0.038 C 
HETATM   28 CL1  UNL     1       4.304   2.872  -0.061  1.00  0.00    -0.079 Cl
ENDBRANCH  22  25
ENDBRANCH   1  21
TORSDOF 5
