REMARK  9 active torsions:
REMARK  status: ('A' for Active; 'I' for Inactive)
REMARK    1  A    between atoms: C2_2  and  N1_3 
REMARK    2  A    between atoms: C2_2  and  C3_7 
REMARK    3  A    between atoms: C2_2  and  C4_9 
REMARK    4  A    between atoms: C4_9  and  C5_10 
REMARK    5  A    between atoms: C4_9  and  C11_23 
REMARK    6  A    between atoms: C5_10  and  O2_11 
REMARK    7  A    between atoms: C5_10  and  N2_13 
REMARK    8  A    between atoms: C7_15  and  N3_16 
REMARK       I    between atoms: N3_16  and  C8_18 
REMARK    9  A    between atoms: C8_18  and  C9_20 
ROOT
HETATM    1  C4  UNL     1      -1.851   0.225   0.416  1.00  0.00     0.110 C 
ENDROOT
BRANCH   1   2
HETATM    2  C2  UNL     1      -2.680  -0.930   0.008  1.00  0.00     0.183 C 
HETATM    3  C1  UNL     1      -2.039  -1.908  -0.943  1.00  0.00     0.054 C 
BRANCH   2   4
HETATM    4  N1  UNL     1      -3.888  -0.469  -0.646  1.00  0.00    -0.064 N 
ATOM      5  H13 UNL     1      -3.725  -0.084  -1.577  1.00  0.00     0.275 HD
ATOM      6  H12 UNL     1      -4.510  -1.225  -0.932  1.00  0.00     0.275 HD
ATOM      7  H11 UNL     1      -4.322   0.193  -0.002  1.00  0.00     0.275 HD
ENDBRANCH   2   4
BRANCH   2   8
HETATM    8  C3  UNL     1      -3.143  -1.735   1.190  1.00  0.00     0.270 C 
HETATM    9  O1  UNL     1      -4.323  -1.881   1.422  1.00  0.00    -0.304 OA
ENDBRANCH   2   8
ENDBRANCH   1   2
BRANCH   1  10
HETATM   10  C5  UNL     1      -0.606  -0.026   1.121  1.00  0.00     0.121 C 
BRANCH  10  11
HETATM   11  O2  UNL     1      -0.648   0.313   2.382  1.00  0.00    -0.349 OA
ATOM     12  H2  UNL     1       0.166   0.149   2.843  1.00  0.00     0.219 HD
ENDBRANCH  10  11
BRANCH  10  13
HETATM   13  N2  UNL     1       0.610  -0.552   0.722  1.00  0.00    -0.361 N 
HETATM   14  C6  UNL     1       1.864  -0.807   1.474  1.00  0.00     0.151 C 
HETATM   15  C7  UNL     1       2.632  -0.957   0.206  1.00  0.00     0.120 C 
HETATM   16  C10 UNL     1       1.257  -1.060  -0.453  1.00  0.00     0.151 C 
BRANCH  15  17
HETATM   17  N3  UNL     1       3.358   0.194  -0.245  1.00  0.00    -0.353 N 
HETATM   18  C8  UNL     1       4.709   0.108  -0.671  1.00  0.00     0.228 C 
HETATM   19  O3  UNL     1       5.272  -1.016  -0.645  1.00  0.00    -0.273 OA
ATOM     20  H3  UNL     1       2.890   1.100  -0.260  1.00  0.00     0.163 HD
BRANCH  18  21
HETATM   21  C9  UNL     1       5.465   1.287  -1.138  1.00  0.00     0.187 C 
HETATM   22 BR1  UNL     1       4.341   2.860  -1.064  1.00  0.00    -0.087 Br
ENDBRANCH  18  21
ENDBRANCH  15  17
ENDBRANCH  10  13
ENDBRANCH   1  10
BRANCH   1  23
HETATM   23  C11 UNL     1      -1.550   1.223  -0.682  1.00  0.00     0.042 A 
HETATM   24  C12 UNL     1      -2.610   1.955  -1.358  1.00  0.00     0.051 A 
HETATM   25  C13 UNL     1      -1.656   2.703  -0.436  1.00  0.00     0.118 A 
HETATM   26 CL1  UNL     1      -0.510   3.805  -1.233  1.00  0.00    -0.101 Cl
HETATM   27 CL2  UNL     1      -2.229   3.278   1.135  1.00  0.00    -0.101 Cl
ENDBRANCH   1  23
TORSDOF 9
