REMARK  7 active torsions:
REMARK  status: ('A' for Active; 'I' for Inactive)
REMARK    1  A    between atoms: C2_2  and  C3_3 
REMARK    2  A    between atoms: C2_2  and  C16_18 
REMARK    3  A    between atoms: C3_3  and  C4_4 
REMARK    4  A    between atoms: C4_4  and  C5_5 
REMARK    5  A    between atoms: C13_13  and  O1_14 
REMARK    6  A    between atoms: C18_20  and  O2_21 
REMARK    7  A    between atoms: C21_25  and  O3_26 
ROOT
HETATM    1  C4  UNL     1      -0.055  -0.887  -1.070  1.00  0.00     0.013 C 
ENDROOT
BRANCH   1   2
HETATM    2  C3  UNL     1      -1.213   0.034  -0.895  1.00  0.00     0.034 C 
BRANCH   2   3
HETATM    3  C2  UNL     1      -2.425  -0.758  -0.553  1.00  0.00    -0.083 C 
HETATM    4  C1  UNL     1      -2.342  -2.074  -0.459  1.00  0.00     0.015 C 
BRANCH   3   5
HETATM    5  C16 UNL     1      -3.743  -0.104  -0.322  1.00  0.00     0.045 C 
HETATM    6  C17 UNL     1      -3.663   0.872   0.828  1.00  0.00     0.043 C 
HETATM    7  C18 UNL     1      -4.829   1.851   0.658  1.00  0.00     0.119 C 
HETATM    8  C19 UNL     1      -5.985   1.171  -0.004  1.00  0.00     0.034 C 
HETATM    9  C20 UNL     1      -6.080  -0.276   0.444  1.00  0.00     0.035 C 
HETATM   10  C21 UNL     1      -4.845  -1.074  -0.002  1.00  0.00     0.126 C 
BRANCH   7  11
HETATM   11  O2  UNL     1      -5.153   2.475   1.847  1.00  0.00    -0.396 OA
ATOM     12  H2  UNL     1      -5.876   3.082   1.742  1.00  0.00     0.210 HD
ENDBRANCH   7  11
BRANCH  10  13
HETATM   13  O3  UNL     1      -5.277  -1.781  -1.145  1.00  0.00    -0.395 OA
ATOM     14  H3  UNL     1      -5.974  -2.394  -0.943  1.00  0.00     0.210 HD
ENDBRANCH  10  13
ENDBRANCH   3   5
ENDBRANCH   2   3
ENDBRANCH   1   2
BRANCH   1  15
HETATM   15  C5  UNL     1       1.223  -0.163  -1.430  1.00  0.00     0.015 C 
HETATM   16  C6  UNL     1       1.614   0.836  -0.347  1.00  0.00     0.017 C 
HETATM   17  C7  UNL     1       3.122   0.957  -0.547  1.00  0.00     0.024 C 
HETATM   18  C8  UNL     1       3.580  -0.221  -1.322  1.00  0.00     0.020 C 
HETATM   19  C13 UNL     1       3.739   1.231   0.758  1.00  0.00     0.126 C 
HETATM   20  C9  UNL     1       4.818  -0.883  -0.856  1.00  0.00     0.010 C 
HETATM   21  C14 UNL     1       2.380  -1.079  -1.384  1.00  0.00    -0.081 C 
HETATM   22  C10 UNL     1       4.995  -0.938   0.623  1.00  0.00     0.007 C 
HETATM   23  C11 UNL     1       4.973   0.488   1.120  1.00  0.00     0.011 C 
HETATM   24  C12 UNL     1       6.227   1.216   0.630  1.00  0.00     0.012 C 
HETATM   25  C15 UNL     1       2.336  -2.383  -1.397  1.00  0.00     0.015 C 
BRANCH  19  26
HETATM   26  O1  UNL     1       2.822   1.030   1.819  1.00  0.00    -0.395 OA
ATOM     27  H1  UNL     1       3.221   1.207   2.663  1.00  0.00     0.210 HD
ENDBRANCH  19  26
ENDBRANCH   1  15
TORSDOF 7
