REMARK  4 active torsions:
REMARK  status: ('A' for Active; 'I' for Inactive)
REMARK    1  A    between atoms: C5_5  and  C6_6 
REMARK    2  A    between atoms: C7_7  and  C8_8 
REMARK    3  A    between atoms: C8_8  and  C9_9 
REMARK    4  A    between atoms: C9_9  and  C10_10 
ROOT
HETATM    1  C1  UNL     1      -2.414   3.098  -0.155  1.00  0.00     0.017 C 
HETATM    2  C2  UNL     1      -1.531   2.147  -0.190  1.00  0.00    -0.053 C 
HETATM    3  C3  UNL     1      -0.072   2.505   0.125  1.00  0.00     0.037 C 
HETATM    4  C4  UNL     1       0.399   1.749   1.338  1.00  0.00     0.016 C 
HETATM    5  C5  UNL     1       0.735   0.292   1.173  1.00  0.00     0.043 C 
HETATM    6  C11 UNL     1      -0.214  -0.483   0.372  1.00  0.00     0.069 A 
HETATM    7  C12 UNL     1      -0.715  -1.834   0.712  1.00  0.00     0.040 C 
HETATM    8  C13 UNL     1      -1.897  -2.093  -0.224  1.00  0.00     0.016 C 
HETATM    9  C14 UNL     1      -3.105  -1.313  -0.160  1.00  0.00     0.011 C 
HETATM   10  C15 UNL     1      -4.196  -2.042  -0.972  1.00  0.00     0.019 C 
HETATM   11  C16 UNL     1      -3.692  -0.936   1.164  1.00  0.00     0.244 C 
HETATM   12  N1  UNL     1      -3.925   0.395   0.612  1.00  0.00    -0.066 N 
ATOM     13  H11 UNL     1      -3.689   1.204   1.186  1.00  0.00     0.277 HD
ATOM     14  H12 UNL     1      -4.889   0.711   0.502  1.00  0.00     0.277 HD
HETATM   15  C17 UNL     1      -3.128   0.144  -0.604  1.00  0.00     0.234 C 
HETATM   16  C18 UNL     1      -1.820   0.757  -0.507  1.00  0.00     0.114 A 
HETATM   17  C19 UNL     1      -0.971   0.357  -1.656  1.00  0.00     0.048 A 
HETATM   18  C20 UNL     1       0.118  -0.423  -1.054  1.00  0.00     0.042 A 
HETATM   19  O3  UNL     1      -1.396   0.164   0.674  1.00  0.00    -0.362 OA
ENDROOT
BRANCH   5  20
HETATM   20  C6  UNL     1       2.158   0.141   0.813  1.00  0.00    -0.023 C 
HETATM   21  C7  UNL     1       2.979   1.087   0.416  1.00  0.00    -0.030 C 
BRANCH  21  22
HETATM   22  C8  UNL     1       4.391   0.841   0.077  1.00  0.00     0.037 C 
BRANCH  22  23
HETATM   23  C9  UNL     1       4.782  -0.610   0.237  1.00  0.00     0.117 C 
BRANCH  23  24
HETATM   24  C10 UNL     1       6.214  -0.744  -0.128  1.00  0.00     0.172 C 
HETATM   25  O1  UNL     1       6.889   0.240  -0.492  1.00  0.00    -0.648 OA
HETATM   26  O2  UNL     1       6.789  -2.013  -0.051  1.00  0.00    -0.648 OA
ENDBRANCH  23  24
ENDBRANCH  22  23
ENDBRANCH  21  22
ENDBRANCH   5  20
TORSDOF 4
