REMARK  6 active torsions:
REMARK  status: ('A' for Active; 'I' for Inactive)
REMARK    1  A    between atoms: C12_13  and  N2_14 
REMARK    2  A    between atoms: N2_14  and  C13_16 
REMARK    3  A    between atoms: C13_16  and  N3_18 
REMARK    4  A    between atoms: N3_18  and  C14_20 
REMARK    5  A    between atoms: C14_20  and  C15_21 
REMARK    6  A    between atoms: C15_21  and  C16_22 
ROOT
HETATM    1  C1  UNL     1      -2.219   3.035  -0.414  1.00  0.00     0.060 C 
HETATM    2  C2  UNL     1      -1.156   1.963  -0.292  1.00  0.00     0.024 C 
HETATM    3  C3  UNL     1       0.168   2.484  -0.238  1.00  0.00     0.095 C 
HETATM    4  N1  UNL     1       1.249   2.969  -0.175  1.00  0.00    -0.192 NA
HETATM    5  C4  UNL     1      -1.523   0.730  -0.179  1.00  0.00    -0.032 C 
HETATM    6  C5  UNL     1      -3.034   0.524  -0.174  1.00  0.00     0.019 C 
HETATM    7  C6  UNL     1      -3.319   0.171   1.289  1.00  0.00     0.014 C 
HETATM    8  C7  UNL     1      -2.613  -1.110   1.607  1.00  0.00    -0.011 C 
HETATM    9  C8  UNL     1      -3.141  -2.186   0.678  1.00  0.00     0.009 C 
HETATM   10  C9  UNL     1      -2.692  -1.855  -0.714  1.00  0.00    -0.011 C 
HETATM   11  C10 UNL     1      -3.394  -0.553  -1.129  1.00  0.00     0.014 C 
HETATM   12  C11 UNL     1      -1.219  -1.670  -0.861  1.00  0.00     0.040 C 
HETATM   13  C12 UNL     1      -0.758  -0.493   0.005  1.00  0.00     0.058 C 
HETATM   14  C17 UNL     1      -1.134  -0.972   1.437  1.00  0.00     0.040 C 
ENDROOT
BRANCH  13  15
HETATM   15  N2  UNL     1       0.665  -0.408  -0.056  1.00  0.00    -0.354 N 
ATOM     16  H2  UNL     1       1.134  -0.374   0.849  1.00  0.00     0.163 HD
BRANCH  15  17
HETATM   17  C13 UNL     1       1.517  -0.364  -1.165  1.00  0.00     0.168 C 
HETATM   18  S1  UNL     1       1.099  -0.375  -2.734  1.00  0.00    -0.041 SA
BRANCH  17  19
HETATM   19  N3  UNL     1       2.945  -0.284  -0.926  1.00  0.00    -0.367 N 
ATOM     20  H3  UNL     1       3.598  -0.249  -1.709  1.00  0.00     0.161 HD
BRANCH  19  21
HETATM   21  C14 UNL     1       3.429  -0.254   0.424  1.00  0.00     0.123 C 
BRANCH  21  22
HETATM   22  C15 UNL     1       4.931  -0.154   0.456  1.00  0.00     0.031 C 
BRANCH  22  23
HETATM   23  C16 UNL     1       5.369   1.108  -0.224  1.00  0.00     0.088 C 
HETATM   24  S2  UNL     1       7.183   1.280  -0.210  1.00  0.00    -0.098 SA
ENDBRANCH  22  23
ENDBRANCH  21  22
ENDBRANCH  19  21
ENDBRANCH  17  19
ENDBRANCH  15  17
ENDBRANCH  13  15
TORSDOF 6
