REMARK  6 active torsions:
REMARK  status: ('A' for Active; 'I' for Inactive)
REMARK    1  A    between atoms: C7_7  and  C8_8 
REMARK    2  A    between atoms: C8_8  and  N2_12 
REMARK       I    between atoms: N2_12  and  C9_14 
REMARK    3  A    between atoms: C9_14  and  C10_16 
REMARK    4  A    between atoms: C10_16  and  C11_17 
REMARK    5  A    between atoms: C11_17  and  N3_18 
REMARK    6  A    between atoms: C14_21  and  O2_22 
ROOT
HETATM    1  N2  UNL     1      -0.827   0.020  -1.227  1.00  0.00    -0.316 N 
ATOM      2  H2  UNL     1      -0.378  -0.121  -2.132  1.00  0.00     0.170 HD
HETATM    3  C9  UNL     1      -0.003   0.127  -0.104  1.00  0.00     0.227 C 
HETATM    4  O1  UNL     1      -0.400   0.301   1.040  1.00  0.00    -0.273 OA
ENDROOT
BRANCH   1   5
HETATM    5  C8  UNL     1      -2.220   0.092  -1.198  1.00  0.00     0.081 C 
HETATM    6  N1  UNL     1      -2.890  -0.003  -2.323  1.00  0.00    -0.388 N 
ATOM      7  H12 UNL     1      -3.908   0.050  -2.302  1.00  0.00     0.157 HD
ATOM      8  H11 UNL     1      -2.342  -0.104  -3.177  1.00  0.00     0.157 HD
BRANCH   5   9
HETATM    9  C7  UNL     1      -2.998   0.236   0.015  1.00  0.00     0.056 C 
HETATM   10  C2  UNL     1      -4.437   0.651  -0.355  1.00  0.00    -0.007 C 
HETATM   11  C1  UNL     1      -4.381   2.071  -0.863  1.00  0.00     0.011 C 
HETATM   12  C3  UNL     1      -5.234   0.538   0.925  1.00  0.00     0.005 C 
HETATM   13  C4  UNL     1      -5.561  -0.951   1.082  1.00  0.00     0.000 C 
HETATM   14  C5  UNL     1      -4.419  -1.764   0.585  1.00  0.00     0.001 C 
HETATM   15  C6  UNL     1      -3.068  -1.100   0.739  1.00  0.00     0.013 C 
ENDBRANCH   5   9
ENDBRANCH   1   5
BRANCH   3  16
HETATM   16  C10 UNL     1       1.485   0.017  -0.331  1.00  0.00     0.148 C 
BRANCH  16  17
HETATM   17  C11 UNL     1       2.152   0.180   1.014  1.00  0.00     0.077 C 
BRANCH  17  18
HETATM   18  N3  UNL     1       3.548   0.086   0.864  1.00  0.00    -0.354 N 
HETATM   19  C12 UNL     1       4.107  -1.149   0.510  1.00  0.00     0.070 C 
HETATM   20  C13 UNL     1       4.715  -1.014  -0.886  1.00  0.00     0.077 C 
HETATM   21  C14 UNL     1       5.852  -0.008  -0.840  1.00  0.00     0.127 C 
HETATM   22  C15 UNL     1       5.726   0.920   0.343  1.00  0.00     0.077 C 
HETATM   23  C16 UNL     1       4.287   1.253   0.660  1.00  0.00     0.070 C 
BRANCH  21  24
HETATM   24  O2  UNL     1       7.022  -0.754  -0.641  1.00  0.00    -0.395 OA
ATOM     25  H2  UNL     1       7.733  -0.125  -0.612  1.00  0.00     0.210 HD
ENDBRANCH  21  24
ENDBRANCH  17  18
ENDBRANCH  16  17
ENDBRANCH   3  16
TORSDOF 6
