REMARK  3 active torsions:
REMARK  status: ('A' for Active; 'I' for Inactive)
REMARK    1  A    between atoms: N1_2  and  C3_4 
REMARK    2  A    between atoms: C3_4  and  C4_5 
REMARK    3  A    between atoms: C7_8  and  C8_9 
ROOT
HETATM    1  C8  UNL     1       1.952  -0.664  -0.541  1.00  0.00     0.086 A 
HETATM    2  N2  UNL     1       2.258   0.480   0.114  1.00  0.00    -0.339 N 
ATOM      3  H2  UNL     1       1.574   1.138   0.487  1.00  0.00     0.167 HD
HETATM    4  C9  UNL     1       3.592   0.626   0.203  1.00  0.00     0.129 A 
HETATM    5  C10 UNL     1       4.372   1.605   0.766  1.00  0.00     0.275 A 
HETATM    6  O1  UNL     1       3.798   2.588   1.325  1.00  0.00    -0.266 OA
HETATM    7  N3  UNL     1       5.704   1.481   0.700  1.00  0.00    -0.312 N 
ATOM      8  H3  UNL     1       6.285   2.208   1.118  1.00  0.00     0.170 HD
HETATM    9  C11 UNL     1       6.311   0.427   0.100  1.00  0.00     0.108 A 
HETATM   10 CL1  UNL     1       8.040   0.343   0.059  1.00  0.00    -0.064 Cl
HETATM   11  C12 UNL     1       5.534  -0.561  -0.468  1.00  0.00     0.074 A 
HETATM   12  C13 UNL     1       4.148  -0.473  -0.423  1.00  0.00     0.069 A 
HETATM   13  N4  UNL     1       3.135  -1.224  -0.856  1.00  0.00    -0.344 N 
ATOM     14  H4  UNL     1       3.242  -2.105  -1.359  1.00  0.00     0.167 HD
ENDROOT
BRANCH   1  15
HETATM   15  C7  UNL     1       0.596  -1.188  -0.845  1.00  0.00     0.053 C 
HETATM   16  C6  UNL     1      -0.097  -1.423   0.479  1.00  0.00     0.013 C 
HETATM   17  C5  UNL     1      -1.110  -0.294   0.657  1.00  0.00     0.007 C 
HETATM   18  C4  UNL     1      -2.200  -0.474  -0.381  1.00  0.00     0.014 C 
HETATM   19  C15 UNL     1      -1.586  -0.350  -1.759  1.00  0.00     0.007 C 
HETATM   20  C14 UNL     1      -0.103  -0.157  -1.692  1.00  0.00     0.013 C 
BRANCH  18  21
HETATM   21  C3  UNL     1      -3.218   0.616  -0.199  1.00  0.00     0.275 C 
BRANCH  21  22
HETATM   22  N1  UNL     1      -3.849   0.632   1.083  1.00  0.00     0.080 N 
HETATM   23  C1  UNL     1      -4.790   1.727   1.115  1.00  0.00     0.309 C 
HETATM   24  C2  UNL     1      -4.506  -0.581   1.452  1.00  0.00     0.309 C 
ENDBRANCH  21  22
ENDBRANCH  18  21
ENDBRANCH   1  15
TORSDOF 3
