REMARK  6 active torsions:
REMARK  status: ('A' for Active; 'I' for Inactive)
REMARK    1  A    between atoms: O1_1  and  C1_3 
REMARK    2  A    between atoms: N1_10  and  C7_12 
REMARK    3  A    between atoms: C7_12  and  C8_13 
REMARK    4  A    between atoms: C8_13  and  C9_14 
REMARK    5  A    between atoms: C9_14  and  N2_15 
REMARK    6  A    between atoms: N2_15  and  C10_17 
ROOT
HETATM    1  C9  UNL     1      -0.705   0.910  -0.458  1.00  0.00     0.123 C 
ENDROOT
BRANCH   1   2
HETATM    2  C8  UNL     1       0.757   0.933  -0.860  1.00  0.00     0.039 C 
BRANCH   2   3
HETATM    3  C7  UNL     1       1.340  -0.483  -0.826  1.00  0.00     0.121 C 
BRANCH   3   4
HETATM    4  N1  UNL     1       2.708  -0.487  -1.201  1.00  0.00    -0.392 N 
HETATM    5  C6  UNL     1       3.724  -0.265  -0.500  1.00  0.00     0.045 C 
HETATM    6  C1  UNL     1       5.075  -0.325  -1.114  1.00  0.00     0.166 C 
HETATM    7  C5  UNL     1       3.600   0.055   0.935  1.00  0.00     0.217 C 
HETATM    8  C2  UNL     1       6.147  -0.539  -0.051  1.00  0.00     0.038 C 
HETATM    9  C3  UNL     1       5.574  -1.488   0.977  1.00  0.00     0.006 C 
HETATM   10  C4  UNL     1       4.495  -0.818   1.791  1.00  0.00     0.043 C 
HETATM   11  F1  UNL     1       3.964   1.398   1.091  1.00  0.00    -0.243 F 
ATOM     12  H1  UNL     1       2.892  -0.701  -2.181  1.00  0.00     0.159 HD
BRANCH   6  13
HETATM   13  O1  UNL     1       5.278   0.867  -1.809  1.00  0.00    -0.390 OA
ATOM     14  H1  UNL     1       4.610   1.000  -2.471  1.00  0.00     0.210 HD
ENDBRANCH   6  13
ENDBRANCH   3   4
ENDBRANCH   2   3
ENDBRANCH   1   2
BRANCH   1  15
HETATM   15  N2  UNL     1      -1.506   0.111  -1.309  1.00  0.00    -0.375 N 
ATOM     16  H2  UNL     1      -0.988  -0.352  -2.056  1.00  0.00     0.161 HD
BRANCH  15  17
HETATM   17  C10 UNL     1      -2.734  -0.131  -1.311  1.00  0.00     0.124 A 
HETATM   18  N3  UNL     1      -3.357  -0.921  -2.196  1.00  0.00    -0.285 N 
HETATM   19  N4  UNL     1      -4.644  -0.958  -1.912  1.00  0.00    -0.303 N 
ATOM     20  H3  UNL     1      -2.907  -1.415  -2.967  1.00  0.00     0.188 HD
HETATM   21  C11 UNL     1      -4.916  -0.209  -0.849  1.00  0.00     0.036 A 
ATOM     22  H4  UNL     1      -5.337  -1.490  -2.438  1.00  0.00     0.186 HD
HETATM   23  C12 UNL     1      -3.690   0.335  -0.446  1.00  0.00     0.011 A 
HETATM   24  C16 UNL     1      -6.103   0.162  -0.052  1.00  0.00     0.059 C 
HETATM   25  C13 UNL     1      -3.750   1.214   0.736  1.00  0.00     0.044 C 
HETATM   26  C14 UNL     1      -4.491   0.453   1.843  1.00  0.00     0.005 C 
HETATM   27  C15 UNL     1      -5.870   0.070   1.421  1.00  0.00     0.006 C 
ENDBRANCH  15  17
ENDBRANCH   1  15
TORSDOF 6
