REMARK  5 active torsions:
REMARK  status: ('A' for Active; 'I' for Inactive)
REMARK    1  A    between atoms: N1_2  and  C2_4 
REMARK    2  A    between atoms: C3_7  and  N3_8 
REMARK    3  A    between atoms: N3_8  and  C4_10 
REMARK    4  A    between atoms: C6_12  and  C7_13 
REMARK    5  A    between atoms: C11_21  and  N6_22 
ROOT
HETATM    1  C2  UNL     1      -2.197   1.594  -0.234  1.00  0.00     0.126 A 
HETATM    2  N2  UNL     1      -0.990   1.167  -0.692  1.00  0.00    -0.327 N 
ATOM      3  H2  UNL     1      -0.322   1.874  -0.998  1.00  0.00     0.169 HD
HETATM    4  C3  UNL     1      -0.618  -0.110  -0.769  1.00  0.00     0.110 A 
HETATM    5  C10 UNL     1      -1.506  -1.071  -0.361  1.00  0.00     0.079 A 
HETATM    6  C11 UNL     1      -2.757  -0.721   0.119  1.00  0.00     0.059 A 
HETATM    7  C14 UNL     1      -3.093   0.636   0.178  1.00  0.00     0.104 A 
HETATM    8 CL1  UNL     1      -4.677   1.040   0.788  1.00  0.00    -0.078 Cl
ENDROOT
BRANCH   4   9
HETATM    9  N3  UNL     1       0.652  -0.431  -1.259  1.00  0.00    -0.327 N 
ATOM     10  H3  UNL     1       0.694  -0.920  -2.153  1.00  0.00     0.169 HD
BRANCH   9  11
HETATM   11  C4  UNL     1       1.767  -0.167  -0.687  1.00  0.00     0.123 A 
HETATM   12  C5  UNL     1       2.989  -0.510  -1.219  1.00  0.00     0.076 A 
HETATM   13  C6  UNL     1       3.953  -0.070  -0.337  1.00  0.00     0.033 A 
HETATM   14  N4  UNL     1       3.331   0.521   0.697  1.00  0.00    -0.303 N 
HETATM   15  N5  UNL     1       2.031   0.449   0.463  1.00  0.00    -0.285 N 
ATOM     16  H4  UNL     1       3.777   0.946   1.510  1.00  0.00     0.186 HD
ATOM     17  H5  UNL     1       1.317   0.821   1.089  1.00  0.00     0.188 HD
BRANCH  13  18
HETATM   18  C7  UNL     1       5.416  -0.228  -0.513  1.00  0.00     0.037 A 
HETATM   19  C8  UNL     1       6.176  -0.651   0.757  1.00  0.00     0.011 A 
HETATM   20  C9  UNL     1       6.380   0.691   0.115  1.00  0.00     0.011 A 
ENDBRANCH  13  18
ENDBRANCH   9  11
ENDBRANCH   4   9
BRANCH   1  21
HETATM   21  N1  UNL     1      -2.424   2.843  -0.213  1.00  0.00    -0.379 N 
HETATM   22  C1  UNL     1      -3.546   3.595   0.194  1.00  0.00     0.147 C 
ATOM     23  H1  UNL     1      -1.648   3.410  -0.555  1.00  0.00     0.160 HD
ENDBRANCH   1  21
BRANCH   6  24
HETATM   24  N6  UNL     1      -3.685  -1.706   0.545  1.00  0.00    -0.388 N 
HETATM   25  C12 UNL     1      -4.175  -1.711   1.904  1.00  0.00     0.149 C 
HETATM   26  C13 UNL     1      -4.139  -2.703  -0.385  1.00  0.00     0.149 C 
ENDBRANCH   6  24
TORSDOF 5
