REMARK  5 active torsions:
REMARK  status: ('A' for Active; 'I' for Inactive)
REMARK    1  A    between atoms: N1_1  and  C1_4 
REMARK    2  A    between atoms: C2_12  and  N4_13 
REMARK    3  A    between atoms: N4_13  and  C3_15 
REMARK    4  A    between atoms: C3_15  and  C4_16 
REMARK    5  A    between atoms: C4_16  and  C5_17 
ROOT
HETATM    1  N4  UNL     1       2.518   1.466   0.300  1.00  0.00    -0.373 N 
ATOM      2  H4  UNL     1       2.627   2.470   0.156  1.00  0.00     0.161 HD
ENDROOT
BRANCH   1   3
HETATM    3  C2  UNL     1       3.596   0.715   0.286  1.00  0.00     0.157 C 
HETATM    4  C1  UNL     1       4.914   1.234   0.079  1.00  0.00     0.155 C 
HETATM    5  N2  UNL     1       5.939   0.258   0.101  1.00  0.00    -0.250 N 
HETATM    6  S1  UNL     1       5.085  -1.259  -0.071  1.00  0.00     0.326 S 
ATOM      7  H2  UNL     1       6.944   0.405   0.195  1.00  0.00     0.182 HD
HETATM    8  O1  UNL     1       5.018  -1.661  -1.504  1.00  0.00    -0.182 OA
HETATM    9  O2  UNL     1       5.629  -2.301   0.828  1.00  0.00    -0.182 OA
HETATM   10  N3  UNL     1       3.528  -0.678   0.478  1.00  0.00    -0.250 N 
ATOM     11  H3  UNL     1       2.751  -1.223   0.851  1.00  0.00     0.182 HD
BRANCH   4  12
HETATM   12  N1  UNL     1       5.201   2.501  -0.119  1.00  0.00    -0.382 N 
ATOM     13  H12 UNL     1       6.140   2.871  -0.266  1.00  0.00     0.157 HD
ATOM     14  H11 UNL     1       4.462   3.204  -0.135  1.00  0.00     0.157 HD
ENDBRANCH   4  12
ENDBRANCH   1   3
BRANCH   1  15
HETATM   15  C3  UNL     1       1.198   0.949   0.507  1.00  0.00     0.121 C 
BRANCH  15  16
HETATM   16  C4  UNL     1       0.500   0.611  -0.785  1.00  0.00     0.027 C 
BRANCH  16  17
HETATM   17  C5  UNL     1      -0.895   0.068  -0.562  1.00  0.00     0.021 C 
HETATM   18  C6  UNL     1      -1.771   1.070   0.160  1.00  0.00     0.007 C 
HETATM   19  C7  UNL     1      -2.991   1.396  -0.633  1.00  0.00     0.000 C 
HETATM   20  C8  UNL     1      -4.248   0.770  -0.092  1.00  0.00     0.000 C 
HETATM   21  C9  UNL     1      -4.028  -0.631   0.417  1.00  0.00     0.000 C 
HETATM   22  C10 UNL     1      -3.304  -1.473  -0.636  1.00  0.00     0.003 C 
HETATM   23  C11 UNL     1      -2.080  -2.115  -0.102  1.00  0.00     0.037 C 
HETATM   24  C12 UNL     1      -0.901  -1.261   0.110  1.00  0.00     0.174 C 
HETATM   25  F1  UNL     1       0.220  -1.959  -0.365  1.00  0.00    -0.249 F 
ENDBRANCH  16  17
ENDBRANCH  15  16
ENDBRANCH   1  15
TORSDOF 5
