REMARK  11 active torsions:
REMARK  status: ('A' for Active; 'I' for Inactive)
REMARK    1  A    between atoms: C2_2  and  C3_3 
REMARK    2  A    between atoms: C3_3  and  C4_4 
REMARK    3  A    between atoms: C4_4  and  C5_5 
REMARK    4  A    between atoms: C5_5  and  N1_6 
REMARK    5  A    between atoms: C6_7  and  N2_8 
REMARK    6  A    between atoms: C7_13  and  N4_14 
REMARK    7  A    between atoms: N4_14  and  C8_16 
REMARK    8  A    between atoms: C8_16  and  C9_17 
REMARK    9  A    between atoms: C9_17  and  O1_18 
REMARK   10  A    between atoms: C11_23  and  C12_24 
REMARK   11  A    between atoms: C12_24  and  C13_25 
ROOT
HETATM    1  N1  UNL     1       0.895   0.610   1.204  1.00  0.00    -0.155 N 
HETATM    2  C6  UNL     1       0.896   1.869   0.734  1.00  0.00     0.682 A 
HETATM    3  N3  UNL     1      -0.167   2.354   0.038  1.00  0.00    -0.175 N 
ATOM      4  H3  UNL     1      -0.132   3.314  -0.304  1.00  0.00     0.186 HD
HETATM    5  C7  UNL     1      -1.261   1.617  -0.216  1.00  0.00     0.147 A 
HETATM    6  C10 UNL     1      -1.291   0.319   0.254  1.00  0.00     0.123 A 
HETATM    7  N5  UNL     1      -2.215  -0.676   0.180  1.00  0.00    -0.340 N 
ATOM      8  H5  UNL     1      -3.124  -0.622  -0.279  1.00  0.00     0.167 HD
HETATM    9  C11 UNL     1      -1.706  -1.753   0.829  1.00  0.00     0.083 A 
HETATM   10  N6  UNL     1      -0.484  -1.403   1.290  1.00  0.00    -0.329 N 
ATOM     11  H6  UNL     1       0.134  -2.018   1.820  1.00  0.00     0.168 HD
HETATM   12  C15 UNL     1      -0.195  -0.138   0.956  1.00  0.00     0.156 A 
ENDROOT
BRANCH   5  13
HETATM   13  N4  UNL     1      -2.285   2.035  -0.869  1.00  0.00    -0.372 N 
ATOM     14  H4  UNL     1      -3.067   1.395  -1.009  1.00  0.00     0.161 HD
BRANCH  13  15
HETATM   15  C8  UNL     1      -2.381   3.373  -1.416  1.00  0.00     0.147 C 
BRANCH  15  16
HETATM   16  C9  UNL     1      -2.828   4.387  -0.384  1.00  0.00     0.183 C 
BRANCH  16  17
HETATM   17  O1  UNL     1      -4.085   4.001   0.084  1.00  0.00    -0.399 OA
ATOM     18  H1  UNL     1      -4.365   4.637   0.731  1.00  0.00     0.209 HD
ENDBRANCH  16  17
ENDBRANCH  15  16
ENDBRANCH  13  15
ENDBRANCH   5  13
BRANCH   2  19
HETATM   19  N2  UNL     1       1.930   2.603   0.960  1.00  0.00    -0.234 N 
ATOM     20  H22 UNL     1       2.727   2.239   1.482  1.00  0.00     0.174 HD
ATOM     21  H21 UNL     1       1.931   3.559   0.603  1.00  0.00     0.174 HD
ENDBRANCH   2  19
BRANCH   1  22
HETATM   22  C5  UNL     1       2.022   0.068   1.953  1.00  0.00     0.243 C 
BRANCH  22  23
HETATM   23  C4  UNL     1       2.979  -0.559   1.034  1.00  0.00    -0.086 C 
BRANCH  23  24
HETATM   24  C3  UNL     1       3.755  -1.087   0.277  1.00  0.00    -0.105 C 
BRANCH  24  25
HETATM   25  C2  UNL     1       4.686  -1.751  -0.653  1.00  0.00     0.089 C 
HETATM   26  C1  UNL     1       5.811  -0.786  -0.909  1.00  0.00     0.018 C 
ENDBRANCH  24  25
ENDBRANCH  23  24
ENDBRANCH  22  23
ENDBRANCH   1  22
BRANCH   9  27
HETATM   27  C12 UNL     1      -2.353  -3.081   1.012  1.00  0.00     0.076 C 
BRANCH  27  28
HETATM   28  C13 UNL     1      -1.964  -3.967  -0.160  1.00  0.00     0.003 C 
HETATM   29  C14 UNL     1      -2.469  -3.271  -1.414  1.00  0.00     0.005 C 
ENDBRANCH  27  28
ENDBRANCH   9  27
TORSDOF 11
