REMARK  3 active torsions:
REMARK  status: ('A' for Active; 'I' for Inactive)
REMARK    1  A    between atoms: N1_2  and  C3_4 
REMARK    2  A    between atoms: C4_7  and  N3_8 
REMARK    3  A    between atoms: C5_13  and  N5_14 
ROOT
HETATM    1  C3  UNL     1      -0.069  -0.071  -0.013  1.00  0.00     0.140 A 
HETATM    2  N2  UNL     1       0.887  -0.821  -0.621  1.00  0.00    -0.175 N 
ATOM      3  H2  UNL     1       0.663  -1.751  -0.974  1.00  0.00     0.186 HD
HETATM    4  C4  UNL     1       2.131  -0.326  -0.753  1.00  0.00     0.679 A 
HETATM    5  N4  UNL     1       2.381   0.918  -0.266  1.00  0.00    -0.176 N 
ATOM      6  H4  UNL     1       3.325   1.292  -0.367  1.00  0.00     0.186 HD
HETATM    7  C5  UNL     1       1.466   1.680   0.336  1.00  0.00     0.136 A 
HETATM    8  C6  UNL     1       0.185   1.193   0.482  1.00  0.00     0.100 A 
HETATM    9  S1  UNL     1      -1.094   2.191   1.294  1.00  0.00    -0.044 SA
ENDROOT
BRANCH   1  10
HETATM   10  N1  UNL     1      -1.397  -0.561   0.135  1.00  0.00    -0.374 N 
HETATM   11  C1  UNL     1      -1.580  -1.754   0.935  1.00  0.00     0.150 C 
HETATM   12  C2  UNL     1      -2.490   0.131  -0.493  1.00  0.00     0.150 C 
ENDBRANCH   1  10
BRANCH   4  13
HETATM   13  N3  UNL     1       3.057  -1.022  -1.326  1.00  0.00    -0.234 N 
ATOM     14  H32 UNL     1       2.869  -1.956  -1.691  1.00  0.00     0.174 HD
ATOM     15  H31 UNL     1       4.000  -0.647  -1.426  1.00  0.00     0.174 HD
ENDBRANCH   4  13
BRANCH   7  16
HETATM   16  N5  UNL     1       1.758   2.857   0.778  1.00  0.00    -0.384 N 
ATOM     17  H52 UNL     1       2.706   3.217   0.670  1.00  0.00     0.157 HD
ATOM     18  H51 UNL     1       1.059   3.440   1.238  1.00  0.00     0.157 HD
ENDBRANCH   7  16
TORSDOF 3
