REMARK  0 active torsions:
REMARK  status: ('A' for Active; 'I' for Inactive)
REMARK       I    between atoms: C3_5  and  N2_6 
ROOT
HETATM    1  C1  UNL     1      -2.507  -1.387   1.073  1.00  0.00     0.047 C 
HETATM    2  C2  UNL     1      -1.756  -0.556   0.405  1.00  0.00     0.084 C 
HETATM    3  N1  UNL     1      -0.355  -0.881   0.276  1.00  0.00    -0.188 N 
ATOM      4  H1  UNL     1      -0.111  -1.857   0.446  1.00  0.00     0.184 HD
HETATM    5  C3  UNL     1       0.733  -0.024  -0.057  1.00  0.00     0.694 C 
HETATM    6  N2  UNL     1       2.045  -0.572  -0.043  1.00  0.00    -0.226 N 
HETATM    7  C4  UNL     1       3.217   0.229   0.258  1.00  0.00     0.168 C 
HETATM    8  C5  UNL     1       2.252  -1.975  -0.336  1.00  0.00     0.168 C 
HETATM    9  N3  UNL     1       0.681   1.230  -0.379  1.00  0.00    -0.022 N 
ATOM     10  H3  UNL     1       1.595   1.638  -0.575  1.00  0.00     0.203 HD
HETATM   11  C6  UNL     1      -0.395   2.153  -0.514  1.00  0.00     0.692 C 
HETATM   12  N4  UNL     1      -0.081   3.376  -0.804  1.00  0.00    -0.234 N 
ATOM     13  H41 UNL     1      -0.852   4.037  -0.901  1.00  0.00     0.174 HD
ATOM     14  H42 UNL     1       0.915   3.569  -0.911  1.00  0.00     0.174 HD
HETATM   15  N5  UNL     1      -1.806   1.880  -0.362  1.00  0.00    -0.175 N 
ATOM     16  H5  UNL     1      -2.429   2.686  -0.420  1.00  0.00     0.186 HD
HETATM   17  C7  UNL     1      -2.431   0.617  -0.140  1.00  0.00     0.141 C 
HETATM   18  N6  UNL     1      -3.671   0.524  -0.452  1.00  0.00    -0.383 N 
ATOM     19  H61 UNL     1      -4.143   1.344  -0.833  1.00  0.00     0.157 HD
ATOM     20  H62 UNL     1      -4.118  -0.379  -0.293  1.00  0.00     0.157 HD
ENDROOT
TORSDOF 0
