REMARK  8 active torsions:
REMARK  status: ('A' for Active; 'I' for Inactive)
REMARK    1  A    between atoms: C2_2  and  C4_4 
REMARK    2  A    between atoms: C4_4  and  C5_5 
REMARK    3  A    between atoms: C5_5  and  C6_6 
REMARK    4  A    between atoms: C5_5  and  N2_27 
REMARK    5  A    between atoms: C6_6  and  N1_7 
REMARK    6  A    between atoms: C7_8  and  O1_9 
REMARK    7  A    between atoms: C10_13  and  O2_14 
REMARK    8  A    between atoms: C16_22  and  C17_23 
ROOT
HETATM    1  N1  UNL     1       0.601   0.313   0.341  1.00  0.00    -0.280 N 
HETATM    2  C7  UNL     1       1.362   0.235   1.491  1.00  0.00     0.156 A 
HETATM    3  C8  UNL     1       2.573  -0.324   1.232  1.00  0.00     0.018 A 
HETATM    4  C9  UNL     1       2.582  -0.609  -0.116  1.00  0.00     0.017 A 
HETATM    5  C10 UNL     1       1.371  -0.213  -0.638  1.00  0.00     0.156 A 
HETATM    6  C11 UNL     1       3.842  -1.228  -0.647  1.00  0.00     0.082 C 
HETATM    7  C12 UNL     1       4.051  -2.412   0.288  1.00  0.00    -0.015 C 
HETATM    8  C13 UNL     1       4.047  -2.141   1.585  1.00  0.00    -0.015 C 
HETATM    9  C14 UNL     1       3.834  -0.687   1.948  1.00  0.00     0.091 C 
HETATM   10  C15 UNL     1       4.882   0.007   1.100  1.00  0.00     0.033 C 
HETATM   11 CL1  UNL     1       5.946   1.081   1.948  1.00  0.00    -0.087 Cl
HETATM   12  C16 UNL     1       4.895  -0.255  -0.199  1.00  0.00    -0.003 C 
ENDROOT
BRANCH   1  13
HETATM   13  C6  UNL     1      -0.665   0.886   0.175  1.00  0.00     0.130 C 
BRANCH  13  14
HETATM   14  C5  UNL     1      -1.910   0.120   0.507  1.00  0.00     0.043 C 
BRANCH  14  15
HETATM   15  C4  UNL     1      -2.194  -1.109  -0.212  1.00  0.00     0.008 C 
BRANCH  15  16
HETATM   16  C2  UNL     1      -2.412  -1.279  -1.637  1.00  0.00     0.002 C 
HETATM   17  C1  UNL     1      -2.589  -2.848  -1.797  1.00  0.00     0.013 C 
HETATM   18  C3  UNL     1      -3.757  -0.811  -2.207  1.00  0.00     0.013 C 
ENDBRANCH  15  16
ENDBRANCH  14  15
BRANCH  14  19
HETATM   19  N2  UNL     1      -2.973   0.977   0.776  1.00  0.00    -0.380 N 
HETATM   20  C19 UNL     1      -3.715   1.720  -0.106  1.00  0.00     0.123 C 
HETATM   21  C20 UNL     1      -3.875   3.108   0.582  1.00  0.00     0.021 C 
HETATM   22  C21 UNL     1      -3.894   2.774   2.041  1.00  0.00     0.021 C 
HETATM   23  C22 UNL     1      -3.115   1.491   2.107  1.00  0.00     0.123 C 
ENDBRANCH  14  19
ENDBRANCH  13  14
ENDBRANCH   1  13
BRANCH   2  24
HETATM   24  O1  UNL     1       0.946   0.664   2.720  1.00  0.00    -0.345 OA
ATOM     25  H1  UNL     1       1.469   0.610   3.511  1.00  0.00     0.219 HD
ENDBRANCH   2  24
BRANCH   5  26
HETATM   26  O2  UNL     1       1.048  -0.361  -2.008  1.00  0.00    -0.345 OA
ATOM     27  H2  UNL     1       1.589  -0.731  -2.696  1.00  0.00     0.219 HD
ENDBRANCH   5  26
BRANCH  12  28
HETATM   28  C17 UNL     1       5.841   0.357  -1.089  1.00  0.00     0.069 C 
HETATM   29 CL2  UNL     1       7.019   1.502  -0.361  1.00  0.00    -0.081 Cl
HETATM   30  C18 UNL     1       5.929   0.166  -2.383  1.00  0.00     0.212 C 
HETATM   31  F1  UNL     1       5.189  -0.615  -3.170  1.00  0.00    -0.218 F 
ENDBRANCH  12  28
TORSDOF 8
