REMARK  8 active torsions:
REMARK  status: ('A' for Active; 'I' for Inactive)
REMARK    1  A    between atoms: C5_5  and  N1_6 
REMARK    2  A    between atoms: N1_6  and  C6_8 
REMARK    3  A    between atoms: C13_15  and  N2_16 
REMARK    4  A    between atoms: N2_16  and  C14_18 
REMARK    5  A    between atoms: C15_21  and  N4_22 
REMARK    6  A    between atoms: N4_22  and  C16_24 
REMARK    7  A    between atoms: C16_24  and  C17_25 
REMARK    8  A    between atoms: C22_33  and  C23_34 
ROOT
HETATM    1  C14 UNL     1       1.245  -1.840   1.350  1.00  0.00     0.138 A 
HETATM    2  N3  UNL     1       1.607  -0.977   0.386  1.00  0.00    -0.176 N 
ATOM      3  H3  UNL     1       0.943  -0.260   0.095  1.00  0.00     0.186 HD
HETATM    4  C15 UNL     1       2.831  -1.023  -0.220  1.00  0.00     0.679 A 
HETATM    5  N5  UNL     1       3.743  -1.948   0.126  1.00  0.00    -0.201 N 
ATOM      6  H5  UNL     1       4.656  -1.978  -0.328  1.00  0.00     0.183 HD
HETATM    7  C21 UNL     1       3.422  -2.833   1.086  1.00  0.00     0.126 A 
HETATM    8  C22 UNL     1       2.175  -2.793   1.711  1.00  0.00     0.108 A 
ENDROOT
BRANCH   1   9
HETATM    9  N2  UNL     1       0.123  -1.841   1.944  1.00  0.00    -0.340 N 
ATOM     10  H2  UNL     1      -0.034  -2.550   2.661  1.00  0.00     0.167 HD
BRANCH   9  11
HETATM   11  C13 UNL     1      -0.929  -0.925   1.681  1.00  0.00     0.047 A 
HETATM   12  C2  UNL     1      -0.922   0.253   2.394  1.00  0.00    -0.035 A 
HETATM   13  C1  UNL     1       0.111   0.602   3.401  1.00  0.00     0.050 C 
HETATM   14  C3  UNL     1      -1.939   1.152   2.149  1.00  0.00     0.011 A 
HETATM   15  C4  UNL     1      -2.923   0.839   1.202  1.00  0.00     0.030 A 
HETATM   16  C5  UNL     1      -2.896  -0.348   0.509  1.00  0.00     0.036 A 
HETATM   17  C11 UNL     1      -1.865  -1.264   0.755  1.00  0.00    -0.008 A 
HETATM   18  C12 UNL     1      -1.857  -2.551  -0.010  1.00  0.00     0.053 C 
BRANCH  16  19
HETATM   19  N1  UNL     1      -3.913  -0.634  -0.428  1.00  0.00    -0.385 N 
ATOM     20  H1  UNL     1      -3.924  -1.540  -0.896  1.00  0.00     0.160 HD
BRANCH  19  21
HETATM   21  C6  UNL     1      -4.924   0.324  -0.730  1.00  0.00     0.081 C 
HETATM   22  C7  UNL     1      -5.991  -0.285  -1.665  1.00  0.00     0.025 C 
HETATM   23  C8  UNL     1      -6.765   0.961  -2.037  1.00  0.00     0.002 C 
HETATM   24  C9  UNL     1      -5.648   1.905  -2.427  1.00  0.00     0.002 C 
HETATM   25  C10 UNL     1      -4.414   1.427  -1.653  1.00  0.00     0.025 C 
ENDBRANCH  19  21
ENDBRANCH  16  19
ENDBRANCH   9  11
ENDBRANCH   1   9
BRANCH   8  26
HETATM   26  C23 UNL     1       1.851  -3.775   2.760  1.00  0.00     0.422 C 
HETATM   27  F1  UNL     1       1.581  -3.061   3.923  1.00  0.00    -0.166 F 
HETATM   28  F2  UNL     1       2.946  -4.575   3.026  1.00  0.00    -0.166 F 
HETATM   29  F3  UNL     1       0.811  -4.600   2.416  1.00  0.00    -0.166 F 
ENDBRANCH   8  26
BRANCH   4  30
HETATM   30  N4  UNL     1       3.033  -0.142  -1.115  1.00  0.00    -0.224 N 
ATOM     31  H4  UNL     1       2.258   0.501  -1.281  1.00  0.00     0.177 HD
BRANCH  30  32
HETATM   32  C16 UNL     1       4.186   0.072  -1.916  1.00  0.00     0.170 C 
BRANCH  32  33
HETATM   33  C17 UNL     1       4.931   1.350  -1.592  1.00  0.00     0.139 C 
HETATM   34  C18 UNL     1       5.434   1.400  -0.181  1.00  0.00     0.035 C 
HETATM   35  C19 UNL     1       5.388   2.874   0.158  1.00  0.00     0.029 C 
HETATM   36  C20 UNL     1       4.731   3.486  -1.051  1.00  0.00     0.168 C 
HETATM   37  O1  UNL     1       4.132   2.476  -1.769  1.00  0.00    -0.384 OA
ENDBRANCH  32  33
ENDBRANCH  30  32
ENDBRANCH   4  30
TORSDOF 8
