REMARK  8 active torsions:
REMARK  status: ('A' for Active; 'I' for Inactive)
REMARK    1  A    between atoms: C2_2  and  N1_3 
REMARK    2  A    between atoms: C2_2  and  C18_30 
REMARK    3  A    between atoms: N1_3  and  C3_5 
REMARK    4  A    between atoms: C3_5  and  O1_7 
REMARK    5  A    between atoms: O1_7  and  C4_8 
REMARK    6  A    between atoms: C9_13  and  N2_14 
REMARK       I    between atoms: N2_14  and  C10_16 
REMARK       I    between atoms: C10_16  and  N3_18 
REMARK    7  A    between atoms: N3_18  and  C11_20 
REMARK    8  A    between atoms: C15_24  and  C16_25 
ROOT
HETATM    1  C4  UNL     1      -0.417   0.311  -0.763  1.00  0.00     0.154 C 
HETATM    2  C5  UNL     1      -0.461   1.582  -0.031  1.00  0.00     0.034 C 
HETATM    3  C6  UNL     1      -0.344   2.783  -0.925  1.00  0.00     0.003 C 
HETATM    4  C7  UNL     1       0.299   2.589  -2.246  1.00  0.00     0.002 C 
HETATM    5  C8  UNL     1       0.659   1.235  -2.691  1.00  0.00     0.028 C 
HETATM    6  C9  UNL     1       0.892   0.229  -1.533  1.00  0.00     0.115 C 
ENDROOT
BRANCH   6   7
HETATM    7  N2  UNL     1       2.049   0.708  -0.866  1.00  0.00    -0.336 N 
HETATM    8  C10 UNL     1       3.169  -0.186  -0.561  1.00  0.00     0.321 C 
HETATM    9  O2  UNL     1       3.084  -1.392  -0.836  1.00  0.00    -0.247 OA
HETATM   10  N3  UNL     1       4.303   0.355   0.029  1.00  0.00    -0.309 N 
ATOM     11  H3  UNL     1       4.223   1.370   0.091  1.00  0.00     0.170 HD
ATOM     12  H2  UNL     1       2.102   1.690  -0.595  1.00  0.00     0.164 HD
BRANCH  10  13
HETATM   13  C11 UNL     1       5.504  -0.067   0.556  1.00  0.00     0.037 A 
HETATM   14  C12 UNL     1       6.258   0.789   1.391  1.00  0.00     0.029 A 
HETATM   15  C13 UNL     1       7.499   0.452   1.859  1.00  0.00     0.003 A 
HETATM   16  C14 UNL     1       8.046  -0.753   1.517  1.00  0.00     0.016 A 
HETATM   17  C15 UNL     1       7.344  -1.611   0.712  1.00  0.00     0.050 A 
HETATM   18  C17 UNL     1       6.086  -1.263   0.241  1.00  0.00     0.045 A 
BRANCH  17  19
HETATM   19  C16 UNL     1       8.007  -2.898   0.354  1.00  0.00     0.417 C 
HETATM   20  F1  UNL     1       9.047  -2.627  -0.540  1.00  0.00    -0.166 F 
HETATM   21  F2  UNL     1       8.627  -3.361   1.522  1.00  0.00    -0.166 F 
HETATM   22  F3  UNL     1       7.140  -3.825  -0.159  1.00  0.00    -0.166 F 
ENDBRANCH  17  19
ENDBRANCH  10  13
ENDBRANCH   6   7
BRANCH   1  23
HETATM   23  O1  UNL     1      -0.919  -0.822  -0.258  1.00  0.00    -0.320 OA
BRANCH  23  24
HETATM   24  C3  UNL     1      -2.266  -1.141   0.002  1.00  0.00     0.210 C 
HETATM   25  S1  UNL     1      -2.446  -2.636   0.613  1.00  0.00    -0.033 SA
BRANCH  24  26
HETATM   26  N1  UNL     1      -3.330  -0.288  -0.226  1.00  0.00    -0.356 N 
ATOM     27  H1  UNL     1      -2.979   0.604  -0.574  1.00  0.00     0.162 HD
BRANCH  26  28
HETATM   28  C2  UNL     1      -4.722  -0.234  -0.141  1.00  0.00     0.087 C 
HETATM   29  C1  UNL     1      -5.106   1.295   0.042  1.00  0.00     0.033 C 
BRANCH  28  30
HETATM   30  C18 UNL     1      -5.579  -0.917   0.842  1.00  0.00    -0.031 C 
HETATM   31  C19 UNL     1      -7.061  -0.449   0.504  1.00  0.00     0.016 C 
HETATM   32  C20 UNL     1      -5.383  -0.560   2.266  1.00  0.00     0.016 C 
HETATM   33  C21 UNL     1      -5.735  -2.427   0.655  1.00  0.00     0.016 C 
ENDBRANCH  28  30
ENDBRANCH  26  28
ENDBRANCH  24  26
ENDBRANCH  23  24
ENDBRANCH   1  23
TORSDOF 8
