REMARK  8 active torsions:
REMARK  status: ('A' for Active; 'I' for Inactive)
REMARK    1  A    between atoms: C5_10  and  O2_11 
REMARK    2  A    between atoms: O2_11  and  C6_12 
REMARK    3  A    between atoms: C6_12  and  C7_13 
REMARK    4  A    between atoms: C7_13  and  C8_14 
REMARK    5  A    between atoms: C8_14  and  C9_15 
REMARK    6  A    between atoms: C9_15  and  C10_16 
REMARK    7  A    between atoms: C11_17  and  C12_18 
REMARK    8  A    between atoms: C13_21  and  N4_22 
ROOT
HETATM    1  C10 UNL     1      -1.675  -1.783   1.001  1.00  0.00    -0.098 C 
HETATM    2  C11 UNL     1      -2.823  -2.060   1.214  1.00  0.00    -0.029 C 
ENDROOT
BRANCH   1   3
HETATM    3  C9  UNL     1      -0.273  -1.409   0.720  1.00  0.00     0.094 C 
BRANCH   3   4
HETATM    4  C8  UNL     1      -0.241   0.058   0.366  1.00  0.00     0.014 C 
BRANCH   4   5
HETATM    5  C7  UNL     1       1.165   0.521   0.078  1.00  0.00     0.028 C 
BRANCH   5   6
HETATM    6  C6  UNL     1       1.798  -0.198  -1.079  1.00  0.00     0.177 C 
BRANCH   6   7
HETATM    7  O2  UNL     1       3.114   0.309  -1.300  1.00  0.00    -0.337 OA
BRANCH   7   8
HETATM    8  C5  UNL     1       3.225   1.672  -1.610  1.00  0.00     0.150 A 
HETATM    9  C2  UNL     1       4.443   2.440  -1.274  1.00  0.00     0.092 A 
HETATM   10  C1  UNL     1       5.648   1.912  -2.040  1.00  0.00     0.047 C 
HETATM   11  C3  UNL     1       4.712   2.413   0.220  1.00  0.00     0.047 C 
HETATM   12  N1  UNL     1       4.165   3.769  -1.738  1.00  0.00    -0.327 N 
HETATM   13  C4  UNL     1       2.865   3.766  -2.313  1.00  0.00     0.322 A 
ATOM     14  H1  UNL     1       4.789   4.573  -1.668  1.00  0.00     0.165 HD
HETATM   15  O1  UNL     1       2.224   4.688  -2.839  1.00  0.00    -0.247 OA
HETATM   16  N2  UNL     1       2.386   2.431  -2.179  1.00  0.00    -0.291 N 
ATOM     17  H2  UNL     1       1.470   2.121  -2.505  1.00  0.00     0.172 HD
ENDBRANCH   7   8
ENDBRANCH   6   7
ENDBRANCH   5   6
ENDBRANCH   4   5
ENDBRANCH   3   4
ENDBRANCH   1   3
BRANCH   2  18
HETATM   18  C12 UNL     1      -4.219  -2.372   1.443  1.00  0.00     0.191 A 
HETATM   19  N3  UNL     1      -5.108  -2.244   0.427  1.00  0.00    -0.168 N 
HETATM   20  C13 UNL     1      -6.411  -2.516   0.596  1.00  0.00     0.692 A 
ATOM     21  H3  UNL     1      -4.778  -1.934  -0.487  1.00  0.00     0.186 HD
HETATM   22  N5  UNL     1      -6.843  -2.922   1.793  1.00  0.00    -0.023 N 
HETATM   23  C14 UNL     1      -5.963  -3.058   2.831  1.00  0.00     0.692 A 
ATOM     24  H5  UNL     1      -7.831  -3.131   1.933  1.00  0.00     0.203 HD
HETATM   25  N6  UNL     1      -6.377  -3.447   3.953  1.00  0.00    -0.234 N 
HETATM   26  N7  UNL     1      -4.643  -2.773   2.624  1.00  0.00    -0.168 N 
ATOM     27  H62 UNL     1      -7.363  -3.660   4.108  1.00  0.00     0.174 HD
ATOM     28  H61 UNL     1      -5.721  -3.548   4.727  1.00  0.00     0.174 HD
ATOM     29  H7  UNL     1      -3.979  -2.872   3.392  1.00  0.00     0.186 HD
BRANCH  20  30
HETATM   30  N4  UNL     1      -7.221  -2.377  -0.414  1.00  0.00    -0.234 N 
ATOM     31  H42 UNL     1      -6.891  -2.067  -1.328  1.00  0.00     0.174 HD
ATOM     32  H41 UNL     1      -8.212  -2.584  -0.286  1.00  0.00     0.174 HD
ENDBRANCH  20  30
ENDBRANCH   2  18
TORSDOF 8
