REMARK  8 active torsions:
REMARK  status: ('A' for Active; 'I' for Inactive)
REMARK    1  A    between atoms: C6_10  and  N3_11 
REMARK    2  A    between atoms: N3_11  and  C7_13 
REMARK    3  A    between atoms: C8_16  and  N5_17 
REMARK    4  A    between atoms: N5_17  and  C9_19 
REMARK    5  A    between atoms: C9_19  and  C10_20 
REMARK    6  A    between atoms: C10_20  and  C11_21 
REMARK    7  A    between atoms: C11_21  and  C12_22 
REMARK    8  A    between atoms: C12_22  and  O1_23 
ROOT
HETATM    1  C1  UNL     1       4.528   2.118   3.020  1.00  0.00     0.103 C 
HETATM    2  C2  UNL     1       4.142   1.727   1.926  1.00  0.00    -0.143 C 
HETATM    3  C3  UNL     1       3.695   1.288   0.634  1.00  0.00     0.073 A 
HETATM    4  C4  UNL     1       4.203   1.630  -0.609  1.00  0.00     0.043 A 
HETATM    5  C5  UNL     1       5.364   2.566  -0.759  1.00  0.00     0.071 C 
HETATM    6  N1  UNL     1       3.509   1.009  -1.580  1.00  0.00    -0.302 N 
ATOM      7  H1  UNL     1       3.673   1.085  -2.584  1.00  0.00     0.186 HD
HETATM    8  N2  UNL     1       2.588   0.293  -0.999  1.00  0.00    -0.284 N 
ATOM      9  H2  UNL     1       1.911  -0.286  -1.496  1.00  0.00     0.188 HD
HETATM   10  C6  UNL     1       2.643   0.415   0.351  1.00  0.00     0.141 A 
ENDROOT
BRANCH  10  11
HETATM   11  N3  UNL     1       1.895  -0.142   1.236  1.00  0.00    -0.324 N 
ATOM     12  H3  UNL     1       2.033   0.029   2.232  1.00  0.00     0.169 HD
BRANCH  11  13
HETATM   13  C7  UNL     1       0.856  -1.015   0.764  1.00  0.00     0.153 A 
HETATM   14  N4  UNL     1      -0.418  -0.593   0.846  1.00  0.00    -0.174 N 
HETATM   15  C8  UNL     1      -1.396  -1.420   0.400  1.00  0.00     0.681 A 
ATOM     16  H4  UNL     1      -0.643   0.324   1.233  1.00  0.00     0.186 HD
HETATM   17  N6  UNL     1      -1.088  -2.619  -0.107  1.00  0.00    -0.174 N 
HETATM   18  C13 UNL     1       0.166  -3.084  -0.210  1.00  0.00     0.152 A 
ATOM     19  H6  UNL     1      -1.850  -3.213  -0.434  1.00  0.00     0.186 HD
HETATM   20  N7  UNL     1       0.663  -4.229  -0.677  1.00  0.00    -0.336 N 
HETATM   21  C15 UNL     1       1.174  -2.255   0.240  1.00  0.00     0.123 A 
HETATM   22  C14 UNL     1       1.997  -4.134  -0.526  1.00  0.00     0.182 A 
ATOM     23  H7  UNL     1       0.141  -5.014  -1.067  1.00  0.00     0.168 HD
HETATM   24  N8  UNL     1       2.308  -2.928   0.035  1.00  0.00    -0.346 N 
ATOM     25  H8  UNL     1       3.247  -2.598   0.259  1.00  0.00     0.167 HD
BRANCH  15  26
HETATM   26  N5  UNL     1      -2.606  -0.990   0.491  1.00  0.00    -0.226 N 
ATOM     27  H5  UNL     1      -3.363  -1.590   0.162  1.00  0.00     0.177 HD
BRANCH  26  28
HETATM   28  C9  UNL     1      -2.940   0.306   1.039  1.00  0.00     0.138 C 
BRANCH  28  29
HETATM   29  C10 UNL     1      -4.431   0.470   1.216  1.00  0.00     0.022 C 
BRANCH  29  30
HETATM   30  C11 UNL     1      -5.193   0.344  -0.068  1.00  0.00     0.028 C 
BRANCH  30  31
HETATM   31  C12 UNL     1      -4.798   1.363  -1.095  1.00  0.00     0.164 C 
BRANCH  31  32
HETATM   32  O1  UNL     1      -5.589   1.124  -2.235  1.00  0.00    -0.401 OA
ATOM     33  H1  UNL     1      -5.339   1.769  -2.886  1.00  0.00     0.209 HD
ENDBRANCH  31  32
ENDBRANCH  30  31
ENDBRANCH  29  30
ENDBRANCH  28  29
ENDBRANCH  26  28
ENDBRANCH  15  26
ENDBRANCH  11  13
ENDBRANCH  10  11
TORSDOF 8
