REMARK  7 active torsions:
REMARK  status: ('A' for Active; 'I' for Inactive)
REMARK    1  A    between atoms: C2_2  and  C3_3 
REMARK    2  A    between atoms: N2_12  and  C10_14 
REMARK    3  A    between atoms: C11_17  and  N4_18 
REMARK    4  A    between atoms: N6_24  and  C13_26 
REMARK    5  A    between atoms: C13_26  and  C14_27 
REMARK    6  A    between atoms: C14_27  and  C15_28 
REMARK    7  A    between atoms: C15_28  and  O1_29 
ROOT
HETATM    1  C10 UNL     1       0.231   1.181  -0.552  1.00  0.00     0.713 A 
HETATM    2  N3  UNL     1       0.853   2.098   0.189  1.00  0.00    -0.021 N 
ATOM      3  H3  UNL     1       0.315   2.874   0.574  1.00  0.00     0.203 HD
HETATM    4  C11 UNL     1       2.188   2.025   0.445  1.00  0.00     0.705 A 
HETATM    5  N5  UNL     1       2.870   0.992  -0.076  1.00  0.00    -0.022 N 
ATOM      6  H5  UNL     1       3.871   0.926   0.108  1.00  0.00     0.203 HD
HETATM    7  C12 UNL     1       2.292   0.041  -0.829  1.00  0.00     0.707 A 
HETATM    8  N6  UNL     1       2.908  -0.961  -1.341  1.00  0.00    -0.225 N 
ATOM      9  H6  UNL     1       2.388  -1.637  -1.900  1.00  0.00     0.177 HD
HETATM   10  N7  UNL     1       0.948   0.166  -1.052  1.00  0.00    -0.021 N 
ATOM     11  H7  UNL     1       0.475  -0.538  -1.619  1.00  0.00     0.203 HD
ENDROOT
BRANCH   1  12
HETATM   12  N2  UNL     1      -1.153   1.254  -0.820  1.00  0.00    -0.175 N 
HETATM   13  C9  UNL     1      -1.954   0.513  -0.153  1.00  0.00     0.128 A 
HETATM   14  C3  UNL     1      -3.298   0.595  -0.427  1.00  0.00    -0.008 A 
HETATM   15  N1  UNL     1      -1.511  -0.327   0.797  1.00  0.00    -0.345 N 
HETATM   16  C4  UNL     1      -4.240  -0.156   0.237  1.00  0.00    -0.050 A 
HETATM   17  C5  UNL     1      -5.679  -0.040  -0.085  1.00  0.00     0.049 C 
HETATM   18  C6  UNL     1      -3.753  -1.010   1.208  1.00  0.00     0.032 A 
HETATM   19  C7  UNL     1      -2.403  -1.090   1.481  1.00  0.00     0.007 A 
HETATM   20  C8  UNL     1      -1.911  -2.031   2.546  1.00  0.00     0.068 C 
ATOM     21  H1  UNL     1      -0.514  -0.391   1.003  1.00  0.00     0.167 HD
ATOM     22  H2  UNL     1      -1.509   1.888  -1.535  1.00  0.00     0.186 HD
BRANCH  14  23
HETATM   23  C2  UNL     1      -3.747   1.529  -1.478  1.00  0.00     0.038 C 
HETATM   24  C1  UNL     1      -4.352   2.745  -0.768  1.00  0.00     0.010 C 
ENDBRANCH  14  23
ENDBRANCH   1  12
BRANCH   4  25
HETATM   25  N4  UNL     1       2.695   2.956   1.168  1.00  0.00    -0.234 N 
ATOM     26  H42 UNL     1       2.177   3.741   1.564  1.00  0.00     0.174 HD
ATOM     27  H41 UNL     1       3.695   2.901   1.360  1.00  0.00     0.174 HD
ENDBRANCH   4  25
BRANCH   8  28
HETATM   28  C13 UNL     1       4.321  -1.148  -1.140  1.00  0.00     0.140 C 
BRANCH  28  29
HETATM   29  C14 UNL     1       4.657  -1.817   0.178  1.00  0.00     0.046 C 
BRANCH  29  30
HETATM   30  C15 UNL     1       6.177  -1.930   0.220  1.00  0.00     0.165 C 
BRANCH  30  31
HETATM   31  O1  UNL     1       6.746  -0.657   0.143  1.00  0.00    -0.401 OA
ATOM     32  H1  UNL     1       7.693  -0.727   0.169  1.00  0.00     0.209 HD
ENDBRANCH  30  31
ENDBRANCH  29  30
ENDBRANCH  28  29
ENDBRANCH   8  28
TORSDOF 7
