REMARK  9 active torsions:
REMARK  status: ('A' for Active; 'I' for Inactive)
REMARK    1  A    between atoms: C2_2  and  C3_3 
REMARK    2  A    between atoms: C3_3  and  C4_4 
REMARK    3  A    between atoms: C5_5  and  C6_6 
REMARK    4  A    between atoms: C6_6  and  C7_7 
REMARK    5  A    between atoms: C8_8  and  S1_9 
REMARK    6  A    between atoms: S1_9  and  N1_10 
REMARK    7  A    between atoms: C9_16  and  N3_17 
REMARK    8  A    between atoms: C10_22  and  N5_23 
REMARK    9  A    between atoms: N6_28  and  O2_29 
ROOT
HETATM    1  C7  UNL     1      -1.172   0.385  -0.459  1.00  0.00     0.029 A 
HETATM    2  C8  UNL     1      -2.280  -0.139   0.155  1.00  0.00     0.147 A 
HETATM    3  N2  UNL     1      -3.184   0.604   0.812  1.00  0.00    -0.181 N 
ATOM      4  H2  UNL     1      -3.987   0.152   1.249  1.00  0.00     0.185 HD
HETATM    5  C9  UNL     1      -3.043   1.924   0.899  1.00  0.00     0.678 A 
HETATM    6  N4  UNL     1      -1.972   2.486   0.310  1.00  0.00    -0.177 N 
ATOM      7  H4  UNL     1      -1.854   3.497   0.369  1.00  0.00     0.185 HD
HETATM    8  C10 UNL     1      -1.042   1.759  -0.360  1.00  0.00     0.124 A 
ENDROOT
BRANCH   1   9
HETATM    9  C6  UNL     1      -0.230  -0.429  -1.192  1.00  0.00     0.094 C 
BRANCH   9  10
HETATM   10  C5  UNL     1       0.646  -1.368  -0.463  1.00  0.00     0.013 A 
HETATM   11  C4  UNL     1       1.739  -1.263   0.334  1.00  0.00     0.053 A 
HETATM   12  N6  UNL     1       2.286  -2.367   0.812  1.00  0.00    -0.233 N 
HETATM   13  C11 UNL     1       1.744  -3.537   0.492  1.00  0.00     0.173 A 
HETATM   14  S2  UNL     1       0.442  -3.098  -0.496  1.00  0.00    -0.084 SA
BRANCH  11  15
HETATM   15  C3  UNL     1       2.355   0.073   0.685  1.00  0.00     0.060 C 
BRANCH  15  16
HETATM   16  C2  UNL     1       3.187   0.507  -0.482  1.00  0.00     0.002 C 
HETATM   17  C1  UNL     1       3.854   1.849  -0.241  1.00  0.00     0.005 C 
ENDBRANCH  15  16
ENDBRANCH  11  15
BRANCH  12  18
HETATM   18  O2  UNL     1       3.436  -2.419   1.657  1.00  0.00    -0.283 OA
ATOM     19  H2  UNL     1       3.829  -3.213   2.001  1.00  0.00     0.245 HD
ENDBRANCH  12  18
ENDBRANCH   9  10
ENDBRANCH   1   9
BRANCH   2  20
HETATM   20  S1  UNL     1      -2.571  -1.840   0.092  1.00  0.00     0.162 S 
HETATM   21  O1  UNL     1      -3.232  -2.350   1.545  1.00  0.00    -0.229 OA
BRANCH  20  22
HETATM   22  N1  UNL     1      -3.528  -2.234  -1.262  1.00  0.00    -0.344 NA
ATOM     23  H12 UNL     1      -3.126  -1.924  -2.146  1.00  0.00     0.166 HD
ATOM     24  H11 UNL     1      -3.700  -3.239  -1.299  1.00  0.00     0.166 HD
ENDBRANCH  20  22
ENDBRANCH   2  20
BRANCH   8  25
HETATM   25  N5  UNL     1      -0.077   2.404  -0.909  1.00  0.00    -0.385 N 
ATOM     26  H52 UNL     1       0.622   1.858  -1.412  1.00  0.00     0.157 HD
ATOM     27  H51 UNL     1       0.019   3.417  -0.836  1.00  0.00     0.157 HD
ENDBRANCH   8  25
BRANCH   5  28
HETATM   28  N3  UNL     1      -3.920   2.661   1.538  1.00  0.00    -0.234 N 
ATOM     29  H32 UNL     1      -4.732   2.235   1.985  1.00  0.00     0.174 HD
ATOM     30  H31 UNL     1      -3.812   3.673   1.605  1.00  0.00     0.174 HD
ENDBRANCH   5  28
TORSDOF 9
