REMARK  2 active torsions:
REMARK  status: ('A' for Active; 'I' for Inactive)
REMARK    1  A    between atoms: N1_1  and  N2_4 
REMARK       I    between atoms: C1_6  and  N4_8 
REMARK    2  A    between atoms: N4_8  and  C2_10 
ROOT
HETATM    1  N2  UNL     1      -2.985   1.336   0.402  1.00  0.00    -0.280 N 
ATOM      2  H2  UNL     1      -2.849   2.345   0.333  1.00  0.00     0.189 HD
HETATM    3  C1  UNL     1      -2.117   0.536  -0.087  1.00  0.00     0.202 C 
HETATM    4  N3  UNL     1      -2.355  -0.854   0.037  1.00  0.00    -0.062 NA
HETATM    5  N4  UNL     1      -0.951   0.977  -0.734  1.00  0.00    -0.359 N 
ATOM      6  H4  UNL     1      -1.065   1.679  -1.465  1.00  0.00     0.162 HD
ENDROOT
BRANCH   5   7
HETATM    7  C2  UNL     1       0.381   0.533  -0.463  1.00  0.00     0.084 C 
HETATM    8  C3  UNL     1       0.791   0.812   0.985  1.00  0.00     0.025 C 
HETATM    9  C4  UNL     1       2.123   0.160   1.256  1.00  0.00     0.002 C 
HETATM   10  C5  UNL     1       2.856  -0.178  -0.013  1.00  0.00     0.000 C 
HETATM   11  C6  UNL     1       2.088  -1.157  -0.851  1.00  0.00     0.002 C 
HETATM   12  C7  UNL     1       0.590  -0.937  -0.702  1.00  0.00     0.025 C 
ENDBRANCH   5   7
BRANCH   1  13
HETATM   13  N1  UNL     1      -4.115   0.824   1.028  1.00  0.00    -0.343 N 
ATOM     14  H12 UNL     1      -4.236  -0.187   1.088  1.00  0.00     0.176 HD
ATOM     15  H11 UNL     1      -4.808   1.463   1.418  1.00  0.00     0.176 HD
ENDBRANCH   1  13
TORSDOF 2
