REMARK  3 active torsions:
REMARK  status: ('A' for Active; 'I' for Inactive)
REMARK    1  A    between atoms: N1_2  and  C2_4 
REMARK    2  A    between atoms: C4_6  and  N2_7 
REMARK    3  A    between atoms: C8_14  and  N3_15 
ROOT
HETATM    1  C2  UNL     1       0.990   0.659  -0.460  1.00  0.00     0.084 C 
HETATM    2  C3  UNL     1       0.225  -0.213  -1.430  1.00  0.00     0.066 C 
HETATM    3  C4  UNL     1      -1.117  -0.317  -0.689  1.00  0.00     0.153 C 
HETATM    4  C5  UNL     1      -1.640   1.057  -0.402  1.00  0.00     0.041 C 
HETATM    5  C6  UNL     1      -0.868   1.580   0.822  1.00  0.00     0.011 C 
HETATM    6  C7  UNL     1       0.277   0.579   0.854  1.00  0.00     0.041 C 
HETATM    7  C8  UNL     1      -0.560  -0.702   0.692  1.00  0.00     0.225 C 
ENDROOT
BRANCH   3   8
HETATM    8  N2  UNL     1      -2.011  -1.234  -1.240  1.00  0.00    -0.068 N 
ATOM      9  H23 UNL     1      -2.165  -1.031  -2.228  1.00  0.00     0.275 HD
ATOM     10  H22 UNL     1      -1.575  -2.153  -1.317  1.00  0.00     0.275 HD
ATOM     11  H21 UNL     1      -2.902  -1.303  -0.748  1.00  0.00     0.275 HD
ENDBRANCH   3   8
BRANCH   7  12
HETATM   12  N3  UNL     1      -1.597  -0.713   1.687  1.00  0.00    -0.072 N 
ATOM     13  H33 UNL     1      -2.095   0.176   1.719  1.00  0.00     0.274 HD
ATOM     14  H32 UNL     1      -2.372  -1.317   1.414  1.00  0.00     0.274 HD
ATOM     15  H31 UNL     1      -1.228  -0.968   2.603  1.00  0.00     0.274 HD
ENDBRANCH   7  12
BRANCH   1  16
HETATM   16  N1  UNL     1       2.376   0.489  -0.438  1.00  0.00    -0.421 N 
HETATM   17  C1  UNL     1       2.977  -0.714  -0.071  1.00  0.00     0.140 C 
ATOM     18  H1  UNL     1       2.971   1.275  -0.700  1.00  0.00     0.153 HD
ENDBRANCH   1  16
TORSDOF 3
