REMARK  2 active torsions:
REMARK  status: ('A' for Active; 'I' for Inactive)
REMARK    1  A    between atoms: N1_1  and  C1_5 
REMARK    2  A    between atoms: C1_5  and  C2_6 
ROOT
HETATM    1  C2  UNL     1      -1.396   0.067   0.263  1.00  0.00     0.030 C 
HETATM    2  C3  UNL     1      -0.946   1.406  -0.216  1.00  0.00     0.027 C 
HETATM    3  C4  UNL     1       0.495   1.712   0.106  1.00  0.00     0.114 C 
HETATM    4  N2  UNL     1       1.430   0.819  -0.487  1.00  0.00    -0.421 N 
ATOM      5  H2  UNL     1       1.321   0.461  -1.436  1.00  0.00     0.153 HD
HETATM    6  C5  UNL     1       2.536   0.460   0.349  1.00  0.00     0.115 C 
HETATM    7  C6  UNL     1       2.913  -0.974   0.022  1.00  0.00     0.038 C 
HETATM    8  C7  UNL     1       1.714  -1.883  -0.002  1.00  0.00     0.115 C 
HETATM    9  N3  UNL     1       0.566  -1.366   0.649  1.00  0.00    -0.421 N 
ATOM     10  H3  UNL     1       0.538  -1.213   1.657  1.00  0.00     0.153 HD
HETATM   11  C8  UNL     1      -0.545  -1.073  -0.191  1.00  0.00     0.120 C 
ENDROOT
BRANCH   1  12
HETATM   12  C1  UNL     1      -2.797  -0.160  -0.320  1.00  0.00     0.235 C 
BRANCH  12  13
HETATM   13  N1  UNL     1      -3.701   0.873   0.138  1.00  0.00    -0.079 N 
ATOM     14  H13 UNL     1      -3.718   0.941   1.156  1.00  0.00     0.274 HD
ATOM     15  H12 UNL     1      -3.349   1.807  -0.069  1.00  0.00     0.274 HD
ATOM     16  H11 UNL     1      -4.632   0.722  -0.250  1.00  0.00     0.274 HD
ENDBRANCH  12  13
ENDBRANCH   1  12
TORSDOF 2
