REMARK  1 active torsions:
REMARK  status: ('A' for Active; 'I' for Inactive)
REMARK    1  A    between atoms: C2_3  and  N2_4 
REMARK       I    between atoms: N2_4  and  C3_6 
ROOT
HETATM    1  N1  UNL     1       0.446   2.861  -0.490  1.00  0.00    -0.194 NA
HETATM    2  C1  UNL     1       0.121   1.800  -0.171  1.00  0.00     0.093 C 
HETATM    3  C2  UNL     1      -0.313   0.457   0.229  1.00  0.00     0.145 C 
HETATM    4  C4  UNL     1      -1.633   0.468   0.951  1.00  0.00     0.075 C 
HETATM    5  C5  UNL     1      -2.413  -0.589   0.204  1.00  0.00     0.171 C 
HETATM    6  O1  UNL     1      -1.465  -1.341  -0.489  1.00  0.00    -0.388 OA
HETATM    7  C6  UNL     1      -0.658  -0.318  -1.031  1.00  0.00     0.214 C 
ENDROOT
BRANCH   3   8
HETATM    8  N2  UNL     1       0.714  -0.236   0.969  1.00  0.00    -0.341 N 
HETATM    9  C3  UNL     1       1.986  -0.510   0.418  1.00  0.00     0.183 C 
HETATM   10  N3  UNL     1       2.354  -1.739   0.159  1.00  0.00    -0.374 N 
HETATM   11  N4  UNL     1       2.940   0.496   0.109  1.00  0.00    -0.064 NA
ATOM     12  H32 UNL     1       1.669  -2.461   0.381  1.00  0.00     0.158 HD
ATOM     13  H31 UNL     1       3.272  -1.937  -0.239  1.00  0.00     0.158 HD
ATOM     14  H2  UNL     1       0.515  -0.538   1.923  1.00  0.00     0.164 HD
ENDBRANCH   3   8
TORSDOF 1
