REMARK  3 active torsions:
REMARK  status: ('A' for Active; 'I' for Inactive)
REMARK    1  A    between atoms: N1_1  and  C1_5 
REMARK    2  A    between atoms: C3_7  and  C4_8 
REMARK    3  A    between atoms: C8_15  and  N3_16 
ROOT
HETATM    1  C1  UNL     1      -2.333  -0.171   0.527  1.00  0.00     0.214 C 
HETATM    2  C2  UNL     1      -0.951  -0.752   0.804  1.00  0.00     0.043 C 
HETATM    3  C3  UNL     1      -0.449   0.664   0.745  1.00  0.00     0.050 C 
HETATM    4  C8  UNL     1      -1.587   0.982  -0.165  1.00  0.00     0.219 C 
ENDROOT
BRANCH   3   5
HETATM    5  C4  UNL     1       0.944   0.871   0.270  1.00  0.00     0.192 C 
HETATM    6  C5  UNL     1       1.875   0.134   1.216  1.00  0.00     0.035 C 
HETATM    7  C6  UNL     1       2.566  -0.860   0.308  1.00  0.00     0.029 C 
HETATM    8  C7  UNL     1       2.628  -0.029  -0.983  1.00  0.00     0.233 C 
HETATM    9  N2  UNL     1       1.204   0.358  -1.045  1.00  0.00    -0.070 N 
ATOM     10  H22 UNL     1       0.575  -0.388  -1.341  1.00  0.00     0.277 HD
ATOM     11  H21 UNL     1       0.972   0.999  -1.804  1.00  0.00     0.277 HD
ENDBRANCH   3   5
BRANCH   4  12
HETATM   12  N3  UNL     1      -1.441   0.773  -1.564  1.00  0.00    -0.073 N 
ATOM     13  H33 UNL     1      -0.993  -0.123  -1.757  1.00  0.00     0.274 HD
ATOM     14  H32 UNL     1      -2.344   0.602  -2.006  1.00  0.00     0.274 HD
ATOM     15  H31 UNL     1      -0.946   1.538  -2.023  1.00  0.00     0.274 HD
ENDBRANCH   4  12
BRANCH   1  16
HETATM   16  N1  UNL     1      -3.162  -0.940  -0.339  1.00  0.00    -0.073 N 
ATOM     17  H13 UNL     1      -2.677  -1.119  -1.218  1.00  0.00     0.274 HD
ATOM     18  H12 UNL     1      -3.249  -1.892   0.017  1.00  0.00     0.274 HD
ATOM     19  H11 UNL     1      -4.087  -0.551  -0.524  1.00  0.00     0.274 HD
ENDBRANCH   1  16
TORSDOF 3
