REMARK  14 active torsions:
REMARK  status: ('A' for Active; 'I' for Inactive)
REMARK    1  A    between atoms: C2_2  and  S1_3 
REMARK    2  A    between atoms: S1_3  and  S2_4 
REMARK    3  A    between atoms: S2_4  and  C3_5 
REMARK    4  A    between atoms: C4_6  and  N1_7 
REMARK    5  A    between atoms: C5_11  and  O1_12 
REMARK    6  A    between atoms: C6_15  and  C7_16 
REMARK    7  A    between atoms: C7_16  and  O3_17 
REMARK    8  A    between atoms: C7_16  and  C8_19 
REMARK    9  A    between atoms: C8_19  and  C10_21 
REMARK   10  A    between atoms: C10_21  and  N2_22 
REMARK   11  A    between atoms: C11_26  and  N3_27 
REMARK   12  A    between atoms: N3_27  and  C12_29 
REMARK   13  A    between atoms: C12_29  and  N4_30 
REMARK   14  A    between atoms: N4_30  and  N5_31 
ROOT
HETATM    1  C3  UNL     1      -1.017  -0.115   0.656  1.00  0.00     0.142 C 
HETATM    2  C4  UNL     1      -1.293  -1.160  -0.416  1.00  0.00     0.258 C 
HETATM    3  C5  UNL     1      -0.040  -1.835  -0.782  1.00  0.00     0.289 C 
HETATM    4  O2  UNL     1       0.998  -1.043  -1.161  1.00  0.00    -0.346 OA
HETATM    5  C6  UNL     1       1.260   0.063  -0.432  1.00  0.00     0.200 C 
HETATM    6  C11 UNL     1       0.086   0.742   0.217  1.00  0.00     0.032 C 
ENDROOT
BRANCH   5   7
HETATM    7  C7  UNL     1       2.276  -0.307   0.626  1.00  0.00     0.158 C 
BRANCH   7   8
HETATM    8  O3  UNL     1       2.595   0.815   1.422  1.00  0.00    -0.392 OA
ATOM      9  H3  UNL     1       3.233   0.583   2.086  1.00  0.00     0.210 HD
ENDBRANCH   7   8
BRANCH   7  10
HETATM   10  C8  UNL     1       3.514  -0.954   0.113  1.00  0.00     0.038 C 
HETATM   11  C9  UNL     1       4.423  -1.260   1.318  1.00  0.00     0.014 C 
BRANCH  10  12
HETATM   12  C10 UNL     1       4.317  -0.050  -0.800  1.00  0.00     0.236 C 
BRANCH  12  13
HETATM   13  N2  UNL     1       5.491  -0.813  -1.220  1.00  0.00    -0.079 N 
ATOM     14  H23 UNL     1       6.034  -1.180  -0.438  1.00  0.00     0.274 HD
ATOM     15  H22 UNL     1       5.257  -1.710  -1.646  1.00  0.00     0.274 HD
ATOM     16  H21 UNL     1       6.032  -0.204  -1.835  1.00  0.00     0.274 HD
ENDBRANCH  12  13
ENDBRANCH  10  12
ENDBRANCH   7  10
ENDBRANCH   5   7
BRANCH   6  17
HETATM   17  N3  UNL     1      -0.254   1.939  -0.461  1.00  0.00    -0.378 N 
ATOM     18  H3  UNL     1      -0.067   2.020  -1.460  1.00  0.00     0.160 HD
BRANCH  17  19
HETATM   19  C12 UNL     1      -0.842   3.012   0.218  1.00  0.00     0.255 C 
BRANCH  19  20
HETATM   20  N4  UNL     1      -1.136   4.050  -0.794  1.00  0.00    -0.129 NA
BRANCH  20  21
HETATM   21  N5  UNL     1      -1.758   5.118  -0.122  1.00  0.00    -0.347 N 
ATOM     22  H52 UNL     1      -1.961   5.155   0.877  1.00  0.00     0.172 HD
ATOM     23  H51 UNL     1      -1.961   5.834  -0.820  1.00  0.00     0.172 HD
ENDBRANCH  20  21
ENDBRANCH  19  20
ENDBRANCH  17  19
ENDBRANCH   6  17
BRANCH   3  24
HETATM   24  O1  UNL     1       0.335  -2.696   0.262  1.00  0.00    -0.369 OA
ATOM     25  H1  UNL     1       1.145  -3.132   0.025  1.00  0.00     0.212 HD
ENDBRANCH   3  24
BRANCH   1  26
HETATM   26  S2  UNL     1      -2.567   0.642   1.059  1.00  0.00    -0.085 SA
BRANCH  26  27
HETATM   27  S1  UNL     1      -3.932  -0.663   1.963  1.00  0.00    -0.097 SA
BRANCH  27  28
HETATM   28  C2  UNL     1      -4.987  -1.521   0.803  1.00  0.00     0.081 C 
HETATM   29  C1  UNL     1      -5.926  -2.417   1.589  1.00  0.00     0.017 C 
ENDBRANCH  27  28
ENDBRANCH  26  27
ENDBRANCH   1  26
BRANCH   2  30
HETATM   30  N1  UNL     1      -2.010  -0.678  -1.540  1.00  0.00    -0.069 N 
ATOM     31  H13 UNL     1      -2.880  -0.237  -1.243  1.00  0.00     0.275 HD
ATOM     32  H12 UNL     1      -1.534   0.128  -1.945  1.00  0.00     0.275 HD
ATOM     33  H11 UNL     1      -2.195  -1.378  -2.258  1.00  0.00     0.275 HD
ENDBRANCH   2  30
TORSDOF 14
