REMARK  11 active torsions:
REMARK  status: ('A' for Active; 'I' for Inactive)
REMARK    1  A    between atoms: C4_9  and  N3_10 
REMARK    2  A    between atoms: N3_10  and  C5_12 
REMARK    3  A    between atoms: C5_12  and  O1_13 
REMARK    4  A    between atoms: C5_12  and  C6_15 
REMARK    5  A    between atoms: C8_19  and  C9_20 
REMARK    6  A    between atoms: C9_20  and  C10_21 
REMARK    7  A    between atoms: C9_20  and  N6_26 
REMARK    8  A    between atoms: C10_21  and  N5_22 
REMARK    9  A    between atoms: N6_26  and  C11_28 
REMARK   10  A    between atoms: C11_28  and  C12_29 
REMARK   11  A    between atoms: C12_29  and  N7_30 
ROOT
HETATM    1  C6  UNL     1       0.449  -1.060   0.837  1.00  0.00     0.089 A 
HETATM    2  C7  UNL     1      -0.089  -1.266  -0.413  1.00  0.00     0.120 A 
HETATM    3  N4  UNL     1      -1.446  -1.325  -0.538  1.00  0.00    -0.348 N 
ATOM      4  H4  UNL     1      -1.857  -1.476  -1.459  1.00  0.00     0.167 HD
HETATM    5  C8  UNL     1      -2.245  -1.189   0.519  1.00  0.00     0.144 A 
HETATM    6  N8  UNL     1      -1.701  -0.992   1.714  1.00  0.00    -0.283 N 
ATOM      7  H8  UNL     1      -2.310  -0.887   2.525  1.00  0.00     0.188 HD
HETATM    8  N9  UNL     1      -0.371  -0.927   1.884  1.00  0.00    -0.297 N 
ATOM      9  H9  UNL     1       0.015  -0.776   2.816  1.00  0.00     0.187 HD
ENDROOT
BRANCH   1  10
HETATM   10  C5  UNL     1       1.929  -0.997   0.951  1.00  0.00     0.272 C 
BRANCH  10  11
HETATM   11  N3  UNL     1       2.524  -0.183  -0.084  1.00  0.00    -0.355 N 
ATOM     12  H3  UNL     1       1.969   0.138  -0.878  1.00  0.00     0.162 HD
BRANCH  11  13
HETATM   13  C4  UNL     1       3.898   0.161   0.027  1.00  0.00     0.090 A 
HETATM   14  C3  UNL     1       4.497   0.918  -0.974  1.00  0.00     0.128 A 
HETATM   15  N1  UNL     1       5.795   1.266  -0.894  1.00  0.00    -0.331 N 
HETATM   16  N2  UNL     1       3.740   1.262  -1.976  1.00  0.00    -0.384 N 
HETATM   17  C2  UNL     1       6.569   0.906   0.143  1.00  0.00     0.078 A 
ATOM     18  H1  UNL     1       6.204   1.821  -1.646  1.00  0.00     0.168 HD
HETATM   19  C1  UNL     1       8.014   1.318   0.192  1.00  0.00     0.089 C 
HETATM   20  N10 UNL     1       6.012   0.177   1.117  1.00  0.00    -0.354 N 
HETATM   21  C13 UNL     1       4.700  -0.203   1.084  1.00  0.00     0.122 A 
ATOM     22  H10 UNL     1       6.587  -0.105   1.911  1.00  0.00     0.166 HD
ATOM     23  H22 UNL     1       4.179   1.817  -2.710  1.00  0.00     0.157 HD
ATOM     24  H21 UNL     1       2.757   0.998  -2.037  1.00  0.00     0.157 HD
ENDBRANCH  11  13
ENDBRANCH  10  11
BRANCH  10  25
HETATM   25  O1  UNL     1       2.537  -2.240   0.986  1.00  0.00    -0.371 OA
ATOM     26  H1  UNL     1       2.146  -2.775   1.666  1.00  0.00     0.212 HD
ENDBRANCH  10  25
ENDBRANCH   1  10
BRANCH   5  27
HETATM   27  C9  UNL     1      -3.713  -1.255   0.362  1.00  0.00     0.080 C 
BRANCH  27  28
HETATM   28  C10 UNL     1      -4.119  -1.700  -1.009  1.00  0.00     0.290 C 
BRANCH  28  29
HETATM   29  N5  UNL     1      -3.631  -0.914  -2.093  1.00  0.00    -0.074 N 
ATOM     30  H53 UNL     1      -3.890   0.063  -1.956  1.00  0.00     0.274 HD
ATOM     31  H52 UNL     1      -2.615  -0.844  -2.039  1.00  0.00     0.274 HD
ATOM     32  H51 UNL     1      -3.908  -1.217  -3.027  1.00  0.00     0.274 HD
ENDBRANCH  28  29
ENDBRANCH  27  28
BRANCH  27  33
HETATM   33  N6  UNL     1      -4.510  -0.344   0.986  1.00  0.00    -0.367 N 
ATOM     34  H6  UNL     1      -4.923  -0.686   1.854  1.00  0.00     0.165 HD
BRANCH  33  35
HETATM   35  C11 UNL     1      -4.865   0.942   0.676  1.00  0.00     0.088 C 
BRANCH  35  36
HETATM   36  C12 UNL     1      -5.820   1.269  -0.421  1.00  0.00     0.274 C 
BRANCH  36  37
HETATM   37  N7  UNL     1      -6.008   2.750  -0.465  1.00  0.00    -0.075 N 
ATOM     38  H73 UNL     1      -6.300   3.134   0.434  1.00  0.00     0.274 HD
ATOM     39  H72 UNL     1      -5.125   3.253  -0.553  1.00  0.00     0.274 HD
ATOM     40  H71 UNL     1      -6.661   2.974  -1.216  1.00  0.00     0.274 HD
ENDBRANCH  36  37
ENDBRANCH  35  36
ENDBRANCH  33  35
ENDBRANCH  27  33
ENDBRANCH   5  27
TORSDOF 11
