REMARK  8 active torsions:
REMARK  status: ('A' for Active; 'I' for Inactive)
REMARK    1  A    between atoms: O1_2  and  C2_3 
REMARK    2  A    between atoms: C2_3  and  C3_4 
REMARK    3  A    between atoms: C3_4  and  N1_5 
REMARK    4  A    between atoms: C3_4  and  C17_25 
REMARK    5  A    between atoms: N1_5  and  C4_7 
REMARK    6  A    between atoms: C6_11  and  C7_12 
REMARK    7  A    between atoms: C17_25  and  C20_28 
REMARK    8  A    between atoms: C20_28  and  O2_29 
ROOT
HETATM    1  C4  UNL     1       0.542  -0.475   0.111  1.00  0.00     0.108 A 
HETATM    2  N2  UNL     1      -0.181  -1.640   0.160  1.00  0.00    -0.352 N 
ATOM      3  H2  UNL     1       0.325  -2.525   0.196  1.00  0.00     0.166 HD
HETATM    4  C5  UNL     1      -1.512  -1.669   0.163  1.00  0.00     0.097 A 
HETATM    5  C6  UNL     1      -2.284  -0.514   0.116  1.00  0.00    -0.029 A 
HETATM    6  C12 UNL     1      -1.600   0.678   0.067  1.00  0.00    -0.040 A 
HETATM    7  C13 UNL     1      -0.195   0.687   0.064  1.00  0.00    -0.007 A 
HETATM    8  C14 UNL     1       0.214   2.104  -0.017  1.00  0.00     0.043 C 
HETATM    9  C15 UNL     1      -1.015   2.819  -0.608  1.00  0.00     0.009 C 
HETATM   10  C16 UNL     1      -2.120   2.066   0.056  1.00  0.00     0.040 C 
ENDROOT
BRANCH   1  11
HETATM   11  N1  UNL     1       1.764  -0.581   0.126  1.00  0.00    -0.368 N 
ATOM     12  H1  UNL     1       1.998  -1.573   0.173  1.00  0.00     0.161 HD
BRANCH  11  13
HETATM   13  C3  UNL     1       2.944   0.142   0.103  1.00  0.00     0.116 C 
BRANCH  13  14
HETATM   14  C2  UNL     1       3.711   0.119  -1.187  1.00  0.00     0.193 C 
BRANCH  14  15
HETATM   15  O1  UNL     1       2.930   0.666  -2.215  1.00  0.00    -0.394 OA
HETATM   16  C1  UNL     1       3.722   0.606  -3.378  1.00  0.00     0.201 C 
ENDBRANCH  14  15
ENDBRANCH  13  14
BRANCH  13  17
HETATM   17  C17 UNL     1       3.778  -0.261   1.286  1.00  0.00    -0.004 C 
HETATM   18  C18 UNL     1       2.925  -0.210   2.569  1.00  0.00     0.019 C 
HETATM   19  C19 UNL     1       4.900   0.755   1.545  1.00  0.00     0.019 C 
BRANCH  17  20
HETATM   20  C20 UNL     1       4.400  -1.599   1.261  1.00  0.00     0.175 C 
BRANCH  20  21
HETATM   21  O2  UNL     1       5.262  -1.753   0.215  1.00  0.00    -0.400 OA
ATOM     22  H2  UNL     1       5.662  -2.614   0.199  1.00  0.00     0.209 HD
ENDBRANCH  20  21
ENDBRANCH  17  20
ENDBRANCH  13  17
ENDBRANCH  11  13
ENDBRANCH   1  11
BRANCH   5  23
HETATM   23  C7  UNL     1      -3.754  -0.554   0.094  1.00  0.00     0.058 C 
HETATM   24  C8  UNL     1      -4.291  -1.924   0.486  1.00  0.00     0.031 C 
HETATM   25  C9  UNL     1      -5.783  -1.724   0.680  1.00  0.00     0.114 C 
HETATM   26  N3  UNL     1      -6.460  -1.184  -0.449  1.00  0.00    -0.418 N 
HETATM   27  C10 UNL     1      -5.801  -0.061  -1.086  1.00  0.00     0.151 C 
ATOM     28  H3  UNL     1      -7.346  -1.560  -0.786  1.00  0.00     0.153 HD
HETATM   29  C11 UNL     1      -4.331  -0.330  -1.309  1.00  0.00     0.196 C 
HETATM   30  F1  UNL     1      -4.211  -1.528  -2.007  1.00  0.00    -0.247 F 
ENDBRANCH   5  23
TORSDOF 8
