REMARK  8 active torsions:
REMARK  status: ('A' for Active; 'I' for Inactive)
REMARK    1  A    between atoms: C2_2  and  N1_4 
REMARK       I    between atoms: N1_4  and  C4_6 
REMARK       I    between atoms: C4_6  and  N2_8 
REMARK    2  A    between atoms: N2_8  and  C6_10 
REMARK    3  A    between atoms: C6_10  and  C8_12 
REMARK       I    between atoms: C8_12  and  N3_14 
REMARK    4  A    between atoms: N3_14  and  C9_16 
REMARK    5  A    between atoms: C9_16  and  N4_17 
REMARK    6  A    between atoms: C9_16  and  C10_21 
REMARK    7  A    between atoms: C15_26  and  O3_27 
REMARK    8  A    between atoms: O3_27  and  C16_28 
ROOT
HETATM    1  C9  UNL     1      -1.557  -0.661  -0.915  1.00  0.00     0.290 C 
ENDROOT
BRANCH   1   2
HETATM    2  N3  UNL     1      -0.333  -1.472  -0.845  1.00  0.00    -0.331 N 
HETATM    3  C8  UNL     1       0.962  -0.910  -0.920  1.00  0.00     0.241 C 
HETATM    4  O2  UNL     1       1.060   0.331  -1.051  1.00  0.00    -0.271 OA
ATOM      5  H3  UNL     1      -0.422  -2.482  -0.738  1.00  0.00     0.164 HD
BRANCH   3   6
HETATM    6  C6  UNL     1       2.158  -1.756  -0.846  1.00  0.00     0.176 C 
HETATM    7  C7  UNL     1       2.184  -2.612   0.416  1.00  0.00     0.042 C 
BRANCH   6   8
HETATM    8  N2  UNL     1       3.390  -1.020  -0.882  1.00  0.00    -0.325 N 
HETATM    9  C4  UNL     1       3.722  -0.112   0.139  1.00  0.00     0.319 C 
HETATM   10  N1  UNL     1       4.939   0.614   0.070  1.00  0.00    -0.339 N 
HETATM   11  O1  UNL     1       2.920   0.037   1.103  1.00  0.00    -0.247 OA
ATOM     12  H1  UNL     1       5.574   0.480  -0.717  1.00  0.00     0.164 HD
HETATM   13  C5  UNL     1       4.299  -1.207  -1.983  1.00  0.00     0.155 C 
BRANCH  10  14
HETATM   14  C2  UNL     1       5.268   1.535   1.112  1.00  0.00     0.078 C 
HETATM   15  C1  UNL     1       6.585   1.126   1.725  1.00  0.00     0.032 C 
HETATM   16  C3  UNL     1       5.422   2.909   0.492  1.00  0.00     0.032 C 
ENDBRANCH  10  14
ENDBRANCH   6   8
ENDBRANCH   3   6
ENDBRANCH   1   2
BRANCH   1  17
HETATM   17  N4  UNL     1      -2.201  -1.064  -2.140  1.00  0.00    -0.058 N 
ATOM     18  H43 UNL     1      -1.606  -0.986  -2.965  1.00  0.00     0.276 HD
ATOM     19  H42 UNL     1      -2.366  -2.068  -2.209  1.00  0.00     0.276 HD
ATOM     20  H41 UNL     1      -3.050  -0.501  -2.189  1.00  0.00     0.276 HD
ENDBRANCH   1  17
BRANCH   1  21
HETATM   21  C10 UNL     1      -2.386  -0.825   0.303  1.00  0.00     0.065 C 
HETATM   22  C11 UNL     1      -2.836  -2.259   0.521  1.00  0.00     0.011 C 
HETATM   23  C12 UNL     1      -4.306  -2.464   0.212  1.00  0.00     0.001 C 
HETATM   24  C13 UNL     1      -5.180  -1.663   1.153  1.00  0.00     0.002 C 
HETATM   25  C14 UNL     1      -4.333  -0.533   1.689  1.00  0.00     0.032 C 
HETATM   26  C15 UNL     1      -3.531   0.087   0.503  1.00  0.00     0.133 C 
BRANCH  26  27
HETATM   27  O3  UNL     1      -3.220   1.384   0.796  1.00  0.00    -0.346 OA
BRANCH  27  28
HETATM   28  C16 UNL     1      -3.797   2.367   0.059  1.00  0.00     0.197 C 
HETATM   29  C17 UNL     1      -3.543   2.375  -1.409  1.00  0.00     0.084 C 
HETATM   30  C18 UNL     1      -3.383   3.766   0.553  1.00  0.00     0.084 C 
HETATM   31  F1  UNL     1      -5.198   2.388   0.208  1.00  0.00    -0.213 F 
ENDBRANCH  27  28
ENDBRANCH  26  27
ENDBRANCH   1  21
TORSDOF 8
