REMARK  7 active torsions:
REMARK  status: ('A' for Active; 'I' for Inactive)
REMARK    1  A    between atoms: C2_2  and  C3_3 
REMARK    2  A    between atoms: C2_2  and  N1_7 
REMARK    3  A    between atoms: C3_3  and  C4_4 
REMARK    4  A    between atoms: C11_12  and  N2_13 
REMARK    5  A    between atoms: C12_17  and  C13_18 
REMARK       I    between atoms: C13_18  and  N3_20 
REMARK    6  A    between atoms: N3_20  and  C14_22 
REMARK    7  A    between atoms: C14_22  and  C15_23 
ROOT
HETATM    1  N1  UNL     1       2.810  -0.607  -0.169  1.00  0.00    -0.386 N 
HETATM    2  C7  UNL     1       1.976  -0.060   0.830  1.00  0.00     0.125 C 
HETATM    3  C8  UNL     1       1.005  -1.167   1.267  1.00  0.00     0.054 C 
HETATM    4  C9  UNL     1       0.006  -1.297   0.111  1.00  0.00     0.064 C 
HETATM    5  C10 UNL     1      -0.924  -2.414   0.439  1.00  0.00     0.067 C 
HETATM    6  C11 UNL     1      -2.384  -2.033   0.454  1.00  0.00     0.200 C 
HETATM    7  C12 UNL     1      -2.682  -0.768   1.183  1.00  0.00     0.125 C 
HETATM    8  C18 UNL     1      -1.590   0.270   1.021  1.00  0.00     0.131 C 
HETATM    9  N4  UNL     1      -0.641  -0.016   0.010  1.00  0.00    -0.409 N 
ATOM     10  H4  UNL     1      -0.430   0.642  -0.740  1.00  0.00     0.154 HD
HETATM   11  C19 UNL     1       0.753  -1.532  -1.183  1.00  0.00     0.236 C 
HETATM   12  F1  UNL     1       0.407  -2.764  -1.760  1.00  0.00    -0.241 F 
HETATM   13  C20 UNL     1       2.244  -1.565  -1.029  1.00  0.00     0.098 C 
ENDROOT
BRANCH   6  14
HETATM   14  N2  UNL     1      -2.941  -2.095  -0.882  1.00  0.00    -0.074 N 
ATOM     15  H23 UNL     1      -2.408  -1.527  -1.541  1.00  0.00     0.274 HD
ATOM     16  H22 UNL     1      -2.792  -3.008  -1.312  1.00  0.00     0.274 HD
ATOM     17  H21 UNL     1      -3.928  -1.837  -0.872  1.00  0.00     0.274 HD
ENDBRANCH   6  14
BRANCH   1  18
HETATM   18  C2  UNL     1       3.873   0.173  -0.668  1.00  0.00     0.079 C 
HETATM   19  C1  UNL     1       3.509   1.437  -1.365  1.00  0.00     0.032 C 
BRANCH  18  20
HETATM   20  C3  UNL     1       4.904   0.430   0.420  1.00  0.00     0.029 C 
BRANCH  20  21
HETATM   21  C4  UNL     1       6.177   1.026  -0.192  1.00  0.00    -0.013 A 
HETATM   22  C5  UNL     1       7.310   1.352   0.709  1.00  0.00     0.005 A 
HETATM   23  C6  UNL     1       7.376   0.141  -0.238  1.00  0.00     0.005 A 
ENDBRANCH  20  21
ENDBRANCH  18  20
ENDBRANCH   1  18
BRANCH   7  24
HETATM   24  C13 UNL     1      -3.953  -0.199   0.648  1.00  0.00     0.225 C 
HETATM   25  O1  UNL     1      -4.982  -0.250   1.402  1.00  0.00    -0.273 OA
HETATM   26  N3  UNL     1      -4.064   0.377  -0.626  1.00  0.00    -0.360 N 
ATOM     27  H3  UNL     1      -3.235   0.414  -1.218  1.00  0.00     0.162 HD
BRANCH  26  28
HETATM   28  C14 UNL     1      -5.298   0.918  -1.134  1.00  0.00     0.127 C 
BRANCH  28  29
HETATM   29  C15 UNL     1      -5.787   2.030  -0.265  1.00  0.00     0.003 A 
HETATM   30  C16 UNL     1      -7.049   2.721  -0.640  1.00  0.00     0.007 A 
HETATM   31  C17 UNL     1      -7.094   1.763   0.472  1.00  0.00     0.007 A 
ENDBRANCH  28  29
ENDBRANCH  26  28
ENDBRANCH   7  24
TORSDOF 7
