REMARK  10 active torsions:
REMARK  status: ('A' for Active; 'I' for Inactive)
REMARK    1  A    between atoms: C3_3  and  C4_4 
REMARK    2  A    between atoms: C4_4  and  C6_6 
REMARK    3  A    between atoms: C6_6  and  C7_7 
REMARK    4  A    between atoms: C7_7  and  C8_8 
REMARK    5  A    between atoms: C8_8  and  O1_9 
REMARK    6  A    between atoms: C8_8  and  C9_11 
REMARK    7  A    between atoms: C13_15  and  C15_17 
REMARK    8  A    between atoms: C15_17  and  C16_18 
REMARK    9  A    between atoms: C16_18  and  S1_19 
REMARK   10  A    between atoms: S1_19  and  N1_20 
ROOT
HETATM    1  C9  UNL     1       0.750  -0.336   0.881  1.00  0.00    -0.051 C 
HETATM    2  C10 UNL     1       0.024   0.663   1.372  1.00  0.00    -0.021 C 
HETATM    3  C11 UNL     1      -1.448   0.549   1.291  1.00  0.00     0.033 C 
HETATM    4  C12 UNL     1      -1.962  -0.125   0.050  1.00  0.00     0.005 C 
HETATM    5  C13 UNL     1      -3.397  -0.552   0.305  1.00  0.00    -0.039 C 
HETATM    6  C14 UNL     1      -3.519  -1.594   1.358  1.00  0.00     0.015 C 
HETATM    7  C17 UNL     1      -3.882  -1.030  -1.074  1.00  0.00     0.010 C 
HETATM    8  C18 UNL     1      -3.199  -2.315  -1.359  1.00  0.00     0.002 C 
HETATM    9  C19 UNL     1      -1.769  -2.396  -1.034  1.00  0.00     0.010 C 
HETATM   10  C20 UNL     1      -1.097  -1.128  -0.576  1.00  0.00    -0.036 C 
HETATM   11  C21 UNL     1      -0.484  -0.539  -1.861  1.00  0.00     0.016 C 
HETATM   12  C22 UNL     1       0.067  -1.485   0.307  1.00  0.00     0.046 C 
ENDROOT
BRANCH   1  13
HETATM   13  C8  UNL     1       2.258  -0.188   0.984  1.00  0.00     0.170 C 
BRANCH  13  14
HETATM   14  C7  UNL     1       2.817  -0.189  -0.381  1.00  0.00     0.009 C 
BRANCH  14  15
HETATM   15  C6  UNL     1       4.207  -0.127  -0.671  1.00  0.00     0.005 C 
BRANCH  15  16
HETATM   16  C4  UNL     1       5.225   0.385  -0.012  1.00  0.00    -0.062 C 
HETATM   17  C5  UNL     1       5.040   1.147   1.214  1.00  0.00     0.048 C 
BRANCH  16  18
HETATM   18  C3  UNL     1       6.534   0.243  -0.633  1.00  0.00     0.002 C 
HETATM   19  C2  UNL     1       7.718   0.592  -0.286  1.00  0.00    -0.030 C 
HETATM   20  C1  UNL     1       8.274   1.279   0.875  1.00  0.00     0.036 C 
ENDBRANCH  16  18
ENDBRANCH  15  16
ENDBRANCH  14  15
ENDBRANCH  13  14
BRANCH  13  21
HETATM   21  O1  UNL     1       2.704  -1.294   1.744  1.00  0.00    -0.387 OA
ATOM     22  H1  UNL     1       2.344  -1.293   2.623  1.00  0.00     0.210 HD
ENDBRANCH  13  21
ENDBRANCH   1  13
BRANCH   5  23
HETATM   23  C15 UNL     1      -4.212   0.639   0.730  1.00  0.00     0.024 C 
BRANCH  23  24
HETATM   24  C16 UNL     1      -4.302   1.758  -0.234  1.00  0.00     0.132 C 
BRANCH  24  25
HETATM   25  S1  UNL     1      -5.356   3.027   0.548  1.00  0.00     0.107 S 
HETATM   26  O2  UNL     1      -5.534   4.197  -0.414  1.00  0.00    -0.236 OA
BRANCH  25  27
HETATM   27  N1  UNL     1      -6.939   2.384   0.885  1.00  0.00    -0.350 NA
ATOM     28  H12 UNL     1      -6.820   1.602   1.528  1.00  0.00     0.166 HD
ATOM     29  H11 UNL     1      -7.528   3.093   1.322  1.00  0.00     0.166 HD
ENDBRANCH  25  27
ENDBRANCH  24  25
ENDBRANCH  23  24
ENDBRANCH   5  23
TORSDOF 10
