REMARK  8 active torsions:
REMARK  status: ('A' for Active; 'I' for Inactive)
REMARK    1  A    between atoms: C2_2  and  C3_3 
REMARK    2  A    between atoms: C3_3  and  C4_4 
REMARK    3  A    between atoms: C11_11  and  C12_12 
REMARK    4  A    between atoms: C12_12  and  O1_14 
REMARK    5  A    between atoms: C12_12  and  C14_16 
REMARK    6  A    between atoms: C14_16  and  C15_17 
REMARK    7  A    between atoms: C16_18  and  C18_20 
REMARK    8  A    between atoms: C22_24  and  C23_25 
ROOT
HETATM    1  C4  UNL     1       2.129   0.618  -0.854  1.00  0.00     0.069 C 
HETATM    2  C5  UNL     1       3.602   0.801  -0.430  1.00  0.00     0.039 C 
HETATM    3  C6  UNL     1       4.464  -0.338  -0.817  1.00  0.00     0.008 C 
HETATM    4  C7  UNL     1       3.621  -1.583  -0.794  1.00  0.00     0.003 C 
HETATM    5  C8  UNL     1       3.121  -1.811  -2.196  1.00  0.00     0.037 C 
HETATM    6  C9  UNL     1       2.079  -0.848  -2.657  1.00  0.00     0.123 C 
HETATM    7  C10 UNL     1       0.725  -1.467  -2.341  1.00  0.00     0.040 C 
HETATM    8  C11 UNL     1       0.398  -1.246  -0.893  1.00  0.00     0.030 C 
HETATM    9  C21 UNL     1       1.442  -0.485  -0.141  1.00  0.00     0.042 C 
HETATM   10  C22 UNL     1       2.532  -1.510   0.221  1.00  0.00     0.098 C 
HETATM   11  O4  UNL     1       2.201   0.441  -2.228  1.00  0.00    -0.374 OA
ENDROOT
BRANCH   8  12
HETATM   12  C12 UNL     1      -1.016  -0.840  -0.772  1.00  0.00     0.061 C 
HETATM   13  C13 UNL     1      -1.837  -2.015  -1.359  1.00  0.00     0.046 C 
BRANCH  12  14
HETATM   14  O1  UNL     1      -1.367   0.226  -1.585  1.00  0.00    -0.390 OA
ATOM     15  H1  UNL     1      -2.277   0.487  -1.507  1.00  0.00     0.210 HD
ENDBRANCH  12  14
BRANCH  12  16
HETATM   16  C14 UNL     1      -1.515  -0.687   0.638  1.00  0.00     0.065 C 
BRANCH  16  17
HETATM   17  C15 UNL     1      -2.948  -0.277   0.650  1.00  0.00    -0.021 C 
HETATM   18  C16 UNL     1      -3.358   0.861   1.206  1.00  0.00    -0.084 C 
HETATM   19  C17 UNL     1      -2.412   1.808   1.859  1.00  0.00     0.043 C 
BRANCH  18  20
HETATM   20  C18 UNL     1      -4.802   1.220   1.192  1.00  0.00     0.005 C 
HETATM   21  C19 UNL     1      -5.352   1.417   2.575  1.00  0.00     0.014 C 
HETATM   22  C20 UNL     1      -5.613   0.154   0.498  1.00  0.00     0.014 C 
ENDBRANCH  18  20
ENDBRANCH  16  17
ENDBRANCH  12  16
ENDBRANCH   8  12
BRANCH   1  23
HETATM   23  C3  UNL     1       1.579   2.011  -0.539  1.00  0.00     0.065 C 
BRANCH  23  24
HETATM   24  C2  UNL     1       1.724   2.356   0.887  1.00  0.00    -0.034 C 
HETATM   25  C1  UNL     1       2.413   3.400   1.317  1.00  0.00     0.007 C 
ENDBRANCH  23  24
ENDBRANCH   1  23
BRANCH  10  26
HETATM   26  C23 UNL     1       3.061  -1.353   1.568  1.00  0.00     0.177 C 
HETATM   27  O2  UNL     1       4.299  -1.374   1.775  1.00  0.00    -0.648 OA
HETATM   28  O3  UNL     1       2.236  -1.176   2.671  1.00  0.00    -0.648 OA
ENDBRANCH  10  26
TORSDOF 8
