REMARK  8 active torsions:
REMARK  status: ('A' for Active; 'I' for Inactive)
REMARK    1  A    between atoms: C4_4  and  C5_5 
REMARK    2  A    between atoms: C5_5  and  O1_6 
REMARK    3  A    between atoms: O1_6  and  C6_7 
REMARK    4  A    between atoms: C8_9  and  N1_10 
REMARK    5  A    between atoms: N1_10  and  C9_12 
REMARK    6  A    between atoms: C9_12  and  C10_13 
REMARK    7  A    between atoms: C18_21  and  N2_22 
REMARK       I    between atoms: N2_22  and  C19_24 
REMARK    8  A    between atoms: C19_24  and  C20_26 
ROOT
HETATM    1  C6  UNL     1      -0.686  -0.217  -1.083  1.00  0.00     0.146 C 
HETATM    2  C7  UNL     1       0.736  -0.504  -1.615  1.00  0.00     0.058 C 
HETATM    3  C8  UNL     1       1.505  -1.461  -0.766  1.00  0.00     0.079 C 
HETATM    4  C16 UNL     1       0.689  -1.740   0.483  1.00  0.00     0.027 C 
HETATM    5  C17 UNL     1      -0.616  -2.350   0.057  1.00  0.00     0.030 C 
HETATM    6  C18 UNL     1      -1.382  -1.498  -0.955  1.00  0.00     0.113 C 
ENDROOT
BRANCH   3   7
HETATM    7  N1  UNL     1       2.785  -0.907  -0.463  1.00  0.00    -0.417 N 
ATOM      8  H1  UNL     1       3.635  -1.344  -0.820  1.00  0.00     0.153 HD
BRANCH   7   9
HETATM    9  C9  UNL     1       2.859   0.243   0.329  1.00  0.00     0.118 C 
BRANCH   9  10
HETATM   10  C10 UNL     1       4.320   0.638   0.576  1.00  0.00     0.003 C 
HETATM   11  C11 UNL     1       4.418   1.855   1.445  1.00  0.00     0.006 C 
HETATM   12  C12 UNL     1       5.861   1.999   1.893  1.00  0.00     0.000 C 
HETATM   13  C13 UNL     1       6.793   1.255   0.968  1.00  0.00     0.000 C 
HETATM   14  C14 UNL     1       6.406   1.400  -0.473  1.00  0.00     0.000 C 
HETATM   15  C15 UNL     1       4.973   1.026  -0.761  1.00  0.00     0.006 C 
ENDBRANCH   9  10
ENDBRANCH   7   9
ENDBRANCH   3   7
BRANCH   1  16
HETATM   16  O1  UNL     1      -1.208   0.702  -1.938  1.00  0.00    -0.380 OA
BRANCH  16  17
HETATM   17  C5  UNL     1      -1.327   1.992  -1.545  1.00  0.00     0.196 C 
BRANCH  17  18
HETATM   18  C4  UNL     1      -2.144   2.117  -0.319  1.00  0.00     0.001 C 
HETATM   19  C2  UNL     1      -1.773   2.618   0.833  1.00  0.00    -0.089 C 
HETATM   20  C1  UNL     1      -0.424   3.149   1.068  1.00  0.00     0.042 C 
HETATM   21  C3  UNL     1      -2.735   2.692   1.992  1.00  0.00     0.042 C 
ENDBRANCH  17  18
ENDBRANCH  16  17
ENDBRANCH   1  16
BRANCH   6  22
HETATM   22  N2  UNL     1      -2.753  -1.474  -0.534  1.00  0.00    -0.353 N 
HETATM   23  C19 UNL     1      -3.710  -2.464  -0.988  1.00  0.00     0.225 C 
HETATM   24  O2  UNL     1      -3.283  -3.342  -1.762  1.00  0.00    -0.273 OA
ATOM     25  H2  UNL     1      -3.063  -0.740   0.103  1.00  0.00     0.163 HD
BRANCH  23  26
HETATM   26  C20 UNL     1      -5.107  -2.451  -0.574  1.00  0.00     0.030 C 
HETATM   27  C21 UNL     1      -5.290  -1.754   0.777  1.00  0.00     0.024 C 
HETATM   28  C22 UNL     1      -6.071  -1.831  -1.540  1.00  0.00     0.024 C 
HETATM   29  C23 UNL     1      -5.583  -3.911  -0.375  1.00  0.00     0.024 C 
ENDBRANCH  23  26
ENDBRANCH   6  22
TORSDOF 8
