REMARK  9 active torsions:
REMARK  status: ('A' for Active; 'I' for Inactive)
REMARK    1  A    between atoms: C2_2  and  C3_3 
REMARK    2  A    between atoms: C3_3  and  C4_4 
REMARK    3  A    between atoms: C3_3  and  C6_6 
REMARK    4  A    between atoms: C6_6  and  C7_7 
REMARK    5  A    between atoms: C6_6  and  C9_11 
REMARK    6  A    between atoms: C7_7  and  C8_8 
REMARK    7  A    between atoms: C8_8  and  O1_9 
REMARK    8  A    between atoms: C22_25  and  C24_27 
REMARK    9  A    between atoms: C24_27  and  O3_28 
ROOT
HETATM    1  C9  UNL     1      -1.330  -0.608   0.399  1.00  0.00    -0.006 C 
HETATM    2  C10 UNL     1      -1.248  -1.815   1.266  1.00  0.00     0.006 C 
HETATM    3  C11 UNL     1       0.251  -1.944   1.629  1.00  0.00     0.006 C 
HETATM    4  C12 UNL     1       0.835  -1.395   0.345  1.00  0.00    -0.005 C 
HETATM    5  C13 UNL     1       0.038  -0.076   0.271  1.00  0.00    -0.006 C 
HETATM    6  C14 UNL     1       0.354   0.466  -1.110  1.00  0.00     0.006 C 
HETATM    7  C15 UNL     1       1.634   0.059  -1.696  1.00  0.00     0.011 C 
HETATM    8  C16 UNL     1       2.756  -0.378  -0.808  1.00  0.00    -0.024 C 
HETATM    9  C17 UNL     1       3.450  -1.472  -1.684  1.00  0.00     0.017 C 
HETATM   10  C18 UNL     1       2.314  -1.141   0.407  1.00  0.00    -0.000 C 
HETATM   11  C19 UNL     1       2.670  -0.556   1.714  1.00  0.00     0.013 C 
HETATM   12  C20 UNL     1       4.194  -0.435   1.776  1.00  0.00     0.079 C 
HETATM   13  C21 UNL     1       4.564   0.472   0.696  1.00  0.00     0.138 C 
HETATM   14  O2  UNL     1       5.552   1.188   0.829  1.00  0.00    -0.297 OA
HETATM   15  C22 UNL     1       3.833   0.622  -0.605  1.00  0.00     0.045 C 
HETATM   16  C23 UNL     1       4.973   0.473  -1.643  1.00  0.00     0.026 C 
ENDROOT
BRANCH   1  17
HETATM   17  C6  UNL     1      -2.486   0.271   0.522  1.00  0.00    -0.004 C 
BRANCH  17  18
HETATM   18  C3  UNL     1      -3.810  -0.378   0.163  1.00  0.00    -0.011 C 
BRANCH  18  19
HETATM   19  C2  UNL     1      -3.701  -1.210  -1.097  1.00  0.00     0.000 C 
HETATM   20  C1  UNL     1      -5.079  -1.829  -1.426  1.00  0.00     0.005 C 
ENDBRANCH  18  19
BRANCH  18  21
HETATM   21  C4  UNL     1      -4.839   0.717  -0.022  1.00  0.00     0.000 C 
HETATM   22  C5  UNL     1      -4.501   1.675  -1.115  1.00  0.00     0.005 C 
ENDBRANCH  18  21
ENDBRANCH  17  18
BRANCH  17  23
HETATM   23  C7  UNL     1      -2.718   1.041   1.772  1.00  0.00     0.031 C 
BRANCH  23  24
HETATM   24  C8  UNL     1      -1.521   1.724   2.387  1.00  0.00     0.164 C 
BRANCH  24  25
HETATM   25  O1  UNL     1      -1.909   2.483   3.512  1.00  0.00    -0.401 OA
ATOM     26  H1  UNL     1      -1.155   2.913   3.899  1.00  0.00     0.209 HD
ENDBRANCH  24  25
ENDBRANCH  23  24
ENDBRANCH  17  23
ENDBRANCH   1  17
BRANCH  15  27
HETATM   27  C24 UNL     1       3.486   2.068  -0.697  1.00  0.00     0.181 C 
BRANCH  27  28
HETATM   28  O3  UNL     1       2.548   2.531   0.206  1.00  0.00    -0.400 OA
ATOM     29  H3  UNL     1       2.327   3.453   0.147  1.00  0.00     0.209 HD
ENDBRANCH  27  28
ENDBRANCH  15  27
TORSDOF 9
