REMARK  6 active torsions:
REMARK  status: ('A' for Active; 'I' for Inactive)
REMARK       I    between atoms: C1_2  and  N1_3 
REMARK       I    between atoms: C1_2  and  N2_13 
REMARK    1  A    between atoms: N1_3  and  C2_5 
REMARK    2  A    between atoms: C2_5  and  C3_6 
REMARK    3  A    between atoms: C3_6  and  C4_7 
REMARK    4  A    between atoms: C4_7  and  C5_8 
REMARK    5  A    between atoms: N2_13  and  C10_15 
REMARK    6  A    between atoms: C14_21  and  N4_22 
ROOT
HETATM    1  O1  UNL     1       0.573   0.565   3.002  1.00  0.00    -0.247 OA
HETATM    2  C1  UNL     1       0.127   0.627   1.841  1.00  0.00     0.320 C 
HETATM    3  N1  UNL     1       0.796   1.514   0.955  1.00  0.00    -0.343 N 
ATOM      4  H1  UNL     1       0.456   1.594  -0.004  1.00  0.00     0.164 HD
HETATM    5  N2  UNL     1      -0.967  -0.113   1.384  1.00  0.00    -0.306 N 
ATOM      6  H2  UNL     1      -1.223   0.043   0.409  1.00  0.00     0.171 HD
ENDROOT
BRANCH   5   7
HETATM    7  C10 UNL     1      -1.767  -1.044   2.077  1.00  0.00     0.078 A 
HETATM    8  C11 UNL     1      -1.502  -1.501   3.367  1.00  0.00     0.119 A 
HETATM    9  N3  UNL     1      -2.288  -2.436   3.977  1.00  0.00    -0.373 N 
HETATM   10  C12 UNL     1      -3.355  -2.960   3.361  1.00  0.00     0.090 A 
ATOM     11  H3  UNL     1      -2.057  -2.742   4.922  1.00  0.00     0.164 HD
HETATM   12  C13 UNL     1      -3.679  -2.556   2.086  1.00  0.00     0.048 A 
HETATM   13  C14 UNL     1      -2.871  -1.592   1.457  1.00  0.00     0.060 A 
BRANCH  13  14
HETATM   14  N4  UNL     1      -3.251  -1.171   0.171  1.00  0.00    -0.379 N 
HETATM   15  C15 UNL     1      -3.829   0.135  -0.026  1.00  0.00     0.123 C 
HETATM   16  C16 UNL     1      -5.193  -0.012  -0.710  1.00  0.00     0.020 C 
HETATM   17  C17 UNL     1      -5.148  -0.987  -1.837  1.00  0.00     0.003 C 
HETATM   18  C18 UNL     1      -3.759  -1.470  -2.189  1.00  0.00     0.020 C 
HETATM   19  C19 UNL     1      -3.068  -2.054  -0.954  1.00  0.00     0.123 C 
ENDBRANCH  13  14
ENDBRANCH   5   7
BRANCH   3  20
HETATM   20  C2  UNL     1       1.936   2.308   1.352  1.00  0.00     0.124 C 
BRANCH  20  21
HETATM   21  C3  UNL     1       3.118   1.549   1.799  1.00  0.00     0.020 C 
BRANCH  21  22
HETATM   22  C4  UNL     1       3.782   0.595   0.903  1.00  0.00     0.006 C 
BRANCH  22  23
HETATM   23  C5  UNL     1       4.413   1.149  -0.314  1.00  0.00    -0.014 C 
HETATM   24  C6  UNL     1       3.579   1.852  -1.304  1.00  0.00     0.004 C 
HETATM   25  C7  UNL     1       4.250   1.666  -2.671  1.00  0.00     0.000 C 
HETATM   26  C8  UNL     1       5.482   0.812  -2.374  1.00  0.00     0.000 C 
HETATM   27  C9  UNL     1       5.054   0.009  -1.146  1.00  0.00     0.004 C 
ENDBRANCH  22  23
ENDBRANCH  21  22
ENDBRANCH  20  21
ENDBRANCH   3  20
TORSDOF 6
