REMARK  6 active torsions:
REMARK  status: ('A' for Active; 'I' for Inactive)
REMARK       I    between atoms: C1_2  and  N1_3 
REMARK    1  A    between atoms: C1_2  and  C10_16 
REMARK    2  A    between atoms: N1_3  and  C2_5 
REMARK    3  A    between atoms: C2_5  and  C3_6 
REMARK    4  A    between atoms: C3_6  and  C4_7 
REMARK    5  A    between atoms: C13_19  and  C14_20 
REMARK    6  A    between atoms: C14_20  and  C15_21 
ROOT
HETATM    1  O1  UNL     1      -1.090  -2.336   1.247  1.00  0.00    -0.265 OA
HETATM    2  C1  UNL     1      -0.366  -1.758   0.418  1.00  0.00     0.275 C 
HETATM    3  N1  UNL     1      -0.918  -0.793  -0.460  1.00  0.00    -0.355 N 
ATOM      4  H1  UNL     1      -0.293  -0.345  -1.130  1.00  0.00     0.162 HD
ENDROOT
BRANCH   2   5
HETATM    5  C10 UNL     1       1.067  -2.101   0.374  1.00  0.00     0.143 A 
HETATM    6  C11 UNL     1       1.675  -3.025   1.190  1.00  0.00     0.045 A 
HETATM    7  C12 UNL     1       3.012  -3.017   0.797  1.00  0.00     0.036 A 
HETATM    8  C13 UNL     1       3.151  -2.103  -0.225  1.00  0.00     0.054 A 
HETATM    9  O2  UNL     1       1.974  -1.585  -0.442  1.00  0.00    -0.309 OA
BRANCH   8  10
HETATM   10  C14 UNL     1       4.426  -1.797  -0.921  1.00  0.00     0.069 C 
BRANCH  10  11
HETATM   11  C15 UNL     1       5.097  -0.679  -0.184  1.00  0.00    -0.009 C 
HETATM   12  C16 UNL     1       4.188   0.526  -0.192  1.00  0.00     0.005 C 
HETATM   13  C17 UNL     1       4.986   1.709   0.365  1.00  0.00     0.000 C 
HETATM   14  C18 UNL     1       5.983   2.094  -0.702  1.00  0.00     0.000 C 
HETATM   15  C19 UNL     1       6.583   0.926  -1.410  1.00  0.00     0.000 C 
HETATM   16  C20 UNL     1       6.478  -0.370  -0.680  1.00  0.00     0.005 C 
ENDBRANCH  10  11
ENDBRANCH   8  10
ENDBRANCH   2   5
BRANCH   3  17
HETATM   17  C2  UNL     1      -2.303  -0.404  -0.467  1.00  0.00     0.125 C 
BRANCH  17  18
HETATM   18  C3  UNL     1      -2.684   0.201   0.827  1.00  0.00     0.052 C 
BRANCH  18  19
HETATM   19  C4  UNL     1      -4.131   0.640   0.895  1.00  0.00     0.187 C 
HETATM   20  C5  UNL     1      -5.108  -0.453   0.694  1.00  0.00     0.033 C 
HETATM   21  C6  UNL     1      -5.751  -0.499  -0.656  1.00  0.00     0.002 C 
HETATM   22  C7  UNL     1      -6.496   0.732  -1.039  1.00  0.00     0.002 C 
HETATM   23  C8  UNL     1      -6.725   1.699   0.087  1.00  0.00     0.027 C 
HETATM   24  C9  UNL     1      -5.502   2.541   0.374  1.00  0.00     0.232 C 
HETATM   25  N2  UNL     1      -4.314   1.786   0.046  1.00  0.00    -0.071 N 
ATOM     26  H22 UNL     1      -3.487   2.383   0.055  1.00  0.00     0.277 HD
ATOM     27  H21 UNL     1      -4.312   1.516  -0.938  1.00  0.00     0.277 HD
ENDBRANCH  18  19
ENDBRANCH  17  18
ENDBRANCH   3  17
TORSDOF 6
