REMARK  9 active torsions:
REMARK  status: ('A' for Active; 'I' for Inactive)
REMARK    1  A    between atoms: C2_2  and  C3_3 
REMARK    2  A    between atoms: C4_4  and  C5_5 
REMARK    3  A    between atoms: C5_5  and  O1_7 
REMARK    4  A    between atoms: C5_5  and  C7_9 
REMARK    5  A    between atoms: C7_9  and  C8_10 
REMARK    6  A    between atoms: C8_10  and  O2_12 
REMARK    7  A    between atoms: C10_14  and  C11_15 
REMARK    8  A    between atoms: C19_23  and  C20_24 
REMARK    9  A    between atoms: C20_24  and  O3_25 
ROOT
HETATM    1  C3  UNL     1      -0.907   1.783  -0.539  1.00  0.00    -0.047 C 
HETATM    2  C4  UNL     1      -0.506   0.527  -0.172  1.00  0.00    -0.035 C 
HETATM    3  C10 UNL     1       0.942   0.585   0.184  1.00  0.00     0.022 C 
HETATM    4  C17 UNL     1       1.549   1.368  -1.002  1.00  0.00     0.010 C 
HETATM    5  C18 UNL     1       1.365   2.817  -0.638  1.00  0.00     0.012 C 
HETATM    6  C19 UNL     1      -0.111   3.007  -0.395  1.00  0.00     0.042 C 
ENDROOT
BRANCH   2   7
HETATM    7  C5  UNL     1      -1.324  -0.659  -0.280  1.00  0.00     0.081 C 
HETATM    8  C6  UNL     1      -1.384  -1.262  -1.694  1.00  0.00     0.051 C 
BRANCH   7   9
HETATM    9  O1  UNL     1      -0.530  -1.650   0.475  1.00  0.00    -0.386 OA
ATOM     10  H1  UNL     1      -1.068  -2.430   0.404  1.00  0.00     0.211 HD
ENDBRANCH   7   9
BRANCH   7  11
HETATM   11  C7  UNL     1      -2.584  -0.910   0.383  1.00  0.00     0.073 C 
BRANCH  11  12
HETATM   12  C8  UNL     1      -3.042  -2.339  -0.057  1.00  0.00     0.117 C 
HETATM   13  C9  UNL     1      -4.383  -2.581   0.657  1.00  0.00     0.039 C 
BRANCH  12  14
HETATM   14  O2  UNL     1      -2.199  -3.311   0.416  1.00  0.00    -0.396 OA
ATOM     15  H2  UNL     1      -2.477  -4.179   0.149  1.00  0.00     0.210 HD
ENDBRANCH  12  14
ENDBRANCH  11  12
ENDBRANCH   7  11
ENDBRANCH   2   7
BRANCH   1  16
HETATM   16  C2  UNL     1      -2.226   1.986  -1.095  1.00  0.00    -0.002 C 
HETATM   17  C1  UNL     1      -2.758   3.108  -1.486  1.00  0.00     0.012 C 
ENDBRANCH   1  16
BRANCH   3  18
HETATM   18  C11 UNL     1       1.794  -0.531   0.420  1.00  0.00    -0.006 C 
HETATM   19  C12 UNL     1       3.159   0.033   0.954  1.00  0.00     0.005 C 
HETATM   20  C13 UNL     1       3.903  -1.068   1.663  1.00  0.00     0.000 C 
HETATM   21  C14 UNL     1       3.622  -2.437   1.163  1.00  0.00     0.000 C 
HETATM   22  C15 UNL     1       2.943  -2.624  -0.119  1.00  0.00     0.000 C 
HETATM   23  C16 UNL     1       2.319  -1.360  -0.719  1.00  0.00     0.005 C 
ENDBRANCH   3  18
BRANCH   6  24
HETATM   24  C20 UNL     1      -0.252   3.729   0.924  1.00  0.00     0.173 C 
BRANCH  24  25
HETATM   25  O3  UNL     1      -1.549   4.139   1.223  1.00  0.00    -0.400 OA
ATOM     26  H3  UNL     1      -1.638   4.593   2.053  1.00  0.00     0.209 HD
ENDBRANCH  24  25
ENDBRANCH   6  24
TORSDOF 9
