REMARK  8 active torsions:
REMARK  status: ('A' for Active; 'I' for Inactive)
REMARK    1  A    between atoms: C2_2  and  C4_4 
REMARK    2  A    between atoms: C4_4  and  C5_5 
REMARK    3  A    between atoms: C7_7  and  O1_8 
REMARK    4  A    between atoms: C7_7  and  C8_10 
REMARK    5  A    between atoms: C8_10  and  C9_11 
REMARK    6  A    between atoms: C10_12  and  C11_13 
REMARK    7  A    between atoms: C11_13  and  O2_14 
REMARK    8  A    between atoms: C11_13  and  C12_16 
ROOT
HETATM    1  C9  UNL     1       0.054  -0.260   0.834  1.00  0.00    -0.025 C 
HETATM    2  C10 UNL     1      -1.274  -0.048   0.855  1.00  0.00     0.001 C 
ENDROOT
BRANCH   1   3
HETATM    3  C8  UNL     1       0.756  -1.142  -0.108  1.00  0.00     0.067 C 
BRANCH   3   4
HETATM    4  C7  UNL     1       1.767  -0.442  -0.952  1.00  0.00     0.084 C 
HETATM    5  C6  UNL     1       2.876   0.226  -0.110  1.00  0.00     0.072 C 
HETATM    6  C5  UNL     1       3.809  -0.925  -0.008  1.00  0.00     0.124 C 
HETATM    7  O3  UNL     1       3.836  -1.526  -1.267  1.00  0.00    -0.383 OA
HETATM    8  C20 UNL     1       2.577  -1.344  -1.820  1.00  0.00     0.206 C 
BRANCH   6   9
HETATM    9  C4  UNL     1       5.142  -0.724   0.575  1.00  0.00     0.035 C 
BRANCH   9  10
HETATM   10  C2  UNL     1       6.073   0.240  -0.067  1.00  0.00    -0.020 C 
HETATM   11  C1  UNL     1       7.393   0.204   0.752  1.00  0.00     0.009 C 
HETATM   12  C3  UNL     1       5.634   1.696   0.051  1.00  0.00     0.009 C 
ENDBRANCH   9  10
ENDBRANCH   6   9
BRANCH   4  13
HETATM   13  O1  UNL     1       1.116   0.532  -1.717  1.00  0.00    -0.387 OA
ATOM     14  H1  UNL     1       0.434   0.121  -2.235  1.00  0.00     0.210 HD
ENDBRANCH   4  13
ENDBRANCH   3   4
ENDBRANCH   1   3
BRANCH   2  15
HETATM   15  C11 UNL     1      -2.098  -0.738  -0.123  1.00  0.00     0.145 C 
BRANCH  15  16
HETATM   16  O2  UNL     1      -2.118  -2.112   0.190  1.00  0.00    -0.391 OA
ATOM     17  H2  UNL     1      -2.657  -2.563  -0.449  1.00  0.00     0.210 HD
ENDBRANCH  15  16
BRANCH  15  18
HETATM   18  C12 UNL     1      -3.494  -0.291  -0.310  1.00  0.00     0.022 C 
HETATM   19  C13 UNL     1      -3.687   1.140  -0.736  1.00  0.00     0.012 C 
HETATM   20  C14 UNL     1      -5.202   1.383  -0.584  1.00  0.00    -0.014 C 
HETATM   21  C15 UNL     1      -5.424   1.702   0.874  1.00  0.00     0.005 C 
HETATM   22  C19 UNL     1      -5.995   0.130  -0.885  1.00  0.00     0.005 C 
HETATM   23  C16 UNL     1      -4.682   0.675   1.709  1.00  0.00     0.005 C 
HETATM   24  C17 UNL     1      -4.417  -0.544   0.846  1.00  0.00    -0.008 C 
HETATM   25  C18 UNL     1      -5.807  -0.862   0.240  1.00  0.00     0.005 C 
ENDBRANCH  15  18
ENDBRANCH   2  15
TORSDOF 8
