REMARK  6 active torsions:
REMARK  status: ('A' for Active; 'I' for Inactive)
REMARK    1  A    between atoms: C2_2  and  C3_3 
REMARK    2  A    between atoms: C7_7  and  N1_8 
REMARK    3  A    between atoms: N1_8  and  C8_11 
REMARK    4  A    between atoms: C8_11  and  C9_12 
REMARK    5  A    between atoms: C9_12  and  C11_14 
REMARK    6  A    between atoms: C9_12  and  S1_20 
ROOT
HETATM    1  C8  UNL     1      -0.126  -0.543   0.196  1.00  0.00     0.261 C 
ENDROOT
BRANCH   1   2
HETATM    2  N1  UNL     1       0.840  -1.454  -0.348  1.00  0.00    -0.069 N 
ATOM      3  H12 UNL     1       0.567  -1.757  -1.283  1.00  0.00     0.277 HD
ATOM      4  H11 UNL     1       0.806  -2.351   0.136  1.00  0.00     0.277 HD
BRANCH   2   5
HETATM    5  C7  UNL     1       2.187  -0.920  -0.351  1.00  0.00     0.186 C 
HETATM    6  C6  UNL     1       2.313   0.286  -1.257  1.00  0.00     0.033 C 
HETATM    7  C5  UNL     1       3.781   0.381  -1.640  1.00  0.00     0.003 C 
HETATM    8  C4  UNL     1       4.667  -0.310  -0.626  1.00  0.00     0.008 C 
HETATM    9  C3  UNL     1       4.171  -0.130   0.790  1.00  0.00     0.009 C 
HETATM   10  C17 UNL     1       2.732  -0.544   0.981  1.00  0.00     0.041 C 
BRANCH   9  11
HETATM   11  C2  UNL     1       4.424   1.280   1.162  1.00  0.00    -0.032 C 
HETATM   12  C1  UNL     1       5.280   1.582   2.107  1.00  0.00     0.007 C 
ENDBRANCH   9  11
ENDBRANCH   2   5
ENDBRANCH   1   2
BRANCH   1  13
HETATM   13  C9  UNL     1      -1.549  -0.956  -0.227  1.00  0.00     0.106 C 
HETATM   14  C10 UNL     1      -1.635  -0.909  -1.742  1.00  0.00     0.037 C 
BRANCH  13  15
HETATM   15  C11 UNL     1      -2.562  -0.077   0.436  1.00  0.00     0.013 C 
HETATM   16  C12 UNL     1      -3.986  -0.289   0.097  1.00  0.00     0.006 C 
HETATM   17  C13 UNL     1      -4.522   0.807  -0.855  1.00  0.00     0.000 C 
HETATM   18  C14 UNL     1      -4.535   2.156  -0.192  1.00  0.00     0.000 C 
HETATM   19  C15 UNL     1      -3.479   2.119   0.902  1.00  0.00     0.000 C 
HETATM   20  C16 UNL     1      -2.252   1.410   0.308  1.00  0.00     0.006 C 
ENDBRANCH  13  15
BRANCH  13  21
HETATM   21  S1  UNL     1      -1.840  -2.633   0.255  1.00  0.00     0.112 S 
HETATM   22  O1  UNL     1      -0.810  -3.575  -0.338  1.00  0.00    -0.594 OA
HETATM   23  O2  UNL     1      -3.162  -3.155  -0.183  1.00  0.00    -0.594 OA
HETATM   24  O3  UNL     1      -1.721  -2.828   1.927  1.00  0.00    -0.594 OA
ENDBRANCH  13  21
ENDBRANCH   1  13
TORSDOF 6
