REMARK  8 active torsions:
REMARK  status: ('A' for Active; 'I' for Inactive)
REMARK    1  A    between atoms: C2_2  and  C3_3 
REMARK    2  A    between atoms: C3_3  and  C4_4 
REMARK    3  A    between atoms: C4_4  and  C5_5 
REMARK    4  A    between atoms: C5_5  and  N1_6 
REMARK    5  A    between atoms: N1_6  and  C6_9 
REMARK    6  A    between atoms: C6_9  and  C7_10 
REMARK    7  A    between atoms: C7_10  and  C8_11 
REMARK    8  A    between atoms: C8_11  and  N2_12 
ROOT
HETATM    1  C1  UNL     1       1.206   1.119   1.224  1.00  0.00     0.015 C 
HETATM    2  C2  UNL     1       0.660   0.228   0.114  1.00  0.00    -0.038 C 
HETATM    3  C9  UNL     1       1.119   0.655  -1.196  1.00  0.00     0.019 C 
HETATM    4  C10 UNL     1       0.209   1.274  -2.194  1.00  0.00     0.075 C 
HETATM    5  S1  UNL     1      -1.385   1.849  -1.646  1.00  0.00    -0.159 SA
HETATM    6  C11 UNL     1      -1.671   1.303   0.059  1.00  0.00     0.013 C 
HETATM    7  C12 UNL     1      -1.435   2.515   0.899  1.00  0.00     0.028 C 
HETATM    8  C13 UNL     1      -3.121   0.953   0.300  1.00  0.00     0.009 C 
HETATM    9  C14 UNL     1      -3.535   0.997   1.730  1.00  0.00     0.007 C 
HETATM   10  C15 UNL     1      -4.994   0.594   1.778  1.00  0.00     0.005 C 
HETATM   11  C16 UNL     1      -5.656   0.597   0.432  1.00  0.00    -0.010 C 
HETATM   12  C17 UNL     1      -6.787  -0.439   0.434  1.00  0.00     0.005 C 
HETATM   13  C18 UNL     1      -5.889  -1.405  -0.307  1.00  0.00     0.006 C 
HETATM   14  C19 UNL     1      -4.975  -0.262  -0.596  1.00  0.00    -0.006 C 
HETATM   15  C20 UNL     1      -3.531  -0.412  -0.173  1.00  0.00    -0.005 C 
HETATM   16  C21 UNL     1      -2.641  -0.961  -1.212  1.00  0.00     0.006 C 
HETATM   17  C22 UNL     1      -1.251  -1.017  -0.629  1.00  0.00     0.007 C 
HETATM   18  C23 UNL     1      -0.863   0.118   0.253  1.00  0.00     0.012 C 
ENDROOT
BRANCH   2  19
HETATM   19  C3  UNL     1       1.116  -1.155   0.497  1.00  0.00     0.011 C 
BRANCH  19  20
HETATM   20  C4  UNL     1       2.524  -1.461   0.712  1.00  0.00     0.028 C 
BRANCH  20  21
HETATM   21  C5  UNL     1       3.530  -1.230  -0.361  1.00  0.00     0.232 C 
BRANCH  21  22
HETATM   22  N1  UNL     1       4.828  -1.690   0.103  1.00  0.00    -0.075 N 
ATOM     23  H12 UNL     1       5.056  -1.341   1.034  1.00  0.00     0.277 HD
ATOM     24  H11 UNL     1       4.834  -2.686   0.321  1.00  0.00     0.277 HD
BRANCH  22  25
HETATM   25  C6  UNL     1       5.823  -1.334  -0.879  1.00  0.00     0.233 C 
BRANCH  25  26
HETATM   26  C7  UNL     1       6.094   0.157  -0.911  1.00  0.00     0.055 C 
BRANCH  26  27
HETATM   27  C8  UNL     1       6.579   0.561   0.480  1.00  0.00     0.231 C 
BRANCH  27  28
HETATM   28  N2  UNL     1       7.807  -0.157   0.809  1.00  0.00    -0.079 N 
ATOM     29  H23 UNL     1       7.694  -1.167   0.722  1.00  0.00     0.274 HD
ATOM     30  H22 UNL     1       8.528  -0.026   0.100  1.00  0.00     0.274 HD
ATOM     31  H21 UNL     1       8.131   0.113   1.738  1.00  0.00     0.274 HD
ENDBRANCH  27  28
ENDBRANCH  26  27
ENDBRANCH  25  26
ENDBRANCH  22  25
ENDBRANCH  21  22
ENDBRANCH  20  21
ENDBRANCH  19  20
ENDBRANCH   2  19
TORSDOF 8
