REMARK  7 active torsions:
REMARK  status: ('A' for Active; 'I' for Inactive)
REMARK    1  A    between atoms: C2_2  and  N1_3 
REMARK    2  A    between atoms: N1_3  and  C3_4 
REMARK    3  A    between atoms: N1_3  and  C5_6 
REMARK    4  A    between atoms: C5_6  and  C6_7 
REMARK    5  A    between atoms: C6_7  and  N2_8 
REMARK    6  A    between atoms: N2_8  and  C7_10 
REMARK    7  A    between atoms: C7_10  and  C8_11 
ROOT
HETATM    1  C8  UNL     1       0.043   0.473   1.300  1.00  0.00     0.247 C 
HETATM    2  C9  UNL     1      -0.689   1.387   0.324  1.00  0.00     0.015 C 
HETATM    3  C10 UNL     1      -1.731   1.015  -0.378  1.00  0.00    -0.070 C 
HETATM    4  C11 UNL     1      -2.182   2.167  -1.225  1.00  0.00     0.039 C 
HETATM    5  C12 UNL     1      -3.173   2.910  -0.361  1.00  0.00    -0.015 C 
HETATM    6  C13 UNL     1      -3.192   4.372  -0.742  1.00  0.00     0.010 C 
HETATM    7  C14 UNL     1      -4.491   2.255  -0.460  1.00  0.00     0.005 C 
HETATM    8  C15 UNL     1      -4.467   0.825  -0.962  1.00  0.00     0.006 C 
HETATM    9  C16 UNL     1      -3.813  -0.137  -0.031  1.00  0.00    -0.000 C 
HETATM   10  C17 UNL     1      -4.621  -1.388   0.007  1.00  0.00     0.006 C 
HETATM   11  C18 UNL     1      -4.330  -2.044   1.354  1.00  0.00     0.001 C 
HETATM   12  C19 UNL     1      -3.232  -3.016   1.082  1.00  0.00     0.006 C 
HETATM   13  C20 UNL     1      -1.863  -2.448   1.106  1.00  0.00     0.013 C 
HETATM   14  C21 UNL     1      -0.966  -3.287   0.221  1.00  0.00     0.012 C 
HETATM   15  C22 UNL     1      -1.688  -1.021   0.865  1.00  0.00     0.203 C 
HETATM   16  N3  UNL     1      -0.216  -0.825   0.857  1.00  0.00    -0.058 N 
ATOM     17  H31 UNL     1       0.281  -1.534   1.396  1.00  0.00     0.278 HD
ATOM     18  H32 UNL     1       0.205  -1.025  -0.050  1.00  0.00     0.278 HD
HETATM   19  C23 UNL     1      -2.348  -0.369  -0.281  1.00  0.00     0.012 C 
HETATM   20  C24 UNL     1      -2.077  -1.008  -1.612  1.00  0.00     0.022 C 
ENDROOT
BRANCH   1  21
HETATM   21  C7  UNL     1       1.479   0.875   1.287  1.00  0.00     0.097 C 
BRANCH  21  22
HETATM   22  N2  UNL     1       2.145   0.818   0.050  1.00  0.00    -0.378 N 
ATOM     23  H2  UNL     1       2.316   1.698  -0.437  1.00  0.00     0.164 HD
BRANCH  22  24
HETATM   24  C6  UNL     1       2.584  -0.345  -0.552  1.00  0.00     0.090 C 
BRANCH  24  25
HETATM   25  C5  UNL     1       3.840  -1.015  -0.055  1.00  0.00     0.316 C 
BRANCH  25  26
HETATM   26  N1  UNL     1       5.064  -0.318  -0.234  1.00  0.00     0.092 N 
BRANCH  26  27
HETATM   27  C2  UNL     1       6.158  -1.249  -0.052  1.00  0.00     0.268 C 
HETATM   28  C1  UNL     1       7.445  -0.969  -0.694  1.00  0.00     0.037 C 
ENDBRANCH  26  27
BRANCH  26  29
HETATM   29  C3  UNL     1       5.283   0.871   0.471  1.00  0.00     0.268 C 
HETATM   30  C4  UNL     1       6.317   1.827  -0.084  1.00  0.00     0.037 C 
ENDBRANCH  26  29
ENDBRANCH  25  26
ENDBRANCH  24  25
ENDBRANCH  22  24
ENDBRANCH  21  22
ENDBRANCH   1  21
TORSDOF 7
