REMARK  8 active torsions:
REMARK  status: ('A' for Active; 'I' for Inactive)
REMARK    1  A    between atoms: C2_2  and  C3_3 
REMARK    2  A    between atoms: C5_6  and  N1_7 
REMARK    3  A    between atoms: N1_7  and  C6_9 
REMARK    4  A    between atoms: C6_9  and  C7_10 
REMARK    5  A    between atoms: C7_10  and  C8_11 
REMARK    6  A    between atoms: C8_11  and  C9_12 
REMARK    7  A    between atoms: C9_12  and  C11_14 
REMARK    8  A    between atoms: C19_22  and  O2_23 
ROOT
HETATM    1  C11 UNL     1      -0.595  -1.659   0.591  1.00  0.00    -0.006 C 
HETATM    2  C12 UNL     1      -1.815  -2.421   1.097  1.00  0.00     0.006 C 
HETATM    3  C13 UNL     1      -2.906  -2.155   0.117  1.00  0.00     0.010 C 
HETATM    4  C14 UNL     1      -2.642  -0.731  -0.313  1.00  0.00    -0.032 C 
HETATM    5  C15 UNL     1      -3.197  -0.492  -1.704  1.00  0.00     0.016 C 
HETATM    6  C16 UNL     1      -3.285   0.215   0.690  1.00  0.00     0.023 C 
HETATM    7  C17 UNL     1      -4.723  -0.076   0.947  1.00  0.00     0.012 C 
HETATM    8  C18 UNL     1      -5.395   1.223   1.399  1.00  0.00     0.033 C 
HETATM    9  C19 UNL     1      -5.446   2.123   0.186  1.00  0.00     0.122 C 
HETATM   10  C20 UNL     1      -4.044   2.605  -0.117  1.00  0.00     0.065 C 
HETATM   11  C21 UNL     1      -3.025   1.595   0.176  1.00  0.00    -0.076 C 
HETATM   12  C22 UNL     1      -1.745   1.879  -0.017  1.00  0.00    -0.023 C 
HETATM   13  C23 UNL     1      -0.774   0.803   0.302  1.00  0.00     0.033 C 
HETATM   14  C24 UNL     1      -1.147  -0.553  -0.248  1.00  0.00     0.002 C 
ENDROOT
BRANCH   1  15
HETATM   15  C9  UNL     1       0.323  -2.619  -0.116  1.00  0.00    -0.014 C 
HETATM   16  C10 UNL     1      -0.357  -3.251  -1.319  1.00  0.00     0.010 C 
BRANCH  15  17
HETATM   17  C8  UNL     1       1.591  -2.002  -0.633  1.00  0.00     0.006 C 
BRANCH  17  18
HETATM   18  C7  UNL     1       2.419  -1.367   0.450  1.00  0.00     0.020 C 
BRANCH  18  19
HETATM   19  C6  UNL     1       3.691  -0.759  -0.165  1.00  0.00     0.116 C 
BRANCH  19  20
HETATM   20  N1  UNL     1       4.414  -0.185   0.930  1.00  0.00    -0.396 N 
ATOM     21  H1  UNL     1       4.062  -0.220   1.887  1.00  0.00     0.155 HD
BRANCH  20  22
HETATM   22  C5  UNL     1       5.641   0.432   0.610  1.00  0.00     0.226 C 
HETATM   23  C3  UNL     1       5.679   1.618  -0.293  1.00  0.00     0.080 C 
HETATM   24  C4  UNL     1       5.973   2.404   0.917  1.00  0.00     0.183 C 
HETATM   25  O1  UNL     1       6.142   1.211   1.639  1.00  0.00    -0.366 OA
BRANCH  23  26
HETATM   26  C2  UNL     1       6.801   1.534  -1.260  1.00  0.00    -0.026 C 
HETATM   27  C1  UNL     1       7.768   2.400  -1.378  1.00  0.00     0.007 C 
ENDBRANCH  23  26
ENDBRANCH  20  22
ENDBRANCH  19  20
ENDBRANCH  18  19
ENDBRANCH  17  18
ENDBRANCH  15  17
ENDBRANCH   1  15
BRANCH   9  28
HETATM   28  O2  UNL     1      -6.334   3.175   0.333  1.00  0.00    -0.395 OA
ATOM     29  H2  UNL     1      -6.366   3.741  -0.429  1.00  0.00     0.210 HD
ENDBRANCH   9  28
TORSDOF 8
