REMARK  8 active torsions:
REMARK  status: ('A' for Active; 'I' for Inactive)
REMARK    1  A    between atoms: C9_12  and  O2_13 
REMARK    2  A    between atoms: C11_16  and  C12_17 
REMARK    3  A    between atoms: C12_17  and  C13_18 
REMARK    4  A    between atoms: C14_19  and  C15_20 
REMARK    5  A    between atoms: C15_20  and  C17_22 
REMARK    6  A    between atoms: C17_22  and  C18_23 
REMARK    7  A    between atoms: C18_23  and  C19_24 
REMARK    8  A    between atoms: C19_24  and  C20_25 
ROOT
HETATM    1  C1  UNL     1      -3.749   0.694   2.961  1.00  0.00     0.027 C 
HETATM    2  C2  UNL     1      -4.399   0.439   1.854  1.00  0.00     0.029 C 
HETATM    3  C3  UNL     1      -5.854   0.410   1.894  1.00  0.00     0.249 C 
HETATM    4  O1  UNL     1      -6.375   0.793   3.001  1.00  0.00    -0.268 OA
HETATM    5  N1  UNL     1      -6.771   0.017   0.874  1.00  0.00    -0.353 N 
ATOM      6  H1  UNL     1      -7.710   0.413   0.922  1.00  0.00     0.163 HD
HETATM    7  C4  UNL     1      -6.505  -0.875  -0.206  1.00  0.00     0.081 C 
HETATM    8  C5  UNL     1      -7.602  -0.676  -1.263  1.00  0.00     0.032 C 
HETATM    9  C6  UNL     1      -5.182  -0.792  -0.860  1.00  0.00     0.032 C 
HETATM   10  C7  UNL     1      -4.363   0.422  -0.590  1.00  0.00     0.024 C 
HETATM   11  C8  UNL     1      -3.583   0.938  -1.733  1.00  0.00     0.039 C 
HETATM   12  C9  UNL     1      -2.375   0.152  -2.122  1.00  0.00     0.121 C 
HETATM   13  C10 UNL     1      -1.152   0.516  -1.291  1.00  0.00     0.064 C 
HETATM   14  C11 UNL     1      -1.386   0.057   0.109  1.00  0.00     0.128 C 
HETATM   15  O3  UNL     1      -2.360   0.867   0.682  1.00  0.00    -0.375 OA
HETATM   16  C23 UNL     1      -3.548   0.204   0.666  1.00  0.00     0.163 C 
ENDROOT
BRANCH  14  17
HETATM   17  C12 UNL     1      -0.114   0.042   0.939  1.00  0.00     0.059 C 
BRANCH  17  18
HETATM   18  C13 UNL     1       0.514   1.343   1.053  1.00  0.00    -0.028 C 
HETATM   19  C14 UNL     1       1.727   1.620   0.643  1.00  0.00    -0.026 C 
BRANCH  19  20
HETATM   20  C15 UNL     1       2.661   0.689   0.005  1.00  0.00     0.004 C 
HETATM   21  C16 UNL     1       3.118   1.352  -1.302  1.00  0.00     0.014 C 
BRANCH  20  22
HETATM   22  C17 UNL     1       3.918   0.565   0.842  1.00  0.00     0.008 C 
BRANCH  22  23
HETATM   23  C18 UNL     1       4.904  -0.403   0.192  1.00  0.00     0.001 C 
BRANCH  23  24
HETATM   24  C19 UNL     1       6.141  -0.478   1.086  1.00  0.00     0.004 C 
BRANCH  24  25
HETATM   25  C20 UNL     1       7.167  -1.417   0.513  1.00  0.00    -0.023 C 
HETATM   26  C21 UNL     1       8.349  -1.426   1.462  1.00  0.00     0.009 C 
HETATM   27  C22 UNL     1       7.663  -0.952  -0.829  1.00  0.00     0.009 C 
ENDBRANCH  24  25
ENDBRANCH  23  24
ENDBRANCH  22  23
ENDBRANCH  20  22
ENDBRANCH  19  20
ENDBRANCH  17  18
ENDBRANCH  14  17
BRANCH  12  28
HETATM   28  O2  UNL     1      -2.556  -1.205  -2.142  1.00  0.00    -0.395 OA
ATOM     29  H2  UNL     1      -1.787  -1.705  -2.390  1.00  0.00     0.210 HD
ENDBRANCH  12  28
TORSDOF 8
