REMARK  9 active torsions:
REMARK  status: ('A' for Active; 'I' for Inactive)
REMARK    1  A    between atoms: O1_2  and  C2_3 
REMARK    2  A    between atoms: C4_5  and  O2_6 
REMARK    3  A    between atoms: C4_5  and  C5_8 
REMARK    4  A    between atoms: C5_8  and  O3_9 
REMARK    5  A    between atoms: C6_11  and  O4_12 
REMARK    6  A    between atoms: C7_14  and  O5_15 
REMARK    7  A    between atoms: C8_17  and  O6_18 
REMARK    8  A    between atoms: O6_18  and  N1_19 
REMARK       I    between atoms: C9_21  and  N3_23 
REMARK    9  A    between atoms: N6_30  and  N7_31 
ROOT
HETATM    1  C2  UNL     1      -2.200  -0.636  -0.856  1.00  0.00     0.079 C 
HETATM    2  C3  UNL     1      -3.475  -0.399  -0.657  1.00  0.00     0.050 C 
HETATM    3  C4  UNL     1      -3.956   0.456   0.448  1.00  0.00     0.127 C 
HETATM    4  C6  UNL     1      -2.888   1.115   1.251  1.00  0.00     0.190 C 
HETATM    5  C7  UNL     1      -1.732   0.118   1.416  1.00  0.00     0.188 C 
HETATM    6  C8  UNL     1      -1.190  -0.059   0.015  1.00  0.00     0.239 C 
ENDROOT
BRANCH   6   7
HETATM    7  O6  UNL     1       0.049  -0.706  -0.011  1.00  0.00    -0.263 OA
BRANCH   7   8
HETATM    8  N1  UNL     1       1.228  -0.201  -0.395  1.00  0.00    -0.235 N 
HETATM    9  C9  UNL     1       2.263  -0.301   0.345  1.00  0.00     0.248 C 
HETATM   10  N2  UNL     1       2.141  -0.964   1.597  1.00  0.00    -0.059 NA
HETATM   11  N3  UNL     1       3.538   0.203   0.014  1.00  0.00    -0.151 N 
HETATM   12  N4  UNL     1       3.645   1.403  -0.664  1.00  0.00    -0.226 N 
HETATM   13  N6  UNL     1       4.673  -0.505   0.370  1.00  0.00    -0.119 NA
HETATM   14  N5  UNL     1       4.760   1.955  -0.945  1.00  0.00    -0.319 N 
ATOM     15  H4  UNL     1       2.787   1.872  -0.955  1.00  0.00     0.210 HD
HETATM   16  C10 UNL     1       6.003   1.345  -0.562  1.00  0.00     0.159 C 
ATOM     17  H5  UNL     1       4.769   2.842  -1.449  1.00  0.00     0.181 HD
HETATM   18  C11 UNL     1       5.803   0.381   0.570  1.00  0.00     0.161 C 
ATOM     19  H1  UNL     1       1.300   0.272  -1.296  1.00  0.00     0.197 HD
BRANCH  13  20
HETATM   20  N7  UNL     1       5.052  -1.455  -0.585  1.00  0.00    -0.344 NA
ATOM     21  H72 UNL     1       4.257  -2.078  -0.726  1.00  0.00     0.172 HD
ATOM     22  H71 UNL     1       5.888  -1.977  -0.323  1.00  0.00     0.172 HD
ENDBRANCH  13  20
ENDBRANCH   7   8
ENDBRANCH   6   7
BRANCH   1  23
HETATM   23  O1  UNL     1      -1.884  -1.467  -1.944  1.00  0.00    -0.358 OA
HETATM   24  C1  UNL     1      -2.432  -2.769  -2.015  1.00  0.00     0.209 C 
ENDBRANCH   1  23
BRANCH   5  25
HETATM   25  O5  UNL     1      -2.291  -1.059   1.895  1.00  0.00    -0.390 OA
ATOM     26  H5  UNL     1      -1.576  -1.676   1.997  1.00  0.00     0.210 HD
ENDBRANCH   5  25
BRANCH   4  27
HETATM   27  O4  UNL     1      -2.461   2.308   0.695  1.00  0.00    -0.389 OA
ATOM     28  H4  UNL     1      -1.780   2.728   1.207  1.00  0.00     0.210 HD
ENDBRANCH   4  27
BRANCH   3  29
HETATM   29  O2  UNL     1      -4.686  -0.388   1.320  1.00  0.00    -0.381 OA
ATOM     30  H2  UNL     1      -4.995   0.162   2.030  1.00  0.00     0.211 HD
ENDBRANCH   3  29
BRANCH   3  31
HETATM   31  C5  UNL     1      -4.935   1.471  -0.102  1.00  0.00     0.209 C 
BRANCH  31  32
HETATM   32  O3  UNL     1      -5.469   2.188   0.950  1.00  0.00    -0.397 OA
ATOM     33  H3  UNL     1      -6.083   2.825   0.605  1.00  0.00     0.209 HD
ENDBRANCH  31  32
ENDBRANCH   3  31
TORSDOF 9
