REMARK  9 active torsions:
REMARK  status: ('A' for Active; 'I' for Inactive)
REMARK    1  A    between atoms: C1_2  and  C2_4 
REMARK    2  A    between atoms: N3_8  and  C4_9 
REMARK    3  A    between atoms: C5_11  and  C6_12 
REMARK    4  A    between atoms: C7_15  and  O4_16 
REMARK    5  A    between atoms: C7_15  and  C8_18 
REMARK    6  A    between atoms: C8_18  and  N5_19 
REMARK    7  A    between atoms: C8_18  and  O5_23 
REMARK    8  A    between atoms: C9_25  and  O6_26 
REMARK    9  A    between atoms: C10_28  and  O7_29 
ROOT
HETATM    1  C4  UNL     1       0.622  -0.002   0.516  1.00  0.00     0.277 C 
HETATM    2  O2  UNL     1      -0.390  -0.878   0.807  1.00  0.00    -0.345 OA
HETATM    3  C5  UNL     1      -1.339  -1.057  -0.153  1.00  0.00     0.254 C 
HETATM    4  C7  UNL     1      -1.845   0.240  -0.756  1.00  0.00     0.171 C 
HETATM    5  C9  UNL     1      -0.713   1.034  -1.356  1.00  0.00     0.193 C 
HETATM    6  C10 UNL     1       0.620   0.479  -0.915  1.00  0.00     0.200 C 
ENDROOT
BRANCH   1   7
HETATM    7  N3  UNL     1       1.935  -0.495   0.878  1.00  0.00    -0.254 N 
HETATM    8  C3  UNL     1       2.292  -1.652   1.446  1.00  0.00     0.205 A 
HETATM    9  N2  UNL     1       3.627  -1.685   1.600  1.00  0.00    -0.332 N 
HETATM   10  C2  UNL     1       4.112  -0.534   1.122  1.00  0.00     0.187 A 
ATOM     11  H2  UNL     1       4.170  -2.447   2.006  1.00  0.00     0.168 HD
HETATM   12  N6  UNL     1       3.060   0.173   0.689  1.00  0.00    -0.276 N 
ATOM     13  H6  UNL     1       3.119   1.101   0.270  1.00  0.00     0.189 HD
BRANCH  10  14
HETATM   14  C1  UNL     1       5.514  -0.144   1.089  1.00  0.00     0.300 C 
HETATM   15  N1  UNL     1       5.858   1.121   0.544  1.00  0.00    -0.054 NA
HETATM   16  O1  UNL     1       6.441  -0.872   1.519  1.00  0.00    -0.268 OA
ENDBRANCH  10  14
ENDBRANCH   1   7
BRANCH   6  17
HETATM   17  O7  UNL     1       1.117  -0.488  -1.803  1.00  0.00    -0.388 OA
ATOM     18  H7  UNL     1       1.116  -0.185  -2.703  1.00  0.00     0.210 HD
ENDBRANCH   6  17
BRANCH   3  19
HETATM   19  C6  UNL     1      -2.410  -1.909   0.392  1.00  0.00     0.263 C 
HETATM   20  N4  UNL     1      -3.548  -2.331  -0.343  1.00  0.00    -0.060 NA
HETATM   21  O3  UNL     1      -2.336  -2.301   1.581  1.00  0.00    -0.274 OA
ENDBRANCH   3  19
BRANCH   5  22
HETATM   22  O6  UNL     1      -0.767   2.387  -1.088  1.00  0.00    -0.390 OA
ATOM     23  H6  UNL     1      -0.054   2.887  -1.466  1.00  0.00     0.210 HD
ENDBRANCH   5  22
BRANCH   4  24
HETATM   24  O4  UNL     1      -2.767  -0.003  -1.772  1.00  0.00    -0.380 OA
ATOM     25  H4  UNL     1      -3.084   0.809  -2.150  1.00  0.00     0.211 HD
ENDBRANCH   4  24
BRANCH   4  26
HETATM   26  C8  UNL     1      -2.523   1.125   0.262  1.00  0.00     0.356 C 
BRANCH  26  27
HETATM   27  N5  UNL     1      -3.699   0.537   0.860  1.00  0.00    -0.050 N 
ATOM     28  H53 UNL     1      -4.361   0.247   0.140  1.00  0.00     0.277 HD
ATOM     29  H52 UNL     1      -3.478  -0.372   1.266  1.00  0.00     0.277 HD
ATOM     30  H51 UNL     1      -4.157   1.135   1.548  1.00  0.00     0.277 HD
ENDBRANCH  26  27
BRANCH  26  31
HETATM   31  O5  UNL     1      -3.024   2.231  -0.472  1.00  0.00    -0.367 OA
ATOM     32  H5  UNL     1      -3.451   2.788   0.169  1.00  0.00     0.212 HD
ENDBRANCH  26  31
ENDBRANCH   4  26
TORSDOF 9
