REMARK  10 active torsions:
REMARK  status: ('A' for Active; 'I' for Inactive)
REMARK    1  A    between atoms: C1_4  and  O1_5 
REMARK    2  A    between atoms: C1_4  and  C2_7 
REMARK    3  A    between atoms: C2_7  and  O2_8 
REMARK    4  A    between atoms: C3_10  and  O3_11 
REMARK    5  A    between atoms: C4_13  and  N2_14 
REMARK    6  A    between atoms: C5_15  and  C6_16 
REMARK    7  A    between atoms: C6_16  and  O4_18 
REMARK    8  A    between atoms: C10_28  and  O8_29 
REMARK    9  A    between atoms: C10_28  and  C11_31 
REMARK   10  A    between atoms: C11_31  and  O9_32 
ROOT
HETATM    1  C2  UNL     1      -1.883   0.199   0.804  1.00  0.00     0.210 C 
HETATM    2  C3  UNL     1      -0.456   0.796   0.964  1.00  0.00     0.215 C 
HETATM    3  C4  UNL     1       0.182   0.006  -0.144  1.00  0.00     0.269 C 
HETATM    4  O7  UNL     1      -0.152  -1.275   0.189  1.00  0.00    -0.322 OA
HETATM    5  C10 UNL     1      -1.558  -1.168   0.379  1.00  0.00     0.228 C 
ENDROOT
BRANCH   3   6
HETATM    6  N2  UNL     1       1.489   0.332  -0.538  1.00  0.00    -0.266 N 
HETATM    7  C5  UNL     1       2.592  -0.250  -0.085  1.00  0.00     0.094 A 
HETATM    8  C7  UNL     1       3.847   0.170  -0.636  1.00  0.00     0.108 A 
HETATM    9  C8  UNL     1       3.912   1.135  -1.590  1.00  0.00     0.251 A 
HETATM   10  O5  UNL     1       4.987   1.530  -2.095  1.00  0.00    -0.268 OA
HETATM   11  N4  UNL     1       2.765   1.684  -2.003  1.00  0.00    -0.275 N 
HETATM   12  C9  UNL     1       1.583   1.316  -1.514  1.00  0.00     0.332 A 
ATOM     13  H4  UNL     1       2.797   2.411  -2.718  1.00  0.00     0.173 HD
HETATM   14  O6  UNL     1       0.505   1.855  -1.929  1.00  0.00    -0.246 OA
BRANCH   7  15
HETATM   15  C6  UNL     1       2.637  -1.228   0.958  1.00  0.00     0.177 C 
HETATM   16  N3  UNL     1       1.823  -1.521   2.050  1.00  0.00    -0.073 NA
BRANCH  15  17
HETATM   17  O4  UNL     1       3.686  -2.025   0.872  1.00  0.00    -0.347 OA
ATOM     18  H4  UNL     1       3.716  -2.674   1.565  1.00  0.00     0.219 HD
ENDBRANCH  15  17
ENDBRANCH   7  15
ENDBRANCH   3   6
BRANCH   2  19
HETATM   19  O3  UNL     1      -0.482   2.151   0.659  1.00  0.00    -0.387 OA
ATOM     20  H3  UNL     1       0.390   2.516   0.757  1.00  0.00     0.210 HD
ENDBRANCH   2  19
BRANCH   1  21
HETATM   21  C1  UNL     1      -2.691   1.052  -0.037  1.00  0.00     0.153 C 
HETATM   22  N1  UNL     1      -3.342   0.646  -1.045  1.00  0.00    -0.381 N 
ATOM     23  H12 UNL     1      -3.912   1.248  -1.639  1.00  0.00     0.158 HD
ATOM     24  H11 UNL     1      -3.263  -0.352  -1.239  1.00  0.00     0.158 HD
BRANCH  21  25
HETATM   25  O1  UNL     1      -2.800   2.433   0.231  1.00  0.00    -0.347 OA
ATOM     26  H1  UNL     1      -2.312   2.737   0.987  1.00  0.00     0.219 HD
ENDBRANCH  21  25
ENDBRANCH   1  21
BRANCH   1  27
HETATM   27  O2  UNL     1      -2.375   0.195   2.138  1.00  0.00    -0.374 OA
ATOM     28  H2  UNL     1      -1.844  -0.366   2.691  1.00  0.00     0.211 HD
ENDBRANCH   1  27
BRANCH   5  29
HETATM   29  O8  UNL     1      -1.914  -2.060   1.419  1.00  0.00    -0.361 OA
ATOM     30  H8  UNL     1      -1.704  -2.945   1.144  1.00  0.00     0.213 HD
ENDBRANCH   5  29
BRANCH   5  31
HETATM   31  C11 UNL     1      -2.170  -1.713  -0.860  1.00  0.00     0.236 C 
BRANCH  31  32
HETATM   32  O9  UNL     1      -1.712  -3.063  -0.959  1.00  0.00    -0.395 OA
ATOM     33  H9  UNL     1      -2.103  -3.412  -1.751  1.00  0.00     0.209 HD
ENDBRANCH  31  32
ENDBRANCH   5  31
TORSDOF 10
