REMARK  16 active torsions:
REMARK  status: ('A' for Active; 'I' for Inactive)
REMARK    1  A    between atoms: C3_3  and  C4_4 
REMARK    2  A    between atoms: C4_4  and  C5_5 
REMARK    3  A    between atoms: C5_5  and  C6_6 
REMARK    4  A    between atoms: C6_6  and  C7_7 
REMARK    5  A    between atoms: C7_7  and  C8_8 
REMARK    6  A    between atoms: C8_8  and  C9_9 
REMARK    7  A    between atoms: C9_9  and  C10_10 
REMARK    8  A    between atoms: C10_10  and  C11_11 
REMARK    9  A    between atoms: C11_11  and  C12_12 
REMARK   10  A    between atoms: C12_12  and  C13_13 
REMARK   11  A    between atoms: C13_13  and  C14_14 
REMARK   12  A    between atoms: C14_14  and  C15_15 
REMARK   13  A    between atoms: C15_15  and  C16_16 
REMARK   14  A    between atoms: C16_16  and  C17_17 
REMARK   15  A    between atoms: C17_17  and  C18_18 
REMARK   16  A    between atoms: C18_18  and  C19_19 
ROOT
HETATM    1  C1  UNL     1      11.359   0.083  -0.456  1.00  0.00     0.012 C 
HETATM    2  C2  UNL     1      10.159   0.188  -0.502  1.00  0.00    -0.117 C 
HETATM    3  C3  UNL     1       8.677   0.301  -0.542  1.00  0.00     0.093 C 
ENDROOT
BRANCH   3   4
HETATM    4  C4  UNL     1       8.206   0.020   0.863  1.00  0.00     0.012 C 
BRANCH   4   5
HETATM    5  C5  UNL     1       6.705   0.106   0.999  1.00  0.00     0.001 C 
BRANCH   5   6
HETATM    6  C6  UNL     1       6.073  -0.895   0.093  1.00  0.00     0.000 C 
BRANCH   6   7
HETATM    7  C7  UNL     1       4.557  -0.911   0.160  1.00  0.00     0.000 C 
BRANCH   7   8
HETATM    8  C8  UNL     1       3.990   0.413  -0.221  1.00  0.00     0.000 C 
BRANCH   8   9
HETATM    9  C9  UNL     1       2.481   0.442  -0.157  1.00  0.00     0.000 C 
BRANCH   9  10
HETATM   10  C10 UNL     1       1.914  -0.576  -1.103  1.00  0.00     0.000 C 
BRANCH  10  11
HETATM   11  C11 UNL     1       0.393  -0.530  -1.053  1.00  0.00     0.000 C 
BRANCH  11  12
HETATM   12  C12 UNL     1      -0.172  -0.830   0.292  1.00  0.00     0.000 C 
BRANCH  12  13
HETATM   13  C13 UNL     1      -1.695  -0.784   0.242  1.00  0.00     0.000 C 
BRANCH  13  14
HETATM   14  C14 UNL     1      -2.182   0.562  -0.173  1.00  0.00     0.000 C 
BRANCH  14  15
HETATM   15  C15 UNL     1      -3.697   0.636  -0.231  1.00  0.00     0.000 C 
BRANCH  15  16
HETATM   16  C16 UNL     1      -4.277   0.342   1.123  1.00  0.00     0.000 C 
BRANCH  16  17
HETATM   17  C17 UNL     1      -5.774   0.445   1.096  1.00  0.00     0.006 C 
BRANCH  17  18
HETATM   18  C18 UNL     1      -6.381  -0.539   0.125  1.00  0.00     0.061 C 
BRANCH  18  19
HETATM   19  C19 UNL     1      -7.884  -0.363   0.184  1.00  0.00     0.051 A 
HETATM   20  N1  UNL     1      -8.781  -1.155   0.784  1.00  0.00    -0.353 N 
HETATM   21  C20 UNL     1     -10.001  -0.618   0.582  1.00  0.00     0.182 A 
ATOM     22  H1  UNL     1      -8.578  -2.011   1.301  1.00  0.00     0.166 HD
HETATM   23  N2  UNL     1      -9.918   0.503  -0.134  1.00  0.00    -0.339 N 
HETATM   24  C21 UNL     1      -8.608   0.680  -0.393  1.00  0.00     0.140 A 
ATOM     25  H2  UNL     1     -10.689   1.104  -0.426  1.00  0.00     0.167 HD
HETATM   26  N3  UNL     1      -8.039   1.759  -1.136  1.00  0.00    -0.081 NA
ENDBRANCH  18  19
ENDBRANCH  17  18
ENDBRANCH  16  17
ENDBRANCH  15  16
ENDBRANCH  14  15
ENDBRANCH  13  14
ENDBRANCH  12  13
ENDBRANCH  11  12
ENDBRANCH  10  11
ENDBRANCH   9  10
ENDBRANCH   8   9
ENDBRANCH   7   8
ENDBRANCH   6   7
ENDBRANCH   5   6
ENDBRANCH   4   5
ENDBRANCH   3   4
TORSDOF 16
