REMARK  12 active torsions:
REMARK  status: ('A' for Active; 'I' for Inactive)
REMARK    1  A    between atoms: C2_2  and  C3_3 
REMARK    2  A    between atoms: C3_3  and  C4_4 
REMARK    3  A    between atoms: C4_4  and  C5_5 
REMARK    4  A    between atoms: C4_4  and  C15_18 
REMARK    5  A    between atoms: C5_5  and  C6_6 
REMARK    6  A    between atoms: C6_6  and  C7_7 
REMARK    7  A    between atoms: C7_7  and  C9_9 
REMARK    8  A    between atoms: C9_9  and  C10_10 
REMARK    9  A    between atoms: C10_10  and  N1_11 
REMARK       I    between atoms: N1_11  and  C11_13 
REMARK   10  A    between atoms: C11_13  and  C12_15 
REMARK   11  A    between atoms: C15_18  and  C17_20 
REMARK   12  A    between atoms: C17_20  and  C18_22 
ROOT
HETATM    1  C5  UNL     1      -0.372  -0.619   1.186  1.00  0.00    -0.021 C 
ENDROOT
BRANCH   1   2
HETATM    2  C4  UNL     1      -1.626  -0.059   0.550  1.00  0.00     0.019 C 
BRANCH   2   3
HETATM    3  C3  UNL     1      -1.564  -0.262  -0.880  1.00  0.00     0.009 C 
BRANCH   3   4
HETATM    4  C2  UNL     1      -2.433   0.223  -1.931  1.00  0.00    -0.004 C 
HETATM    5  C1  UNL     1      -2.459   1.714  -2.193  1.00  0.00     0.005 C 
ENDBRANCH   3   4
ENDBRANCH   2   3
BRANCH   2   6
HETATM    6  C15 UNL     1      -2.815  -0.647   1.303  1.00  0.00     0.059 C 
HETATM    7  C16 UNL     1      -2.582  -0.359   2.825  1.00  0.00     0.018 C 
BRANCH   6   8
HETATM    8  C17 UNL     1      -4.107   0.020   1.057  1.00  0.00     0.134 C 
HETATM    9  O2  UNL     1      -4.217   1.084   0.520  1.00  0.00    -0.297 OA
BRANCH   8  10
HETATM   10  C18 UNL     1      -5.393  -0.642   1.502  1.00  0.00     0.048 C 
HETATM   11  C19 UNL     1      -6.549   0.228   1.137  1.00  0.00     0.017 C 
HETATM   12  C20 UNL     1      -5.565  -1.970   0.776  1.00  0.00     0.017 C 
ENDBRANCH   8  10
ENDBRANCH   6   8
ENDBRANCH   2   6
ENDBRANCH   1   2
BRANCH   1  13
HETATM   13  C6  UNL     1       0.933   0.007   1.013  1.00  0.00     0.003 C 
BRANCH  13  14
HETATM   14  C7  UNL     1       1.617   0.375  -0.190  1.00  0.00    -0.065 C 
HETATM   15  C8  UNL     1       1.254   1.566  -1.043  1.00  0.00     0.048 C 
BRANCH  14  16
HETATM   16  C9  UNL     1       2.754  -0.264  -0.555  1.00  0.00    -0.001 C 
BRANCH  16  17
HETATM   17  C10 UNL     1       3.495   0.083  -1.790  1.00  0.00     0.150 C 
BRANCH  17  18
HETATM   18  N1  UNL     1       4.836   0.514  -1.557  1.00  0.00    -0.357 N 
HETATM   19  C11 UNL     1       5.793  -0.319  -0.934  1.00  0.00     0.222 C 
HETATM   20  O1  UNL     1       5.460  -1.470  -0.575  1.00  0.00    -0.273 OA
ATOM     21  H1  UNL     1       5.112   1.452  -1.849  1.00  0.00     0.162 HD
BRANCH  19  22
HETATM   22  C12 UNL     1       7.190   0.104  -0.679  1.00  0.00     0.078 A 
HETATM   23  C13 UNL     1       8.314  -0.836  -0.746  1.00  0.00     0.015 A 
HETATM   24  C14 UNL     1       7.854  -0.350   0.611  1.00  0.00     0.015 A 
ENDBRANCH  19  22
ENDBRANCH  17  18
ENDBRANCH  16  17
ENDBRANCH  14  16
ENDBRANCH  13  14
ENDBRANCH   1  13
TORSDOF 12
