REMARK  18 active torsions:
REMARK  status: ('A' for Active; 'I' for Inactive)
REMARK    1  A    between atoms: C2_2  and  C3_3 
REMARK    2  A    between atoms: C4_5  and  N1_6 
REMARK    3  A    between atoms: N1_6  and  N2_8 
REMARK    4  A    between atoms: N2_8  and  N3_9 
REMARK    5  A    between atoms: C5_12  and  O2_13 
REMARK    6  A    between atoms: O2_13  and  C6_14 
REMARK    7  A    between atoms: C8_17  and  C9_18 
REMARK    8  A    between atoms: C9_18  and  O4_19 
REMARK    9  A    between atoms: O4_19  and  C10_20 
REMARK   10  A    between atoms: C10_20  and  O5_21 
REMARK   11  A    between atoms: C10_20  and  C13_27 
REMARK   12  A    between atoms: O5_21  and  C11_22 
REMARK       I    between atoms: C11_22  and  N4_24 
REMARK   13  A    between atoms: C13_27  and  C14_28 
REMARK   14  A    between atoms: C13_27  and  O8_31 
REMARK   15  A    between atoms: C14_28  and  O7_29 
REMARK   16  A    between atoms: O8_31  and  C15_32 
REMARK   17  A    between atoms: C17_35  and  O10_36 
REMARK   18  A    between atoms: O10_36  and  C18_37 
ROOT
HETATM    1  C3  UNL     1      -3.460  -0.244  -0.211  1.00  0.00     0.176 C 
HETATM    2  O1  UNL     1      -3.162  -0.809   0.971  1.00  0.00    -0.350 OA
HETATM    3  C4  UNL     1      -1.953  -0.639   1.550  1.00  0.00     0.280 C 
HETATM    4  C5  UNL     1      -1.106   0.404   0.838  1.00  0.00     0.191 C 
HETATM    5  C8  UNL     1      -1.010   0.136  -0.602  1.00  0.00     0.076 C 
HETATM    6  C17 UNL     1      -2.372  -0.116  -1.232  1.00  0.00     0.173 C 
ENDROOT
BRANCH   5   7
HETATM    7  C9  UNL     1      -0.054  -0.942  -0.983  1.00  0.00     0.181 C 
BRANCH   7   8
HETATM    8  O4  UNL     1       1.194  -0.795  -0.715  1.00  0.00    -0.357 OA
BRANCH   8   9
HETATM    9  C10 UNL     1       1.984  -0.712   0.313  1.00  0.00     0.302 C 
BRANCH   9  10
HETATM   10  O5  UNL     1       3.050  -1.702   0.294  1.00  0.00    -0.270 OA
BRANCH  10  11
HETATM   11  C11 UNL     1       3.296  -2.528   1.370  1.00  0.00     0.362 C 
HETATM   12  O6  UNL     1       2.613  -2.464   2.407  1.00  0.00    -0.238 OA
HETATM   13  N4  UNL     1       4.355  -3.482   1.309  1.00  0.00    -0.341 N 
HETATM   14  C12 UNL     1       4.634  -4.359   2.421  1.00  0.00     0.151 C 
ATOM     15  H4  UNL     1       4.925  -3.545   0.465  1.00  0.00     0.164 HD
ENDBRANCH  10  11
ENDBRANCH   9  10
BRANCH   9  16
HETATM   16  C13 UNL     1       2.684   0.671   0.275  1.00  0.00     0.211 C 
BRANCH  16  17
HETATM   17  C14 UNL     1       3.487   0.936   1.484  1.00  0.00     0.201 C 
BRANCH  17  18
HETATM   18  O7  UNL     1       2.660   0.900   2.605  1.00  0.00    -0.398 OA
ATOM     19  H7  UNL     1       3.177   1.071   3.383  1.00  0.00     0.209 HD
ENDBRANCH  17  18
ENDBRANCH  16  17
BRANCH  16  20
HETATM   20  O8  UNL     1       3.380   0.686  -0.937  1.00  0.00    -0.309 OA
BRANCH  20  21
HETATM   21  C15 UNL     1       3.075   1.485  -2.013  1.00  0.00     0.255 C 
HETATM   22  C16 UNL     1       3.834   1.479  -3.289  1.00  0.00     0.126 C 
HETATM   23  O9  UNL     1       2.092   2.252  -1.873  1.00  0.00    -0.266 OA
ENDBRANCH  20  21
ENDBRANCH  16  20
ENDBRANCH   9  16
ENDBRANCH   8   9
ENDBRANCH   7   8
ENDBRANCH   5   7
BRANCH   4  24
HETATM   24  O2  UNL     1      -1.864   1.643   1.028  1.00  0.00    -0.311 OA
BRANCH  24  25
HETATM   25  C6  UNL     1      -1.388   2.682   1.789  1.00  0.00     0.255 C 
HETATM   26  C7  UNL     1      -2.179   3.915   1.957  1.00  0.00     0.126 C 
HETATM   27  O3  UNL     1      -0.270   2.570   2.341  1.00  0.00    -0.266 OA
ENDBRANCH  24  25
ENDBRANCH   4  24
BRANCH   6  28
HETATM   28  O10 UNL     1      -2.674   1.008  -2.032  1.00  0.00    -0.313 OA
BRANCH  28  29
HETATM   29  C18 UNL     1      -2.806   0.906  -3.421  1.00  0.00     0.255 C 
HETATM   30  C19 UNL     1      -3.119   2.041  -4.297  1.00  0.00     0.126 C 
HETATM   31  O11 UNL     1      -2.639  -0.242  -3.905  1.00  0.00    -0.266 OA
ENDBRANCH  28  29
ENDBRANCH   6  28
BRANCH   3  32
HETATM   32  N1  UNL     1      -1.251  -1.847   1.864  1.00  0.00    -0.220 N 
ATOM     33  H1  UNL     1      -0.560  -2.184   1.193  1.00  0.00     0.200 HD
BRANCH  32  34
HETATM   34  N2  UNL     1      -1.425  -2.507   2.890  1.00  0.00    -0.246 NA
BRANCH  34  35
HETATM   35  N3  UNL     1      -1.761  -2.933   4.012  1.00  0.00    -0.261 N 
ATOM     36  H32 UNL     1      -2.283  -2.083   4.224  1.00  0.00     0.193 HD
ATOM     37  H31 UNL     1      -1.905  -3.479   4.861  1.00  0.00     0.193 HD
ENDBRANCH  34  35
ENDBRANCH  32  34
ENDBRANCH   3  32
BRANCH   1  38
HETATM   38  C2  UNL     1      -4.598  -0.996  -0.844  1.00  0.00    -0.003 C 
HETATM   39  C1  UNL     1      -5.644  -1.299  -0.106  1.00  0.00     0.009 C 
ENDBRANCH   1  38
TORSDOF 18
