REMARK  15 active torsions:
REMARK  status: ('A' for Active; 'I' for Inactive)
REMARK    1  A    between atoms: O1_2  and  C2_3 
REMARK    2  A    between atoms: C2_3  and  O2_4 
REMARK    3  A    between atoms: O2_4  and  C3_5 
REMARK    4  A    between atoms: C3_5  and  C4_6 
REMARK    5  A    between atoms: C3_5  and  O4_13 
REMARK    6  A    between atoms: C4_6  and  C5_7 
REMARK    7  A    between atoms: C5_7  and  C6_9 
REMARK    8  A    between atoms: O4_13  and  C10_14 
REMARK    9  A    between atoms: C11_15  and  O5_16 
REMARK   10  A    between atoms: C15_23  and  O8_24 
REMARK   11  A    between atoms: O8_24  and  C16_25 
REMARK   12  A    between atoms: C18_28  and  O10_29 
REMARK   13  A    between atoms: O10_29  and  C19_30 
REMARK   14  A    between atoms: C19_30  and  C20_31 
REMARK   15  A    between atoms: C20_31  and  S1_32 
ROOT
HETATM    1  C10 UNL     1      -0.409   0.657  -0.357  1.00  0.00     0.187 C 
HETATM    2  C11 UNL     1      -0.282   2.138  -0.197  1.00  0.00     0.181 C 
HETATM    3  C12 UNL     1      -1.436   2.983  -0.582  1.00  0.00     0.187 C 
HETATM    4  O6  UNL     1      -2.283   3.107   0.517  1.00  0.00    -0.356 OA
HETATM    5  C13 UNL     1      -3.575   3.095  -0.003  1.00  0.00     0.339 C 
HETATM    6  O7  UNL     1      -3.550   2.344  -1.140  1.00  0.00    -0.356 OA
HETATM    7  C14 UNL     1      -2.299   2.537  -1.678  1.00  0.00     0.188 C 
HETATM    8  C15 UNL     1      -1.794   1.284  -2.378  1.00  0.00     0.195 C 
HETATM    9  C18 UNL     1      -1.447   0.225  -1.349  1.00  0.00     0.185 C 
ENDROOT
BRANCH   1  10
HETATM   10  O4  UNL     1       0.858   0.216  -0.755  1.00  0.00    -0.350 OA
BRANCH  10  11
HETATM   11  C3  UNL     1       1.461  -0.617   0.277  1.00  0.00     0.270 C 
BRANCH  11  12
HETATM   12  O2  UNL     1       1.701  -1.786  -0.357  1.00  0.00    -0.337 OA
BRANCH  12  13
HETATM   13  C2  UNL     1       0.856  -2.831  -0.230  1.00  0.00     0.340 C 
BRANCH  13  14
HETATM   14  O1  UNL     1       0.675  -3.274   1.050  1.00  0.00    -0.372 OA
HETATM   15  C1  UNL     1      -0.192  -4.338   1.158  1.00  0.00     0.204 C 
ENDBRANCH  13  14
ENDBRANCH  12  13
ENDBRANCH  11  12
BRANCH  11  16
HETATM   16  C4  UNL     1       2.673   0.063   0.757  1.00  0.00     0.140 C 
BRANCH  16  17
HETATM   17  C5  UNL     1       3.514  -0.662   1.724  1.00  0.00     0.139 C 
HETATM   18  O3  UNL     1       3.276  -1.761   2.116  1.00  0.00    -0.297 OA
BRANCH  17  19
HETATM   19  C6  UNL     1       4.760  -0.012   2.278  1.00  0.00     0.010 C 
HETATM   20  C7  UNL     1       5.412  -0.987   3.221  1.00  0.00     0.022 C 
HETATM   21  C8  UNL     1       4.360   1.198   3.133  1.00  0.00     0.022 C 
HETATM   22  C9  UNL     1       5.669   0.487   1.202  1.00  0.00     0.022 C 
ENDBRANCH  17  19
ENDBRANCH  16  17
ENDBRANCH  11  16
ENDBRANCH  10  11
ENDBRANCH   1  10
BRANCH   2  23
HETATM   23  O5  UNL     1       0.929   2.631  -0.764  1.00  0.00    -0.390 OA
ATOM     24  H5  UNL     1       1.010   3.572  -0.662  1.00  0.00     0.210 HD
ENDBRANCH   2  23
BRANCH   9  25
HETATM   25  O10 UNL     1      -2.629  -0.038  -0.602  1.00  0.00    -0.380 OA
BRANCH  25  26
HETATM   26  C19 UNL     1      -3.032  -1.348  -0.696  1.00  0.00     0.178 C 
BRANCH  26  27
HETATM   27  C20 UNL     1      -4.314  -1.598   0.060  1.00  0.00     0.099 C 
BRANCH  27  28
HETATM   28  S1  UNL     1      -4.188  -1.249   1.825  1.00  0.00    -0.171 SA
HETATM   29  C21 UNL     1      -5.811  -1.576   2.575  1.00  0.00     0.089 C 
ENDBRANCH  27  28
ENDBRANCH  26  27
ENDBRANCH  25  26
ENDBRANCH   9  25
BRANCH   8  30
HETATM   30  O8  UNL     1      -0.876   1.488  -3.382  1.00  0.00    -0.311 OA
BRANCH  30  31
HETATM   31  C16 UNL     1      -1.095   1.236  -4.720  1.00  0.00     0.255 C 
HETATM   32  C17 UNL     1      -0.138   1.442  -5.808  1.00  0.00     0.126 C 
HETATM   33  O9  UNL     1      -2.241   0.788  -4.989  1.00  0.00    -0.266 OA
ENDBRANCH  30  31
ENDBRANCH   8  30
TORSDOF 15
