REMARK  18 active torsions:
REMARK  status: ('A' for Active; 'I' for Inactive)
REMARK    1  A    between atoms: C2_2  and  O2_4 
REMARK    2  A    between atoms: O2_4  and  C3_5 
REMARK    3  A    between atoms: C3_5  and  C4_6 
REMARK    4  A    between atoms: C5_8  and  O4_9 
REMARK    5  A    between atoms: O4_9  and  C6_10 
REMARK    6  A    between atoms: C6_10  and  C7_11 
REMARK    7  A    between atoms: C7_11  and  C8_12 
REMARK    8  A    between atoms: C7_11  and  O7_19 
REMARK    9  A    between atoms: C8_12  and  O5_13 
REMARK   10  A    between atoms: O5_13  and  C9_14 
REMARK   11  A    between atoms: C9_14  and  C11_16 
REMARK   12  A    between atoms: C11_16  and  O6_17 
REMARK   13  A    between atoms: O7_19  and  C12_20 
REMARK   14  A    between atoms: C12_20  and  C13_24 
REMARK   15  A    between atoms: C17_28  and  O8_29 
REMARK   16  A    between atoms: O8_29  and  C18_30 
REMARK   17  A    between atoms: C20_33  and  O10_34 
REMARK   18  A    between atoms: O10_34  and  C21_35 
ROOT
HETATM    1  O4  UNL     1       0.251  -0.941   0.102  1.00  0.00    -0.356 OA
ENDROOT
BRANCH   1   2
HETATM    2  C5  UNL     1       1.475  -0.618  -0.379  1.00  0.00     0.292 C 
HETATM    3  O3  UNL     1       2.507  -1.454   0.046  1.00  0.00    -0.348 OA
HETATM    4  C4  UNL     1       3.614  -0.875  -0.618  1.00  0.00     0.181 C 
HETATM    5  C20 UNL     1       3.423   0.604  -0.597  1.00  0.00     0.197 C 
HETATM    6  C17 UNL     1       2.027   0.721   0.048  1.00  0.00     0.219 C 
BRANCH   4   7
HETATM    7  C3  UNL     1       4.909  -1.303   0.043  1.00  0.00     0.213 C 
BRANCH   7   8
HETATM    8  O2  UNL     1       5.978  -0.713  -0.639  1.00  0.00    -0.319 OA
BRANCH   8   9
HETATM    9  C2  UNL     1       7.309  -0.890  -0.303  1.00  0.00     0.254 C 
HETATM   10  C1  UNL     1       8.337  -0.201  -1.117  1.00  0.00     0.126 C 
HETATM   11  O1  UNL     1       7.590  -1.623   0.673  1.00  0.00    -0.266 OA
ENDBRANCH   8   9
ENDBRANCH   7   8
ENDBRANCH   4   7
BRANCH   5  12
HETATM   12  O10 UNL     1       4.327   1.291   0.215  1.00  0.00    -0.311 OA
BRANCH  12  13
HETATM   13  C21 UNL     1       5.021   2.406  -0.209  1.00  0.00     0.255 C 
HETATM   14  C22 UNL     1       5.990   3.131   0.682  1.00  0.00     0.126 C 
HETATM   15  O11 UNL     1       4.821   2.808  -1.379  1.00  0.00    -0.266 OA
ENDBRANCH  12  13
ENDBRANCH   5  12
BRANCH   6  16
HETATM   16  O8  UNL     1       2.275   0.708   1.438  1.00  0.00    -0.308 OA
BRANCH  16  17
HETATM   17  C18 UNL     1       1.876   1.731   2.254  1.00  0.00     0.255 C 
HETATM   18  C19 UNL     1       2.168   1.650   3.701  1.00  0.00     0.126 C 
HETATM   19  O9  UNL     1       1.274   2.701   1.731  1.00  0.00    -0.266 OA
ENDBRANCH  16  17
ENDBRANCH   6  16
ENDBRANCH   1   2
BRANCH   1  20
HETATM   20  C6  UNL     1      -0.674  -1.312  -0.860  1.00  0.00     0.205 C 
BRANCH  20  21
HETATM   21  C7  UNL     1      -1.975  -1.654  -0.121  1.00  0.00     0.177 C 
BRANCH  21  22
HETATM   22  C8  UNL     1      -2.408  -0.529   0.767  1.00  0.00     0.203 C 
BRANCH  22  23
HETATM   23  O5  UNL     1      -2.745   0.637   0.104  1.00  0.00    -0.382 OA
BRANCH  23  24
HETATM   24  C9  UNL     1      -3.125   1.562   1.089  1.00  0.00     0.141 C 
HETATM   25  C10 UNL     1      -2.315   2.831   1.035  1.00  0.00     0.042 C 
BRANCH  24  26
HETATM   26  C11 UNL     1      -4.592   1.951   0.904  1.00  0.00     0.195 C 
BRANCH  26  27
HETATM   27  O6  UNL     1      -4.790   2.532  -0.357  1.00  0.00    -0.398 OA
ATOM     28  H6  UNL     1      -5.702   2.774  -0.472  1.00  0.00     0.209 HD
ENDBRANCH  26  27
ENDBRANCH  24  26
ENDBRANCH  23  24
ENDBRANCH  22  23
ENDBRANCH  21  22
BRANCH  21  29
HETATM   29  O7  UNL     1      -2.952  -2.057  -1.058  1.00  0.00    -0.329 OA
BRANCH  29  30
HETATM   30  C12 UNL     1      -4.209  -2.429  -0.646  1.00  0.00     0.119 C 
HETATM   31  N1  UNL     1      -4.319  -3.019   0.494  1.00  0.00    -0.383 N 
ATOM     32  H12 UNL     1      -3.473  -3.183   1.040  1.00  0.00     0.158 HD
ATOM     33  H11 UNL     1      -5.252  -3.295   0.800  1.00  0.00     0.158 HD
BRANCH  30  34
HETATM   34  C13 UNL     1      -5.437  -2.191  -1.438  1.00  0.00     0.013 C 
HETATM   35  C14 UNL     1      -5.374  -2.877  -2.789  1.00  0.00     0.023 C 
HETATM   36  C15 UNL     1      -6.604  -2.805  -0.700  1.00  0.00     0.023 C 
HETATM   37  C16 UNL     1      -5.702  -0.741  -1.680  1.00  0.00     0.023 C 
ENDBRANCH  30  34
ENDBRANCH  29  30
ENDBRANCH  21  29
ENDBRANCH  20  21
ENDBRANCH   1  20
TORSDOF 18
