REMARK  4 active torsions:
REMARK  status: ('A' for Active; 'I' for Inactive)
REMARK    1  A    between atoms: O1_2  and  N1_3 
REMARK    2  A    between atoms: N1_3  and  C2_5 
REMARK    3  A    between atoms: N2_6  and  O2_7 
REMARK    4  A    between atoms: C4_11  and  C5_12 
ROOT
HETATM    1  C2  UNL     1       2.078  -0.182   0.321  1.00  0.00     0.734 A 
HETATM    2  N2  UNL     1       1.496   1.039   0.268  1.00  0.00    -0.038 N 
HETATM    3  C3  UNL     1       0.184   1.129   0.062  1.00  0.00     0.164 A 
HETATM    4 CL1  UNL     1      -0.518   2.750   0.001  1.00  0.00    -0.060 Cl
HETATM    5  C4  UNL     1      -0.630  -0.002  -0.106  1.00  0.00     0.083 A 
HETATM    6  C9  UNL     1      -0.013  -1.215  -0.048  1.00  0.00     0.273 A 
HETATM    7  O3  UNL     1      -0.669  -2.293  -0.192  1.00  0.00    -0.267 OA
HETATM    8  N4  UNL     1       1.321  -1.258   0.165  1.00  0.00    -0.147 N 
HETATM    9  C10 UNL     1       1.924  -2.580   0.232  1.00  0.00     0.179 C 
ENDROOT
BRANCH   5  10
HETATM   10  C5  UNL     1      -2.045   0.209  -0.294  1.00  0.00     0.227 C 
HETATM   11  C6  UNL     1      -2.897  -0.879  -0.809  1.00  0.00     0.040 C 
HETATM   12  C7  UNL     1      -4.288  -0.204  -0.652  1.00  0.00     0.030 C 
HETATM   13  C8  UNL     1      -4.080   0.809   0.460  1.00  0.00     0.233 C 
HETATM   14  N3  UNL     1      -2.742   0.541   0.952  1.00  0.00    -0.067 N 
ATOM     15  H32 UNL     1      -2.679  -0.161   1.689  1.00  0.00     0.277 HD
ATOM     16  H31 UNL     1      -2.321   1.288   1.504  1.00  0.00     0.277 HD
ENDBRANCH   5  10
BRANCH   2  17
HETATM   17  O2  UNL     1       2.273   2.185   0.428  1.00  0.00    -0.268 OA
ATOM     18  H2  UNL     1       1.865   3.042   0.391  1.00  0.00     0.246 HD
ENDBRANCH   2  17
BRANCH   1  19
HETATM   19  N1  UNL     1       3.367  -0.247   0.528  1.00  0.00    -0.094 N 
ATOM     20  H1  UNL     1       3.843  -1.148   0.575  1.00  0.00     0.213 HD
BRANCH  19  21
HETATM   21  O1  UNL     1       4.051   0.902   0.678  1.00  0.00    -0.271 OA
HETATM   22  C1  UNL     1       5.294   1.236   0.101  1.00  0.00     0.238 C 
ENDBRANCH  19  21
ENDBRANCH   1  19
TORSDOF 4
