REMARK  4 active torsions:
REMARK  status: ('A' for Active; 'I' for Inactive)
REMARK    1  A    between atoms: O1_2  and  C2_3 
REMARK    2  A    between atoms: C3_5  and  C4_6 
REMARK    3  A    between atoms: C8_14  and  O3_15 
REMARK    4  A    between atoms: C9_17  and  O4_18 
ROOT
HETATM    1  C4  UNL     1      -2.345  -0.823   0.833  1.00  0.00     0.239 C 
HETATM    2 CL1  UNL     1      -3.398  -1.639  -0.368  1.00  0.00    -0.083 Cl
HETATM    3  C5  UNL     1      -2.920   0.432   1.272  1.00  0.00     0.104 C 
HETATM    4  N1  UNL     1      -3.371   1.428   1.638  1.00  0.00    -0.194 NA
HETATM    5  C6  UNL     1      -2.144  -1.733   1.968  1.00  0.00     0.104 C 
HETATM    6  N2  UNL     1      -1.984  -2.466   2.852  1.00  0.00    -0.194 NA
ENDROOT
BRANCH   1   7
HETATM    7  C3  UNL     1      -1.028  -0.582   0.188  1.00  0.00     0.194 C 
HETATM    8  O2  UNL     1      -0.140   0.051   1.047  1.00  0.00    -0.348 OA
HETATM    9  C2  UNL     1       1.120   0.175   0.489  1.00  0.00     0.290 C 
HETATM   10  C9  UNL     1       1.088   0.854  -0.864  1.00  0.00     0.203 C 
HETATM   11  C8  UNL     1      -0.295   1.297  -1.241  1.00  0.00     0.168 C 
HETATM   12  C7  UNL     1      -1.215   0.127  -1.108  1.00  0.00     0.123 C 
HETATM   13  S1  UNL     1      -0.890  -0.992  -2.515  1.00  0.00    -0.087 SA
BRANCH   9  14
HETATM   14  O1  UNL     1       1.799  -1.016   0.391  1.00  0.00    -0.363 OA
HETATM   15  C1  UNL     1       2.989  -1.003   1.154  1.00  0.00     0.204 C 
ENDBRANCH   9  14
BRANCH  10  16
HETATM   16  O4  UNL     1       1.915   1.975  -0.907  1.00  0.00    -0.388 OA
ATOM     17  H4  UNL     1       1.895   2.401  -1.756  1.00  0.00     0.210 HD
ENDBRANCH  10  16
BRANCH  11  18
HETATM   18  O3  UNL     1      -0.631   2.365  -0.417  1.00  0.00    -0.392 OA
ATOM     19  H3  UNL     1      -0.046   3.109  -0.502  1.00  0.00     0.210 HD
ENDBRANCH  11  18
ENDBRANCH   1   7
TORSDOF 4
