REMARK  1 active torsions:
REMARK  status: ('A' for Active; 'I' for Inactive)
REMARK    1  A    between atoms: C1_2  and  N1_3 
ROOT
HETATM    1  N1  UNL     1       0.305  -0.223   0.172  1.00  0.00     0.148 N 
HETATM    2  C2  UNL     1      -0.711   0.711   0.684  1.00  0.00     0.507 C 
HETATM    3  N2  UNL     1      -1.626  -0.437   0.546  1.00  0.00    -0.022 N 
ATOM      4  H21 UNL     1      -2.638  -0.326   0.488  1.00  0.00     0.281 HD
ATOM      5  H22 UNL     1      -1.794  -1.097   1.305  1.00  0.00     0.281 HD
HETATM    6  C3  UNL     1      -0.798  -0.775  -0.628  1.00  0.00     0.507 C 
ENDROOT
BRANCH   1   7
HETATM    7  C1  UNL     1       1.358   0.380  -0.579  1.00  0.00     0.361 C 
HETATM    8 BR1  UNL     1       2.852   0.689   0.595  1.00  0.00    -0.064 Br
ENDBRANCH   1   7
TORSDOF 1
