REMARK  2 active torsions:
REMARK  status: ('A' for Active; 'I' for Inactive)
REMARK    1  A    between atoms: C1_2  and  C2_3 
REMARK    2  A    between atoms: C3_4  and  N1_5 
ROOT
HETATM    1  C2  UNL     1       1.381  -0.371  -0.035  1.00  0.00    -0.005 C 
HETATM    2  C3  UNL     1       0.178  -0.119   0.471  1.00  0.00     0.056 C 
ENDROOT
BRANCH   2   3
HETATM    3  N1  UNL     1      -0.934  -0.022  -0.398  1.00  0.00    -0.291 NA
HETATM    4  C4  UNL     1      -2.259  -0.308   0.052  1.00  0.00     0.109 A 
HETATM    5  C5  UNL     1      -1.844   1.099  -0.240  1.00  0.00     0.109 A 
ENDBRANCH   2   3
BRANCH   1   6
HETATM    6  C1  UNL     1       2.603  -0.491   0.788  1.00  0.00     0.113 C 
HETATM    7 BR1  UNL     1       3.839   0.891   0.171  1.00  0.00    -0.092 Br
ENDBRANCH   1   6
TORSDOF 2
