REMARK  5 active torsions:
REMARK  status: ('A' for Active; 'I' for Inactive)
REMARK    1  A    between atoms: C2_2  and  C5_5 
REMARK    2  A    between atoms: C5_5  and  O2_7 
REMARK    3  A    between atoms: O2_7  and  C6_8 
REMARK    4  A    between atoms: C8_11  and  C9_12 
REMARK       I    between atoms: C9_12  and  N1_14 
REMARK    5  A    between atoms: C19_26  and  C20_27 
ROOT
HETATM    1  C6  UNL     1       1.847  -0.684   0.594  1.00  0.00     0.221 C 
HETATM    2  C7  UNL     1       0.533  -0.070   0.223  1.00  0.00     0.175 C 
HETATM    3  O3  UNL     1       0.326   1.082   0.006  1.00  0.00    -0.294 OA
HETATM    4  C8  UNL     1      -0.418  -1.190   0.188  1.00  0.00     0.105 C 
HETATM    5  C17 UNL     1      -0.542  -1.938   1.497  1.00  0.00     0.029 C 
HETATM    6  C18 UNL     1       0.822  -2.570   1.699  1.00  0.00     0.025 C 
HETATM    7  C19 UNL     1       1.620  -2.146   0.483  1.00  0.00     0.083 C 
HETATM    8  C21 UNL     1       0.486  -2.212  -0.556  1.00  0.00     0.051 C 
ENDROOT
BRANCH   4   9
HETATM    9  C9  UNL     1      -1.668  -0.984  -0.507  1.00  0.00     0.236 C 
HETATM   10  O4  UNL     1      -1.787  -1.645  -1.618  1.00  0.00    -0.272 OA
HETATM   11  N1  UNL     1      -2.757  -0.190  -0.174  1.00  0.00    -0.350 N 
HETATM   12  C10 UNL     1      -2.810   0.597   1.024  1.00  0.00     0.131 C 
HETATM   13  C16 UNL     1      -3.935  -0.119  -1.043  1.00  0.00     0.140 C 
HETATM   14  C11 UNL     1      -3.119   2.028   0.622  1.00  0.00     0.100 C 
HETATM   15  C12 UNL     1      -4.401   2.168  -0.124  1.00  0.00     0.253 C 
HETATM   16  F1  UNL     1      -4.276   3.073  -1.189  1.00  0.00    -0.205 F 
HETATM   17  F2  UNL     1      -5.338   2.733   0.721  1.00  0.00    -0.205 F 
HETATM   18  C13 UNL     1      -4.958   0.863  -0.617  1.00  0.00     0.034 C 
HETATM   19  C14 UNL     1      -5.764   1.214  -1.881  1.00  0.00     0.022 C 
HETATM   20  C15 UNL     1      -5.952   0.351   0.375  1.00  0.00     0.022 C 
ENDBRANCH   4   9
BRANCH   1  21
HETATM   21  O2  UNL     1       2.897  -0.159  -0.174  1.00  0.00    -0.306 OA
BRANCH  21  22
HETATM   22  C5  UNL     1       3.915   0.590   0.422  1.00  0.00     0.267 C 
HETATM   23  O1  UNL     1       3.794   0.735   1.687  1.00  0.00    -0.264 OA
BRANCH  22  24
HETATM   24  C2  UNL     1       5.042   1.181  -0.297  1.00  0.00     0.037 C 
HETATM   25  C1  UNL     1       4.604   2.158  -1.372  1.00  0.00     0.025 C 
HETATM   26  C3  UNL     1       5.843   2.025   0.703  1.00  0.00     0.025 C 
HETATM   27  C4  UNL     1       6.005   0.223  -0.908  1.00  0.00     0.025 C 
ENDBRANCH  22  24
ENDBRANCH  21  22
ENDBRANCH   1  21
BRANCH   7  28
HETATM   28  C20 UNL     1       2.732  -2.995   0.169  1.00  0.00     0.185 C 
HETATM   29  O5  UNL     1       3.871  -2.556   0.002  1.00  0.00    -0.647 OA
HETATM   30  O6  UNL     1       2.533  -4.363   0.045  1.00  0.00    -0.647 OA
ENDBRANCH   7  28
TORSDOF 5
