REMARK  8 active torsions:
REMARK  status: ('A' for Active; 'I' for Inactive)
REMARK    1  A    between atoms: C3_3  and  C4_4 
REMARK       I    between atoms: C4_4  and  N1_6 
REMARK    2  A    between atoms: N1_6  and  C5_8 
REMARK    3  A    between atoms: C6_9  and  O2_10 
REMARK    4  A    between atoms: C8_13  and  C9_14 
REMARK    5  A    between atoms: C15_22  and  C16_23 
REMARK    6  A    between atoms: C16_23  and  C18_25 
REMARK    7  A    between atoms: C26_33  and  C27_34 
REMARK    8  A    between atoms: C28_37  and  C30_39 
ROOT
HETATM    1  C5  UNL     1       3.087  -0.751  -0.748  1.00  0.00     0.134 C 
HETATM    2  C6  UNL     1       2.672  -2.232  -0.550  1.00  0.00     0.143 C 
HETATM    3  C7  UNL     1       1.130  -2.246  -0.470  1.00  0.00     0.056 C 
HETATM    4  C8  UNL     1       0.955  -1.017  -1.309  1.00  0.00     0.075 C 
HETATM    5  C10 UNL     1      -0.427  -0.579  -1.717  1.00  0.00     0.027 C 
HETATM    6  C11 UNL     1      -1.266  -0.215  -0.576  1.00  0.00     0.005 C 
HETATM    7  C12 UNL     1      -1.048   1.305  -0.477  1.00  0.00     0.000 C 
HETATM    8  C13 UNL     1      -1.159   1.857   0.879  1.00  0.00     0.006 C 
HETATM    9  C14 UNL     1      -1.977   0.823   1.678  1.00  0.00     0.006 C 
HETATM   10  C15 UNL     1      -3.066   0.203   0.870  1.00  0.00    -0.003 C 
HETATM   11  C20 UNL     1      -2.581  -0.712  -0.251  1.00  0.00    -0.039 C 
HETATM   12  C21 UNL     1      -2.448  -2.156   0.282  1.00  0.00     0.015 C 
HETATM   13  C22 UNL     1      -3.678  -0.808  -1.236  1.00  0.00     0.015 C 
HETATM   14  C23 UNL     1       0.064   1.581  -1.363  1.00  0.00    -0.025 C 
HETATM   15  C24 UNL     1       0.040   3.048  -1.777  1.00  0.00     0.016 C 
HETATM   16  C25 UNL     1       1.454   1.283  -0.901  1.00  0.00     0.034 C 
HETATM   17  C26 UNL     1       1.751  -0.115  -0.489  1.00  0.00     0.090 C 
HETATM   18  C28 UNL     1      -0.325   0.681  -2.519  1.00  0.00     0.022 C 
HETATM   19  C29 UNL     1       0.647   0.893  -3.600  1.00  0.00     0.024 C 
ENDROOT
BRANCH   1  20
HETATM   20  N1  UNL     1       4.128  -0.470   0.215  1.00  0.00    -0.349 N 
HETATM   21  C4  UNL     1       5.278   0.226  -0.160  1.00  0.00     0.241 C 
HETATM   22  O1  UNL     1       5.434   0.632  -1.375  1.00  0.00    -0.269 OA
ATOM     23  H1  UNL     1       4.021  -0.784   1.180  1.00  0.00     0.163 HD
BRANCH  21  24
HETATM   24  C3  UNL     1       6.368   0.552   0.728  1.00  0.00     0.070 C 
HETATM   25  C2  UNL     1       6.345   0.203   1.987  1.00  0.00    -0.026 C 
HETATM   26  C1  UNL     1       7.474   0.539   2.913  1.00  0.00     0.036 C 
ENDBRANCH  21  24
ENDBRANCH   1  20
BRANCH   2  27
HETATM   27  O2  UNL     1       3.247  -2.777   0.572  1.00  0.00    -0.393 OA
ATOM     28  H2  UNL     1       2.993  -3.684   0.693  1.00  0.00     0.210 HD
ENDBRANCH   2  27
BRANCH  17  29
HETATM   29  C27 UNL     1       1.843  -0.071   0.940  1.00  0.00     0.185 C 
HETATM   30  O5  UNL     1       1.512  -0.655   1.949  1.00  0.00    -0.647 OA
HETATM   31  O6  UNL     1       2.597   1.060   1.438  1.00  0.00    -0.647 OA
ENDBRANCH  17  29
BRANCH   4  32
HETATM   32  C9  UNL     1       1.446  -1.619  -2.549  1.00  0.00     0.183 C 
HETATM   33  O3  UNL     1       2.337  -1.599  -3.344  1.00  0.00    -0.647 OA
HETATM   34  O4  UNL     1       0.532  -2.635  -3.030  1.00  0.00    -0.647 OA
ENDBRANCH   4  32
BRANCH  18  35
HETATM   35  C30 UNL     1      -1.599   1.035  -3.180  1.00  0.00     0.241 C 
HETATM   36  O7  UNL     1      -1.979   0.397  -4.139  1.00  0.00    -0.306 OA
ENDBRANCH  18  35
BRANCH  10  37
HETATM   37  C16 UNL     1      -4.226  -0.282   1.641  1.00  0.00    -0.014 C 
HETATM   38  C17 UNL     1      -3.967  -1.308   2.697  1.00  0.00     0.010 C 
BRANCH  37  39
HETATM   39  C18 UNL     1      -4.953   0.889   2.266  1.00  0.00     0.000 C 
HETATM   40  C19 UNL     1      -6.161   0.421   3.062  1.00  0.00     0.005 C 
ENDBRANCH  37  39
ENDBRANCH  10  37
TORSDOF 8
