REMARK  9 active torsions:
REMARK  status: ('A' for Active; 'I' for Inactive)
REMARK    1  A    between atoms: C2_2  and  C4_4 
REMARK    2  A    between atoms: C4_4  and  N1_5 
REMARK    3  A    between atoms: C4_4  and  C11_15 
REMARK       I    between atoms: N1_5  and  C5_7 
REMARK    4  A    between atoms: C5_7  and  C6_9 
REMARK    5  A    between atoms: C6_9  and  N2_10 
REMARK    6  A    between atoms: C11_15  and  O2_16 
REMARK    7  A    between atoms: C11_15  and  C31_38 
REMARK    8  A    between atoms: O2_16  and  C12_17 
REMARK    9  A    between atoms: C26_31  and  O3_32 
ROOT
HETATM    1  C12 UNL     1       0.529  -0.646  -1.930  1.00  0.00     0.123 C 
HETATM    2  C13 UNL     1      -0.071  -0.896  -3.264  1.00  0.00     0.033 C 
HETATM    3  C14 UNL     1      -1.513  -0.562  -3.434  1.00  0.00     0.012 C 
HETATM    4  C15 UNL     1      -2.403  -1.067  -2.309  1.00  0.00    -0.040 C 
HETATM    5  C16 UNL     1      -2.537  -2.578  -2.560  1.00  0.00     0.015 C 
HETATM    6  C17 UNL     1      -3.756  -0.485  -2.526  1.00  0.00     0.010 C 
HETATM    7  C18 UNL     1      -4.241   0.467  -1.481  1.00  0.00     0.006 C 
HETATM    8  C19 UNL     1      -4.094  -0.292  -0.162  1.00  0.00    -0.002 C 
HETATM    9  C20 UNL     1      -2.619  -0.313   0.115  1.00  0.00    -0.005 C 
HETATM   10  C21 UNL     1      -2.322   1.107   0.528  1.00  0.00     0.006 C 
HETATM   11  C22 UNL     1      -3.618   1.623   1.149  1.00  0.00     0.010 C 
HETATM   12  C23 UNL     1      -4.658   0.575   0.927  1.00  0.00    -0.036 C 
HETATM   13  C24 UNL     1      -5.950   1.274   0.500  1.00  0.00     0.012 C 
HETATM   14  C25 UNL     1      -6.651   1.657   1.808  1.00  0.00     0.032 C 
HETATM   15  C26 UNL     1      -7.258   0.435   2.459  1.00  0.00     0.118 C 
HETATM   16  C27 UNL     1      -6.347  -0.738   2.165  1.00  0.00     0.032 C 
HETATM   17  C28 UNL     1      -4.910  -0.265   2.163  1.00  0.00     0.012 C 
HETATM   18  C29 UNL     1      -1.780  -0.842  -0.969  1.00  0.00     0.001 C 
HETATM   19  C30 UNL     1      -0.542   0.036  -1.073  1.00  0.00     0.037 C 
ENDROOT
BRANCH   1  20
HETATM   20  O2  UNL     1       1.561   0.239  -2.030  1.00  0.00    -0.368 OA
BRANCH  20  21
HETATM   21  C11 UNL     1       2.788  -0.231  -1.474  1.00  0.00     0.245 C 
BRANCH  21  22
HETATM   22  C4  UNL     1       3.126   0.572  -0.289  1.00  0.00     0.127 C 
BRANCH  22  23
HETATM   23  C2  UNL     1       3.116   2.060  -0.462  1.00  0.00     0.003 C 
HETATM   24  C1  UNL     1       4.291   2.600  -1.241  1.00  0.00     0.011 C 
HETATM   25  C3  UNL     1       3.182   2.723   0.910  1.00  0.00     0.011 C 
ENDBRANCH  22  23
BRANCH  22  26
HETATM   26  N1  UNL     1       4.333   0.220   0.430  1.00  0.00    -0.352 N 
HETATM   27  C5  UNL     1       4.348  -0.249   1.745  1.00  0.00     0.246 C 
HETATM   28  O1  UNL     1       3.258  -0.388   2.356  1.00  0.00    -0.272 OA
ATOM     29  H1  UNL     1       5.226   0.321  -0.053  1.00  0.00     0.163 HD
BRANCH  27  30
HETATM   30  C6  UNL     1       5.576  -0.586   2.454  1.00  0.00     0.375 C 
BRANCH  30  31
HETATM   31  N2  UNL     1       6.802  -0.427   1.727  1.00  0.00     0.103 N 
HETATM   32  C7  UNL     1       7.963  -0.666   2.577  1.00  0.00     0.300 C 
HETATM   33  C8  UNL     1       8.211  -2.130   2.549  1.00  0.00     0.001 C 
HETATM   34  C9  UNL     1       7.640  -2.604   1.471  1.00  0.00     0.001 C 
HETATM   35  C10 UNL     1       6.996  -1.489   0.746  1.00  0.00     0.300 C 
ENDBRANCH  30  31
ENDBRANCH  27  30
ENDBRANCH  22  26
ENDBRANCH  21  22
BRANCH  21  36
HETATM   36  C31 UNL     1       3.789  -0.411  -2.525  1.00  0.00     0.205 C 
HETATM   37  O4  UNL     1       3.610  -0.174  -3.748  1.00  0.00    -0.646 OA
HETATM   38  O5  UNL     1       5.048  -0.878  -2.200  1.00  0.00    -0.646 OA
ENDBRANCH  21  36
ENDBRANCH  20  21
ENDBRANCH   1  20
BRANCH  15  39
HETATM   39  O3  UNL     1      -8.521   0.162   1.946  1.00  0.00    -0.396 OA
ATOM     40  H3  UNL     1      -8.902  -0.606   2.355  1.00  0.00     0.210 HD
ENDBRANCH  15  39
TORSDOF 9
