REMARK  11 active torsions:
REMARK  status: ('A' for Active; 'I' for Inactive)
REMARK    1  A    between atoms: C2_2  and  C4_4 
REMARK    2  A    between atoms: C4_4  and  C5_5 
REMARK    3  A    between atoms: C5_5  and  N1_6 
REMARK    4  A    between atoms: N1_6  and  C6_7 
REMARK    5  A    between atoms: N1_6  and  C10_15 
REMARK    6  A    between atoms: C6_7  and  O1_8 
REMARK    7  A    between atoms: C6_7  and  C7_10 
REMARK    8  A    between atoms: C7_10  and  C8_11 
REMARK    9  A    between atoms: C8_11  and  C9_12 
REMARK   10  A    between atoms: C24_30  and  O5_32 
REMARK   11  A    between atoms: C30_38  and  O6_39 
ROOT
HETATM    1  C10 UNL     1      -2.271  -0.878  -0.080  1.00  0.00     0.033 C 
HETATM    2  C11 UNL     1      -2.721  -1.778  -1.227  1.00  0.00     0.039 C 
HETATM    3  C12 UNL     1      -1.496  -1.678   0.973  1.00  0.00     0.032 C 
HETATM    4  C13 UNL     1      -0.273  -0.811   1.330  1.00  0.00     0.015 C 
HETATM    5  C14 UNL     1       0.713  -0.890   0.202  1.00  0.00    -0.002 C 
HETATM    6  C15 UNL     1       0.853  -2.402  -0.076  1.00  0.00     0.019 C 
HETATM    7  C16 UNL     1       2.074  -0.393   0.499  1.00  0.00     0.071 C 
HETATM    8  C17 UNL     1       2.220   0.711   1.443  1.00  0.00     0.133 C 
HETATM    9  O4  UNL     1       1.339   1.274   2.046  1.00  0.00    -0.298 OA
HETATM   10  C18 UNL     1       3.583   1.224   1.719  1.00  0.00     0.088 C 
HETATM   11  C19 UNL     1       4.418   1.381   0.486  1.00  0.00    -0.031 C 
HETATM   12  C20 UNL     1       4.107   2.779  -0.072  1.00  0.00     0.016 C 
HETATM   13  C21 UNL     1       5.868   1.469   0.939  1.00  0.00     0.010 C 
HETATM   14  C22 UNL     1       6.329   0.215   1.616  1.00  0.00     0.004 C 
HETATM   15  C23 UNL     1       5.741  -1.010   1.016  1.00  0.00     0.038 C 
HETATM   16  C24 UNL     1       5.248  -0.826  -0.397  1.00  0.00     0.059 C 
HETATM   17  C25 UNL     1       6.479  -0.623  -1.277  1.00  0.00     0.046 C 
HETATM   18  C26 UNL     1       4.269   0.317  -0.534  1.00  0.00     0.033 C 
HETATM   19  C27 UNL     1       2.852  -0.145  -0.771  1.00  0.00     0.005 C 
HETATM   20  C28 UNL     1       2.133   0.691  -1.789  1.00  0.00     0.009 C 
HETATM   21  C29 UNL     1       0.740   1.044  -1.399  1.00  0.00     0.039 C 
HETATM   22  C30 UNL     1       0.021  -0.246  -0.977  1.00  0.00     0.068 C 
HETATM   23  C31 UNL     1      -1.394   0.178  -0.695  1.00  0.00     0.069 C 
ENDROOT
BRANCH   1  24
HETATM   24  N1  UNL     1      -3.448  -0.353   0.547  1.00  0.00    -0.356 N 
BRANCH  24  25
HETATM   25  C5  UNL     1      -3.742   1.087   0.579  1.00  0.00     0.126 C 
BRANCH  25  26
HETATM   26  C4  UNL     1      -4.519   1.547  -0.619  1.00  0.00     0.024 C 
BRANCH  26  27
HETATM   27  C2  UNL     1      -4.819   3.019  -0.586  1.00  0.00    -0.021 C 
HETATM   28  C1  UNL     1      -3.584   3.866  -0.547  1.00  0.00     0.009 C 
HETATM   29  C3  UNL     1      -5.725   3.399   0.563  1.00  0.00     0.009 C 
ENDBRANCH  26  27
ENDBRANCH  25  26
ENDBRANCH  24  25
BRANCH  24  30
HETATM   30  C6  UNL     1      -4.410  -1.203   1.149  1.00  0.00     0.114 C 
BRANCH  30  31
HETATM   31  O1  UNL     1      -5.445  -0.555   1.612  1.00  0.00    -0.349 OA
ATOM     32  H1  UNL     1      -6.090  -1.125   2.015  1.00  0.00     0.219 HD
ENDBRANCH  30  31
BRANCH  30  33
HETATM   33  C7  UNL     1      -4.406  -2.642   1.326  1.00  0.00     0.094 C 
BRANCH  33  34
HETATM   34  C8  UNL     1      -5.841  -3.171   1.375  1.00  0.00     0.121 C 
BRANCH  34  35
HETATM   35  C9  UNL     1      -6.489  -2.885   0.082  1.00  0.00     0.172 C 
HETATM   36  O2  UNL     1      -7.205  -1.887  -0.063  1.00  0.00    -0.648 OA
HETATM   37  O3  UNL     1      -6.331  -3.714  -1.032  1.00  0.00    -0.648 OA
ENDBRANCH  34  35
ENDBRANCH  33  34
ENDBRANCH  30  33
ENDBRANCH  24  30
ENDBRANCH   1  24
BRANCH  22  38
HETATM   38  O6  UNL     1       0.016  -1.040  -2.107  1.00  0.00    -0.389 OA
ATOM     39  H6  UNL     1      -0.419  -0.635  -2.848  1.00  0.00     0.210 HD
ENDBRANCH  22  38
BRANCH  16  40
HETATM   40  O5  UNL     1       4.718  -2.058  -0.785  1.00  0.00    -0.390 OA
ATOM     41  H5  UNL     1       4.407  -1.942  -1.675  1.00  0.00     0.210 HD
ENDBRANCH  16  40
TORSDOF 11
