REMARK  7 active torsions:
REMARK  status: ('A' for Active; 'I' for Inactive)
REMARK    1  A    between atoms: C2_2  and  C3_3 
REMARK    2  A    between atoms: C3_3  and  N1_4 
REMARK    3  A    between atoms: N1_4  and  C4_7 
REMARK    4  A    between atoms: C4_7  and  C5_8 
REMARK    5  A    between atoms: C5_8  and  C6_9 
REMARK    6  A    between atoms: C6_9  and  C7_10 
REMARK    7  A    between atoms: C7_10  and  C8_11 
ROOT
HETATM    1  C5  UNL     1       0.659  -2.378   0.291  1.00  0.00     0.027 C 
ENDROOT
BRANCH   1   2
HETATM    2  C4  UNL     1       1.967  -1.659   0.437  1.00  0.00     0.232 C 
BRANCH   2   3
HETATM    3  N1  UNL     1       2.353  -0.967  -0.772  1.00  0.00    -0.072 N 
ATOM      4  H12 UNL     1       1.616  -0.333  -1.082  1.00  0.00     0.277 HD
ATOM      5  H11 UNL     1       2.369  -1.604  -1.569  1.00  0.00     0.277 HD
BRANCH   3   6
HETATM    6  C3  UNL     1       3.604  -0.276  -0.640  1.00  0.00     0.259 C 
BRANCH   6   7
HETATM    7  C2  UNL     1       3.537   0.874   0.287  1.00  0.00    -0.010 C 
HETATM    8  C1  UNL     1       3.815   2.081  -0.160  1.00  0.00     0.008 C 
ENDBRANCH   6   7
ENDBRANCH   3   6
ENDBRANCH   2   3
ENDBRANCH   1   2
BRANCH   1   9
HETATM    9  C6  UNL     1      -0.491  -1.458  -0.052  1.00  0.00     0.002 C 
BRANCH   9  10
HETATM   10  C7  UNL     1      -0.693  -0.413   1.017  1.00  0.00     0.005 C 
BRANCH  10  11
HETATM   11  C8  UNL     1      -1.833   0.514   0.706  1.00  0.00    -0.014 C 
HETATM   12  C9  UNL     1      -1.652   1.271  -0.576  1.00  0.00     0.004 C 
HETATM   13  C10 UNL     1      -3.025   1.881  -0.770  1.00  0.00     0.000 C 
HETATM   14  C11 UNL     1      -4.000   1.006  -0.010  1.00  0.00     0.000 C 
HETATM   15  C12 UNL     1      -3.147  -0.164   0.504  1.00  0.00     0.004 C 
ENDBRANCH  10  11
ENDBRANCH   9  10
ENDBRANCH   1   9
TORSDOF 7
