REMARK  8 active torsions:
REMARK  status: ('A' for Active; 'I' for Inactive)
REMARK    1  A    between atoms: C2_2  and  C3_3 
REMARK    2  A    between atoms: C3_3  and  C4_4 
REMARK    3  A    between atoms: C4_4  and  C5_5 
REMARK    4  A    between atoms: C5_5  and  C6_6 
REMARK    5  A    between atoms: C6_6  and  C7_7 
REMARK    6  A    between atoms: C7_7  and  C8_8 
REMARK    7  A    between atoms: C8_8  and  N1_9 
REMARK    8  A    between atoms: C8_8  and  C9_13 
ROOT
HETATM    1  C8  UNL     1       1.944  -0.043  -1.207  1.00  0.00     0.187 C 
ENDROOT
BRANCH   1   2
HETATM    2  C7  UNL     1       0.528  -0.278  -0.671  1.00  0.00     0.033 C 
BRANCH   2   3
HETATM    3  C6  UNL     1       0.069   1.035  -0.103  1.00  0.00     0.002 C 
BRANCH   3   4
HETATM    4  C5  UNL     1      -1.328   0.963   0.472  1.00  0.00     0.000 C 
BRANCH   4   5
HETATM    5  C4  UNL     1      -2.355   0.575  -0.530  1.00  0.00     0.004 C 
BRANCH   5   6
HETATM    6  C3  UNL     1      -3.730   0.483  -0.001  1.00  0.00     0.026 C 
BRANCH   6   7
HETATM    7  C2  UNL     1      -4.007  -0.519   1.024  1.00  0.00    -0.037 C 
HETATM    8  C1  UNL     1      -3.236  -1.464   1.490  1.00  0.00     0.007 C 
ENDBRANCH   6   7
ENDBRANCH   5   6
ENDBRANCH   4   5
ENDBRANCH   3   4
ENDBRANCH   2   3
ENDBRANCH   1   2
BRANCH   1   9
HETATM    9  N1  UNL     1       2.513  -1.217  -1.783  1.00  0.00    -0.075 N 
ATOM     10  H13 UNL     1       2.495  -1.995  -1.123  1.00  0.00     0.274 HD
ATOM     11  H12 UNL     1       1.906  -1.601  -2.507  1.00  0.00     0.274 HD
ATOM     12  H11 UNL     1       3.456  -1.061  -2.140  1.00  0.00     0.274 HD
ENDBRANCH   1   9
BRANCH   1  13
HETATM   13  C9  UNL     1       2.806   0.556  -0.146  1.00  0.00     0.016 A 
HETATM   14  C10 UNL     1       3.068  -0.132   1.145  1.00  0.00     0.007 A 
HETATM   15  C11 UNL     1       4.178  -0.034   0.118  1.00  0.00     0.007 A 
ENDBRANCH   1  13
TORSDOF 8
