REMARK  8 active torsions:
REMARK  status: ('A' for Active; 'I' for Inactive)
REMARK    1  A    between atoms: C2_2  and  C3_3 
REMARK    2  A    between atoms: C3_3  and  C4_4 
REMARK    3  A    between atoms: C4_4  and  N1_5 
REMARK    4  A    between atoms: N1_5  and  C5_8 
REMARK    5  A    between atoms: C5_8  and  C6_9 
REMARK    6  A    between atoms: C6_9  and  C7_10 
REMARK    7  A    between atoms: C7_10  and  C8_11 
REMARK    8  A    between atoms: C8_11  and  C9_12 
ROOT
HETATM    1  C5  UNL     1       0.714  -0.565   0.584  1.00  0.00     0.233 C 
ENDROOT
BRANCH   1   2
HETATM    2  N1  UNL     1       2.075  -0.056   0.689  1.00  0.00    -0.075 N 
ATOM      3  H12 UNL     1       2.651  -0.653   1.283  1.00  0.00     0.277 HD
ATOM      4  H11 UNL     1       2.111   0.801   1.242  1.00  0.00     0.277 HD
BRANCH   2   5
HETATM    5  C4  UNL     1       2.675   0.130  -0.609  1.00  0.00     0.236 C 
BRANCH   5   6
HETATM    6  C3  UNL     1       4.108   0.642  -0.477  1.00  0.00     0.054 C 
BRANCH   6   7
HETATM    7  C2  UNL     1       4.959  -0.299   0.270  1.00  0.00    -0.035 C 
HETATM    8  C1  UNL     1       5.554   0.068   1.391  1.00  0.00     0.007 C 
ENDBRANCH   6   7
ENDBRANCH   5   6
ENDBRANCH   2   5
ENDBRANCH   1   2
BRANCH   1   9
HETATM    9  C6  UNL     1      -0.212   0.431  -0.007  1.00  0.00     0.037 C 
BRANCH   9  10
HETATM   10  C7  UNL     1      -1.666  -0.078  -0.146  1.00  0.00    -0.039 A 
HETATM   11  C11 UNL     1      -2.022  -1.142   0.762  1.00  0.00     0.010 A 
HETATM   12  C12 UNL     1      -1.780  -1.454  -0.708  1.00  0.00     0.010 A 
BRANCH  10  13
HETATM   13  C8  UNL     1      -2.562   0.944  -0.727  1.00  0.00     0.009 C 
BRANCH  13  14
HETATM   14  C9  UNL     1      -3.985   0.668  -0.941  1.00  0.00    -0.004 C 
HETATM   15  C10 UNL     1      -4.800   0.404   0.296  1.00  0.00     0.005 C 
ENDBRANCH  13  14
ENDBRANCH  10  13
ENDBRANCH   9  10
ENDBRANCH   1   9
TORSDOF 8
