REMARK  6 active torsions:
REMARK  status: ('A' for Active; 'I' for Inactive)
REMARK    1  A    between atoms: C2_2  and  C3_3 
REMARK    2  A    between atoms: C3_3  and  N1_4 
REMARK    3  A    between atoms: N1_4  and  C4_7 
REMARK    4  A    between atoms: C4_7  and  C5_8 
REMARK    5  A    between atoms: C5_8  and  C6_9 
REMARK    6  A    between atoms: C6_9  and  C7_10 
ROOT
HETATM    1  C4  UNL     1       0.738  -1.252   0.591  1.00  0.00     0.232 C 
ENDROOT
BRANCH   1   2
HETATM    2  N1  UNL     1       1.709  -0.640  -0.245  1.00  0.00    -0.072 N 
ATOM      3  H12 UNL     1       1.256  -0.043  -0.937  1.00  0.00     0.277 HD
ATOM      4  H11 UNL     1       2.134  -1.332  -0.862  1.00  0.00     0.277 HD
BRANCH   2   5
HETATM    5  C3  UNL     1       2.725   0.093   0.460  1.00  0.00     0.259 C 
BRANCH   5   6
HETATM    6  C2  UNL     1       3.734   0.681  -0.445  1.00  0.00    -0.010 C 
HETATM    7  C1  UNL     1       5.015   0.362  -0.354  1.00  0.00     0.008 C 
ENDBRANCH   5   6
ENDBRANCH   2   5
ENDBRANCH   1   2
BRANCH   1   8
HETATM    8  C5  UNL     1      -0.184  -0.309   1.317  1.00  0.00     0.028 C 
BRANCH   8   9
HETATM    9  C6  UNL     1      -1.007   0.561   0.429  1.00  0.00     0.006 C 
BRANCH   9  10
HETATM   10  C7  UNL     1      -1.904  -0.219  -0.500  1.00  0.00    -0.014 C 
HETATM   11  C8  UNL     1      -2.701   0.780  -1.351  1.00  0.00     0.005 C 
HETATM   12  C9  UNL     1      -3.788   0.668  -0.271  1.00  0.00     0.001 C 
HETATM   13  C10 UNL     1      -3.204  -0.694   0.045  1.00  0.00     0.005 C 
ENDBRANCH   9  10
ENDBRANCH   8   9
ENDBRANCH   1   8
TORSDOF 6
