REMARK  5 active torsions:
REMARK  status: ('A' for Active; 'I' for Inactive)
REMARK    1  A    between atoms: C2_2  and  C3_3 
REMARK    2  A    between atoms: C3_3  and  C4_4 
REMARK    3  A    between atoms: C4_4  and  C5_5 
REMARK    4  A    between atoms: C5_5  and  N1_6 
REMARK    5  A    between atoms: N1_6  and  C6_8 
ROOT
HETATM    1  N1  UNL     1      -1.213   0.657   0.451  1.00  0.00    -0.390 N 
ATOM      2  H1  UNL     1      -1.111   1.431   1.107  1.00  0.00     0.159 HD
ENDROOT
BRANCH   1   3
HETATM    3  C5  UNL     1      -0.070   0.176  -0.279  1.00  0.00     0.120 C 
BRANCH   3   4
HETATM    4  C4  UNL     1       1.137   1.093  -0.045  1.00  0.00     0.023 C 
BRANCH   4   5
HETATM    5  C3  UNL     1       2.275   0.544  -0.846  1.00  0.00     0.028 C 
BRANCH   5   6
HETATM    6  C2  UNL     1       2.695  -0.824  -0.478  1.00  0.00    -0.037 C 
HETATM    7  C1  UNL     1       3.947  -1.021  -0.087  1.00  0.00     0.007 C 
ENDBRANCH   5   6
ENDBRANCH   4   5
ENDBRANCH   3   4
ENDBRANCH   1   3
BRANCH   1   8
HETATM    8  C6  UNL     1      -2.484   0.051   0.256  1.00  0.00     0.027 A 
HETATM    9  C7  UNL     1      -3.020  -1.137   0.047  1.00  0.00     0.029 A 
HETATM   10  C8  UNL     1      -4.363  -0.597  -0.000  1.00  0.00     0.004 A 
HETATM   11  C9  UNL     1      -3.863   0.600   0.207  1.00  0.00     0.029 A 
ENDBRANCH   1   8
TORSDOF 5
