REMARK  4 active torsions:
REMARK  status: ('A' for Active; 'I' for Inactive)
REMARK    1  A    between atoms: C2_2  and  N1_3 
REMARK    2  A    between atoms: N1_3  and  C3_5 
REMARK    3  A    between atoms: C3_5  and  C4_9 
REMARK    4  A    between atoms: C7_13  and  C8_14 
ROOT
HETATM    1  C3  UNL     1       0.736  -0.926   1.000  1.00  0.00     0.108 C 
HETATM    2  N2  UNL     1       1.721  -1.707   1.416  1.00  0.00    -0.385 N 
ATOM      3  H21 UNL     1       1.445  -2.688   1.463  1.00  0.00     0.157 HD
ATOM      4  H22 UNL     1       2.592  -1.227   1.643  1.00  0.00     0.157 HD
ENDROOT
BRANCH   1   5
HETATM    5  N1  UNL     1       1.114   0.417   0.935  1.00  0.00    -0.367 N 
ATOM      6  H1  UNL     1       0.622   1.080   1.534  1.00  0.00     0.162 HD
BRANCH   5   7
HETATM    7  C2  UNL     1       2.174   0.938   0.060  1.00  0.00     0.028 A 
HETATM    8  C1  UNL     1       2.328   2.468   0.138  1.00  0.00     0.038 C 
HETATM    9  C11 UNL     1       2.413   0.317  -1.251  1.00  0.00     0.033 A 
HETATM   10  C12 UNL     1       3.451   0.231  -0.135  1.00  0.00     0.033 A 
ENDBRANCH   5   7
ENDBRANCH   1   5
BRANCH   1  11
HETATM   11  C4  UNL     1      -0.491  -1.602   0.680  1.00  0.00     0.040 A 
HETATM   12  C5  UNL     1      -0.653  -3.002   0.682  1.00  0.00     0.157 A 
HETATM   13  O1  UNL     1      -1.865  -3.247   0.308  1.00  0.00    -0.333 OA
HETATM   14  C6  UNL     1      -2.517  -2.159   0.060  1.00  0.00     0.151 A 
HETATM   15  C7  UNL     1      -1.682  -1.042   0.284  1.00  0.00     0.003 A 
BRANCH  15  16
HETATM   16  C8  UNL     1      -2.144   0.344   0.125  1.00  0.00     0.059 C 
HETATM   17  C9  UNL     1      -3.625   0.267  -0.380  1.00  0.00     0.037 C 
HETATM   18  C10 UNL     1      -1.449   1.189  -0.859  1.00  0.00     0.037 C 
HETATM   19 CL1  UNL     1      -2.327   1.211   1.681  1.00  0.00    -0.115 Cl
ENDBRANCH  15  16
ENDBRANCH   1  11
TORSDOF 4
