REMARK  15 active torsions:
REMARK  status: ('A' for Active; 'I' for Inactive)
REMARK       I    between atoms: C2_2  and  N1_4 
REMARK    1  A    between atoms: N1_4  and  C3_6 
REMARK    2  A    between atoms: C3_6  and  C4_7 
REMARK    3  A    between atoms: C4_7  and  C5_8 
REMARK    4  A    between atoms: C5_8  and  N2_9 
REMARK       I    between atoms: N2_9  and  C6_11 
REMARK       I    between atoms: C6_11  and  N5_16 
REMARK    5  A    between atoms: N5_16  and  C9_18 
REMARK    6  A    between atoms: C9_18  and  C10_19 
REMARK    7  A    between atoms: C11_20  and  C12_21 
REMARK    8  A    between atoms: C12_21  and  C13_22 
REMARK    9  A    between atoms: C13_22  and  C14_23 
REMARK   10  A    between atoms: C14_23  and  O2_24 
REMARK   11  A    between atoms: C14_23  and  C15_26 
REMARK   12  A    between atoms: C17_28  and  C18_29 
REMARK   13  A    between atoms: C18_29  and  O3_30 
REMARK   14  A    between atoms: C18_29  and  O4_32 
REMARK   15  A    between atoms: O4_32  and  C19_33 
ROOT
HETATM    1  N2  UNL     1       6.352  -0.131  -1.499  1.00  0.00    -0.226 N 
ATOM      2  H2  UNL     1       6.277   0.624  -2.181  1.00  0.00     0.177 HD
HETATM    3  C6  UNL     1       5.418  -1.128  -1.707  1.00  0.00     0.685 C 
HETATM    4  N3  UNL     1       5.581  -2.394  -1.460  1.00  0.00    -0.126 N 
ATOM      5  H3  UNL     1       4.769  -2.963  -1.699  1.00  0.00     0.197 HD
HETATM    6  C7  UNL     1       6.601  -3.102  -0.954  1.00  0.00     0.196 C 
HETATM    7  N4  UNL     1       7.458  -3.695  -0.492  1.00  0.00    -0.171 NA
HETATM    8  N5  UNL     1       4.134  -0.728  -2.139  1.00  0.00    -0.218 N 
HETATM    9  C8  UNL     1       4.154   0.330  -3.205  1.00  0.00     0.169 C 
ENDROOT
BRANCH   1  10
HETATM   10  C5  UNL     1       7.375   0.084  -0.573  1.00  0.00     0.139 C 
BRANCH  10  11
HETATM   11  C4  UNL     1       6.728   0.245   0.831  1.00  0.00     0.040 C 
BRANCH  11  12
HETATM   12  C3  UNL     1       7.666   0.687   1.852  1.00  0.00     0.124 C 
BRANCH  12  13
HETATM   13  N1  UNL     1       8.797  -0.165   2.068  1.00  0.00    -0.361 N 
HETATM   14  C2  UNL     1       8.665  -1.481   2.557  1.00  0.00     0.213 C 
HETATM   15  C1  UNL     1       9.771  -2.436   2.791  1.00  0.00     0.117 C 
HETATM   16  O1  UNL     1       7.479  -1.922   2.828  1.00  0.00    -0.274 OA
ATOM     17  H1  UNL     1       9.730   0.192   1.861  1.00  0.00     0.162 HD
ENDBRANCH  12  13
ENDBRANCH  11  12
ENDBRANCH  10  11
ENDBRANCH   1  10
BRANCH   8  18
HETATM   18  C9  UNL     1       2.878  -1.199  -1.704  1.00  0.00     0.167 C 
BRANCH  18  19
HETATM   19  C10 UNL     1       2.437  -0.985  -0.310  1.00  0.00    -0.010 C 
HETATM   20  C11 UNL     1       1.408  -0.085  -0.151  1.00  0.00    -0.018 C 
BRANCH  20  21
HETATM   21  C12 UNL     1       0.832   0.262   0.983  1.00  0.00     0.109 C 
BRANCH  21  22
HETATM   22  C13 UNL     1      -0.204   1.336   0.538  1.00  0.00    -0.148 C 
BRANCH  22  23
HETATM   23  C14 UNL     1      -1.019   2.188   0.163  1.00  0.00     0.189 C 
BRANCH  23  24
HETATM   24  O2  UNL     1      -1.851   2.723   1.026  1.00  0.00    -0.384 OA
ATOM     25  H2  UNL     1      -2.477   3.377   0.738  1.00  0.00     0.211 HD
ENDBRANCH  23  24
BRANCH  23  26
HETATM   26  C15 UNL     1      -1.192   2.729  -1.195  1.00  0.00     0.035 A 
HETATM   27  C16 UNL     1      -1.754   4.100  -1.386  1.00  0.00     0.018 A 
HETATM   28  C17 UNL     1      -2.602   2.914  -1.736  1.00  0.00     0.049 A 
BRANCH  28  29
HETATM   29  C18 UNL     1      -3.696   2.489  -0.892  1.00  0.00     0.261 C 
BRANCH  29  30
HETATM   30  O3  UNL     1      -4.196   3.254   0.064  1.00  0.00    -0.371 OA
ATOM     31  H3  UNL     1      -4.915   2.975   0.619  1.00  0.00     0.212 HD
ENDBRANCH  29  30
BRANCH  29  32
HETATM   32  O4  UNL     1      -4.327   1.256  -0.972  1.00  0.00    -0.356 OA
BRANCH  32  33
HETATM   33  C19 UNL     1      -5.390   0.870  -0.147  1.00  0.00     0.129 C 
HETATM   34  C20 UNL     1      -5.058  -0.296   0.715  1.00  0.00     0.062 C 
HETATM   35  C21 UNL     1      -6.248  -0.618   1.566  1.00  0.00     0.021 C 
HETATM   36  C22 UNL     1      -5.960  -1.684   2.586  1.00  0.00     0.037 C 
HETATM   37  C23 UNL     1      -6.475   0.672   2.394  1.00  0.00     0.037 C 
HETATM   38  N6  UNL     1      -7.444  -0.890   0.833  1.00  0.00    -0.405 N 
HETATM   39  C24 UNL     1      -7.404  -0.622  -0.538  1.00  0.00     0.021 C 
ATOM     40  H6  UNL     1      -8.280  -1.259   1.285  1.00  0.00     0.154 HD
HETATM   41  C25 UNL     1      -8.822  -0.386  -1.044  1.00  0.00     0.037 C 
HETATM   42  C26 UNL     1      -6.901  -1.878  -1.293  1.00  0.00     0.037 C 
HETATM   43  C27 UNL     1      -6.632   0.597  -0.952  1.00  0.00     0.062 C 
ENDBRANCH  32  33
ENDBRANCH  29  32
ENDBRANCH  28  29
ENDBRANCH  23  26
ENDBRANCH  22  23
ENDBRANCH  21  22
ENDBRANCH  20  21
ENDBRANCH  18  19
ENDBRANCH   8  18
TORSDOF 15
