REMARK  13 active torsions:
REMARK  status: ('A' for Active; 'I' for Inactive)
REMARK    1  A    between atoms: C2_2  and  C3_3 
REMARK    2  A    between atoms: C3_3  and  C4_4 
REMARK    3  A    between atoms: C4_4  and  N1_5 
REMARK       I    between atoms: N1_5  and  C5_7 
REMARK    4  A    between atoms: C5_7  and  C6_9 
REMARK    5  A    between atoms: C6_9  and  N2_10 
REMARK    6  A    between atoms: C6_9  and  C21_34 
REMARK       I    between atoms: N2_10  and  C7_12 
REMARK    7  A    between atoms: C7_12  and  C8_14 
REMARK    8  A    between atoms: C8_14  and  N3_15 
REMARK    9  A    between atoms: C8_14  and  C18_31 
REMARK       I    between atoms: N3_15  and  C9_17 
REMARK   10  A    between atoms: C9_17  and  C10_19 
REMARK       I    between atoms: N4_23  and  C13_24 
REMARK   11  A    between atoms: C13_24  and  O5_26 
REMARK   12  A    between atoms: O5_26  and  C14_27 
REMARK   13  A    between atoms: C21_34  and  C23_36 
ROOT
HETATM    1  C8  UNL     1      -0.352  -1.206  -2.323  1.00  0.00     0.180 C 
ENDROOT
BRANCH   1   2
HETATM    2  C7  UNL     1      -0.801  -0.786  -1.011  1.00  0.00     0.241 C 
HETATM    3  N2  UNL     1      -2.086  -0.465  -0.559  1.00  0.00    -0.346 N 
ATOM      4  H2  UNL     1      -2.862  -0.509  -1.219  1.00  0.00     0.163 HD
HETATM    5  O2  UNL     1       0.116  -0.688  -0.109  1.00  0.00    -0.271 OA
BRANCH   3   6
HETATM    6  C6  UNL     1      -2.367  -0.060   0.852  1.00  0.00     0.180 C 
BRANCH   6   7
HETATM    7  C5  UNL     1      -2.677   1.369   0.902  1.00  0.00     0.240 C 
HETATM    8  N1  UNL     1      -2.243   2.281   1.899  1.00  0.00    -0.359 N 
ATOM      9  H1  UNL     1      -1.664   1.903   2.649  1.00  0.00     0.162 HD
HETATM   10  O1  UNL     1      -3.393   1.878  -0.018  1.00  0.00    -0.271 OA
BRANCH   8  11
HETATM   11  C4  UNL     1      -2.539   3.676   1.953  1.00  0.00     0.122 C 
BRANCH  11  12
HETATM   12  C3  UNL     1      -3.991   4.017   2.052  1.00  0.00     0.019 C 
BRANCH  12  13
HETATM   13  C2  UNL     1      -4.176   5.515   2.113  1.00  0.00    -0.003 C 
HETATM   14  C1  UNL     1      -3.642   6.230   0.908  1.00  0.00     0.005 C 
ENDBRANCH  12  13
ENDBRANCH  11  12
ENDBRANCH   8  11
ENDBRANCH   6   7
BRANCH   6  15
HETATM   15  C21 UNL     1      -3.376  -1.013   1.372  1.00  0.00     0.013 C 
HETATM   16  C22 UNL     1      -4.706  -0.918   0.637  1.00  0.00     0.012 C 
BRANCH  15  17
HETATM   17  C23 UNL     1      -3.607  -1.087   2.841  1.00  0.00     0.002 C 
HETATM   18  C24 UNL     1      -4.100   0.133   3.525  1.00  0.00     0.005 C 
ENDBRANCH  15  17
ENDBRANCH   6  15
ENDBRANCH   3   6
ENDBRANCH   1   2
BRANCH   1  19
HETATM   19  N3  UNL     1       1.121  -1.299  -2.358  1.00  0.00    -0.346 N 
HETATM   20  C9  UNL     1       1.863  -0.658  -3.379  1.00  0.00     0.242 C 
HETATM   21  O3  UNL     1       1.224  -0.016  -4.252  1.00  0.00    -0.271 OA
ATOM     22  H3  UNL     1       1.610  -1.831  -1.638  1.00  0.00     0.163 HD
BRANCH  20  23
HETATM   23  C10 UNL     1       3.323  -0.692  -3.485  1.00  0.00     0.191 C 
HETATM   24  C11 UNL     1       3.823  -1.273  -4.792  1.00  0.00     0.110 C 
HETATM   25  S1  UNL     1       3.899  -3.045  -4.304  1.00  0.00    -0.146 SA
HETATM   26  C12 UNL     1       4.089  -2.769  -2.521  1.00  0.00     0.203 C 
HETATM   27  N4  UNL     1       3.974  -1.353  -2.393  1.00  0.00    -0.305 N 
HETATM   28  C13 UNL     1       4.480  -0.649  -1.233  1.00  0.00     0.365 C 
HETATM   29  O4  UNL     1       4.378   0.601  -1.121  1.00  0.00    -0.238 OA
BRANCH  28  30
HETATM   30  O5  UNL     1       5.095  -1.314  -0.204  1.00  0.00    -0.294 OA
BRANCH  30  31
HETATM   31  C14 UNL     1       5.610  -0.676   0.952  1.00  0.00     0.061 C 
HETATM   32  C15 UNL     1       4.528   0.067   1.711  1.00  0.00     0.046 C 
HETATM   33  C16 UNL     1       6.770   0.235   0.641  1.00  0.00     0.046 C 
HETATM   34  C17 UNL     1       6.116  -1.760   1.910  1.00  0.00     0.046 C 
ENDBRANCH  30  31
ENDBRANCH  28  30
ENDBRANCH  20  23
ENDBRANCH   1  19
BRANCH   1  35
HETATM   35  C18 UNL     1      -0.931  -2.505  -2.837  1.00  0.00     0.009 C 
HETATM   36  C19 UNL     1      -2.411  -2.443  -2.956  1.00  0.00     0.012 C 
HETATM   37  C20 UNL     1      -0.432  -3.701  -2.089  1.00  0.00     0.012 C 
ENDBRANCH   1  35
TORSDOF 13
