REMARK  14 active torsions:
REMARK  status: ('A' for Active; 'I' for Inactive)
REMARK    1  A    between atoms: C2_2  and  C3_3 
REMARK    2  A    between atoms: C3_3  and  C5_5 
REMARK    3  A    between atoms: C3_3  and  C22_30 
REMARK    4  A    between atoms: C6_6  and  C7_7 
REMARK    5  A    between atoms: C9_9  and  C10_10 
REMARK    6  A    between atoms: C10_10  and  C11_11 
REMARK    7  A    between atoms: N1_14  and  C12_15 
REMARK    8  A    between atoms: C12_15  and  C13_16 
REMARK    9  A    between atoms: C13_16  and  C14_17 
REMARK   10  A    between atoms: C17_20  and  C18_21 
REMARK   11  A    between atoms: C18_21  and  O3_22 
REMARK   12  A    between atoms: C21_27  and  O5_28 
REMARK   13  A    between atoms: C22_30  and  C23_31 
REMARK   14  A    between atoms: C23_31  and  N2_32 
ROOT
HETATM    1  C7  UNL     1      -0.294   0.137  -0.937  1.00  0.00     0.039 C 
HETATM    2  C8  UNL     1      -1.096   0.658   0.165  1.00  0.00     0.037 C 
HETATM    3  C9  UNL     1      -2.575   0.916  -0.064  1.00  0.00     0.095 C 
HETATM    4  N1  UNL     1      -3.347  -0.252   0.389  1.00  0.00    -0.375 N 
HETATM    5  C17 UNL     1      -3.187  -1.341  -0.485  1.00  0.00     0.177 C 
HETATM    6  C19 UNL     1      -2.028  -2.147   0.099  1.00  0.00     0.154 C 
HETATM    7  O4  UNL     1      -2.474  -3.163   0.592  1.00  0.00    -0.296 OA
HETATM    8  C20 UNL     1      -0.577  -2.081   0.250  1.00  0.00     0.113 C 
HETATM    9  C21 UNL     1       0.129  -1.314  -0.815  1.00  0.00     0.133 C 
ENDROOT
BRANCH   1  10
HETATM   10  C6  UNL     1       0.964   0.883  -1.225  1.00  0.00    -0.023 C 
HETATM   11  C5  UNL     1       1.505   1.828  -0.512  1.00  0.00    -0.021 C 
BRANCH  11  12
HETATM   12  C3  UNL     1       2.784   2.453  -0.990  1.00  0.00    -0.025 C 
HETATM   13  C4  UNL     1       3.183   3.634  -0.130  1.00  0.00     0.019 C 
BRANCH  12  14
HETATM   14  C2  UNL     1       2.606   2.900  -2.419  1.00  0.00     0.009 C 
HETATM   15  C1  UNL     1       1.529   3.956  -2.544  1.00  0.00     0.006 C 
ENDBRANCH  12  14
BRANCH  12  16
HETATM   16  C22 UNL     1       3.906   1.436  -0.954  1.00  0.00     0.043 C 
BRANCH  16  17
HETATM   17  C23 UNL     1       4.163   0.933   0.438  1.00  0.00     0.273 C 
BRANCH  17  18
HETATM   18  N2  UNL     1       5.244  -0.003   0.426  1.00  0.00     0.091 N 
HETATM   19  C24 UNL     1       5.454  -0.492   1.747  1.00  0.00     0.302 C 
HETATM   20  C25 UNL     1       6.447  -1.593   1.887  1.00  0.00     0.302 C 
HETATM   21  N3  UNL     1       6.379  -2.541   0.786  1.00  0.00     0.087 N 
HETATM   22  C26 UNL     1       7.542  -3.410   0.908  1.00  0.00     0.310 C 
HETATM   23  C27 UNL     1       6.470  -1.857  -0.474  1.00  0.00     0.302 C 
HETATM   24  C28 UNL     1       5.268  -0.944  -0.627  1.00  0.00     0.302 C 
ENDBRANCH  17  18
ENDBRANCH  16  17
ENDBRANCH  12  16
ENDBRANCH  11  12
ENDBRANCH   1  10
BRANCH   9  25
HETATM   25  O5  UNL     1       1.490  -1.377  -0.525  1.00  0.00    -0.394 OA
ATOM     26  H5  UNL     1       1.755  -2.286  -0.449  1.00  0.00     0.210 HD
ENDBRANCH   9  25
BRANCH   3  27
HETATM   27  C10 UNL     1      -2.885   1.491  -1.374  1.00  0.00     0.138 C 
BRANCH  27  28
HETATM   28  C11 UNL     1      -4.294   1.844  -1.666  1.00  0.00     0.174 C 
HETATM   29  O1  UNL     1      -4.743   2.814  -0.949  1.00  0.00    -0.648 OA
HETATM   30  O2  UNL     1      -5.108   1.254  -2.589  1.00  0.00    -0.648 OA
ENDBRANCH  27  28
ENDBRANCH   3  27
BRANCH   4  31
HETATM   31  C12 UNL     1      -4.591   0.114   0.915  1.00  0.00     0.060 C 
BRANCH  31  32
HETATM   32  C13 UNL     1      -5.122  -0.821   1.952  1.00  0.00     0.048 C 
BRANCH  32  33
HETATM   33  C14 UNL     1      -6.474  -0.367   2.486  1.00  0.00    -0.018 C 
HETATM   34  C15 UNL     1      -7.518  -0.279   1.423  1.00  0.00     0.010 C 
HETATM   35  C16 UNL     1      -6.923  -1.432   3.482  1.00  0.00     0.010 C 
ENDBRANCH  32  33
ENDBRANCH  31  32
ENDBRANCH   4  31
BRANCH   5  36
HETATM   36  C18 UNL     1      -4.301  -2.299  -0.737  1.00  0.00     0.197 C 
BRANCH  36  37
HETATM   37  O3  UNL     1      -5.473  -1.753  -1.213  1.00  0.00    -0.398 OA
ATOM     38  H3  UNL     1      -6.183  -2.364  -1.374  1.00  0.00     0.209 HD
ENDBRANCH  36  37
ENDBRANCH   5  36
TORSDOF 14
