REMARK  13 active torsions:
REMARK  status: ('A' for Active; 'I' for Inactive)
REMARK    1  A    between atoms: C2_2  and  N1_3 
REMARK    2  A    between atoms: N1_3  and  C3_5 
REMARK    3  A    between atoms: N3_9  and  C5_11 
REMARK    4  A    between atoms: C5_11  and  C6_12 
REMARK    5  A    between atoms: C6_12  and  C7_13 
REMARK    6  A    between atoms: C7_13  and  N4_14 
REMARK    7  A    between atoms: C13_24  and  C14_25 
REMARK    8  A    between atoms: C16_27  and  C17_28 
REMARK    9  A    between atoms: C17_28  and  C18_29 
REMARK   10  A    between atoms: C18_29  and  N7_30 
REMARK   11  A    between atoms: N7_30  and  C19_31 
REMARK   12  A    between atoms: N7_30  and  C21_33 
REMARK   13  A    between atoms: C25_37  and  N8_38 
ROOT
HETATM    1  C3  UNL     1       2.443  -0.924   0.712  1.00  0.00     0.147 A 
HETATM    2  N2  UNL     1       3.259  -0.084  -0.011  1.00  0.00    -0.175 N 
ATOM      3  H2  UNL     1       4.268  -0.229   0.018  1.00  0.00     0.186 HD
HETATM    4  C4  UNL     1       2.769   0.915  -0.750  1.00  0.00     0.681 A 
HETATM    5  N3  UNL     1       3.470   1.745  -1.432  1.00  0.00    -0.226 N 
ATOM      6  H3  UNL     1       3.002   2.476  -1.967  1.00  0.00     0.177 HD
HETATM    7  N5  UNL     1       1.408   1.103  -0.785  1.00  0.00    -0.174 N 
ATOM      8  H5  UNL     1       1.023   1.862  -1.347  1.00  0.00     0.186 HD
HETATM    9  C12 UNL     1       0.578   0.311  -0.097  1.00  0.00     0.153 A 
HETATM   10  N6  UNL     1      -0.773   0.279   0.051  1.00  0.00    -0.325 N 
ATOM     11  H6  UNL     1      -1.426   0.923  -0.395  1.00  0.00     0.169 HD
HETATM   12  C13 UNL     1      -1.126  -0.740   0.883  1.00  0.00     0.120 A 
HETATM   13  N9  UNL     1       0.014  -1.300   1.218  1.00  0.00    -0.336 N 
ATOM     14  H9  UNL     1       0.074  -2.104   1.843  1.00  0.00     0.168 HD
HETATM   15  C26 UNL     1       1.091  -0.723   0.667  1.00  0.00     0.123 A 
ENDROOT
BRANCH  12  16
HETATM   16  C14 UNL     1      -2.495  -1.027   1.302  1.00  0.00     0.042 A 
HETATM   17  C15 UNL     1      -3.495  -0.118   0.923  1.00  0.00     0.025 A 
HETATM   18  C16 UNL     1      -4.815  -0.239   1.279  1.00  0.00    -0.055 A 
HETATM   19  C23 UNL     1      -5.187  -1.311   2.052  1.00  0.00     0.010 A 
HETATM   20  C24 UNL     1      -4.252  -2.228   2.449  1.00  0.00     0.037 A 
HETATM   21  C25 UNL     1      -2.891  -2.084   2.067  1.00  0.00     0.116 A 
BRANCH  18  22
HETATM   22  C17 UNL     1      -5.847   0.771   0.832  1.00  0.00     0.068 C 
BRANCH  22  23
HETATM   23  C18 UNL     1      -6.390   0.256  -0.452  1.00  0.00     0.277 C 
BRANCH  23  24
HETATM   24  N7  UNL     1      -7.379   1.033  -1.116  1.00  0.00     0.088 N 
BRANCH  24  25
HETATM   25  C19 UNL     1      -7.771   0.345  -2.325  1.00  0.00     0.268 C 
HETATM   26  C20 UNL     1      -8.818   1.068  -3.105  1.00  0.00     0.037 C 
ENDBRANCH  24  25
BRANCH  24  27
HETATM   27  C21 UNL     1      -8.497   1.466  -0.378  1.00  0.00     0.268 C 
HETATM   28  C22 UNL     1      -8.276   2.517   0.658  1.00  0.00     0.037 C 
ENDBRANCH  24  27
ENDBRANCH  23  24
ENDBRANCH  22  23
ENDBRANCH  18  22
BRANCH  21  29
HETATM   29  N8  UNL     1      -2.030  -3.085   2.524  1.00  0.00    -0.115 N 
HETATM   30  O1  UNL     1      -1.110  -3.593   1.907  1.00  0.00    -0.532 OA
HETATM   31  O2  UNL     1      -2.298  -3.614   3.793  1.00  0.00    -0.532 OA
ENDBRANCH  21  29
ENDBRANCH  12  16
BRANCH   1  32
HETATM   32  N1  UNL     1       2.990  -1.840   1.383  1.00  0.00    -0.374 N 
ATOM     33  H1  UNL     1       4.007  -1.857   1.313  1.00  0.00     0.161 HD
BRANCH  32  34
HETATM   34  C2  UNL     1       2.454  -2.842   2.210  1.00  0.00     0.116 C 
HETATM   35  C1  UNL     1       2.444  -4.189   1.478  1.00  0.00     0.026 C 
ENDBRANCH  32  34
ENDBRANCH   1  32
BRANCH   5  36
HETATM   36  C5  UNL     1       4.909   1.661  -1.455  1.00  0.00     0.143 C 
BRANCH  36  37
HETATM   37  C6  UNL     1       5.537   2.236  -0.236  1.00  0.00     0.065 C 
BRANCH  37  38
HETATM   38  C7  UNL     1       7.027   2.224  -0.186  1.00  0.00     0.064 C 
BRANCH  38  39
HETATM   39  N4  UNL     1       7.703   1.005  -0.261  1.00  0.00    -0.374 N 
HETATM   40  C8  UNL     1       7.750   0.269  -1.461  1.00  0.00     0.063 C 
HETATM   41  C9  UNL     1       9.202  -0.123  -1.700  1.00  0.00     0.046 C 
HETATM   42  C10 UNL     1       9.798  -0.085  -0.300  1.00  0.00     0.025 C 
HETATM   43  C11 UNL     1       8.871   0.803   0.510  1.00  0.00     0.127 C 
ENDBRANCH  38  39
ENDBRANCH  37  38
ENDBRANCH  36  37
ENDBRANCH   5  36
TORSDOF 13
