REMARK  12 active torsions:
REMARK  status: ('A' for Active; 'I' for Inactive)
REMARK    1  A    between atoms: C2_2  and  N1_3 
REMARK    2  A    between atoms: N2_6  and  C5_7 
REMARK    3  A    between atoms: C5_7  and  C6_8 
REMARK    4  A    between atoms: C6_8  and  C7_9 
REMARK       I    between atoms: C7_9  and  N3_11 
REMARK    5  A    between atoms: N3_11  and  C8_13 
REMARK    6  A    between atoms: C10_15  and  C11_16 
REMARK    7  A    between atoms: C13_18  and  C14_19 
REMARK       I    between atoms: C14_19  and  N4_21 
REMARK    8  A    between atoms: N4_21  and  C15_23 
REMARK    9  A    between atoms: C15_23  and  C16_24 
REMARK   10  A    between atoms: C16_24  and  C17_25 
REMARK   11  A    between atoms: C17_25  and  N5_26 
REMARK   12  A    between atoms: C25_39  and  C26_40 
ROOT
HETATM    1  C8  UNL     1      -0.759  -1.717   0.816  1.00  0.00     0.052 A 
HETATM    2  C9  UNL     1       0.130  -0.734   0.376  1.00  0.00     0.061 A 
HETATM    3  C10 UNL     1       1.431  -0.708   0.762  1.00  0.00     0.045 A 
HETATM    4  N6  UNL     1       1.852  -1.694   1.608  1.00  0.00    -0.358 N 
ATOM      5  H6  UNL     1       2.828  -1.688   1.904  1.00  0.00     0.166 HD
HETATM    6  C23 UNL     1       1.066  -2.659   2.067  1.00  0.00     0.021 A 
HETATM    7  C24 UNL     1       1.551  -3.718   2.985  1.00  0.00     0.069 C 
HETATM    8  C25 UNL     1      -0.292  -2.682   1.663  1.00  0.00     0.051 A 
ENDROOT
BRANCH   3   9
HETATM    9  C11 UNL     1       2.403   0.215   0.213  1.00  0.00    -0.002 A 
HETATM   10  C12 UNL     1       3.730  -0.300   0.085  1.00  0.00     0.031 A 
HETATM   11  C13 UNL     1       4.746   0.449  -0.447  1.00  0.00     0.038 A 
HETATM   12  C18 UNL     1       4.514   1.718  -0.870  1.00  0.00    -0.046 A 
HETATM   13  C19 UNL     1       5.587   2.557  -1.423  1.00  0.00     0.049 C 
HETATM   14  C20 UNL     1       3.233   2.271  -0.763  1.00  0.00     0.015 A 
HETATM   15  C21 UNL     1       2.212   1.480  -0.214  1.00  0.00    -0.049 A 
HETATM   16  C22 UNL     1       0.899   2.166  -0.053  1.00  0.00     0.049 C 
BRANCH  11  17
HETATM   17  C14 UNL     1       6.047  -0.249  -0.608  1.00  0.00     0.252 C 
HETATM   18  O2  UNL     1       6.623  -0.614   0.421  1.00  0.00    -0.268 OA
HETATM   19  N4  UNL     1       6.536  -0.459  -1.901  1.00  0.00    -0.357 N 
ATOM     20  H4  UNL     1       5.954  -0.129  -2.671  1.00  0.00     0.162 HD
BRANCH  19  21
HETATM   21  C15 UNL     1       7.755  -1.083  -2.248  1.00  0.00     0.124 C 
BRANCH  21  22
HETATM   22  C16 UNL     1       9.039  -0.429  -1.980  1.00  0.00     0.047 C 
BRANCH  22  23
HETATM   23  C17 UNL     1       9.447  -0.011  -0.619  1.00  0.00     0.231 C 
BRANCH  23  24
HETATM   24  N5  UNL     1      10.804   0.565  -0.764  1.00  0.00    -0.079 N 
ATOM     25  H53 UNL     1      11.469  -0.064  -1.214  1.00  0.00     0.274 HD
ATOM     26  H52 UNL     1      10.858   1.314  -1.454  1.00  0.00     0.274 HD
ATOM     27  H51 UNL     1      11.085   0.853   0.173  1.00  0.00     0.274 HD
ENDBRANCH  23  24
ENDBRANCH  22  23
ENDBRANCH  21  22
ENDBRANCH  19  21
ENDBRANCH  11  17
ENDBRANCH   3   9
BRANCH   1  28
HETATM   28  N3  UNL     1      -2.052  -1.746   0.265  1.00  0.00    -0.326 N 
HETATM   29  C7  UNL     1      -2.795  -0.662  -0.225  1.00  0.00     0.223 C 
HETATM   30  O1  UNL     1      -2.397   0.509  -0.208  1.00  0.00    -0.273 OA
ATOM     31  H3  UNL     1      -2.501  -2.660   0.216  1.00  0.00     0.169 HD
BRANCH  29  32
HETATM   32  C6  UNL     1      -4.147  -0.899  -0.806  1.00  0.00     0.133 C 
BRANCH  32  33
HETATM   33  C5  UNL     1      -4.893   0.419  -0.961  1.00  0.00     0.281 C 
BRANCH  33  34
HETATM   34  N2  UNL     1      -5.067   1.037   0.353  1.00  0.00     0.092 N 
HETATM   35  C4  UNL     1      -5.750   2.287   0.207  1.00  0.00     0.291 C 
HETATM   36  C3  UNL     1      -7.192   2.252   0.637  1.00  0.00     0.147 C 
HETATM   37  N1  UNL     1      -7.857   1.042   0.244  1.00  0.00    -0.409 N 
HETATM   38  C28 UNL     1      -7.134  -0.148   0.586  1.00  0.00     0.147 C 
HETATM   39  C27 UNL     1      -5.836   0.183   1.231  1.00  0.00     0.291 C 
BRANCH  37  40
HETATM   40  C2  UNL     1      -9.258   1.007   0.477  1.00  0.00     0.112 C 
HETATM   41  C1  UNL     1      -9.804  -0.292  -0.106  1.00  0.00     0.026 C 
ENDBRANCH  37  40
ENDBRANCH  33  34
ENDBRANCH  32  33
ENDBRANCH  29  32
ENDBRANCH   1  28
BRANCH   8  42
HETATM   42  C26 UNL     1      -1.111  -3.693   2.229  1.00  0.00     0.274 C 
HETATM   43  O3  UNL     1      -2.336  -3.794   2.052  1.00  0.00    -0.301 OA
ENDBRANCH   8  42
TORSDOF 12
