REMARK  12 active torsions:
REMARK  status: ('A' for Active; 'I' for Inactive)
REMARK    1  A    between atoms: C3_5  and  N2_6 
REMARK    2  A    between atoms: N4_17  and  C9_18 
REMARK    3  A    between atoms: C9_18  and  C10_19 
REMARK    4  A    between atoms: C10_19  and  C11_20 
REMARK    5  A    between atoms: C11_20  and  C12_21 
REMARK    6  A    between atoms: C12_21  and  C13_22 
REMARK       I    between atoms: C13_22  and  N5_24 
REMARK    7  A    between atoms: N5_24  and  C14_26 
REMARK    8  A    between atoms: C14_26  and  C15_27 
REMARK    9  A    between atoms: C15_27  and  C16_28 
REMARK   10  A    between atoms: C16_28  and  N6_29 
REMARK   11  A    between atoms: N7_32  and  C19_33 
REMARK   12  A    between atoms: C19_33  and  C20_34 
ROOT
HETATM    1  C12 UNL     1      -2.996   2.996  -2.346  1.00  0.00     0.103 C 
ENDROOT
BRANCH   1   2
HETATM    2  C11 UNL     1      -4.378   3.081  -1.819  1.00  0.00     0.011 C 
BRANCH   2   3
HETATM    3  C10 UNL     1      -4.836   1.922  -1.003  1.00  0.00     0.021 C 
BRANCH   3   4
HETATM    4  C9  UNL     1      -4.798   0.636  -1.824  1.00  0.00     0.134 C 
BRANCH   4   5
HETATM    5  N4  UNL     1      -5.234  -0.476  -0.987  1.00  0.00    -0.299 N 
HETATM    6  C4  UNL     1      -6.545  -0.769  -0.941  1.00  0.00     0.138 A 
HETATM    7  N3  UNL     1      -7.448  -0.048  -1.651  1.00  0.00    -0.176 N 
HETATM    8  C5  UNL     1      -6.982  -1.824  -0.154  1.00  0.00     0.032 A 
HETATM    9  C3  UNL     1      -8.753  -0.393  -1.560  1.00  0.00     0.677 A 
ATOM     10  H3  UNL     1      -7.152   0.732  -2.237  1.00  0.00     0.186 HD
HETATM   11  N1  UNL     1      -9.196  -1.407  -0.806  1.00  0.00    -0.195 N 
HETATM   12  C2  UNL     1      -8.319  -2.152  -0.080  1.00  0.00     0.036 A 
ATOM     13  H1  UNL     1     -10.193  -1.621  -0.776  1.00  0.00     0.184 HD
HETATM   14  C1  UNL     1      -8.821  -3.266   0.750  1.00  0.00     0.070 C 
HETATM   15  C6  UNL     1      -6.073  -2.573   0.583  1.00  0.00     0.022 A 
HETATM   16  C7  UNL     1      -4.746  -2.259   0.523  1.00  0.00     0.075 A 
HETATM   17  C8  UNL     1      -4.353  -1.200  -0.274  1.00  0.00     0.249 A 
HETATM   18  O1  UNL     1      -3.143  -0.888  -0.348  1.00  0.00    -0.268 OA
BRANCH   9  19
HETATM   19  N2  UNL     1      -9.615   0.281  -2.223  1.00  0.00    -0.234 N 
ATOM     20  H22 UNL     1     -10.599   0.021  -2.154  1.00  0.00     0.174 HD
ATOM     21  H21 UNL     1      -9.278   1.053  -2.797  1.00  0.00     0.174 HD
ENDBRANCH   9  19
ENDBRANCH   4   5
ENDBRANCH   3   4
ENDBRANCH   2   3
ENDBRANCH   1   2
BRANCH   1  22
HETATM   22  C13 UNL     1      -1.945   2.936  -1.323  1.00  0.00     0.217 C 
HETATM   23  O2  UNL     1      -2.256   3.008  -0.108  1.00  0.00    -0.274 OA
HETATM   24  N5  UNL     1      -0.599   2.797  -1.756  1.00  0.00    -0.361 N 
ATOM     25  H5  UNL     1      -0.402   2.749  -2.756  1.00  0.00     0.162 HD
BRANCH  24  26
HETATM   26  C14 UNL     1       0.486   2.722  -0.829  1.00  0.00     0.124 C 
BRANCH  26  27
HETATM   27  C15 UNL     1       0.384   1.509   0.045  1.00  0.00     0.039 C 
BRANCH  27  28
HETATM   28  C16 UNL     1       1.533   1.433   1.057  1.00  0.00     0.118 C 
BRANCH  28  29
HETATM   29  N6  UNL     1       1.415   0.264   1.857  1.00  0.00    -0.409 N 
HETATM   30  C17 UNL     1       1.640  -0.983   1.190  1.00  0.00     0.136 C 
HETATM   31  C18 UNL     1       2.811  -1.692   1.862  1.00  0.00     0.136 C 
HETATM   32  N7  UNL     1       3.791  -0.728   2.190  1.00  0.00    -0.409 N 
HETATM   33  C27 UNL     1       3.427   0.213   3.196  1.00  0.00     0.136 C 
HETATM   34  C28 UNL     1       1.926   0.387   3.170  1.00  0.00     0.136 C 
BRANCH  32  35
HETATM   35  C19 UNL     1       5.149  -1.141   2.214  1.00  0.00     0.121 C 
BRANCH  35  36
HETATM   36  C20 UNL     1       5.722  -1.491   0.857  1.00  0.00     0.003 C 
HETATM   37  C21 UNL     1       5.620  -0.261   0.008  1.00  0.00     0.006 C 
HETATM   38  C22 UNL     1       6.505  -0.230  -1.187  1.00  0.00     0.005 C 
HETATM   39  C23 UNL     1       7.704  -1.124  -1.111  1.00  0.00    -0.019 C 
HETATM   40  C24 UNL     1       8.828  -0.578  -1.957  1.00  0.00     0.010 C 
HETATM   41  C25 UNL     1       8.174  -1.214   0.325  1.00  0.00     0.005 C 
HETATM   42  C26 UNL     1       7.132  -1.970   1.087  1.00  0.00     0.006 C 
ENDBRANCH  35  36
ENDBRANCH  32  35
ENDBRANCH  28  29
ENDBRANCH  27  28
ENDBRANCH  26  27
ENDBRANCH  24  26
ENDBRANCH   1  22
TORSDOF 12
