REMARK  14 active torsions:
REMARK  status: ('A' for Active; 'I' for Inactive)
REMARK    1  A    between atoms: O1_2  and  C2_3 
REMARK    2  A    between atoms: C2_3  and  C3_4 
REMARK    3  A    between atoms: C3_4  and  C4_5 
REMARK    4  A    between atoms: C4_5  and  N1_6 
REMARK    5  A    between atoms: N1_6  and  C5_8 
REMARK    6  A    between atoms: C6_11  and  N3_12 
REMARK    7  A    between atoms: N3_12  and  C7_13 
REMARK    8  A    between atoms: C7_13  and  N4_15 
REMARK    9  A    between atoms: N4_15  and  C8_17 
REMARK   10  A    between atoms: C8_17  and  C9_18 
REMARK   11  A    between atoms: C9_18  and  C10_19 
REMARK   12  A    between atoms: C10_19  and  N5_20 
REMARK   13  A    between atoms: C20_31  and  S2_32 
REMARK   14  A    between atoms: C23_35  and  C24_36 
ROOT
HETATM    1  N3  UNL     1       1.221   2.398   0.759  1.00  0.00    -0.357 NA
ENDROOT
BRANCH   1   2
HETATM    2  C6  UNL     1       2.545   2.139   1.020  1.00  0.00     0.200 A 
HETATM    3  N2  UNL     1       3.338   1.223   0.477  1.00  0.00    -0.316 N 
HETATM    4  C5  UNL     1       4.692   1.139   0.652  1.00  0.00     0.116 A 
ATOM      5  H2  UNL     1       2.900   0.522  -0.121  1.00  0.00     0.170 HD
HETATM    6  C23 UNL     1       5.330   2.087   1.478  1.00  0.00     0.047 A 
HETATM    7  C22 UNL     1       4.562   3.044   2.064  1.00  0.00     0.041 A 
HETATM    8  C20 UNL     1       3.228   3.081   1.854  1.00  0.00     0.059 A 
BRANCH   4   9
HETATM    9  N1  UNL     1       5.435   0.297   0.153  1.00  0.00    -0.375 N 
ATOM     10  H1  UNL     1       6.351   0.570   0.509  1.00  0.00     0.161 HD
BRANCH   9  11
HETATM   11  C4  UNL     1       5.723  -0.786  -0.601  1.00  0.00     0.123 C 
BRANCH  11  12
HETATM   12  C3  UNL     1       6.050  -2.016   0.261  1.00  0.00     0.046 C 
BRANCH  12  13
HETATM   13  C2  UNL     1       7.178  -1.744   1.221  1.00  0.00     0.168 C 
BRANCH  13  14
HETATM   14  O1  UNL     1       8.349  -1.324   0.673  1.00  0.00    -0.396 OA
HETATM   15  C1  UNL     1       8.958  -2.179  -0.210  1.00  0.00     0.201 C 
ENDBRANCH  13  14
ENDBRANCH  12  13
ENDBRANCH  11  12
ENDBRANCH   9  11
ENDBRANCH   4   9
BRANCH   6  16
HETATM   16  C24 UNL     1       6.772   2.073   1.618  1.00  0.00     0.273 C 
HETATM   17  O2  UNL     1       7.322   2.719   2.550  1.00  0.00    -0.301 OA
ENDBRANCH   6  16
BRANCH   8  18
HETATM   18  S2  UNL     1       2.223   4.302   2.647  1.00  0.00    -0.130 SA
HETATM   19  C21 UNL     1       3.236   5.234   3.816  1.00  0.00     0.095 C 
ENDBRANCH   8  18
ENDBRANCH   1   2
BRANCH   1  20
HETATM   20  C7  UNL     1      -0.046   2.646   0.508  1.00  0.00     0.247 C 
HETATM   21  S1  UNL     1      -0.535   4.206   1.072  1.00  0.00    -0.025 SA
BRANCH  20  22
HETATM   22  N4  UNL     1      -1.093   2.024  -0.125  1.00  0.00    -0.356 N 
ATOM     23  H4  UNL     1      -1.954   2.570  -0.094  1.00  0.00     0.162 HD
BRANCH  22  24
HETATM   24  C8  UNL     1      -1.251   0.772  -0.825  1.00  0.00     0.125 C 
BRANCH  24  25
HETATM   25  C9  UNL     1      -2.744   0.706  -1.142  1.00  0.00     0.039 C 
BRANCH  25  26
HETATM   26  C10 UNL     1      -3.177  -0.517  -1.877  1.00  0.00     0.124 C 
BRANCH  26  27
HETATM   27  N5  UNL     1      -4.632  -0.435  -2.016  1.00  0.00    -0.380 N 
HETATM   28  C11 UNL     1      -5.184   0.552  -2.893  1.00  0.00     0.150 A 
HETATM   29  C12 UNL     1      -6.650   0.677  -2.810  1.00  0.00    -0.007 A 
HETATM   30  C13 UNL     1      -7.401  -0.089  -2.039  1.00  0.00     0.008 A 
HETATM   31  C14 UNL     1      -6.769  -1.121  -1.203  1.00  0.00    -0.008 A 
HETATM   32  C15 UNL     1      -5.466  -1.280  -1.203  1.00  0.00     0.017 A 
HETATM   33  C19 UNL     1      -7.711  -1.894  -0.348  1.00  0.00     0.312 C 
HETATM   34  C16 UNL     1      -4.840  -2.328  -0.401  1.00  0.00     0.087 C 
HETATM   35  C17 UNL     1      -5.776  -2.806   0.667  1.00  0.00     0.278 C 
HETATM   36  N6  UNL     1      -7.120  -3.027   0.267  1.00  0.00     0.088 N 
HETATM   37  C18 UNL     1      -7.394  -4.267  -0.396  1.00  0.00     0.310 C 
ENDBRANCH  26  27
ENDBRANCH  25  26
ENDBRANCH  24  25
ENDBRANCH  22  24
ENDBRANCH  20  22
ENDBRANCH   1  20
TORSDOF 14
