REMARK  12 active torsions:
REMARK  status: ('A' for Active; 'I' for Inactive)
REMARK    1  A    between atoms: C2_2  and  C3_3 
REMARK    2  A    between atoms: C3_3  and  C4_4 
REMARK    3  A    between atoms: C4_4  and  S1_5 
REMARK    4  A    between atoms: S1_5  and  C5_6 
REMARK    5  A    between atoms: S1_5  and  C18_33 
REMARK    6  A    between atoms: C5_6  and  C6_7 
REMARK    7  A    between atoms: C7_10  and  N2_11 
REMARK    8  A    between atoms: N2_11  and  C8_13 
REMARK    9  A    between atoms: C11_18  and  C12_19 
REMARK   10  A    between atoms: C12_19  and  N4_20 
REMARK   11  A    between atoms: N8_36  and  O1_37 
REMARK   12  A    between atoms: C21_39  and  N9_40 
ROOT
HETATM    1  C6  UNL     1      -0.681   0.281  -0.156  1.00  0.00     0.121 A 
HETATM    2  N1  UNL     1       0.136  -0.318   0.726  1.00  0.00    -0.177 N 
ATOM      3  H1  UNL     1      -0.003  -0.335   1.736  1.00  0.00     0.185 HD
HETATM    4  C7  UNL     1       1.148  -0.882   0.087  1.00  0.00     0.698 A 
HETATM    5  N6  UNL     1       0.951  -0.625  -1.214  1.00  0.00    -0.131 N 
ATOM      6  H6  UNL     1       1.567  -0.930  -1.968  1.00  0.00     0.205 HD
HETATM    7  N7  UNL     1      -0.145   0.074  -1.380  1.00  0.00    -0.274 N 
ATOM      8  H7  UNL     1      -0.524   0.401  -2.269  1.00  0.00     0.189 HD
ENDROOT
BRANCH   4   9
HETATM    9  N2  UNL     1       2.125  -1.546   0.635  1.00  0.00    -0.190 N 
ATOM     10  H2  UNL     1       2.119  -1.646   1.650  1.00  0.00     0.184 HD
BRANCH   9  11
HETATM   11  C8  UNL     1       3.185  -2.133  -0.071  1.00  0.00     0.052 A 
HETATM   12  C9  UNL     1       2.979  -3.030  -1.085  1.00  0.00     0.047 A 
HETATM   13  C10 UNL     1       4.044  -3.589  -1.757  1.00  0.00     0.090 A 
HETATM   14  N3  UNL     1       5.298  -3.220  -1.381  1.00  0.00    -0.368 N 
HETATM   15  C11 UNL     1       5.519  -2.348  -0.397  1.00  0.00     0.039 A 
ATOM     16  H3  UNL     1       6.097  -3.625  -1.869  1.00  0.00     0.165 HD
HETATM   17  C17 UNL     1       4.476  -1.774   0.293  1.00  0.00     0.057 A 
BRANCH  15  18
HETATM   18  C12 UNL     1       6.909  -1.989  -0.031  1.00  0.00     0.329 C 
BRANCH  18  19
HETATM   19  N4  UNL     1       7.321  -0.901  -0.909  1.00  0.00     0.097 N 
HETATM   20  C13 UNL     1       6.482   0.253  -0.770  1.00  0.00     0.300 C 
HETATM   21  C14 UNL     1       7.171   1.501  -1.290  1.00  0.00     0.262 C 
HETATM   22  N5  UNL     1       8.268   1.801  -0.391  1.00  0.00    -0.072 N 
HETATM   23  C15 UNL     1       8.844   0.621   0.202  1.00  0.00     0.262 C 
ATOM     24  H52 UNL     1       8.981   2.360  -0.859  1.00  0.00     0.277 HD
ATOM     25  H51 UNL     1       7.981   2.467   0.326  1.00  0.00     0.277 HD
HETATM   26  C16 UNL     1       8.725  -0.585  -0.714  1.00  0.00     0.300 C 
ENDBRANCH  18  19
ENDBRANCH  15  18
ENDBRANCH   9  11
ENDBRANCH   4   9
BRANCH   1  27
HETATM   27  C5  UNL     1      -1.898   1.004   0.206  1.00  0.00     0.147 C 
BRANCH  27  28
HETATM   28  S1  UNL     1      -3.406   0.225   0.166  1.00  0.00    -0.179 SA
BRANCH  28  29
HETATM   29  C4  UNL     1      -3.789  -1.135   1.097  1.00  0.00     0.069 C 
BRANCH  29  30
HETATM   30  C3  UNL     1      -3.025  -2.398   0.948  1.00  0.00     0.009 C 
BRANCH  30  31
HETATM   31  C2  UNL     1      -3.550  -3.497   1.865  1.00  0.00    -0.004 C 
HETATM   32  C1  UNL     1      -3.472  -3.118   3.310  1.00  0.00     0.005 C 
ENDBRANCH  30  31
ENDBRANCH  29  30
ENDBRANCH  28  29
BRANCH  28  33
HETATM   33  C18 UNL     1      -4.682   1.023  -0.647  1.00  0.00    -0.004 A 
HETATM   34  C19 UNL     1      -5.043   0.633  -1.910  1.00  0.00     0.037 A 
HETATM   35  C20 UNL     1      -6.072   1.304  -2.527  1.00  0.00     0.126 A 
HETATM   36  N8  UNL     1      -6.708   2.321  -1.901  1.00  0.00    -0.220 N 
HETATM   37  C21 UNL     1      -6.402   2.749  -0.666  1.00  0.00     0.131 A 
HETATM   38  C24 UNL     1      -5.348   2.056  -0.047  1.00  0.00     0.068 A 
BRANCH  36  39
HETATM   39  O1  UNL     1      -7.736   2.936  -2.612  1.00  0.00    -0.282 OA
ATOM     40  H1  UNL     1      -8.183   3.650  -2.172  1.00  0.00     0.245 HD
ENDBRANCH  36  39
BRANCH  37  41
HETATM   41  N9  UNL     1      -7.061   3.806  -0.013  1.00  0.00    -0.374 N 
HETATM   42  C22 UNL     1      -6.626   4.167   1.328  1.00  0.00     0.150 C 
HETATM   43  C23 UNL     1      -8.141   4.551  -0.597  1.00  0.00     0.150 C 
ENDBRANCH  37  41
ENDBRANCH  28  33
ENDBRANCH  27  28
ENDBRANCH   1  27
TORSDOF 12
