REMARK  11 active torsions:
REMARK  status: ('A' for Active; 'I' for Inactive)
REMARK    1  A    between atoms: C2_2  and  C3_4 
REMARK    2  A    between atoms: C6_9  and  C7_10 
REMARK       I    between atoms: C7_10  and  N2_12 
REMARK    3  A    between atoms: C8_14  and  C9_15 
REMARK    4  A    between atoms: C8_14  and  C19_33 
REMARK    5  A    between atoms: C9_15  and  C10_16 
REMARK       I    between atoms: N5_21  and  C11_22 
REMARK       I    between atoms: C11_22  and  N6_24 
REMARK    6  A    between atoms: N6_24  and  C12_26 
REMARK    7  A    between atoms: C12_26  and  C13_27 
REMARK    8  A    between atoms: C13_27  and  C14_28 
REMARK       I    between atoms: C19_33  and  N7_35 
REMARK    9  A    between atoms: N7_35  and  C20_37 
REMARK   10  A    between atoms: C20_37  and  C21_38 
REMARK   11  A    between atoms: C21_38  and  C22_39 
ROOT
HETATM    1  C7  UNL     1      -1.829  -2.535  -0.374  1.00  0.00     0.273 C 
HETATM    2  O2  UNL     1      -1.185  -2.896   0.643  1.00  0.00    -0.266 OA
HETATM    3  N2  UNL     1      -1.215  -1.648  -1.243  1.00  0.00    -0.320 N 
ATOM      4  H2  UNL     1      -0.649  -2.080  -1.973  1.00  0.00     0.169 HD
HETATM    5  C8  UNL     1      -1.251  -0.354  -1.269  1.00  0.00     0.086 C 
ENDROOT
BRANCH   5   6
HETATM    6  C9  UNL     1      -0.465   0.332  -2.357  1.00  0.00     0.123 C 
BRANCH   6   7
HETATM    7  C10 UNL     1       0.762   0.995  -1.935  1.00  0.00     0.057 A 
HETATM    8  N3  UNL     1       0.976   2.292  -1.696  1.00  0.00    -0.288 N 
HETATM    9  N4  UNL     1       2.199   2.502  -1.317  1.00  0.00    -0.232 N 
ATOM     10  H3  UNL     1       0.270   3.021  -1.798  1.00  0.00     0.188 HD
HETATM   11  N5  UNL     1       2.900   1.339  -1.277  1.00  0.00    -0.194 N 
ATOM     12  H4  UNL     1       2.583   3.417  -1.081  1.00  0.00     0.209 HD
HETATM   13  C11 UNL     1       4.260   1.286  -0.887  1.00  0.00     0.342 C 
HETATM   14  C17 UNL     1       2.015   0.412  -1.660  1.00  0.00     0.061 A 
HETATM   15  O3  UNL     1       4.801   2.421  -0.619  1.00  0.00    -0.245 OA
HETATM   16  N6  UNL     1       5.067   0.167  -0.758  1.00  0.00    -0.341 N 
ATOM     17  H6  UNL     1       4.693  -0.760  -0.961  1.00  0.00     0.164 HD
HETATM   18  C18 UNL     1       2.283  -1.017  -1.854  1.00  0.00     0.072 C 
BRANCH  16  19
HETATM   19  C12 UNL     1       6.464   0.321  -0.328  1.00  0.00     0.125 C 
BRANCH  19  20
HETATM   20  C13 UNL     1       6.519   0.873   1.054  1.00  0.00     0.023 C 
BRANCH  20  21
HETATM   21  C14 UNL     1       8.017   0.984   1.410  1.00  0.00    -0.021 C 
HETATM   22  C15 UNL     1       8.094   1.544   2.811  1.00  0.00     0.009 C 
HETATM   23  C16 UNL     1       8.593  -0.414   1.333  1.00  0.00     0.009 C 
ENDBRANCH  20  21
ENDBRANCH  19  20
ENDBRANCH  16  19
ENDBRANCH   6   7
ENDBRANCH   5   6
BRANCH   5  24
HETATM   24  C19 UNL     1      -1.994   0.326  -0.239  1.00  0.00     0.264 C 
HETATM   25  O4  UNL     1      -2.531  -0.404   0.671  1.00  0.00    -0.266 OA
HETATM   26  N7  UNL     1      -2.199   1.755  -0.143  1.00  0.00    -0.356 N 
ATOM     27  H7  UNL     1      -1.804   2.408  -0.819  1.00  0.00     0.162 HD
BRANCH  26  28
HETATM   28  C20 UNL     1      -2.996   2.192   0.968  1.00  0.00     0.123 C 
BRANCH  28  29
HETATM   29  C21 UNL     1      -3.277   3.614   1.136  1.00  0.00     0.023 C 
BRANCH  29  30
HETATM   30  C22 UNL     1      -2.177   4.572   1.370  1.00  0.00    -0.021 C 
HETATM   31  C23 UNL     1      -2.754   5.998   1.522  1.00  0.00     0.009 C 
HETATM   32  C24 UNL     1      -1.164   4.691   0.265  1.00  0.00     0.009 C 
ENDBRANCH  29  30
ENDBRANCH  28  29
ENDBRANCH  26  28
ENDBRANCH   5  24
BRANCH   1  33
HETATM   33  C6  UNL     1      -3.191  -3.047  -0.625  1.00  0.00     0.108 A 
HETATM   34  N1  UNL     1      -3.905  -2.650  -1.727  1.00  0.00    -0.354 N 
HETATM   35  C4  UNL     1      -5.101  -3.237  -1.728  1.00  0.00     0.020 A 
ATOM     36  H1  UNL     1      -3.570  -2.002  -2.440  1.00  0.00     0.166 HD
HETATM   37  C3  UNL     1      -5.165  -4.038  -0.593  1.00  0.00     0.040 A 
HETATM   38  C5  UNL     1      -6.169  -3.059  -2.763  1.00  0.00     0.069 C 
HETATM   39  C25 UNL     1      -3.961  -3.915   0.096  1.00  0.00    -0.014 A 
HETATM   40  C26 UNL     1      -3.592  -4.595   1.343  1.00  0.00     0.052 C 
BRANCH  37  41
HETATM   41  C2  UNL     1      -6.312  -4.831  -0.240  1.00  0.00     0.158 C 
HETATM   42  C1  UNL     1      -6.474  -5.693   0.936  1.00  0.00     0.097 C 
HETATM   43  O1  UNL     1      -7.334  -4.802  -1.028  1.00  0.00    -0.293 OA
ENDBRANCH  37  41
ENDBRANCH   1  33
TORSDOF 11
