REMARK  12 active torsions:
REMARK  status: ('A' for Active; 'I' for Inactive)
REMARK    1  A    between atoms: O1_2  and  C2_3 
REMARK    2  A    between atoms: C4_5  and  C5_6 
REMARK    3  A    between atoms: C5_6  and  C6_7 
REMARK    4  A    between atoms: C10_16  and  O3_17 
REMARK    5  A    between atoms: O3_17  and  C11_18 
REMARK    6  A    between atoms: C11_18  and  C12_19 
REMARK    7  A    between atoms: C11_18  and  C19_30 
REMARK       I    between atoms: C12_19  and  N3_21 
REMARK    8  A    between atoms: N3_21  and  C13_23 
REMARK    9  A    between atoms: C13_23  and  C14_24 
REMARK   10  A    between atoms: C14_24  and  N4_25 
REMARK   11  A    between atoms: C23_34  and  O5_35 
REMARK   12  A    between atoms: C25_37  and  O6_38 
ROOT
HETATM    1  C2  UNL     1      -1.990   2.305   1.853  1.00  0.00     0.105 A 
HETATM    2  C3  UNL     1      -2.385   0.988   1.791  1.00  0.00     0.050 A 
HETATM    3  C4  UNL     1      -1.959   0.119   0.769  1.00  0.00    -0.013 A 
HETATM    4  C10 UNL     1      -1.114   0.567  -0.220  1.00  0.00     0.113 A 
HETATM    5  C23 UNL     1      -0.720   1.896  -0.156  1.00  0.00     0.138 A 
HETATM    6  C25 UNL     1      -1.153   2.751   0.869  1.00  0.00     0.138 A 
ENDROOT
BRANCH   4   7
HETATM    7  O3  UNL     1      -0.668  -0.229  -1.235  1.00  0.00    -0.332 OA
BRANCH   7   8
HETATM    8  C11 UNL     1       0.300  -1.209  -1.279  1.00  0.00     0.228 C 
BRANCH   8   9
HETATM    9  C12 UNL     1       1.737  -0.757  -1.285  1.00  0.00     0.251 C 
HETATM   10  O4  UNL     1       2.120   0.353  -1.654  1.00  0.00    -0.270 OA
HETATM   11  N3  UNL     1       2.752  -1.660  -0.829  1.00  0.00    -0.334 N 
ATOM     12  H3  UNL     1       2.408  -2.582  -0.559  1.00  0.00     0.168 HD
BRANCH  11  13
HETATM   13  C13 UNL     1       4.123  -1.494  -0.692  1.00  0.00     0.102 C 
BRANCH  13  14
HETATM   14  C14 UNL     1       4.797  -0.713   0.351  1.00  0.00     0.076 C 
BRANCH  14  15
HETATM   15  N4  UNL     1       4.502   0.633   0.618  1.00  0.00    -0.291 NA
HETATM   16  C15 UNL     1       3.314   0.792   1.390  1.00  0.00     0.095 C 
HETATM   17  C16 UNL     1       3.734   1.360   2.741  1.00  0.00     0.016 C 
HETATM   18  C17 UNL     1       5.233   1.294   2.753  1.00  0.00     0.016 C 
HETATM   19  C18 UNL     1       5.550   1.365   1.275  1.00  0.00     0.095 C 
ENDBRANCH  14  15
ENDBRANCH  13  14
ENDBRANCH  11  13
ENDBRANCH   8   9
BRANCH   8  20
HETATM   20  C19 UNL     1       0.064  -2.034  -2.528  1.00  0.00    -0.016 C 
HETATM   21  C20 UNL     1       0.180  -1.179  -3.780  1.00  0.00     0.018 C 
HETATM   22  C21 UNL     1      -1.355  -2.538  -2.528  1.00  0.00     0.018 C 
HETATM   23  C22 UNL     1       0.949  -3.216  -2.699  1.00  0.00     0.018 C 
ENDBRANCH   8  20
ENDBRANCH   7   8
ENDBRANCH   4   7
BRANCH   3  24
HETATM   24  C5  UNL     1      -2.559  -1.231   0.860  1.00  0.00     0.101 C 
BRANCH  24  25
HETATM   25  C6  UNL     1      -3.822  -1.295   0.037  1.00  0.00     0.040 A 
HETATM   26  N1  UNL     1      -4.454  -0.293  -0.602  1.00  0.00    -0.310 N 
HETATM   27  C7  UNL     1      -5.560  -0.772  -1.217  1.00  0.00     0.324 A 
ATOM     28  H1  UNL     1      -4.146   0.679  -0.620  1.00  0.00     0.170 HD
HETATM   29  O2  UNL     1      -6.406  -0.151  -1.910  1.00  0.00    -0.247 OA
HETATM   30  N2  UNL     1      -5.628  -2.084  -0.966  1.00  0.00    -0.311 N 
HETATM   31  C8  UNL     1      -4.572  -2.421  -0.201  1.00  0.00     0.033 A 
ATOM     32  H2  UNL     1      -6.354  -2.719  -1.297  1.00  0.00     0.170 HD
HETATM   33  C9  UNL     1      -4.249  -3.772   0.313  1.00  0.00     0.070 C 
ENDBRANCH  24  25
ENDBRANCH   3  24
BRANCH   5  34
HETATM   34  O5  UNL     1       0.111   2.526  -1.066  1.00  0.00    -0.351 OA
HETATM   35  C24 UNL     1      -0.496   3.151  -2.182  1.00  0.00     0.210 C 
ENDBRANCH   5  34
BRANCH   6  36
HETATM   36  O6  UNL     1      -0.746   4.074   0.915  1.00  0.00    -0.351 OA
HETATM   37  C26 UNL     1       0.440   4.382   1.634  1.00  0.00     0.210 C 
ENDBRANCH   6  36
BRANCH   1  38
HETATM   38  O1  UNL     1      -2.401   3.164   2.851  1.00  0.00    -0.353 OA
HETATM   39  C1  UNL     1      -3.262   2.768   3.886  1.00  0.00     0.210 C 
ENDBRANCH   1  38
TORSDOF 12
