REMARK  14 active torsions:
REMARK  status: ('A' for Active; 'I' for Inactive)
REMARK    1  A    between atoms: C2_2  and  O1_3 
REMARK    2  A    between atoms: C2_2  and  C3_5 
REMARK    3  A    between atoms: C3_5  and  C4_6 
REMARK    4  A    between atoms: C4_6  and  C5_7 
REMARK    5  A    between atoms: C5_7  and  O2_8 
REMARK    6  A    between atoms: O2_8  and  C6_9 
REMARK    7  A    between atoms: C10_14  and  N1_15 
REMARK       I    between atoms: N1_15  and  C11_17 
REMARK       I    between atoms: C11_17  and  N2_19 
REMARK    8  A    between atoms: N2_19  and  C12_21 
REMARK    9  A    between atoms: C12_21  and  C13_22 
REMARK   10  A    between atoms: C15_24  and  C16_25 
REMARK   11  A    between atoms: C16_25  and  C17_26 
REMARK   12  A    between atoms: C17_26  and  C19_28 
REMARK   13  A    between atoms: C19_28  and  C21_30 
REMARK   14  A    between atoms: C25_35  and  O6_37 
ROOT
HETATM    1  C6  UNL     1       5.864  -0.498   0.054  1.00  0.00     0.334 C 
HETATM    2  O3  UNL     1       5.407  -1.051  -1.142  1.00  0.00    -0.342 OA
HETATM    3  C7  UNL     1       4.051  -1.084  -1.266  1.00  0.00     0.081 C 
HETATM    4  C8  UNL     1       3.760  -1.764  -2.612  1.00  0.00     0.048 C 
HETATM    5  C9  UNL     1       3.535   0.348  -1.432  1.00  0.00     0.048 C 
HETATM    6  C10 UNL     1       3.305  -1.763  -0.181  1.00  0.00     0.161 C 
HETATM    7  C25 UNL     1       3.939  -1.699   1.173  1.00  0.00     0.142 C 
HETATM    8  C26 UNL     1       3.367  -0.622   2.063  1.00  0.00     0.057 C 
HETATM    9  C27 UNL     1       5.416  -1.477   1.112  1.00  0.00     0.217 C 
HETATM   10  O7  UNL     1       6.199  -2.035   1.848  1.00  0.00    -0.289 OA
ENDROOT
BRANCH   6  11
HETATM   11  N1  UNL     1       1.929  -1.302  -0.200  1.00  0.00    -0.332 N 
HETATM   12  C11 UNL     1       0.836  -2.168  -0.457  1.00  0.00     0.316 C 
HETATM   13  O4  UNL     1       1.093  -3.376  -0.673  1.00  0.00    -0.247 OA
HETATM   14  N2  UNL     1      -0.499  -1.689  -0.471  1.00  0.00    -0.339 N 
ATOM     15  H2  UNL     1      -0.705  -0.705  -0.296  1.00  0.00     0.164 HD
ATOM     16  H1  UNL     1       1.741  -0.316  -0.021  1.00  0.00     0.164 HD
BRANCH  14  17
HETATM   17  C12 UNL     1      -1.543  -2.618  -0.736  1.00  0.00     0.157 C 
BRANCH  17  18
HETATM   18  C13 UNL     1      -2.915  -2.103  -0.746  1.00  0.00    -0.070 C 
HETATM   19  C14 UNL     1      -3.993  -3.132  -1.039  1.00  0.00     0.044 C 
HETATM   20  C15 UNL     1      -3.283  -0.850  -0.533  1.00  0.00    -0.022 C 
BRANCH  20  21
HETATM   21  C16 UNL     1      -4.703  -0.407  -0.561  1.00  0.00     0.032 C 
BRANCH  21  22
HETATM   22  C17 UNL     1      -5.160   0.209   0.736  1.00  0.00    -0.009 C 
HETATM   23  C18 UNL     1      -5.043  -0.746   1.881  1.00  0.00     0.011 C 
BRANCH  22  24
HETATM   24  C19 UNL     1      -6.594   0.681   0.533  1.00  0.00     0.017 C 
HETATM   25  C20 UNL     1      -7.532  -0.422   0.170  1.00  0.00     0.013 C 
BRANCH  24  26
HETATM   26  C21 UNL     1      -7.103   1.481   1.712  1.00  0.00     0.160 A 
HETATM   27  O5  UNL     1      -6.418   2.654   2.052  1.00  0.00    -0.370 OA
HETATM   28  C22 UNL     1      -7.751   2.772   1.464  1.00  0.00     0.081 A 
HETATM   29  C23 UNL     1      -7.760   3.377   0.090  1.00  0.00     0.048 C 
HETATM   30  C24 UNL     1      -8.790   3.274   2.474  1.00  0.00     0.048 C 
ENDBRANCH  24  26
ENDBRANCH  22  24
ENDBRANCH  21  22
ENDBRANCH  20  21
ENDBRANCH  17  18
ENDBRANCH  14  17
ENDBRANCH   6  11
BRANCH   7  31
HETATM   31  O6  UNL     1       3.765  -2.917   1.867  1.00  0.00    -0.380 OA
ATOM     32  H6  UNL     1       4.167  -2.876   2.727  1.00  0.00     0.211 HD
ENDBRANCH   7  31
BRANCH   1  33
HETATM   33  O2  UNL     1       7.238  -0.368   0.034  1.00  0.00    -0.350 OA
BRANCH  33  34
HETATM   34  C5  UNL     1       7.512   0.998   0.313  1.00  0.00     0.199 C 
BRANCH  34  35
HETATM   35  C4  UNL     1       8.934   1.275   0.319  1.00  0.00     0.002 C 
BRANCH  35  36
HETATM   36  C3  UNL     1       9.599   2.079  -0.413  1.00  0.00     0.029 C 
BRANCH  36  37
HETATM   37  C2  UNL     1       9.207   2.956  -1.455  1.00  0.00     0.039 C 
HETATM   38  C1  UNL     1       7.853   3.164  -1.985  1.00  0.00     0.076 C 
BRANCH  37  39
HETATM   39  O1  UNL     1      10.117   3.689  -2.048  1.00  0.00    -0.365 OA
ATOM     40  H1  UNL     1      10.993   3.554  -1.705  1.00  0.00     0.217 HD
ENDBRANCH  37  39
ENDBRANCH  36  37
ENDBRANCH  35  36
ENDBRANCH  34  35
ENDBRANCH  33  34
ENDBRANCH   1  33
TORSDOF 14
