REMARK  13 active torsions:
REMARK  status: ('A' for Active; 'I' for Inactive)
REMARK    1  A    between atoms: C3_3  and  C4_4 
REMARK    2  A    between atoms: C4_4  and  C5_5 
REMARK    3  A    between atoms: C7_7  and  O1_8 
REMARK    4  A    between atoms: C9_10  and  O2_11 
REMARK    5  A    between atoms: C11_13  and  C12_14 
REMARK    6  A    between atoms: C12_14  and  C13_15 
REMARK    7  A    between atoms: C13_15  and  C14_16 
REMARK    8  A    between atoms: C14_16  and  C15_17 
REMARK    9  A    between atoms: C16_20  and  O5_21 
REMARK   10  A    between atoms: N2_29  and  C19_30 
REMARK   11  A    between atoms: C19_30  and  C20_31 
REMARK   12  A    between atoms: C20_31  and  C21_32 
REMARK   13  A    between atoms: C21_32  and  C22_33 
ROOT
HETATM    1  C1  UNL     1      -1.507  -1.263   1.203  1.00  0.00     0.044 C 
HETATM    2  C2  UNL     1      -0.904  -0.105   1.039  1.00  0.00     0.045 A 
HETATM    3  C3  UNL     1       0.411  -0.066   0.620  1.00  0.00     0.059 A 
HETATM    4  C17 UNL     1       0.969   1.204   0.451  1.00  0.00     0.261 A 
HETATM    5  O6  UNL     1       2.165   1.362   0.071  1.00  0.00    -0.267 OA
HETATM    6  N1  UNL     1       0.236   2.285   0.692  1.00  0.00    -0.275 N 
ATOM      7  H1  UNL     1       0.654   3.207   0.565  1.00  0.00     0.173 HD
HETATM    8  C18 UNL     1      -1.020   2.199   1.092  1.00  0.00     0.329 A 
HETATM    9  O7  UNL     1      -1.697   3.253   1.315  1.00  0.00    -0.246 OA
HETATM   10  N2  UNL     1      -1.630   1.024   1.279  1.00  0.00    -0.299 N 
ENDROOT
BRANCH   3  11
HETATM   11  C4  UNL     1       1.135  -1.130   0.385  1.00  0.00     0.033 C 
BRANCH  11  12
HETATM   12  C5  UNL     1       2.523  -1.157  -0.057  1.00  0.00     0.001 A 
HETATM   13  C6  UNL     1       2.748  -1.193  -1.427  1.00  0.00     0.054 A 
HETATM   14  C7  UNL     1       4.044  -1.243  -1.894  1.00  0.00     0.103 A 
HETATM   15  C9  UNL     1       5.073  -1.256  -0.996  1.00  0.00     0.110 A 
HETATM   16  C11 UNL     1       4.904  -1.221   0.370  1.00  0.00     0.012 A 
HETATM   17  C16 UNL     1       3.605  -1.171   0.830  1.00  0.00     0.085 A 
BRANCH  14  18
HETATM   18  O1  UNL     1       4.232  -1.278  -3.266  1.00  0.00    -0.353 OA
HETATM   19  C8  UNL     1       3.168  -1.265  -4.170  1.00  0.00     0.210 C 
ENDBRANCH  14  18
BRANCH  15  20
HETATM   20  O2  UNL     1       6.360  -1.306  -1.491  1.00  0.00    -0.352 OA
HETATM   21  C10 UNL     1       6.943  -2.573  -1.714  1.00  0.00     0.210 C 
ENDBRANCH  15  20
BRANCH  16  22
HETATM   22  C12 UNL     1       6.065  -1.237   1.248  1.00  0.00     0.045 C 
BRANCH  22  23
HETATM   23  C13 UNL     1       6.809   0.070   1.327  1.00  0.00     0.015 C 
BRANCH  23  24
HETATM   24  C14 UNL     1       5.840   1.129   1.851  1.00  0.00     0.113 C 
BRANCH  24  25
HETATM   25  C15 UNL     1       6.492   2.449   1.960  1.00  0.00     0.172 C 
HETATM   26  O3  UNL     1       5.832   3.414   2.374  1.00  0.00    -0.648 OA
HETATM   27  O4  UNL     1       7.809   2.620   1.612  1.00  0.00    -0.648 OA
ENDBRANCH  24  25
ENDBRANCH  23  24
ENDBRANCH  22  23
ENDBRANCH  16  22
BRANCH  17  28
HETATM   28  O5  UNL     1       3.340  -1.134   2.169  1.00  0.00    -0.359 OA
ATOM     29  H5  UNL     1       4.075  -1.144   2.771  1.00  0.00     0.217 HD
ENDBRANCH  17  28
ENDBRANCH  11  12
ENDBRANCH   3  11
BRANCH  10  30
HETATM   30  C19 UNL     1      -2.998   1.010   1.747  1.00  0.00     0.134 C 
BRANCH  30  31
HETATM   31  C20 UNL     1      -3.970   0.932   0.595  1.00  0.00     0.021 C 
BRANCH  31  32
HETATM   32  C21 UNL     1      -5.406   0.917   1.085  1.00  0.00     0.006 C 
BRANCH  32  33
HETATM   33  C22 UNL     1      -6.317   0.839  -0.107  1.00  0.00    -0.014 C 
HETATM   34  C23 UNL     1      -7.772   0.823   0.350  1.00  0.00     0.004 C 
HETATM   35  C24 UNL     1      -8.631   1.047  -0.872  1.00  0.00     0.000 C 
HETATM   36  C25 UNL     1      -8.007   0.470  -2.125  1.00  0.00     0.000 C 
HETATM   37  C26 UNL     1      -7.163  -0.756  -1.797  1.00  0.00     0.000 C 
HETATM   38  C27 UNL     1      -5.990  -0.392  -0.929  1.00  0.00     0.004 C 
ENDBRANCH  32  33
ENDBRANCH  31  32
ENDBRANCH  30  31
ENDBRANCH  10  30
TORSDOF 13
