REMARK  12 active torsions:
REMARK  status: ('A' for Active; 'I' for Inactive)
REMARK    1  A    between atoms: C4_5  and  N1_6 
REMARK       I    between atoms: N1_6  and  C5_8 
REMARK    2  A    between atoms: C5_8  and  C6_10 
REMARK    3  A    between atoms: C6_10  and  N2_11 
REMARK    4  A    between atoms: C9_14  and  C10_15 
REMARK    5  A    between atoms: C10_15  and  C11_16 
REMARK    6  A    between atoms: C11_16  and  N3_17 
REMARK       I    between atoms: N3_17  and  C12_19 
REMARK    7  A    between atoms: C12_19  and  C13_21 
REMARK    8  A    between atoms: C13_21  and  C14_22 
REMARK    9  A    between atoms: C22_30  and  C23_31 
REMARK   10  A    between atoms: C23_31  and  O4_33 
REMARK   11  A    between atoms: O4_33  and  C24_34 
REMARK   12  A    between atoms: C24_34  and  C25_35 
ROOT
HETATM    1  N2  UNL     1      -1.515  -1.584  -1.066  1.00  0.00     0.097 N 
HETATM    2  C7  UNL     1      -0.725  -1.264   0.069  1.00  0.00     0.273 C 
HETATM    3  C8  UNL     1       0.430  -2.215   0.204  1.00  0.00     0.035 C 
HETATM    4  C9  UNL     1       1.144  -2.362  -1.096  1.00  0.00    -0.010 C 
HETATM    5  C20 UNL     1       0.693  -1.325  -2.069  1.00  0.00     0.035 C 
HETATM    6  C21 UNL     1      -0.789  -1.512  -2.312  1.00  0.00     0.273 C 
ENDROOT
BRANCH   1   7
HETATM    7  C6  UNL     1      -2.771  -0.932  -1.189  1.00  0.00     0.374 C 
BRANCH   7   8
HETATM    8  C5  UNL     1      -3.804  -1.324  -0.219  1.00  0.00     0.251 C 
HETATM    9  N1  UNL     1      -5.069  -0.703  -0.284  1.00  0.00    -0.319 N 
ATOM     10  H1  UNL     1      -5.273   0.008  -0.986  1.00  0.00     0.169 HD
HETATM   11  O1  UNL     1      -3.578  -2.182   0.642  1.00  0.00    -0.271 OA
BRANCH   9  12
HETATM   12  C4  UNL     1      -6.062  -1.110   0.677  1.00  0.00     0.093 A 
HETATM   13  S1  UNL     1      -5.831  -2.306   1.907  1.00  0.00    -0.083 SA
HETATM   14  C3  UNL     1      -7.366  -2.253   2.616  1.00  0.00     0.059 A 
HETATM   15  C2  UNL     1      -8.028  -1.310   1.888  1.00  0.00    -0.036 A 
HETATM   16  C1  UNL     1      -9.476  -0.980   2.243  1.00  0.00     0.050 C 
HETATM   17  C22 UNL     1      -7.354  -0.713   0.878  1.00  0.00     0.079 A 
BRANCH  17  18
HETATM   18  C23 UNL     1      -7.999   0.338   0.025  1.00  0.00     0.297 C 
HETATM   19  O3  UNL     1      -9.188   0.707   0.204  1.00  0.00    -0.259 OA
BRANCH  18  20
HETATM   20  O4  UNL     1      -7.341   0.966  -1.003  1.00  0.00    -0.308 OA
BRANCH  20  21
HETATM   21  C24 UNL     1      -7.841   1.948  -1.845  1.00  0.00     0.278 C 
BRANCH  21  22
HETATM   22  C25 UNL     1      -8.265   3.193  -1.213  1.00  0.00     0.255 C 
HETATM   23  N4  UNL     1      -8.819   4.251  -1.981  1.00  0.00    -0.060 NA
HETATM   24  O5  UNL     1      -8.152   3.364   0.026  1.00  0.00    -0.274 OA
ENDBRANCH  21  22
ENDBRANCH  20  21
ENDBRANCH  18  20
ENDBRANCH  17  18
ENDBRANCH   9  12
ENDBRANCH   7   8
ENDBRANCH   1   7
BRANCH   4  25
HETATM   25  C10 UNL     1       2.657  -2.403  -0.979  1.00  0.00     0.024 C 
BRANCH  25  26
HETATM   26  C11 UNL     1       3.261  -1.184  -0.384  1.00  0.00     0.123 C 
BRANCH  26  27
HETATM   27  N3  UNL     1       4.708  -1.343  -0.343  1.00  0.00    -0.361 N 
HETATM   28  C12 UNL     1       5.526  -0.281   0.185  1.00  0.00     0.217 C 
HETATM   29  O2  UNL     1       4.940   0.742   0.587  1.00  0.00    -0.274 OA
ATOM     30  H3  UNL     1       5.140  -2.201  -0.686  1.00  0.00     0.162 HD
BRANCH  28  31
HETATM   31  C13 UNL     1       6.983  -0.475   0.212  1.00  0.00     0.107 C 
BRANCH  31  32
HETATM   32  C14 UNL     1       7.785   0.643   0.778  1.00  0.00    -0.006 C 
HETATM   33  C15 UNL     1       7.530   1.905  -0.039  1.00  0.00     0.005 C 
HETATM   34  C16 UNL     1       8.767   2.773   0.157  1.00  0.00     0.000 C 
HETATM   35  C17 UNL     1       9.252   2.679   1.594  1.00  0.00     0.000 C 
HETATM   36  C18 UNL     1       8.129   2.301   2.537  1.00  0.00     0.000 C 
HETATM   37  C19 UNL     1       7.530   0.946   2.213  1.00  0.00     0.005 C 
ENDBRANCH  31  32
ENDBRANCH  28  31
ENDBRANCH  26  27
ENDBRANCH  25  26
ENDBRANCH   4  25
TORSDOF 12
