REMARK  13 active torsions:
REMARK  status: ('A' for Active; 'I' for Inactive)
REMARK    1  A    between atoms: O1_2  and  C2_3 
REMARK    2  A    between atoms: C4_5  and  C5_6 
REMARK       I    between atoms: N2_8  and  C6_10 
REMARK       I    between atoms: C6_10  and  N3_12 
REMARK    3  A    between atoms: N3_12  and  C7_14 
REMARK    4  A    between atoms: C7_14  and  C8_15 
REMARK    5  A    between atoms: C8_15  and  C9_16 
REMARK    6  A    between atoms: C9_16  and  C10_17 
REMARK    7  A    between atoms: C10_17  and  C11_18 
REMARK    8  A    between atoms: C11_18  and  C12_19 
REMARK    9  A    between atoms: C14_23  and  N5_24 
REMARK   10  A    between atoms: N5_24  and  N6_26 
REMARK   11  A    between atoms: N7_29  and  C15_30 
REMARK   12  A    between atoms: C20_35  and  O5_36 
REMARK   13  A    between atoms: C22_38  and  O6_39 
ROOT
HETATM    1  C5  UNL     1       3.444  -2.227   3.832  1.00  0.00     0.130 C 
HETATM    2  N1  UNL     1       3.971  -3.095   4.896  1.00  0.00    -0.082 NA
HETATM    3  N2  UNL     1       2.228  -2.175   3.679  1.00  0.00    -0.296 N 
ATOM      4  H2  UNL     1       1.799  -2.788   4.372  1.00  0.00     0.171 HD
HETATM    5  C6  UNL     1       1.229  -1.615   2.941  1.00  0.00     0.321 C 
HETATM    6  O2  UNL     1       0.786  -0.453   3.279  1.00  0.00    -0.247 OA
HETATM    7  N3  UNL     1       0.610  -2.201   1.807  1.00  0.00    -0.343 N 
ATOM      8  H3  UNL     1       0.952  -3.120   1.526  1.00  0.00     0.164 HD
ENDROOT
BRANCH   7   9
HETATM    9  C7  UNL     1      -0.443  -1.641   1.015  1.00  0.00     0.124 C 
BRANCH   9  10
HETATM   10  C8  UNL     1      -1.701  -1.351   1.771  1.00  0.00     0.020 C 
BRANCH  10  11
HETATM   11  C9  UNL     1      -2.775  -0.823   0.852  1.00  0.00     0.002 C 
BRANCH  11  12
HETATM   12  C10 UNL     1      -2.383   0.438   0.143  1.00  0.00     0.002 C 
BRANCH  12  13
HETATM   13  C11 UNL     1      -3.502   0.965  -0.770  1.00  0.00     0.028 C 
BRANCH  13  14
HETATM   14  C12 UNL     1      -3.805  -0.073  -1.771  1.00  0.00     0.121 C 
HETATM   15  C13 UNL     1      -2.542  -0.347  -2.572  1.00  0.00     0.164 C 
HETATM   16  N4  UNL     1      -3.056  -0.941  -3.759  1.00  0.00    -0.223 N 
HETATM   17  C14 UNL     1      -4.289  -0.566  -3.934  1.00  0.00     0.696 C 
ATOM     18  H4  UNL     1      -2.537  -1.565  -4.377  1.00  0.00     0.177 HD
HETATM   19  N7  UNL     1      -4.690   0.313  -2.859  1.00  0.00    -0.202 N 
BRANCH  17  20
HETATM   20  N5  UNL     1      -5.019  -1.028  -5.052  1.00  0.00    -0.072 N 
ATOM     21  H5  UNL     1      -5.860  -1.589  -4.917  1.00  0.00     0.212 HD
BRANCH  20  22
HETATM   22  N6  UNL     1      -4.591  -0.719  -6.330  1.00  0.00    -0.024 N 
HETATM   23  O3  UNL     1      -5.426  -0.623  -7.238  1.00  0.00    -0.516 OA
HETATM   24  O4  UNL     1      -3.270  -0.509  -6.662  1.00  0.00    -0.516 OA
ENDBRANCH  20  22
ENDBRANCH  17  20
BRANCH  19  25
HETATM   25  C15 UNL     1      -5.722   1.316  -2.920  1.00  0.00     0.039 C 
HETATM   26  C16 UNL     1      -6.747   1.130  -1.808  1.00  0.00     0.038 C 
HETATM   27  C17 UNL     1      -5.074   2.677  -2.900  1.00  0.00     0.038 C 
HETATM   28  C18 UNL     1      -6.539   1.266  -4.205  1.00  0.00     0.038 C 
ENDBRANCH  19  25
ENDBRANCH  13  14
ENDBRANCH  12  13
ENDBRANCH  11  12
ENDBRANCH  10  11
ENDBRANCH   9  10
ENDBRANCH   7   9
BRANCH   1  29
HETATM   29  C4  UNL     1       4.506  -1.537   3.096  1.00  0.00     0.011 A 
HETATM   30  C3  UNL     1       4.186  -0.700   2.048  1.00  0.00     0.054 A 
HETATM   31  C2  UNL     1       5.188  -0.021   1.335  1.00  0.00     0.105 A 
HETATM   32  C22 UNL     1       6.502  -0.201   1.694  1.00  0.00     0.135 A 
HETATM   33  C20 UNL     1       6.857  -1.041   2.749  1.00  0.00     0.105 A 
HETATM   34  C19 UNL     1       5.851  -1.689   3.425  1.00  0.00     0.054 A 
BRANCH  31  35
HETATM   35  O1  UNL     1       4.893   0.823   0.281  1.00  0.00    -0.353 OA
HETATM   36  C1  UNL     1       3.515   0.986  -0.065  1.00  0.00     0.210 C 
ENDBRANCH  31  35
BRANCH  32  37
HETATM   37  O6  UNL     1       7.488   0.474   0.985  1.00  0.00    -0.351 OA
HETATM   38  C23 UNL     1       7.815   1.772   1.509  1.00  0.00     0.210 C 
ENDBRANCH  32  37
BRANCH  33  39
HETATM   39  O5  UNL     1       8.197  -1.192   3.077  1.00  0.00    -0.353 OA
HETATM   40  C21 UNL     1       8.633  -2.023   4.129  1.00  0.00     0.210 C 
ENDBRANCH  33  39
ENDBRANCH   1  29
TORSDOF 13
