REMARK  0 active torsions:
REMARK  status: ('A' for Active; 'I' for Inactive)
ROOT
HETATM    1  C1  UNL     1      -1.478   3.264  -0.066  1.00  0.00     0.018 C 
HETATM    2  C2  UNL     1      -1.368   2.049  -0.061  1.00  0.00    -0.077 C 
HETATM    3  C3  UNL     1      -1.228   0.620  -0.034  1.00  0.00     0.030 A 
HETATM    4  C4  UNL     1      -2.325  -0.221  -0.040  1.00  0.00     0.038 A 
HETATM    5  C5  UNL     1      -2.125  -1.582  -0.013  1.00  0.00     0.090 A 
HETATM    6  N1  UNL     1      -0.892  -2.085   0.017  1.00  0.00    -0.365 N 
ATOM      7  H1  UNL     1      -0.782  -3.099   0.036  1.00  0.00     0.165 HD
HETATM    8  C6  UNL     1       0.213  -1.322   0.024  1.00  0.00     0.043 A 
HETATM    9  C7  UNL     1       1.488  -1.848   0.056  1.00  0.00     0.030 A 
HETATM   10  C8  UNL     1       2.588  -1.014   0.062  1.00  0.00     0.002 A 
HETATM   11  C9  UNL     1       2.407   0.344   0.035  1.00  0.00     0.001 A 
HETATM   12  C10 UNL     1       1.129   0.855   0.004  1.00  0.00     0.015 A 
HETATM   13  C11 UNL     1       0.024   0.052  -0.002  1.00  0.00     0.009 A 
ENDROOT
TORSDOF 0
