REMARK  0 active torsions:
REMARK  status: ('A' for Active; 'I' for Inactive)
ROOT
HETATM    1  C1  UNL     1      -0.445   3.735   0.063  1.00  0.00     0.229 C 
HETATM    2  N1  UNL     1      -0.008   2.662   0.043  1.00  0.00    -0.428 NA
HETATM    3  C2  UNL     1       0.505   1.367   0.039  1.00  0.00     0.116 A 
HETATM    4  C3  UNL     1       1.849   1.106   0.082  1.00  0.00     0.045 A 
HETATM    5  C4  UNL     1       2.329  -0.196   0.077  1.00  0.00     0.004 A 
HETATM    6  C5  UNL     1       1.469  -1.268   0.029  1.00  0.00     0.014 A 
HETATM    7  C6  UNL     1       0.093  -1.026  -0.015  1.00  0.00    -0.007 A 
HETATM    8  C7  UNL     1      -0.779  -2.106  -0.063  1.00  0.00     0.100 A 
HETATM    9  N2  UNL     1      -2.089  -1.834  -0.104  1.00  0.00    -0.374 N 
ATOM     10  H2  UNL     1      -2.752  -2.608  -0.139  1.00  0.00     0.164 HD
HETATM   11  C8  UNL     1      -2.561  -0.574  -0.100  1.00  0.00     0.088 A 
HETATM   12  C9  UNL     1      -1.715   0.514  -0.052  1.00  0.00     0.032 A 
HETATM   13  C10 UNL     1      -0.358   0.269  -0.009  1.00  0.00     0.017 A 
ENDROOT
TORSDOF 0
