REMARK  15 active torsions:
REMARK  status: ('A' for Active; 'I' for Inactive)
REMARK       I    between atoms: C1_4  and  N3_6 
REMARK    1  A    between atoms: N3_6  and  C2_7 
REMARK    2  A    between atoms: N3_6  and  C16_41 
REMARK    3  A    between atoms: C2_7  and  C3_8 
REMARK    4  A    between atoms: C3_8  and  C4_9 
REMARK    5  A    between atoms: C4_9  and  N4_10 
REMARK    6  A    between atoms: N4_10  and  C5_12 
REMARK    7  A    between atoms: C6_15  and  N6_16 
REMARK    8  A    between atoms: N6_16  and  C7_18 
REMARK    9  A    between atoms: C7_18  and  C8_19 
REMARK   10  A    between atoms: C8_19  and  N7_20 
REMARK   11  A    between atoms: C10_24  and  N8_25 
REMARK   12  A    between atoms: N10_32  and  C12_33 
REMARK   13  A    between atoms: C12_33  and  C13_34 
REMARK   14  A    between atoms: C13_34  and  C14_35 
REMARK   15  A    between atoms: C16_41  and  C17_42 
ROOT
HETATM    1  C5  UNL     1      -0.789  -0.432   0.451  1.00  0.00     0.681 A 
HETATM    2  N5  UNL     1      -1.003   0.785   0.969  1.00  0.00    -0.176 N 
ATOM      3  H5  UNL     1      -0.198   1.329   1.279  1.00  0.00     0.186 HD
HETATM    4  C6  UNL     1      -2.225   1.322   1.100  1.00  0.00     0.134 A 
HETATM    5  C9  UNL     1      -3.309   0.573   0.676  1.00  0.00     0.097 A 
HETATM    6  C10 UNL     1      -4.581   1.086   0.759  1.00  0.00     0.120 A 
HETATM    7  N9  UNL     1      -5.583   0.326   0.305  1.00  0.00    -0.294 N 
ATOM      8  H9  UNL     1      -6.538   0.682   0.353  1.00  0.00     0.172 HD
HETATM    9  C11 UNL     1      -5.366  -0.892  -0.212  1.00  0.00     0.330 A 
HETATM   10  O3  UNL     1      -6.361  -1.565  -0.627  1.00  0.00    -0.246 OA
HETATM   11  N10 UNL     1      -4.116  -1.450  -0.315  1.00  0.00    -0.280 N 
HETATM   12  C15 UNL     1      -3.093  -0.700   0.135  1.00  0.00     0.145 A 
HETATM   13  N12 UNL     1      -1.849  -1.178   0.032  1.00  0.00    -0.175 N 
ATOM     14  H12 UNL     1      -1.693  -2.106  -0.362  1.00  0.00     0.186 HD
ENDROOT
BRANCH   1  15
HETATM   15  N4  UNL     1       0.373  -0.957   0.315  1.00  0.00    -0.226 N 
ATOM     16  H4  UNL     1       0.405  -1.891  -0.093  1.00  0.00     0.177 HD
BRANCH  15  17
HETATM   17  C4  UNL     1       1.619  -0.378   0.671  1.00  0.00     0.139 C 
BRANCH  17  18
HETATM   18  C3  UNL     1       2.584  -0.454  -0.503  1.00  0.00     0.040 C 
BRANCH  18  19
HETATM   19  C2  UNL     1       3.904   0.173  -0.103  1.00  0.00     0.127 C 
BRANCH  19  20
HETATM   20  N3  UNL     1       4.836   0.111  -1.211  1.00  0.00    -0.347 N 
HETATM   21  C1  UNL     1       5.248   1.290  -1.886  1.00  0.00     0.184 C 
HETATM   22  N1  UNL     1       5.269   1.274  -3.171  1.00  0.00    -0.374 N 
HETATM   23  N2  UNL     1       5.617   2.432  -1.144  1.00  0.00    -0.064 NA
ATOM     24  H12 UNL     1       5.565   2.121  -3.656  1.00  0.00     0.158 HD
ATOM     25  H11 UNL     1       5.002   0.448  -3.707  1.00  0.00     0.158 HD
BRANCH  20  26
HETATM   26  C16 UNL     1       5.370  -1.158  -1.664  1.00  0.00     0.224 C 
BRANCH  26  27
HETATM   27  C17 UNL     1       6.839  -1.241  -1.372  1.00  0.00     0.249 C 
HETATM   28  N13 UNL     1       7.528  -0.169  -0.737  1.00  0.00    -0.061 NA
HETATM   29  O5  UNL     1       7.496  -2.256  -1.680  1.00  0.00    -0.275 OA
ENDBRANCH  26  27
ENDBRANCH  20  26
ENDBRANCH  19  20
ENDBRANCH  18  19
ENDBRANCH  17  18
ENDBRANCH  15  17
ENDBRANCH   1  15
BRANCH   4  30
HETATM   30  N6  UNL     1      -2.460   2.474   1.583  1.00  0.00    -0.373 N 
ATOM     31  H6  UNL     1      -3.429   2.788   1.637  1.00  0.00     0.161 HD
BRANCH  30  32
HETATM   32  C7  UNL     1      -1.429   3.358   2.057  1.00  0.00     0.147 C 
BRANCH  32  33
HETATM   33  C8  UNL     1      -0.765   4.166   0.971  1.00  0.00     0.221 C 
BRANCH  33  34
HETATM   34  N7  UNL     1      -1.665   5.020   0.243  1.00  0.00    -0.154 N 
HETATM   35  O1  UNL     1      -1.484   6.270   0.255  1.00  0.00    -0.536 OA
HETATM   36  O2  UNL     1      -2.738   4.578  -0.484  1.00  0.00    -0.536 OA
ENDBRANCH  33  34
ENDBRANCH  32  33
ENDBRANCH  30  32
ENDBRANCH   4  30
BRANCH  11  37
HETATM   37  C12 UNL     1      -4.004  -2.715  -0.936  1.00  0.00     0.167 C 
BRANCH  37  38
HETATM   38  C13 UNL     1      -4.371  -3.932  -0.186  1.00  0.00     0.064 C 
BRANCH  38  39
HETATM   39  C14 UNL     1      -3.765  -4.339   1.037  1.00  0.00     0.252 C 
HETATM   40  N11 UNL     1      -4.157  -5.655   1.547  1.00  0.00    -0.058 NA
HETATM   41  O4  UNL     1      -2.950  -3.753   1.753  1.00  0.00    -0.272 OA
ENDBRANCH  38  39
ENDBRANCH  37  38
ENDBRANCH  11  37
BRANCH   6  42
HETATM   42  N8  UNL     1      -4.733   2.251   1.265  1.00  0.00    -0.384 N 
ATOM     43  H82 UNL     1      -3.969   2.831   1.611  1.00  0.00     0.157 HD
ATOM     44  H81 UNL     1      -5.677   2.632   1.327  1.00  0.00     0.157 HD
ENDBRANCH   6  42
TORSDOF 15
