REMARK  16 active torsions:
REMARK  status: ('A' for Active; 'I' for Inactive)
REMARK    1  A    between atoms: C2_3  and  N4_9 
REMARK    2  A    between atoms: N2_4  and  N3_6 
REMARK    3  A    between atoms: N4_9  and  C3_11 
REMARK    4  A    between atoms: C4_14  and  N6_15 
REMARK    5  A    between atoms: C5_17  and  C6_18 
REMARK    6  A    between atoms: C6_18  and  C7_19 
REMARK    7  A    between atoms: C7_19  and  N7_20 
REMARK    8  A    between atoms: N9_27  and  C9_29 
REMARK       I    between atoms: N10_32  and  C12_33 
REMARK    9  A    between atoms: C12_33  and  C13_35 
REMARK   10  A    between atoms: C13_35  and  C14_36 
REMARK   11  A    between atoms: C14_36  and  C15_37 
REMARK   12  A    between atoms: C15_37  and  N11_38 
REMARK   13  A    between atoms: N11_38  and  C16_41 
REMARK   14  A    between atoms: C16_41  and  O2_42 
REMARK   15  A    between atoms: C16_41  and  C17_44 
REMARK   16  A    between atoms: C17_44  and  C18_45 
ROOT
HETATM    1  N1  UNL     1      -8.093   2.546  -3.093  1.00  0.00    -0.188 NA
HETATM    2  C1  UNL     1      -7.552   1.516  -3.175  1.00  0.00     0.139 C 
HETATM    3  C2  UNL     1      -6.893   0.247  -3.300  1.00  0.00     0.217 C 
HETATM    4  N2  UNL     1      -7.605  -0.832  -3.188  1.00  0.00    -0.283 N 
ATOM      5  H2  UNL     1      -8.605  -0.732  -3.015  1.00  0.00     0.188 HD
ENDROOT
BRANCH   3   6
HETATM    6  N4  UNL     1      -5.503   0.232  -3.540  1.00  0.00    -0.164 N 
ATOM      7  H4  UNL     1      -5.172   0.220  -4.505  1.00  0.00     0.186 HD
BRANCH   6   8
HETATM    8  C3  UNL     1      -4.629   0.233  -2.579  1.00  0.00     0.713 A 
HETATM    9  N5  UNL     1      -5.085   0.249  -1.298  1.00  0.00    -0.021 N 
HETATM   10  C4  UNL     1      -4.250   0.250  -0.253  1.00  0.00     0.710 A 
ATOM     11  H5  UNL     1      -6.091   0.261  -1.129  1.00  0.00     0.203 HD
HETATM   12  N8  UNL     1      -2.896   0.235  -0.519  1.00  0.00    -0.021 N 
HETATM   13  C8  UNL     1      -2.395   0.219  -1.752  1.00  0.00     0.707 A 
ATOM     14  H8  UNL     1      -2.247   0.236   0.268  1.00  0.00     0.203 HD
HETATM   15  N9  UNL     1      -1.189   0.202  -2.029  1.00  0.00    -0.220 N 
HETATM   16  N13 UNL     1      -3.321   0.218  -2.787  1.00  0.00    -0.021 N 
ATOM     17  H9  UNL     1      -1.092   0.192  -3.044  1.00  0.00     0.178 HD
ATOM     18  H13 UNL     1      -2.979   0.205  -3.748  1.00  0.00     0.203 HD
BRANCH  10  19
HETATM   19  N6  UNL     1      -4.599   0.262   0.929  1.00  0.00    -0.204 N 
HETATM   20  C5  UNL     1      -5.619   0.278   1.832  1.00  0.00     0.080 C 
ATOM     21  H6  UNL     1      -3.738   0.258   1.477  1.00  0.00     0.183 HD
BRANCH  20  22
HETATM   22  C6  UNL     1      -7.047   0.194   1.343  1.00  0.00     0.072 C 
BRANCH  22  23
HETATM   23  C7  UNL     1      -8.023   0.219   2.510  1.00  0.00     0.234 C 
BRANCH  23  24
HETATM   24  N7  UNL     1      -9.357   0.134   1.947  1.00  0.00    -0.079 N 
ATOM     25  H73 UNL     1      -9.545   0.855   1.251  1.00  0.00     0.274 HD
ATOM     26  H72 UNL     1      -9.484  -0.672   1.335  1.00  0.00     0.274 HD
ATOM     27  H71 UNL     1     -10.011   0.151   2.729  1.00  0.00     0.274 HD
ENDBRANCH  23  24
ENDBRANCH  22  23
ENDBRANCH  20  22
ENDBRANCH  10  19
BRANCH  15  28
HETATM   28  C9  UNL     1       0.072   0.192  -1.470  1.00  0.00     0.102 C 
HETATM   29  C10 UNL     1       0.347  -1.035  -0.634  1.00  0.00     0.045 C 
HETATM   30  C11 UNL     1       1.682  -1.011   0.022  1.00  0.00     0.127 C 
HETATM   31  N10 UNL     1       2.222   0.303   0.296  1.00  0.00    -0.352 N 
HETATM   32  C12 UNL     1       3.250   0.413   1.298  1.00  0.00     0.219 C 
HETATM   33  C19 UNL     1       1.789   1.486  -0.378  1.00  0.00     0.127 C 
HETATM   34  O1  UNL     1       3.716   1.540   1.534  1.00  0.00    -0.273 OA
HETATM   35  C20 UNL     1       0.259   1.386  -0.525  1.00  0.00     0.045 C 
BRANCH  32  36
HETATM   36  C13 UNL     1       3.746  -0.763   2.033  1.00  0.00     0.105 C 
BRANCH  36  37
HETATM   37  C14 UNL     1       4.973  -0.429   2.808  1.00  0.00     0.037 C 
BRANCH  37  38
HETATM   38  C15 UNL     1       6.145   0.020   1.973  1.00  0.00     0.236 C 
BRANCH  38  39
HETATM   39  N11 UNL     1       6.506  -1.030   1.035  1.00  0.00    -0.049 N 
ATOM     40 2H11 UNL     1       6.692  -1.904   1.528  1.00  0.00     0.280 HD
ATOM     41 1H11 UNL     1       5.696  -1.314   0.484  1.00  0.00     0.280 HD
BRANCH  39  42
HETATM   42  C16 UNL     1       7.600  -0.690   0.183  1.00  0.00     0.326 C 
BRANCH  42  43
HETATM   43  O2  UNL     1       7.369   0.458  -0.569  1.00  0.00    -0.369 OA
ATOM     44  H2  UNL     1       8.097   0.684  -1.136  1.00  0.00     0.212 HD
ENDBRANCH  42  43
BRANCH  42  45
HETATM   45  C17 UNL     1       8.863  -0.453   0.972  1.00  0.00     0.160 C 
BRANCH  45  46
HETATM   46  C18 UNL     1       9.997  -0.100   0.074  1.00  0.00     0.235 C 
HETATM   47  N12 UNL     1       9.747  -0.033  -1.322  1.00  0.00    -0.062 NA
HETATM   48  O3  UNL     1      11.145   0.137   0.483  1.00  0.00    -0.277 OA
ENDBRANCH  45  46
ENDBRANCH  42  45
ENDBRANCH  39  42
ENDBRANCH  38  39
ENDBRANCH  37  38
ENDBRANCH  36  37
ENDBRANCH  32  36
ENDBRANCH  15  28
ENDBRANCH   6   8
ENDBRANCH   3   6
BRANCH   4  49
HETATM   49  N3  UNL     1      -7.088  -2.107  -3.289  1.00  0.00    -0.343 N 
ATOM     50  H32 UNL     1      -6.086  -2.189  -3.462  1.00  0.00     0.176 HD
ATOM     51  H31 UNL     1      -7.648  -2.955  -3.201  1.00  0.00     0.176 HD
ENDBRANCH   4  49
TORSDOF 16
