REMARK  9 active torsions:
REMARK  status: ('A' for Active; 'I' for Inactive)
REMARK    1  A    between atoms: C2_2  and  O1_3 
REMARK    2  A    between atoms: O1_3  and  C3_4 
REMARK    3  A    between atoms: C3_4  and  C4_5 
REMARK    4  A    between atoms: C4_5  and  N1_6 
REMARK    5  A    between atoms: C5_9  and  O2_10 
REMARK    6  A    between atoms: C6_12  and  N3_13 
REMARK    7  A    between atoms: N3_13  and  N4_15 
REMARK    8  A    between atoms: N4_15  and  C7_17 
REMARK    9  A    between atoms: C8_18  and  O3_19 
ROOT
HETATM    1  N3  UNL     1      -1.534  -0.708  -0.598  1.00  0.00    -0.291 N 
ATOM      2  H3  UNL     1      -2.001  -0.274  -1.394  1.00  0.00     0.187 HD
ENDROOT
BRANCH   1   3
HETATM    3  C6  UNL     1      -0.135  -0.933  -0.661  1.00  0.00     0.170 A 
HETATM    4  C5  UNL     1       0.456  -2.183  -0.698  1.00  0.00     0.189 A 
HETATM    5  N2  UNL     1       1.769  -1.972  -0.753  1.00  0.00    -0.273 N 
HETATM    6  N1  UNL     1       2.060  -0.682  -0.755  1.00  0.00    -0.252 N 
ATOM      7  H2  UNL     1       2.466  -2.715  -0.789  1.00  0.00     0.189 HD
HETATM    8  C13 UNL     1       0.894  -0.014  -0.698  1.00  0.00     0.294 A 
HETATM    9  O4  UNL     1       0.756   1.241  -0.681  1.00  0.00    -0.264 OA
BRANCH   4  10
HETATM   10  O2  UNL     1      -0.253  -3.390  -0.677  1.00  0.00    -0.343 OA
ATOM     11  H2  UNL     1      -1.190  -3.541  -0.638  1.00  0.00     0.219 HD
ENDBRANCH   4  10
BRANCH   6  12
HETATM   12  C4  UNL     1       3.391  -0.063  -0.807  1.00  0.00     0.178 C 
BRANCH  12  13
HETATM   13  C3  UNL     1       3.868   0.116   0.608  1.00  0.00     0.189 C 
BRANCH  13  14
HETATM   14  O1  UNL     1       5.112   0.684   0.713  1.00  0.00    -0.390 OA
BRANCH  14  15
HETATM   15  C2  UNL     1       5.198   1.953   0.152  1.00  0.00     0.163 C 
HETATM   16  C1  UNL     1       6.609   2.475   0.338  1.00  0.00     0.033 C 
ENDBRANCH  14  15
ENDBRANCH  13  14
ENDBRANCH  12  13
ENDBRANCH   6  12
ENDBRANCH   1   3
BRANCH   1  17
HETATM   17  N4  UNL     1      -2.232  -1.035   0.434  1.00  0.00    -0.297 N 
ATOM     18  H4  UNL     1      -1.819  -1.471   1.258  1.00  0.00     0.187 HD
BRANCH  17  19
HETATM   19  C7  UNL     1      -3.638  -0.740   0.339  1.00  0.00     0.086 A 
HETATM   20  C8  UNL     1      -4.416  -1.691  -0.157  1.00  0.00     0.128 A 
HETATM   21  C9  UNL     1      -5.837  -1.416  -0.262  1.00  0.00     0.115 A 
HETATM   22 BR1  UNL     1      -6.966  -2.792  -0.980  1.00  0.00    -0.028 Br
HETATM   23  N5  UNL     1      -6.328  -0.285   0.114  1.00  0.00    -0.352 N 
HETATM   24  C10 UNL     1      -5.510   0.728   0.641  1.00  0.00     0.008 A 
ATOM     25  H5  UNL     1      -7.331  -0.122   0.027  1.00  0.00     0.166 HD
HETATM   26  C11 UNL     1      -6.078   2.051   1.082  1.00  0.00     0.068 C 
HETATM   27  C12 UNL     1      -4.210   0.514   0.752  1.00  0.00     0.058 A 
BRANCH  20  28
HETATM   28  O3  UNL     1      -3.871  -2.912  -0.560  1.00  0.00    -0.356 OA
ATOM     29  H3  UNL     1      -4.429  -3.594  -0.916  1.00  0.00     0.218 HD
ENDBRANCH  20  28
ENDBRANCH  17  19
ENDBRANCH   1  17
TORSDOF 9
