REMARK  9 active torsions:
REMARK  status: ('A' for Active; 'I' for Inactive)
REMARK    1  A    between atoms: O1_2  and  C2_3 
REMARK    2  A    between atoms: C4_5  and  C5_6 
REMARK    3  A    between atoms: C5_6  and  C6_7 
REMARK    4  A    between atoms: C6_7  and  C7_8 
REMARK    5  A    between atoms: C10_12  and  O3_13 
REMARK    6  A    between atoms: C11_15  and  O4_16 
REMARK    7  A    between atoms: C14_21  and  O6_22 
REMARK    8  A    between atoms: O6_22  and  C15_23 
REMARK    9  A    between atoms: C18_28  and  O8_29 
ROOT
HETATM    1  C7  UNL     1      -1.475  -1.009   0.099  1.00  0.00     0.041 C 
HETATM    2  C8  UNL     1      -1.129  -2.017   1.204  1.00  0.00     0.026 C 
HETATM    3  C9  UNL     1      -2.464  -0.073   0.688  1.00  0.00     0.084 A 
HETATM    4  O2  UNL     1      -2.630   0.985   1.447  1.00  0.00    -0.288 OA
HETATM    5  C10 UNL     1      -3.885   1.316   1.567  1.00  0.00     0.218 A 
HETATM    6  C11 UNL     1      -4.604   0.404   0.828  1.00  0.00     0.141 A 
HETATM    7  C12 UNL     1      -3.701  -0.476   0.271  1.00  0.00     0.081 A 
HETATM    8  C13 UNL     1      -3.598  -1.654  -0.587  1.00  0.00     0.195 C 
HETATM    9  O5  UNL     1      -4.588  -2.366  -0.863  1.00  0.00    -0.289 OA
HETATM   10  C14 UNL     1      -2.197  -1.752  -0.979  1.00  0.00     0.220 C 
ENDROOT
BRANCH   1  11
HETATM   11  C6  UNL     1      -0.218  -0.355  -0.355  1.00  0.00     0.024 C 
BRANCH  11  12
HETATM   12  C5  UNL     1       0.461   0.363   0.774  1.00  0.00     0.042 C 
BRANCH  12  13
HETATM   13  C4  UNL     1       1.727   1.019   0.326  1.00  0.00    -0.034 A 
HETATM   14  C3  UNL     1       2.963   0.456   0.620  1.00  0.00     0.048 A 
HETATM   15  C2  UNL     1       4.143   1.031   0.220  1.00  0.00     0.101 A 
HETATM   16  C18 UNL     1       4.059   2.216  -0.503  1.00  0.00     0.100 A 
HETATM   17  C17 UNL     1       2.834   2.773  -0.794  1.00  0.00     0.063 A 
HETATM   18  C16 UNL     1       1.644   2.186  -0.386  1.00  0.00     0.043 A 
HETATM   19 CL1  UNL     1       0.091   2.932  -0.772  1.00  0.00    -0.084 Cl
BRANCH  15  20
HETATM   20  O1  UNL     1       5.395   0.527   0.477  1.00  0.00    -0.353 OA
HETATM   21  C1  UNL     1       5.516  -0.676   1.208  1.00  0.00     0.210 C 
ENDBRANCH  15  20
BRANCH  16  22
HETATM   22  O8  UNL     1       5.233   2.854  -0.943  1.00  0.00    -0.358 OA
ATOM     23  H8  UNL     1       5.176   3.663  -1.437  1.00  0.00     0.217 HD
ENDBRANCH  16  22
ENDBRANCH  12  13
ENDBRANCH  11  12
ENDBRANCH   1  11
BRANCH  10  24
HETATM   24  O6  UNL     1      -1.907  -1.322  -2.275  1.00  0.00    -0.314 OA
BRANCH  24  25
HETATM   25  C15 UNL     1      -1.360  -2.104  -3.270  1.00  0.00     0.398 C 
HETATM   26  O7  UNL     1      -1.104  -3.294  -2.986  1.00  0.00    -0.276 OA
ENDBRANCH  24  25
ENDBRANCH  10  24
BRANCH   5  27
HETATM   27  O3  UNL     1      -4.425   2.391   2.302  1.00  0.00    -0.339 OA
ATOM     28  H3  UNL     1      -5.340   2.632   2.389  1.00  0.00     0.220 HD
ENDBRANCH   5  27
BRANCH   6  29
HETATM   29  O4  UNL     1      -5.990   0.384   0.679  1.00  0.00    -0.355 OA
ATOM     30  H4  UNL     1      -6.486  -0.245   0.169  1.00  0.00     0.218 HD
ENDBRANCH   6  29
TORSDOF 9
