REMARK  9 active torsions:
REMARK  status: ('A' for Active; 'I' for Inactive)
REMARK    1  A    between atoms: C2_2  and  O1_3 
REMARK    2  A    between atoms: O1_3  and  C3_4 
REMARK    3  A    between atoms: C3_4  and  C4_6 
REMARK    4  A    between atoms: C7_9  and  C8_10 
REMARK       I    between atoms: C8_10  and  N1_12 
REMARK    5  A    between atoms: N1_12  and  C9_14 
REMARK    6  A    between atoms: C9_14  and  C10_15 
REMARK    7  A    between atoms: C10_15  and  O4_18 
REMARK    8  A    between atoms: O4_18  and  C12_19 
REMARK    9  A    between atoms: N2_21  and  C14_22 
ROOT
HETATM    1  C4  UNL     1      -2.457   0.460  -0.072  1.00  0.00     0.089 A 
HETATM    2  C5  UNL     1      -1.129   0.708   0.103  1.00  0.00    -0.010 A 
HETATM    3  C6  UNL     1      -0.467   2.042   0.116  1.00  0.00     0.052 C 
HETATM    4  C7  UNL     1      -0.518  -0.534   0.318  1.00  0.00     0.112 A 
HETATM    5  N2  UNL     1      -1.477  -1.515   0.275  1.00  0.00    -0.321 N 
HETATM    6  C18 UNL     1      -2.644  -0.914   0.040  1.00  0.00     0.137 A 
HETATM    7  N3  UNL     1      -3.973  -1.451  -0.088  1.00  0.00    -0.081 NA
ENDROOT
BRANCH   4   8
HETATM    8  C8  UNL     1       0.907  -0.708   0.490  1.00  0.00     0.269 C 
HETATM    9  O3  UNL     1       1.402  -1.554   1.277  1.00  0.00    -0.266 OA
HETATM   10  N1  UNL     1       1.821   0.084  -0.246  1.00  0.00    -0.352 N 
ATOM     11  H1  UNL     1       1.476   0.781  -0.906  1.00  0.00     0.162 HD
BRANCH  10  12
HETATM   12  C9  UNL     1       3.282  -0.101  -0.056  1.00  0.00     0.177 C 
BRANCH  12  13
HETATM   13  C10 UNL     1       4.025   0.860  -0.948  1.00  0.00     0.149 C 
HETATM   14  C11 UNL     1       3.495   2.261  -0.668  1.00  0.00     0.066 C 
HETATM   15 CL1  UNL     1       3.525   0.491  -2.652  1.00  0.00    -0.087 Cl
BRANCH  13  16
HETATM   16  O4  UNL     1       5.348   0.758  -0.905  1.00  0.00    -0.364 OA
BRANCH  16  17
HETATM   17  C12 UNL     1       6.130   0.924   0.160  1.00  0.00     0.166 C 
HETATM   18  C13 UNL     1       5.995  -0.016   1.320  1.00  0.00     0.033 C 
ENDBRANCH  16  17
ENDBRANCH  13  16
ENDBRANCH  12  13
ENDBRANCH  10  12
ENDBRANCH   4   8
BRANCH   5  19
HETATM   19  C14 UNL     1      -1.299  -2.943   0.428  1.00  0.00     0.028 C 
HETATM   20  C15 UNL     1      -2.541  -3.713  -0.039  1.00  0.00     0.038 C 
HETATM   21  C16 UNL     1      -0.168  -3.504  -0.404  1.00  0.00     0.038 C 
HETATM   22  C17 UNL     1      -1.069  -3.287   1.862  1.00  0.00     0.038 C 
ENDBRANCH   5  19
BRANCH   1  23
HETATM   23  C3  UNL     1      -3.495   1.469  -0.340  1.00  0.00     0.297 C 
HETATM   24  O2  UNL     1      -4.707   1.073  -0.486  1.00  0.00    -0.259 OA
BRANCH  23  25
HETATM   25  O1  UNL     1      -3.284   2.810  -0.451  1.00  0.00    -0.318 OA
BRANCH  25  26
HETATM   26  C2  UNL     1      -4.360   3.677  -0.712  1.00  0.00     0.174 C 
HETATM   27  C1  UNL     1      -5.418   3.596   0.385  1.00  0.00     0.034 C 
ENDBRANCH  25  26
ENDBRANCH  23  25
ENDBRANCH   1  23
TORSDOF 9
