REMARK  7 active torsions:
REMARK  status: ('A' for Active; 'I' for Inactive)
REMARK    1  A    between atoms: C2_2  and  C3_3 
REMARK    2  A    between atoms: C3_3  and  C4_4 
REMARK    3  A    between atoms: C4_4  and  C5_5 
REMARK    4  A    between atoms: C5_5  and  C6_6 
REMARK    5  A    between atoms: C5_5  and  N1_9 
REMARK    6  A    between atoms: C6_6  and  C7_7 
REMARK    7  A    between atoms: N1_9  and  C8_11 
ROOT
HETATM    1  C8  UNL     1      -1.200  -0.481   0.292  1.00  0.00     0.133 A 
HETATM    2  N2  UNL     1      -1.331  -0.056  -0.965  1.00  0.00    -0.326 N 
ATOM      3  H2  UNL     1      -0.563  -0.172  -1.626  1.00  0.00     0.169 HD
HETATM    4  C9  UNL     1      -2.491   0.533  -1.366  1.00  0.00     0.124 A 
HETATM    5  N3  UNL     1      -2.614   0.962  -2.650  1.00  0.00    -0.338 N 
ATOM      6  H3  UNL     1      -1.830   0.832  -3.290  1.00  0.00     0.168 HD
HETATM    7  C10 UNL     1      -3.726   1.548  -3.103  1.00  0.00     0.183 A 
HETATM    8  N4  UNL     1      -4.737   1.713  -2.274  1.00  0.00    -0.338 N 
ATOM      9  H4  UNL     1      -5.588   2.159  -2.617  1.00  0.00     0.168 HD
HETATM   10  C11 UNL     1      -4.683   1.301  -0.953  1.00  0.00     0.116 A 
HETATM   11  N5  UNL     1      -5.697   1.515  -0.284  1.00  0.00    -0.385 N 
ATOM     12  H51 UNL     1      -5.657   1.212   0.689  1.00  0.00     0.157 HD
ATOM     13  H52 UNL     1      -6.546   1.962  -0.630  1.00  0.00     0.157 HD
HETATM   14  C12 UNL     1      -3.530   0.694  -0.483  1.00  0.00     0.081 A 
HETATM   15  C13 UNL     1      -3.408   0.251   0.847  1.00  0.00     0.088 A 
HETATM   16  N6  UNL     1      -4.353   0.359   1.780  1.00  0.00    -0.309 N 
ATOM     17  H6  UNL     1      -5.283   0.765   1.682  1.00  0.00     0.176 HD
HETATM   18  S1  UNL     1      -3.674  -0.320   3.147  1.00  0.00     0.068 SA
HETATM   19  N7  UNL     1      -2.182  -0.735   2.500  1.00  0.00    -0.307 N 
ATOM     20  H7  UNL     1      -1.399  -1.192   2.968  1.00  0.00     0.176 HD
HETATM   21  C14 UNL     1      -2.258  -0.326   1.223  1.00  0.00     0.112 A 
ENDROOT
BRANCH   1  22
HETATM   22  N1  UNL     1      -0.119  -1.039   0.696  1.00  0.00    -0.370 N 
ATOM     23  H1  UNL     1      -0.095  -1.337   1.671  1.00  0.00     0.161 HD
BRANCH  22  24
HETATM   24  C5  UNL     1       1.079  -1.292  -0.093  1.00  0.00     0.083 C 
BRANCH  24  25
HETATM   25  C4  UNL     1       1.903  -0.071  -0.206  1.00  0.00     0.025 C 
BRANCH  25  26
HETATM   26  C3  UNL     1       2.634   0.472   0.952  1.00  0.00     0.002 C 
BRANCH  26  27
HETATM   27  C2  UNL     1       3.327   1.785   0.505  1.00  0.00    -0.004 C 
HETATM   28  C1  UNL     1       4.284   1.523  -0.617  1.00  0.00     0.005 C 
ENDBRANCH  26  27
ENDBRANCH  25  26
ENDBRANCH  24  25
BRANCH  24  29
HETATM   29  C6  UNL     1       1.666  -2.589   0.284  1.00  0.00     0.036 C 
BRANCH  29  30
HETATM   30  C7  UNL     1       2.323  -2.794   1.581  1.00  0.00     0.087 C 
HETATM   31 BR1  UNL     1       2.887  -4.685   1.709  1.00  0.00    -0.096 Br
ENDBRANCH  29  30
ENDBRANCH  24  29
ENDBRANCH  22  24
ENDBRANCH   1  22
TORSDOF 7
