REMARK  9 active torsions:
REMARK  status: ('A' for Active; 'I' for Inactive)
REMARK    1  A    between atoms: O1_2  and  C2_3 
REMARK    2  A    between atoms: C2_3  and  C3_5 
REMARK    3  A    between atoms: C8_12  and  N2_13 
REMARK    4  A    between atoms: N2_13  and  C9_15 
REMARK    5  A    between atoms: C9_15  and  C10_16 
REMARK    6  A    between atoms: C10_16  and  C11_18 
REMARK    7  A    between atoms: C11_18  and  N3_20 
REMARK       I    between atoms: N3_20  and  C13_22 
REMARK    8  A    between atoms: C13_22  and  O5_24 
REMARK    9  A    between atoms: O5_24  and  C14_25 
ROOT
HETATM    1  N2  UNL     1       2.471   0.259  -0.244  1.00  0.00    -0.382 N 
ATOM      2  H2  UNL     1       2.413   0.243   0.774  1.00  0.00     0.160 HD
ENDROOT
BRANCH   1   3
HETATM    3  C8  UNL     1       3.712   0.103  -0.900  1.00  0.00     0.046 A 
HETATM    4  C3  UNL     1       4.860  -0.057  -0.184  1.00  0.00     0.067 A 
HETATM    5  C4  UNL     1       6.055  -0.210  -0.913  1.00  0.00     0.045 A 
HETATM    6  C5  UNL     1       6.044  -0.196  -2.281  1.00  0.00     0.059 A 
HETATM    7 CL1  UNL     1       7.542  -0.388  -3.174  1.00  0.00    -0.082 Cl
HETATM    8  C6  UNL     1       4.893  -0.035  -3.011  1.00  0.00     0.070 A 
HETATM    9  N1  UNL     1       4.918  -0.024  -4.452  1.00  0.00    -0.101 NA
HETATM   10  C7  UNL     1       3.729   0.114  -2.314  1.00  0.00     0.058 A 
BRANCH   4  11
HETATM   11  C2  UNL     1       4.979  -0.084   1.246  1.00  0.00     0.295 C 
HETATM   12  O2  UNL     1       6.120  -0.242   1.819  1.00  0.00    -0.259 OA
BRANCH  11  13
HETATM   13  O1  UNL     1       3.940   0.051   2.112  1.00  0.00    -0.322 OA
HETATM   14  C1  UNL     1       4.084   0.021   3.519  1.00  0.00     0.213 C 
ENDBRANCH  11  13
ENDBRANCH   4  11
ENDBRANCH   1   3
BRANCH   1  15
HETATM   15  C9  UNL     1       1.267   0.444  -1.062  1.00  0.00     0.200 C 
BRANCH  15  16
HETATM   16  C10 UNL     1       0.059   0.587  -0.229  1.00  0.00     0.166 C 
HETATM   17  O3  UNL     1       0.148   0.543   0.973  1.00  0.00    -0.294 OA
BRANCH  16  18
HETATM   18  C11 UNL     1      -1.256   0.783  -0.868  1.00  0.00     0.154 C 
HETATM   19  C12 UNL     1      -1.297   2.020  -1.746  1.00  0.00     0.040 C 
BRANCH  18  20
HETATM   20  N3  UNL     1      -2.290   0.891   0.161  1.00  0.00    -0.326 N 
HETATM   21  C13 UNL     1      -3.390  -0.011   0.170  1.00  0.00     0.361 C 
HETATM   22  O4  UNL     1      -3.524  -0.922  -0.684  1.00  0.00    -0.238 OA
ATOM     23  H3  UNL     1      -2.222   1.616   0.875  1.00  0.00     0.165 HD
BRANCH  21  24
HETATM   24  O5  UNL     1      -4.366   0.082   1.129  1.00  0.00    -0.294 OA
BRANCH  24  25
HETATM   25  C14 UNL     1      -5.491  -0.724   1.261  1.00  0.00     0.061 C 
HETATM   26  C15 UNL     1      -5.202  -2.184   1.457  1.00  0.00     0.046 C 
HETATM   27  C16 UNL     1      -6.241  -0.269   2.515  1.00  0.00     0.046 C 
HETATM   28  C17 UNL     1      -6.407  -0.524   0.097  1.00  0.00     0.046 C 
ENDBRANCH  24  25
ENDBRANCH  21  24
ENDBRANCH  18  20
ENDBRANCH  16  18
ENDBRANCH  15  16
ENDBRANCH   1  15
TORSDOF 9
