REMARK  9 active torsions:
REMARK  status: ('A' for Active; 'I' for Inactive)
REMARK    1  A    between atoms: C2_2  and  N1_3 
REMARK    2  A    between atoms: N1_3  and  C3_5 
REMARK    3  A    between atoms: C4_8  and  O1_9 
REMARK    4  A    between atoms: O1_9  and  C5_10 
REMARK    5  A    between atoms: C5_10  and  C6_11 
REMARK    6  A    between atoms: C6_11  and  C7_12 
REMARK    7  A    between atoms: C7_12  and  N3_13 
REMARK    8  A    between atoms: C12_23  and  N6_24 
REMARK    9  A    between atoms: N6_24  and  C13_26 
ROOT
HETATM    1  C3  UNL     1      -2.786   1.326  -0.141  1.00  0.00     0.695 A 
HETATM    2  N2  UNL     1      -1.572   0.911   0.228  1.00  0.00    -0.154 N 
ATOM      3  H2  UNL     1      -0.823   1.603   0.233  1.00  0.00     0.188 HD
HETATM    4  C4  UNL     1      -1.257  -0.332   0.590  1.00  0.00     0.252 A 
HETATM    5  N5  UNL     1      -2.281  -1.241   0.572  1.00  0.00    -0.154 N 
ATOM      6  H5  UNL     1      -2.106  -2.210   0.837  1.00  0.00     0.188 HD
HETATM    7  C12 UNL     1      -3.516  -0.859   0.206  1.00  0.00     0.695 A 
HETATM    8  N7  UNL     1      -3.782   0.428  -0.155  1.00  0.00    -0.022 N 
ATOM      9  H7  UNL     1      -4.724   0.704  -0.432  1.00  0.00     0.203 HD
ENDROOT
BRANCH   4  10
HETATM   10  O1  UNL     1      -0.039  -0.793   0.971  1.00  0.00    -0.321 OA
BRANCH  10  11
HETATM   11  C5  UNL     1       1.175  -0.104   1.080  1.00  0.00     0.180 C 
BRANCH  11  12
HETATM   12  C6  UNL     1       1.570   0.444  -0.245  1.00  0.00     0.057 C 
BRANCH  12  13
HETATM   13  C7  UNL     1       2.882   1.198  -0.206  1.00  0.00     0.274 C 
BRANCH  13  14
HETATM   14  N3  UNL     1       3.988   0.372   0.225  1.00  0.00     0.091 N 
HETATM   15  C8  UNL     1       5.180   1.184   0.230  1.00  0.00     0.300 C 
HETATM   16  C9  UNL     1       6.408   0.430   0.668  1.00  0.00     0.262 C 
HETATM   17  N4  UNL     1       6.466  -0.906   0.181  1.00  0.00    -0.072 N 
HETATM   18  C10 UNL     1       5.531  -1.191  -0.880  1.00  0.00     0.262 C 
ATOM     19  H42 UNL     1       7.416  -1.139  -0.109  1.00  0.00     0.277 HD
ATOM     20  H41 UNL     1       6.350  -1.570   0.947  1.00  0.00     0.277 HD
HETATM   21  C11 UNL     1       4.122  -0.831  -0.546  1.00  0.00     0.300 C 
ENDBRANCH  13  14
ENDBRANCH  12  13
ENDBRANCH  11  12
ENDBRANCH  10  11
ENDBRANCH   4  10
BRANCH   1  22
HETATM   22  N1  UNL     1      -2.963   2.554  -0.468  1.00  0.00    -0.226 N 
ATOM     23  H1  UNL     1      -2.150   3.169  -0.429  1.00  0.00     0.177 HD
BRANCH  22  24
HETATM   24  C2  UNL     1      -4.208   3.138  -0.884  1.00  0.00     0.133 C 
HETATM   25  C1  UNL     1      -5.116   3.431   0.289  1.00  0.00     0.027 C 
ENDBRANCH  22  24
ENDBRANCH   1  22
BRANCH   7  26
HETATM   26  N6  UNL     1      -4.524  -1.663   0.167  1.00  0.00    -0.226 N 
ATOM     27  H6  UNL     1      -5.446  -1.333  -0.118  1.00  0.00     0.177 HD
BRANCH  26  28
HETATM   28  C13 UNL     1      -4.313  -3.040   0.536  1.00  0.00     0.133 C 
HETATM   29  C14 UNL     1      -5.590  -3.836   0.364  1.00  0.00     0.027 C 
ENDBRANCH  26  28
ENDBRANCH   7  26
TORSDOF 9
