REMARK  10 active torsions:
REMARK  status: ('A' for Active; 'I' for Inactive)
REMARK    1  A    between atoms: O1_1  and  C1_3 
REMARK    2  A    between atoms: C1_3  and  C2_4 
REMARK    3  A    between atoms: C2_4  and  C3_5 
REMARK    4  A    between atoms: C3_5  and  C4_6 
REMARK    5  A    between atoms: C7_10  and  N1_11 
REMARK    6  A    between atoms: N2_14  and  C10_15 
REMARK    7  A    between atoms: C10_15  and  C11_16 
REMARK    8  A    between atoms: C10_15  and  C12_19 
REMARK    9  A    between atoms: C11_16  and  O3_17 
REMARK   10  A    between atoms: C12_19  and  O4_20 
ROOT
HETATM    1  N1  UNL     1       0.551   0.164  -0.191  1.00  0.00    -0.361 N 
HETATM    2  C8  UNL     1       1.452  -0.680  -0.852  1.00  0.00     0.107 C 
HETATM    3  C9  UNL     1       2.707  -1.049  -0.145  1.00  0.00     0.103 C 
HETATM    4  N2  UNL     1       3.174  -0.088   0.736  1.00  0.00    -0.375 N 
HETATM    5  C13 UNL     1       2.217   0.514   1.588  1.00  0.00     0.167 C 
HETATM    6  C14 UNL     1       0.955   0.946   0.875  1.00  0.00     0.083 C 
ENDROOT
BRANCH   1   7
HETATM    7  C7  UNL     1      -0.799  -0.279  -0.294  1.00  0.00     0.112 C 
HETATM    8  C6  UNL     1      -1.160  -0.248  -1.763  1.00  0.00     0.193 C 
HETATM    9  O2  UNL     1      -2.298  -0.977  -1.966  1.00  0.00    -0.389 OA
HETATM   10  C5  UNL     1      -3.028  -1.260  -0.834  1.00  0.00     0.172 C 
HETATM   11  C4  UNL     1      -3.186  -0.103   0.097  1.00  0.00     0.011 C 
HETATM   12  C15 UNL     1      -1.805   0.493   0.455  1.00  0.00     0.034 C 
BRANCH  11  13
HETATM   13  C3  UNL     1      -4.071   0.934  -0.482  1.00  0.00     0.009 C 
BRANCH  13  14
HETATM   14  C2  UNL     1      -5.460   0.464  -0.790  1.00  0.00     0.026 C 
BRANCH  14  15
HETATM   15  C1  UNL     1      -6.124  -0.036   0.461  1.00  0.00     0.164 C 
BRANCH  15  16
HETATM   16  O1  UNL     1      -7.433  -0.465   0.206  1.00  0.00    -0.401 OA
ATOM     17  H1  UNL     1      -7.853  -0.781   0.997  1.00  0.00     0.209 HD
ENDBRANCH  15  16
ENDBRANCH  14  15
ENDBRANCH  13  14
ENDBRANCH  11  13
ENDBRANCH   1   7
BRANCH   4  18
HETATM   18  C10 UNL     1       4.492   0.339   0.794  1.00  0.00     0.131 C 
BRANCH  18  19
HETATM   19  C11 UNL     1       5.405  -0.809   1.172  1.00  0.00     0.191 C 
BRANCH  19  20
HETATM   20  O3  UNL     1       6.730  -0.435   1.244  1.00  0.00    -0.399 OA
ATOM     21  H3  UNL     1       7.303  -1.155   1.481  1.00  0.00     0.209 HD
ENDBRANCH  19  20
ENDBRANCH  18  19
BRANCH  18  22
HETATM   22  C12 UNL     1       5.016   1.114  -0.388  1.00  0.00     0.191 C 
BRANCH  22  23
HETATM   23  O4  UNL     1       4.986   0.442  -1.578  1.00  0.00    -0.399 OA
ATOM     24  H4  UNL     1       5.316   0.930  -2.323  1.00  0.00     0.209 HD
ENDBRANCH  22  23
ENDBRANCH  18  22
ENDBRANCH   4  18
TORSDOF 10
