REMARK  16 active torsions:
REMARK  status: ('A' for Active; 'I' for Inactive)
REMARK    1  A    between atoms: C2_2  and  C3_3 
REMARK    2  A    between atoms: C3_3  and  C4_4 
REMARK    3  A    between atoms: C4_4  and  C5_5 
REMARK       I    between atoms: C5_5  and  N1_7 
REMARK    4  A    between atoms: N1_7  and  C6_9 
REMARK    5  A    between atoms: C6_9  and  C7_10 
REMARK    6  A    between atoms: C7_10  and  C8_11 
REMARK    7  A    between atoms: C8_11  and  C9_12 
REMARK    8  A    between atoms: C9_12  and  N2_13 
REMARK    9  A    between atoms: C9_12  and  C18_35 
REMARK       I    between atoms: N2_13  and  C10_15 
REMARK   10  A    between atoms: C10_15  and  C11_17 
REMARK   11  A    between atoms: C11_17  and  N3_18 
REMARK   12  A    between atoms: C11_17  and  C12_22 
REMARK   13  A    between atoms: C12_22  and  C13_23 
REMARK   14  A    between atoms: N4_27  and  S1_28 
REMARK   15  A    between atoms: S1_28  and  N5_29 
REMARK   16  A    between atoms: C22_42  and  N7_43 
ROOT
HETATM    1  C9  UNL     1       0.569  -0.590  -0.274  1.00  0.00     0.090 C 
ENDROOT
BRANCH   1   2
HETATM    2  C8  UNL     1       1.040   0.119  -1.469  1.00  0.00     0.027 C 
BRANCH   2   3
HETATM    3  C7  UNL     1       2.410   0.635  -1.606  1.00  0.00     0.022 C 
BRANCH   3   4
HETATM    4  C6  UNL     1       2.778   1.625  -0.511  1.00  0.00     0.122 C 
BRANCH   4   5
HETATM    5  N1  UNL     1       4.091   2.170  -0.678  1.00  0.00    -0.361 N 
HETATM    6  C5  UNL     1       5.305   1.456  -0.707  1.00  0.00     0.217 C 
HETATM    7  O1  UNL     1       5.386   0.213  -0.588  1.00  0.00    -0.274 OA
ATOM      8  H1  UNL     1       4.154   3.182  -0.788  1.00  0.00     0.162 HD
BRANCH   6   9
HETATM    9  C4  UNL     1       6.572   2.250  -0.893  1.00  0.00     0.103 C 
BRANCH   9  10
HETATM   10  C3  UNL     1       7.717   1.299  -0.905  1.00  0.00     0.009 C 
BRANCH  10  11
HETATM   11  C2  UNL     1       8.994   2.111  -1.090  1.00  0.00    -0.004 C 
HETATM   12  C1  UNL     1      10.136   1.117  -1.097  1.00  0.00     0.005 C 
ENDBRANCH  10  11
ENDBRANCH   9  10
ENDBRANCH   6   9
ENDBRANCH   4   5
ENDBRANCH   3   4
ENDBRANCH   2   3
ENDBRANCH   1   2
BRANCH   1  13
HETATM   13  N2  UNL     1      -0.899  -0.891  -0.512  1.00  0.00    -0.354 N 
HETATM   14  C10 UNL     1      -1.898  -0.217   0.216  1.00  0.00     0.248 C 
HETATM   15  O2  UNL     1      -1.579   0.641   1.074  1.00  0.00    -0.271 OA
ATOM     16  H2  UNL     1      -1.165  -1.589  -1.207  1.00  0.00     0.162 HD
BRANCH  14  17
HETATM   17  C11 UNL     1      -3.317  -0.505  -0.012  1.00  0.00     0.275 C 
BRANCH  17  18
HETATM   18  N3  UNL     1      -3.391  -1.545  -1.044  1.00  0.00    -0.066 N 
ATOM     19  H33 UNL     1      -2.892  -1.295  -1.898  1.00  0.00     0.275 HD
ATOM     20  H32 UNL     1      -2.848  -2.376  -0.812  1.00  0.00     0.275 HD
ATOM     21  H31 UNL     1      -4.378  -1.745  -1.203  1.00  0.00     0.275 HD
ENDBRANCH  17  18
BRANCH  17  22
HETATM   22  C12 UNL     1      -4.057   0.713  -0.536  1.00  0.00     0.048 C 
BRANCH  22  23
HETATM   23  C13 UNL     1      -5.516   0.369  -0.751  1.00  0.00     0.002 C 
HETATM   24  C14 UNL     1      -6.208   1.596  -1.275  1.00  0.00     0.007 C 
HETATM   25  C15 UNL     1      -7.143   2.204  -0.250  1.00  0.00     0.016 C 
HETATM   26  C16 UNL     1      -8.139   1.110   0.064  1.00  0.00     0.109 C 
HETATM   27  N4  UNL     1      -7.470   0.081   0.766  1.00  0.00    -0.193 NA
HETATM   28  C17 UNL     1      -6.119  -0.179   0.502  1.00  0.00     0.113 C 
BRANCH  27  29
HETATM   29  S1  UNL     1      -7.756   0.280   2.455  1.00  0.00     0.296 S 
HETATM   30  O3  UNL     1      -7.164  -0.856   3.237  1.00  0.00    -0.189 OA
HETATM   31  O4  UNL     1      -9.253   0.247   2.719  1.00  0.00    -0.189 OA
BRANCH  29  32
HETATM   32  N5  UNL     1      -7.166   1.750   3.082  1.00  0.00    -0.316 N 
ATOM     33  H52 UNL     1      -6.690   2.438   2.499  1.00  0.00     0.170 HD
ATOM     34  H51 UNL     1      -7.335   1.868   4.081  1.00  0.00     0.170 HD
ENDBRANCH  29  32
ENDBRANCH  27  29
ENDBRANCH  22  23
ENDBRANCH  17  22
ENDBRANCH  14  17
ENDBRANCH   1  13
BRANCH   1  35
HETATM   35  C18 UNL     1       1.118  -1.904   0.095  1.00  0.00     0.042 C 
HETATM   36  C19 UNL     1       0.381  -2.377   1.385  1.00  0.00     0.036 C 
HETATM   37  C20 UNL     1       0.697  -3.849   1.520  1.00  0.00     0.233 C 
HETATM   38  N6  UNL     1       2.129  -4.071   1.619  1.00  0.00    -0.073 N 
HETATM   39  C21 UNL     1       2.820  -3.582   0.450  1.00  0.00     0.265 C 
ATOM     40  H62 UNL     1       2.511  -3.669   2.475  1.00  0.00     0.277 HD
ATOM     41  H61 UNL     1       2.344  -5.052   1.797  1.00  0.00     0.277 HD
HETATM   42  C22 UNL     1       2.554  -2.047   0.434  1.00  0.00     0.215 C 
BRANCH  42  43
HETATM   43  N7  UNL     1       2.862  -1.671   1.829  1.00  0.00    -0.073 N 
ATOM     44  H73 UNL     1       2.533  -0.727   2.032  1.00  0.00     0.274 HD
ATOM     45  H72 UNL     1       2.281  -2.195   2.483  1.00  0.00     0.274 HD
ATOM     46  H71 UNL     1       3.850  -1.769   2.062  1.00  0.00     0.274 HD
ENDBRANCH  42  43
ENDBRANCH   1  35
TORSDOF 16
