REMARK  17 active torsions:
REMARK  status: ('A' for Active; 'I' for Inactive)
REMARK    1  A    between atoms: N1_2  and  C2_3 
REMARK       I    between atoms: N1_2  and  C7_14 
REMARK    2  A    between atoms: C2_3  and  C3_4 
REMARK    3  A    between atoms: C3_4  and  N2_5 
REMARK    4  A    between atoms: N2_5  and  C4_7 
REMARK    5  A    between atoms: C4_7  and  C5_8 
REMARK    6  A    between atoms: C5_8  and  C6_9 
REMARK    7  A    between atoms: C6_9  and  N3_10 
REMARK    8  A    between atoms: N5_16  and  C8_18 
REMARK    9  A    between atoms: C11_21  and  N6_22 
REMARK   10  A    between atoms: N6_22  and  C12_23 
REMARK   11  A    between atoms: N6_22  and  S1_43 
REMARK   12  A    between atoms: C12_23  and  C13_24 
REMARK   13  A    between atoms: C15_28  and  N8_29 
REMARK   14  A    between atoms: C16_34  and  N10_35 
REMARK   15  A    between atoms: N10_35  and  C17_37 
REMARK   16  A    between atoms: C17_37  and  C18_38 
REMARK   17  A    between atoms: C18_38  and  N11_39 
ROOT
HETATM    1  N6  UNL     1      -2.490  -1.177   0.459  1.00  0.00    -0.250 N 
ENDROOT
BRANCH   1   2
HETATM    2  C11 UNL     1      -1.366  -0.409   0.002  1.00  0.00     0.049 A 
HETATM    3  C10 UNL     1      -0.691   0.364   0.948  1.00  0.00     0.033 A 
HETATM    4  C9  UNL     1       0.356   1.137   0.573  1.00  0.00     0.032 A 
HETATM    5  C8  UNL     1       0.802   1.204  -0.717  1.00  0.00     0.034 A 
HETATM    6  C21 UNL     1       0.132   0.431  -1.677  1.00  0.00     0.032 A 
HETATM    7  C20 UNL     1      -0.931  -0.352  -1.287  1.00  0.00     0.033 A 
BRANCH   5   8
HETATM    8  N5  UNL     1       1.875   2.036  -1.119  1.00  0.00    -0.331 N 
HETATM    9  C7  UNL     1       3.009   2.242  -0.618  1.00  0.00     0.190 C 
HETATM   10  N1  UNL     1       3.615   1.711   0.536  1.00  0.00    -0.355 N 
HETATM   11  N4  UNL     1       3.791   3.230  -1.365  1.00  0.00    -0.063 NA
HETATM   12  C1  UNL     1       4.171   2.680   1.499  1.00  0.00     0.152 C 
ATOM     13  H5  UNL     1       1.694   2.565  -1.972  1.00  0.00     0.168 HD
BRANCH  10  14
HETATM   14  C2  UNL     1       3.682   0.341   0.914  1.00  0.00     0.169 C 
BRANCH  14  15
HETATM   15  C3  UNL     1       4.960  -0.354   1.084  1.00  0.00     0.075 C 
BRANCH  15  16
HETATM   16  N2  UNL     1       5.885  -0.547   0.044  1.00  0.00    -0.401 N 
ATOM     17  H2  UNL     1       6.044  -1.469  -0.363  1.00  0.00     0.158 HD
BRANCH  16  18
HETATM   18  C4  UNL     1       6.586   0.595  -0.414  1.00  0.00     0.120 C 
BRANCH  18  19
HETATM   19  C5  UNL     1       7.633   0.229  -1.471  1.00  0.00     0.047 C 
BRANCH  19  20
HETATM   20  C6  UNL     1       8.664  -0.704  -0.897  1.00  0.00     0.231 C 
BRANCH  20  21
HETATM   21  N3  UNL     1       9.295  -0.002   0.231  1.00  0.00    -0.079 N 
ATOM     22  H33 UNL     1       9.676   0.909  -0.026  1.00  0.00     0.274 HD
ATOM     23  H32 UNL     1       8.624   0.329   0.924  1.00  0.00     0.274 HD
ATOM     24  H31 UNL     1       9.994  -0.635   0.620  1.00  0.00     0.274 HD
ENDBRANCH  20  21
ENDBRANCH  19  20
ENDBRANCH  18  19
ENDBRANCH  16  18
ENDBRANCH  15  16
ENDBRANCH  14  15
ENDBRANCH  10  14
ENDBRANCH   5   8
ENDBRANCH   1   2
BRANCH   1  25
HETATM   25  C12 UNL     1      -3.749  -0.542   0.653  1.00  0.00     0.126 C 
BRANCH  25  26
HETATM   26  C13 UNL     1      -4.740  -0.660  -0.397  1.00  0.00     0.041 A 
HETATM   27  C14 UNL     1      -4.511  -1.368  -1.545  1.00  0.00     0.122 A 
HETATM   28  N7  UNL     1      -5.490  -1.450  -2.498  1.00  0.00    -0.201 N 
HETATM   29  C15 UNL     1      -6.660  -0.834  -2.289  1.00  0.00     0.677 A 
ATOM     30  H7  UNL     1      -5.330  -1.975  -3.358  1.00  0.00     0.183 HD
HETATM   31  N9  UNL     1      -6.892  -0.131  -1.155  1.00  0.00    -0.176 N 
HETATM   32  C16 UNL     1      -5.991  -0.009  -0.190  1.00  0.00     0.130 A 
ATOM     33  H9  UNL     1      -7.798   0.324  -1.038  1.00  0.00     0.186 HD
BRANCH  29  34
HETATM   34  N8  UNL     1      -7.581  -0.916  -3.187  1.00  0.00    -0.234 N 
ATOM     35  H82 UNL     1      -7.406  -1.445  -4.041  1.00  0.00     0.174 HD
ATOM     36  H81 UNL     1      -8.472  -0.447  -3.028  1.00  0.00     0.174 HD
ENDBRANCH  29  34
BRANCH  32  37
HETATM   37  N10 UNL     1      -6.129   0.624   0.895  1.00  0.00    -0.373 N 
ATOM     38  H10 UNL     1      -5.320   0.600   1.515  1.00  0.00     0.161 HD
BRANCH  37  39
HETATM   39  C17 UNL     1      -7.238   1.363   1.382  1.00  0.00     0.148 C 
BRANCH  39  40
HETATM   40  C18 UNL     1      -7.862   0.669   2.586  1.00  0.00     0.249 C 
BRANCH  40  41
HETATM   41  N11 UNL     1      -8.339  -0.650   2.282  1.00  0.00    -0.078 N 
ATOM     42 3H11 UNL     1      -8.987  -0.632   1.494  1.00  0.00     0.274 HD
ATOM     43 2H11 UNL     1      -7.599  -1.221   1.874  1.00  0.00     0.274 HD
ATOM     44 1H11 UNL     1      -8.757  -1.115   3.088  1.00  0.00     0.274 HD
ENDBRANCH  40  41
ENDBRANCH  39  40
ENDBRANCH  37  39
ENDBRANCH  32  37
ENDBRANCH  25  26
ENDBRANCH   1  25
BRANCH   1  45
HETATM   45  S1  UNL     1      -2.217  -2.843   0.911  1.00  0.00     0.233 S 
HETATM   46  C19 UNL     1      -1.617  -3.829  -0.404  1.00  0.00     0.186 C 
HETATM   47  O1  UNL     1      -3.561  -3.396   1.332  1.00  0.00    -0.206 OA
HETATM   48  O2  UNL     1      -1.316  -2.927   2.115  1.00  0.00    -0.206 OA
ENDBRANCH   1  45
TORSDOF 17
