REMARK  4 active torsions:
REMARK  status: ('A' for Active; 'I' for Inactive)
REMARK    1  A    between atoms: C4_6  and  N1_7 
REMARK    2  A    between atoms: N1_7  and  C5_9 
REMARK    3  A    between atoms: C7_11  and  C8_12 
REMARK    4  A    between atoms: N3_16  and  C10_17 
ROOT
HETATM    1  C8  UNL     1       1.357   0.036   0.502  1.00  0.00     0.009 A 
HETATM    2  C9  UNL     1       1.323   1.333   0.063  1.00  0.00     0.121 A 
HETATM    3  N2  UNL     1       0.054   1.605  -0.306  1.00  0.00    -0.309 N 
ATOM      4  H2  UNL     1      -0.265   2.501  -0.674  1.00  0.00     0.186 HD
HETATM    5  N3  UNL     1      -0.714   0.552  -0.125  1.00  0.00    -0.298 N 
HETATM    6  C18 UNL     1       0.082  -0.438   0.380  1.00  0.00     0.124 A 
ENDROOT
BRANCH   1   7
HETATM    7  C7  UNL     1       2.584  -0.637   0.997  1.00  0.00    -0.014 A 
HETATM    8  C6  UNL     1       3.830  -0.373   0.543  1.00  0.00     0.050 A 
HETATM    9  C5  UNL     1       4.872  -1.051   1.065  1.00  0.00     0.075 A 
HETATM   10  S2  UNL     1       4.079  -2.078   2.221  1.00  0.00    -0.083 SA
HETATM   11  C19 UNL     1       2.466  -1.590   1.974  1.00  0.00     0.064 A 
BRANCH   9  12
HETATM   12  N1  UNL     1       6.263  -1.132   0.868  1.00  0.00    -0.348 N 
ATOM     13  H1  UNL     1       6.798  -1.665   1.554  1.00  0.00     0.166 HD
BRANCH  12  14
HETATM   14  C4  UNL     1       7.003  -0.528  -0.219  1.00  0.00     0.079 A 
HETATM   15  C1  UNL     1       8.333  -0.303  -0.165  1.00  0.00     0.149 A 
HETATM   16  F1  UNL     1       9.110  -0.560   0.966  1.00  0.00    -0.203 F 
HETATM   17  C2  UNL     1       8.936   0.208  -1.278  1.00  0.00     0.094 A 
HETATM   18  S1  UNL     1       7.654   0.370  -2.380  1.00  0.00    -0.108 SA
HETATM   19  C3  UNL     1       6.380  -0.219  -1.399  1.00  0.00     0.082 A 
ENDBRANCH  12  14
ENDBRANCH   9  12
ENDBRANCH   1   7
BRANCH   5  20
HETATM   20  C10 UNL     1      -2.118   0.370  -0.373  1.00  0.00     0.107 C 
HETATM   21  C11 UNL     1      -2.796  -0.330   0.802  1.00  0.00     0.032 C 
HETATM   22  C12 UNL     1      -4.102   0.305   1.161  1.00  0.00     0.071 C 
HETATM   23  C13 UNL     1      -4.905   0.444  -0.133  1.00  0.00     0.164 C 
HETATM   24  C14 UNL     1      -4.241   1.526  -0.933  1.00  0.00     0.071 C 
HETATM   25  O1  UNL     1      -4.901  -0.783  -0.760  1.00  0.00    -0.353 OA
HETATM   26  O2  UNL     1      -6.212   0.793   0.161  1.00  0.00    -0.353 OA
HETATM   27  C15 UNL     1      -2.776   1.674  -0.687  1.00  0.00     0.032 C 
HETATM   28  C16 UNL     1      -6.210  -1.201  -0.892  1.00  0.00     0.197 C 
HETATM   29  C17 UNL     1      -6.981   0.101  -0.758  1.00  0.00     0.197 C 
ENDBRANCH   5  20
TORSDOF 4
