REMARK  6 active torsions:
REMARK  status: ('A' for Active; 'I' for Inactive)
REMARK    1  A    between atoms: C2_2  and  C3_3 
REMARK    2  A    between atoms: C4_6  and  C5_7 
REMARK    3  A    between atoms: C5_7  and  S1_8 
REMARK    4  A    between atoms: S1_8  and  C6_9 
REMARK    5  A    between atoms: C7_12  and  N3_13 
REMARK    6  A    between atoms: N3_13  and  C8_15 
ROOT
HETATM    1  C6  UNL     1       0.485   0.714   0.853  1.00  0.00     0.121 A 
HETATM    2  N2  UNL     1      -0.386   0.447  -0.072  1.00  0.00    -0.325 N 
ATOM      3  H2  UNL     1      -0.106  -0.122  -0.871  1.00  0.00     0.169 HD
HETATM    4  C7  UNL     1      -1.624   0.895  -0.002  1.00  0.00     0.157 A 
HETATM    5  S2  UNL     1      -1.987   1.843   1.386  1.00  0.00    -0.014 SA
HETATM    6  S3  UNL     1      -0.047   1.673   2.166  1.00  0.00    -0.024 SA
ENDROOT
BRANCH   1   7
HETATM    7  S1  UNL     1       2.209   0.123   0.810  1.00  0.00    -0.098 SA
BRANCH   7   8
HETATM    8  C5  UNL     1       3.246   1.330  -0.056  1.00  0.00     0.142 C 
BRANCH   8   9
HETATM    9  C4  UNL     1       4.630   0.794  -0.057  1.00  0.00     0.069 A 
HETATM   10  N1  UNL     1       5.099  -0.361   0.467  1.00  0.00    -0.340 N 
HETATM   11  C3  UNL     1       6.419  -0.397   0.210  1.00  0.00     0.125 A 
ATOM     12  H1  UNL     1       4.556  -1.069   0.962  1.00  0.00     0.167 HD
HETATM   13  O1  UNL     1       6.741   0.693  -0.444  1.00  0.00    -0.281 OA
HETATM   14  C15 UNL     1       5.702   1.455  -0.637  1.00  0.00     0.182 A 
HETATM   15  N4  UNL     1       5.672   2.706  -1.304  1.00  0.00    -0.072 NA
BRANCH  11  16
HETATM   16  C2  UNL     1       7.374  -1.478   0.593  1.00  0.00     0.080 C 
HETATM   17  C1  UNL     1       7.430  -2.509  -0.529  1.00  0.00     0.013 C 
ENDBRANCH  11  16
ENDBRANCH   8   9
ENDBRANCH   7   8
ENDBRANCH   1   7
BRANCH   4  18
HETATM   18  N3  UNL     1      -2.498   0.609  -0.962  1.00  0.00    -0.326 N 
ATOM     19  H3  UNL     1      -2.218   0.041  -1.761  1.00  0.00     0.169 HD
BRANCH  18  20
HETATM   20  C8  UNL     1      -3.805   1.095  -0.865  1.00  0.00     0.107 C 
HETATM   21 CL1  UNL     1      -4.242   2.613  -1.617  1.00  0.00    -0.064 Cl
HETATM   22  C9  UNL     1      -4.746   0.427  -0.207  1.00  0.00    -0.041 C 
HETATM   23  C10 UNL     1      -6.132   0.903  -0.082  1.00  0.00     0.037 C 
HETATM   24  C14 UNL     1      -4.421  -0.881   0.455  1.00  0.00     0.037 C 
HETATM   25  C11 UNL     1      -7.150  -0.153  -0.427  1.00  0.00     0.004 C 
HETATM   26  C12 UNL     1      -6.796  -1.517   0.051  1.00  0.00     0.001 C 
HETATM   27  C13 UNL     1      -5.364  -1.900  -0.146  1.00  0.00     0.004 C 
ENDBRANCH  18  20
ENDBRANCH   4  18
TORSDOF 6
