REMARK  6 active torsions:
REMARK  status: ('A' for Active; 'I' for Inactive)
REMARK    1  A    between atoms: C2_2  and  C3_3 
REMARK    2  A    between atoms: C3_3  and  N1_4 
REMARK    3  A    between atoms: C6_10  and  C7_11 
REMARK    4  A    between atoms: C7_11  and  C8_12 
REMARK    5  A    between atoms: C8_12  and  C9_13 
REMARK    6  A    between atoms: C9_13  and  N3_14 
REMARK       I    between atoms: N3_14  and  C10_16 
ROOT
HETATM    1  N1  UNL     1      -1.771   2.963  -0.472  1.00  0.00    -0.340 N 
HETATM    2  C4  UNL     1      -0.670   2.563   0.364  1.00  0.00     0.228 C 
HETATM    3  C5  UNL     1       0.572   2.298  -0.369  1.00  0.00     0.236 C 
HETATM    4  O1  UNL     1       1.352   3.295  -0.561  1.00  0.00    -0.272 OA
HETATM    5  N2  UNL     1       0.997   1.056  -0.886  1.00  0.00    -0.346 N 
ATOM      6  H2  UNL     1       1.413   1.043  -1.817  1.00  0.00     0.163 HD
HETATM    7  C6  UNL     1       0.878  -0.213  -0.171  1.00  0.00     0.176 C 
HETATM    8  C11 UNL     1       0.937  -1.320  -1.153  1.00  0.00     0.242 C 
HETATM    9  O2  UNL     1       1.107  -0.989  -2.380  1.00  0.00    -0.271 OA
HETATM   10  N6  UNL     1       0.828  -2.696  -0.889  1.00  0.00    -0.329 N 
ATOM     11  H6  UNL     1       1.617  -3.264  -1.197  1.00  0.00     0.164 HD
HETATM   12  C12 UNL     1      -0.230  -3.414  -0.251  1.00  0.00     0.324 C 
HETATM   13  C13 UNL     1       0.318  -4.069   1.010  1.00  0.00     0.059 C 
HETATM   14  C14 UNL     1      -1.016  -4.519   1.626  1.00  0.00     0.034 C 
HETATM   15  C15 UNL     1      -1.882  -3.316   1.373  1.00  0.00     0.275 C 
HETATM   16  N7  UNL     1      -1.362  -2.657   0.164  1.00  0.00     0.111 N 
HETATM   17  C16 UNL     1      -2.386  -2.858  -0.874  1.00  0.00     0.275 C 
HETATM   18  C17 UNL     1      -3.032  -1.583  -1.292  1.00  0.00     0.030 C 
HETATM   19  C18 UNL     1      -4.200  -1.198  -0.407  1.00  0.00     0.002 C 
HETATM   20  C19 UNL     1      -4.469   0.277  -0.708  1.00  0.00     0.009 C 
HETATM   21  C20 UNL     1      -3.525   1.172   0.041  1.00  0.00     0.103 C 
HETATM   22  C21 UNL     1      -2.846   2.145  -0.861  1.00  0.00     0.220 C 
HETATM   23  O3  UNL     1      -3.285   2.214  -2.039  1.00  0.00    -0.273 OA
ENDROOT
BRANCH   7  24
HETATM   24  C7  UNL     1       2.020  -0.327   0.833  1.00  0.00     0.036 C 
BRANCH  24  25
HETATM   25  C8  UNL     1       3.359  -0.293   0.132  1.00  0.00     0.022 C 
BRANCH  25  26
HETATM   26  C9  UNL     1       4.464  -0.420   1.189  1.00  0.00     0.122 C 
BRANCH  26  27
HETATM   27  N3  UNL     1       5.777  -0.409   0.586  1.00  0.00    -0.365 N 
HETATM   28  C10 UNL     1       6.246   0.778  -0.021  1.00  0.00     0.181 C 
HETATM   29  N4  UNL     1       6.324   0.903  -1.298  1.00  0.00    -0.374 N 
HETATM   30  N5  UNL     1       6.636   1.838   0.829  1.00  0.00    -0.064 NA
ATOM     31  H42 UNL     1       6.043   0.138  -1.911  1.00  0.00     0.158 HD
ATOM     32  H41 UNL     1       6.662   1.760  -1.736  1.00  0.00     0.158 HD
ATOM     33  H3  UNL     1       6.358  -1.247   0.598  1.00  0.00     0.162 HD
ENDBRANCH  26  27
ENDBRANCH  25  26
ENDBRANCH  24  25
ENDBRANCH   7  24
BRANCH   1  34
HETATM   34  C3  UNL     1      -1.760   4.354  -0.955  1.00  0.00     0.153 C 
BRANCH  34  35
HETATM   35  C2  UNL     1      -2.470   5.211   0.009  1.00  0.00    -0.017 C 
HETATM   36  C1  UNL     1      -1.864   6.219   0.609  1.00  0.00     0.008 C 
ENDBRANCH  34  35
ENDBRANCH   1  34
TORSDOF 6
