REMARK  9 active torsions:
REMARK  status: ('A' for Active; 'I' for Inactive)
REMARK    1  A    between atoms: C3_3  and  C4_4 
REMARK    2  A    between atoms: C6_6  and  O1_7 
REMARK    3  A    between atoms: C9_16  and  C10_17 
REMARK    4  A    between atoms: C13_23  and  C14_24 
REMARK    5  A    between atoms: C14_24  and  C15_25 
REMARK    6  A    between atoms: N5_32  and  C19_33 
REMARK    7  A    between atoms: C19_33  and  C20_34 
REMARK    8  A    between atoms: C20_34  and  C21_35 
REMARK    9  A    between atoms: C21_35  and  C22_36 
ROOT
HETATM    1  C1  UNL     1      -3.411  -1.436  -0.598  1.00  0.00     0.044 C 
HETATM    2  C2  UNL     1      -2.419  -1.295   0.287  1.00  0.00     0.035 A 
HETATM    3  C3  UNL     1      -1.972  -2.221   1.196  1.00  0.00    -0.007 A 
HETATM    4  C8  UNL     1      -0.920  -1.593   1.901  1.00  0.00     0.043 A 
HETATM    5  C9  UNL     1      -0.768  -0.339   1.407  1.00  0.00     0.038 A 
HETATM    6  N5  UNL     1      -1.670  -0.165   0.437  1.00  0.00    -0.347 N 
ENDROOT
BRANCH   5   7
HETATM    7  C10 UNL     1       0.198   0.651   1.847  1.00  0.00     0.065 C 
HETATM    8  C11 UNL     1       1.404   0.836   1.384  1.00  0.00     0.106 A 
HETATM    9  N3  UNL     1       2.190   1.805   1.900  1.00  0.00    -0.317 N 
HETATM   10  C18 UNL     1       1.934   0.081   0.374  1.00  0.00     0.273 A 
HETATM   11  C12 UNL     1       3.438   2.025   1.447  1.00  0.00     0.272 A 
ATOM     12  H3  UNL     1       1.827   2.387   2.655  1.00  0.00     0.169 HD
HETATM   13  O3  UNL     1       4.186   2.918   1.911  1.00  0.00    -0.266 OA
HETATM   14  C13 UNL     1       3.953   1.252   0.428  1.00  0.00     0.100 A 
HETATM   15  N4  UNL     1       3.200   0.284  -0.105  1.00  0.00    -0.317 N 
ATOM     16  H4  UNL     1       3.565  -0.297  -0.860  1.00  0.00     0.169 HD
HETATM   17  O4  UNL     1       1.251  -0.826  -0.137  1.00  0.00    -0.266 OA
BRANCH  14  18
HETATM   18  C14 UNL     1       5.172   1.429  -0.050  1.00  0.00     0.012 C 
BRANCH  18  19
HETATM   19  C15 UNL     1       5.755   0.627  -1.134  1.00  0.00     0.002 C 
HETATM   20  C16 UNL     1       6.200  -0.745  -0.663  1.00  0.00     0.013 C 
HETATM   21  C17 UNL     1       6.995   1.327  -1.647  1.00  0.00     0.013 C 
ENDBRANCH  18  19
ENDBRANCH  14  18
ENDBRANCH   5   7
BRANCH   6  22
HETATM   22  C19 UNL     1      -1.871   1.022  -0.380  1.00  0.00     0.129 C 
BRANCH  22  23
HETATM   23  C20 UNL     1      -2.888   1.946   0.215  1.00  0.00     0.020 C 
BRANCH  23  24
HETATM   24  C21 UNL     1      -3.130   3.187  -0.609  1.00  0.00     0.001 C 
BRANCH  24  25
HETATM   25  C22 UNL     1      -1.853   3.995  -0.763  1.00  0.00    -0.004 C 
HETATM   26  C23 UNL     1      -2.111   5.248  -1.588  1.00  0.00     0.005 C 
ENDBRANCH  24  25
ENDBRANCH  23  24
ENDBRANCH  22  23
ENDBRANCH   6  22
BRANCH   3  27
HETATM   27  C4  UNL     1      -2.369  -3.448   1.437  1.00  0.00     0.035 C 
HETATM   28  C5  UNL     1      -3.394  -4.264   0.854  1.00  0.00     0.086 A 
HETATM   29  C6  UNL     1      -3.315  -5.154  -0.227  1.00  0.00     0.171 A 
HETATM   30  C7  UNL     1      -4.721  -4.377   1.291  1.00  0.00     0.274 A 
HETATM   31  N1  UNL     1      -4.522  -5.715  -0.369  1.00  0.00    -0.276 N 
HETATM   32  N2  UNL     1      -5.374  -5.263   0.527  1.00  0.00    -0.264 N 
ATOM     33  H1  UNL     1      -4.753  -6.406  -1.082  1.00  0.00     0.189 HD
ATOM     34  H2  UNL     1      -6.352  -5.537   0.622  1.00  0.00     0.190 HD
HETATM   35  O2  UNL     1      -5.187  -3.716   2.269  1.00  0.00    -0.266 OA
BRANCH  29  36
HETATM   36  O1  UNL     1      -2.144  -5.333  -0.940  1.00  0.00    -0.344 OA
ATOM     37  H1  UNL     1      -2.090  -5.936  -1.672  1.00  0.00     0.219 HD
ENDBRANCH  29  36
ENDBRANCH   3  27
TORSDOF 9
