REMARK  7 active torsions:
REMARK  status: ('A' for Active; 'I' for Inactive)
REMARK    1  A    between atoms: N1_4  and  C4_6 
REMARK    2  A    between atoms: C4_6  and  C7_9 
REMARK    3  A    between atoms: C8_12  and  S1_13 
REMARK    4  A    between atoms: S1_13  and  C9_14 
REMARK    5  A    between atoms: C9_14  and  C10_15 
REMARK    6  A    between atoms: C11_18  and  O1_19 
REMARK    7  A    between atoms: C13_24  and  C14_25 
ROOT
HETATM    1  C7  UNL     1      -1.458  -1.006   0.203  1.00  0.00     0.060 A 
HETATM    2  N2  UNL     1      -0.425  -0.221  -0.016  1.00  0.00    -0.345 N 
ATOM      3  H2  UNL     1      -0.579   0.712  -0.399  1.00  0.00     0.167 HD
HETATM    4  C8  UNL     1       0.791  -0.611   0.247  1.00  0.00     0.113 A 
HETATM    5  S3  UNL     1       0.550  -2.174   0.846  1.00  0.00    -0.059 SA
HETATM    6  C13 UNL     1      -1.199  -2.242   0.715  1.00  0.00     0.088 A 
ENDROOT
BRANCH   4   7
HETATM    7  S1  UNL     1       2.275   0.369  -0.008  1.00  0.00    -0.098 SA
BRANCH   7   8
HETATM    8  C9  UNL     1       3.680  -0.654   0.523  1.00  0.00     0.146 C 
BRANCH   8   9
HETATM    9  C10 UNL     1       4.913   0.173   0.306  1.00  0.00     0.062 A 
HETATM   10  N3  UNL     1       5.638   0.204  -0.803  1.00  0.00    -0.334 N 
HETATM   11  C11 UNL     1       6.684   0.961  -0.867  1.00  0.00     0.147 A 
ATOM     12  H3  UNL     1       5.371  -0.368  -1.604  1.00  0.00     0.168 HD
HETATM   13  C12 UNL     1       7.003   1.711   0.235  1.00  0.00     0.107 A 
HETATM   14  S2  UNL     1       5.743   1.267   1.318  1.00  0.00    -0.084 SA
BRANCH  11  15
HETATM   15  O1  UNL     1       7.498   1.035  -2.026  1.00  0.00    -0.346 OA
ATOM     16  H1  UNL     1       8.267   1.591  -2.073  1.00  0.00     0.219 HD
ENDBRANCH  11  15
ENDBRANCH   8   9
ENDBRANCH   7   8
ENDBRANCH   4   7
BRANCH   1  17
HETATM   17  C4  UNL     1      -2.861  -0.491  -0.131  1.00  0.00     0.066 C 
HETATM   18  C5  UNL     1      -3.490  -1.344  -1.221  1.00  0.00     0.045 C 
HETATM   19  C6  UNL     1      -3.777  -0.481   1.046  1.00  0.00     0.045 C 
BRANCH  17  20
HETATM   20  N1  UNL     1      -2.796   0.823  -0.643  1.00  0.00    -0.383 N 
HETATM   21  C2  UNL     1      -2.498   1.916  -0.163  1.00  0.00    -0.025 C 
HETATM   22  C1  UNL     1      -2.569   3.103  -1.106  1.00  0.00     0.062 C 
HETATM   23  C3  UNL     1      -2.080   2.227   1.212  1.00  0.00     0.062 C 
ATOM     24  H1  UNL     1      -3.053   0.879  -1.629  1.00  0.00     0.160 HD
ENDBRANCH  17  20
ENDBRANCH   1  17
BRANCH   6  25
HETATM   25  C14 UNL     1      -1.999  -3.394   1.085  1.00  0.00     0.201 C 
HETATM   26  N4  UNL     1      -1.380  -4.425   1.565  1.00  0.00    -0.375 N 
ATOM     27  H42 UNL     1      -0.366  -4.358   1.658  1.00  0.00     0.158 HD
ATOM     28  H41 UNL     1      -1.943  -5.235   1.825  1.00  0.00     0.158 HD
HETATM   29  F1  UNL     1      -3.309  -3.481   0.965  1.00  0.00    -0.185 F 
ENDBRANCH   6  25
TORSDOF 7
