REMARK  6 active torsions:
REMARK  status: ('A' for Active; 'I' for Inactive)
REMARK    1  A    between atoms: C2_2  and  S1_4 
REMARK    2  A    between atoms: S1_4  and  C4_5 
REMARK    3  A    between atoms: C6_10  and  C7_11 
REMARK    4  A    between atoms: C8_14  and  N3_15 
REMARK    5  A    between atoms: C9_20  and  S2_21 
REMARK    6  A    between atoms: S2_21  and  C10_22 
ROOT
HETATM    1  C7  UNL     1       0.619  -0.246  -0.123  1.00  0.00     0.094 A 
HETATM    2  N2  UNL     1       0.826   0.942   0.548  1.00  0.00    -0.189 N 
ATOM      3  H2  UNL     1       0.013   1.405   0.954  1.00  0.00     0.184 HD
HETATM    4  C8  UNL     1       1.999   1.520   0.701  1.00  0.00     0.677 A 
HETATM    5  N4  UNL     1       3.065   0.899   0.160  1.00  0.00    -0.184 N 
ATOM      6  H4  UNL     1       3.982   1.331   0.269  1.00  0.00     0.185 HD
HETATM    7  C9  UNL     1       2.985  -0.246  -0.508  1.00  0.00     0.109 A 
HETATM    8  C13 UNL     1       1.708  -0.829  -0.649  1.00  0.00     0.107 A 
HETATM    9  C14 UNL     1       1.706  -2.000  -1.482  1.00  0.00     0.104 C 
HETATM   10  N5  UNL     1       1.718  -2.925  -2.192  1.00  0.00    -0.191 NA
ENDROOT
BRANCH   1  11
HETATM   11  C6  UNL     1      -0.754  -0.714  -0.262  1.00  0.00     0.092 A 
HETATM   12  C5  UNL     1      -1.410  -1.880  -0.367  1.00  0.00     0.209 A 
HETATM   13  N1  UNL     1      -2.696  -1.887  -0.594  1.00  0.00    -0.321 N 
HETATM   14  F1  UNL     1      -0.788  -3.108  -0.144  1.00  0.00    -0.185 F 
HETATM   15  C4  UNL     1      -3.341  -0.745  -0.715  1.00  0.00     0.115 A 
ATOM     16  H1  UNL     1      -3.198  -2.771  -0.677  1.00  0.00     0.169 HD
HETATM   17  S3  UNL     1      -2.117   0.400  -0.507  1.00  0.00    -0.058 SA
BRANCH  15  18
HETATM   18  S1  UNL     1      -5.094  -0.582  -1.034  1.00  0.00    -0.101 SA
BRANCH  18  19
HETATM   19  C2  UNL     1      -6.055  -0.525   0.474  1.00  0.00     0.046 C 
HETATM   20  C1  UNL     1      -5.845   0.684   1.319  1.00  0.00     0.021 C 
HETATM   21  C3  UNL     1      -7.530  -0.703   0.087  1.00  0.00     0.021 C 
ENDBRANCH  18  19
ENDBRANCH  15  18
ENDBRANCH   1  11
BRANCH   7  22
HETATM   22  S2  UNL     1       4.448  -0.989  -1.183  1.00  0.00    -0.106 SA
BRANCH  22  23
HETATM   23  C10 UNL     1       5.873   0.049  -0.784  1.00  0.00     0.045 C 
HETATM   24  C11 UNL     1       6.059  -0.003   0.719  1.00  0.00     0.021 C 
HETATM   25  C12 UNL     1       5.703   1.486  -1.220  1.00  0.00     0.021 C 
ENDBRANCH  22  23
ENDBRANCH   7  22
BRANCH   4  26
HETATM   26  N3  UNL     1       2.137   2.644   1.344  1.00  0.00    -0.234 N 
ATOM     27  H32 UNL     1       1.330   3.114   1.754  1.00  0.00     0.174 HD
ATOM     28  H31 UNL     1       3.046   3.092   1.463  1.00  0.00     0.174 HD
ENDBRANCH   4  26
TORSDOF 6
