REMARK  9 active torsions:
REMARK  status: ('A' for Active; 'I' for Inactive)
REMARK    1  A    between atoms: O1_2  and  C2_3 
REMARK    2  A    between atoms: C5_6  and  C6_7 
REMARK    3  A    between atoms: C6_7  and  N1_8 
REMARK    4  A    between atoms: N1_8  and  N2_10 
REMARK    5  A    between atoms: C7_11  and  S1_12 
REMARK    6  A    between atoms: S1_12  and  N3_14 
REMARK    7  A    between atoms: S1_12  and  C9_18 
REMARK    8  A    between atoms: N3_14  and  C8_16 
REMARK    9  A    between atoms: C17_29  and  O4_30 
ROOT
HETATM    1  N2  UNL     1      -0.481   1.572  -1.271  1.00  0.00    -0.195 N 
HETATM    2  C7  UNL     1      -1.628   0.999  -1.010  1.00  0.00     0.207 A 
HETATM    3  N4  UNL     1      -2.824   1.453  -1.303  1.00  0.00    -0.337 N 
ATOM      4  H4  UNL     1      -3.667   0.933  -1.058  1.00  0.00     0.168 HD
HETATM    5  C13 UNL     1      -2.889   2.654  -1.952  1.00  0.00     0.013 A 
HETATM    6  C14 UNL     1      -4.184   3.263  -2.333  1.00  0.00     0.068 C 
HETATM    7  C15 UNL     1      -1.719   3.320  -2.263  1.00  0.00     0.101 A 
HETATM    8  C16 UNL     1      -0.490   2.777  -1.920  1.00  0.00     0.270 A 
HETATM    9  O3  UNL     1       0.556   3.378  -2.200  1.00  0.00    -0.266 OA
ENDROOT
BRANCH   1  10
HETATM   10  N1  UNL     1       0.749   1.033  -0.930  1.00  0.00    -0.299 N 
ATOM     11  H1  UNL     1       1.148   0.292  -1.507  1.00  0.00     0.186 HD
BRANCH  10  12
HETATM   12  C6  UNL     1       1.407   1.456   0.117  1.00  0.00     0.122 C 
BRANCH  12  13
HETATM   13  C5  UNL     1       2.700   0.872   0.452  1.00  0.00     0.014 A 
HETATM   14  C4  UNL     1       3.390   1.310   1.554  1.00  0.00     0.018 A 
HETATM   15  C3  UNL     1       4.600   0.751   1.856  1.00  0.00     0.038 A 
HETATM   16  C2  UNL     1       5.150  -0.251   1.076  1.00  0.00     0.070 A 
HETATM   17  C19 UNL     1       4.428  -0.664  -0.023  1.00  0.00     0.074 A 
HETATM   18  C17 UNL     1       3.212  -0.128  -0.357  1.00  0.00     0.082 A 
BRANCH  16  19
HETATM   19  O1  UNL     1       6.370  -0.789   1.410  1.00  0.00    -0.356 OA
HETATM   20  C1  UNL     1       6.916  -1.804   0.611  1.00  0.00     0.210 C 
ENDBRANCH  16  19
BRANCH  18  21
HETATM   21  O4  UNL     1       2.519  -0.576  -1.475  1.00  0.00    -0.355 OA
HETATM   22  C18 UNL     1       3.052  -1.589  -2.282  1.00  0.00     0.210 C 
ENDBRANCH  18  21
ENDBRANCH  12  13
ENDBRANCH  10  12
ENDBRANCH   1  10
BRANCH   2  23
HETATM   23  S1  UNL     1      -1.667  -0.816  -0.062  1.00  0.00     0.098 S 
HETATM   24  O2  UNL     1      -0.115  -1.436   0.483  1.00  0.00    -0.241 OA
BRANCH  23  25
HETATM   25  N3  UNL     1      -1.627   0.232   1.490  1.00  0.00    -0.310 N 
ATOM     26  H3  UNL     1      -1.455   1.224   1.325  1.00  0.00     0.176 HD
BRANCH  25  27
HETATM   27  C8  UNL     1      -1.773  -0.070   2.674  1.00  0.00     0.178 C 
HETATM   28  S2  UNL     1      -1.423  -0.561   4.188  1.00  0.00    -0.074 SA
ENDBRANCH  25  27
ENDBRANCH  23  25
BRANCH  23  29
HETATM   29  C9  UNL     1      -3.364  -1.444   0.320  1.00  0.00     0.041 C 
HETATM   30  C10 UNL     1      -4.089  -2.336  -0.707  1.00  0.00     0.030 C 
HETATM   31  C11 UNL     1      -4.376  -0.299   0.515  1.00  0.00     0.030 C 
HETATM   32  C12 UNL     1      -3.383  -2.221   1.622  1.00  0.00     0.030 C 
ENDBRANCH  23  29
ENDBRANCH   2  23
TORSDOF 9
