REMARK  7 active torsions:
REMARK  status: ('A' for Active; 'I' for Inactive)
REMARK    1  A    between atoms: O1_2  and  C2_3 
REMARK    2  A    between atoms: C4_5  and  C5_6 
REMARK    3  A    between atoms: C11_13  and  O3_14 
REMARK    4  A    between atoms: C13_16  and  O4_17 
REMARK    5  A    between atoms: C15_19  and  O5_20 
REMARK    6  A    between atoms: C18_24  and  N1_25 
REMARK    7  A    between atoms: C21_31  and  N2_32 
ROOT
HETATM    1  C5  UNL     1       1.762   2.275   0.017  1.00  0.00     0.025 C 
HETATM    2  C6  UNL     1       0.521   1.955  -0.149  1.00  0.00     0.032 C 
HETATM    3  C7  UNL     1       0.006   0.630  -0.469  1.00  0.00     0.194 C 
HETATM    4  O2  UNL     1       0.735  -0.216  -1.023  1.00  0.00    -0.287 OA
HETATM    5  C8  UNL     1      -1.372   0.251  -0.157  1.00  0.00     0.065 A 
HETATM    6  C9  UNL     1      -2.226   1.163   0.458  1.00  0.00     0.032 A 
HETATM    7  C10 UNL     1      -3.540   0.821   0.770  1.00  0.00     0.056 A 
HETATM    8  C11 UNL     1      -4.035  -0.433   0.477  1.00  0.00     0.105 A 
HETATM    9  C13 UNL     1      -3.196  -1.349  -0.135  1.00  0.00     0.136 A 
HETATM   10  C15 UNL     1      -1.880  -0.993  -0.442  1.00  0.00     0.119 A 
HETATM   11  C17 UNL     1      -1.692   2.472   0.761  1.00  0.00     0.195 C 
HETATM   12  O6  UNL     1      -2.213   3.156   1.665  1.00  0.00    -0.290 OA
HETATM   13  C18 UNL     1      -0.548   3.001   0.015  1.00  0.00     0.294 C 
ENDROOT
BRANCH   1  14
HETATM   14  C4  UNL     1       2.950   1.443  -0.058  1.00  0.00    -0.033 A 
HETATM   15  C3  UNL     1       3.122   0.275   0.648  1.00  0.00     0.050 A 
HETATM   16  C2  UNL     1       4.269  -0.485   0.518  1.00  0.00     0.102 A 
HETATM   17  C21 UNL     1       5.286  -0.093  -0.331  1.00  0.00     0.136 A 
HETATM   18  C20 UNL     1       5.147   1.071  -1.052  1.00  0.00     0.040 A 
HETATM   19  C19 UNL     1       3.998   1.812  -0.908  1.00  0.00     0.014 A 
BRANCH  16  20
HETATM   20  O1  UNL     1       4.444  -1.667   1.232  1.00  0.00    -0.353 OA
HETATM   21  C1  UNL     1       3.437  -2.117   2.117  1.00  0.00     0.210 C 
ENDBRANCH  16  20
BRANCH  17  22
HETATM   22  N2  UNL     1       6.455  -0.916  -0.432  1.00  0.00    -0.113 N 
HETATM   23  O7  UNL     1       7.542  -0.386  -0.746  1.00  0.00    -0.532 OA
HETATM   24  O8  UNL     1       6.446  -2.252  -0.204  1.00  0.00    -0.532 OA
ENDBRANCH  17  22
ENDBRANCH   1  14
BRANCH  13  25
HETATM   25  N1  UNL     1      -0.016   4.203   0.543  1.00  0.00    -0.064 N 
ATOM     26  H13 UNL     1       0.484   4.039   1.417  1.00  0.00     0.275 HD
ATOM     27  H12 UNL     1       0.761   4.547  -0.020  1.00  0.00     0.275 HD
ATOM     28  H11 UNL     1      -0.741   4.912   0.654  1.00  0.00     0.275 HD
ENDBRANCH  13  25
BRANCH  10  29
HETATM   29  O5  UNL     1      -1.118  -1.972  -1.055  1.00  0.00    -0.352 OA
HETATM   30  C16 UNL     1      -1.184  -2.038  -2.489  1.00  0.00     0.210 C 
ENDBRANCH  10  29
BRANCH   9  31
HETATM   31  O4  UNL     1      -3.713  -2.604  -0.420  1.00  0.00    -0.351 OA
HETATM   32  C14 UNL     1      -3.653  -3.686   0.476  1.00  0.00     0.210 C 
ENDBRANCH   9  31
BRANCH   8  33
HETATM   33  O3  UNL     1      -5.347  -0.769   0.790  1.00  0.00    -0.353 OA
HETATM   34  C12 UNL     1      -6.199   0.167   1.414  1.00  0.00     0.210 C 
ENDBRANCH   8  33
TORSDOF 7
