REMARK  7 active torsions:
REMARK  status: ('A' for Active; 'I' for Inactive)
REMARK    1  A    between atoms: O1_2  and  C2_3 
REMARK    2  A    between atoms: C2_3  and  C3_5 
REMARK    3  A    between atoms: C8_10  and  C9_11 
REMARK       I    between atoms: C9_11  and  N1_13 
REMARK    4  A    between atoms: N1_13  and  N2_15 
REMARK    5  A    between atoms: C10_17  and  C11_18 
REMARK    6  A    between atoms: C14_21  and  N3_22 
REMARK    7  A    between atoms: C15_25  and  N4_26 
ROOT
HETATM    1  C9  UNL     1       0.439  -0.632   1.181  1.00  0.00     0.270 C 
HETATM    2  O3  UNL     1       1.250  -1.306   1.843  1.00  0.00    -0.266 OA
HETATM    3  N1  UNL     1       0.862   0.551   0.560  1.00  0.00    -0.266 N 
ATOM      4  H1  UNL     1       0.199   1.104   0.017  1.00  0.00     0.190 HD
ENDROOT
BRANCH   3   5
HETATM    5  N2  UNL     1       2.190   0.977   0.681  1.00  0.00    -0.308 N 
HETATM    6  C10 UNL     1       3.149   0.393   0.041  1.00  0.00     0.118 C 
ATOM      7  H2  UNL     1       2.406   1.767   1.289  1.00  0.00     0.186 HD
BRANCH   6   8
HETATM    8  C11 UNL     1       4.535   0.816   0.149  1.00  0.00    -0.017 A 
HETATM    9  C12 UNL     1       4.907   1.874   0.944  1.00  0.00     0.015 A 
HETATM   10  C13 UNL     1       6.215   2.237   1.019  1.00  0.00     0.039 A 
HETATM   11  C14 UNL     1       7.218   1.561   0.302  1.00  0.00     0.135 A 
HETATM   12  C15 UNL     1       6.878   0.520  -0.488  1.00  0.00     0.136 A 
HETATM   13  C16 UNL     1       5.506   0.169  -0.540  1.00  0.00     0.051 A 
BRANCH  11  14
HETATM   14  N3  UNL     1       8.559   1.989   0.444  1.00  0.00    -0.113 N 
HETATM   15  O4  UNL     1       9.561   1.283   0.460  1.00  0.00    -0.532 OA
HETATM   16  O5  UNL     1       8.749   3.351   0.630  1.00  0.00    -0.532 OA
ENDBRANCH  11  14
BRANCH  12  17
HETATM   17  N4  UNL     1       7.755  -0.250  -1.282  1.00  0.00    -0.113 N 
HETATM   18  O6  UNL     1       7.456  -1.469  -1.510  1.00  0.00    -0.532 OA
HETATM   19  O7  UNL     1       8.924   0.147  -1.860  1.00  0.00    -0.532 OA
ENDBRANCH  12  17
ENDBRANCH   6   8
ENDBRANCH   3   5
BRANCH   1  20
HETATM   20  C8  UNL     1      -0.933  -1.079   1.062  1.00  0.00     0.035 A 
HETATM   21  C7  UNL     1      -1.319  -2.312   1.612  1.00  0.00     0.018 A 
HETATM   22  C6  UNL     1      -2.612  -2.772   1.523  1.00  0.00     0.015 A 
HETATM   23  C5  UNL     1      -3.593  -2.041   0.889  1.00  0.00    -0.007 A 
HETATM   24  C4  UNL     1      -4.942  -2.224   0.641  1.00  0.00     0.049 A 
HETATM   25  C18 UNL     1      -3.246  -0.828   0.339  1.00  0.00     0.046 A 
HETATM   26  C3  UNL     1      -5.416  -1.132  -0.054  1.00  0.00     0.111 A 
HETATM   27  N5  UNL     1      -4.363  -0.318  -0.213  1.00  0.00    -0.346 N 
HETATM   28  C19 UNL     1      -4.427   0.946  -0.893  1.00  0.00     0.156 C 
HETATM   29  C17 UNL     1      -1.928  -0.368   0.434  1.00  0.00     0.047 A 
BRANCH  26  30
HETATM   30  C2  UNL     1      -6.798  -0.935  -0.508  1.00  0.00     0.309 C 
HETATM   31  O2  UNL     1      -7.675  -1.802  -0.273  1.00  0.00    -0.258 OA
BRANCH  30  32
HETATM   32  O1  UNL     1      -7.166   0.195  -1.197  1.00  0.00    -0.321 OA
HETATM   33  C1  UNL     1      -8.501   0.437  -1.663  1.00  0.00     0.213 C 
ENDBRANCH  30  32
ENDBRANCH  26  30
ENDBRANCH   1  20
TORSDOF 7
