REMARK  7 active torsions:
REMARK  status: ('A' for Active; 'I' for Inactive)
REMARK    1  A    between atoms: O1_2  and  C2_3 
REMARK    2  A    between atoms: C4_5  and  O2_6 
REMARK    3  A    between atoms: C6_8  and  O3_9 
REMARK    4  A    between atoms: C9_12  and  C10_13 
REMARK    5  A    between atoms: C11_14  and  S1_17 
REMARK    6  A    between atoms: S1_17  and  C13_20 
REMARK    7  A    between atoms: N2_29  and  O8_30 
ROOT
HETATM    1  C10 UNL     1       1.018   1.248  -1.401  1.00  0.00     0.049 C 
HETATM    2  C11 UNL     1       1.395   0.019  -1.529  1.00  0.00     0.144 C 
HETATM    3  C12 UNL     1       2.718  -0.179  -2.164  1.00  0.00     0.112 C 
HETATM    4  N1  UNL     1       3.758  -0.322  -2.642  1.00  0.00    -0.191 NA
ENDROOT
BRANCH   2   5
HETATM    5  S1  UNL     1       0.541  -1.451  -1.200  1.00  0.00     0.216 S 
HETATM    6  O4  UNL     1      -0.892  -1.232  -0.781  1.00  0.00    -0.216 OA
HETATM    7  O5  UNL     1       0.430  -2.216  -2.537  1.00  0.00    -0.216 OA
BRANCH   5   8
HETATM    8  C13 UNL     1       1.307  -2.520  -0.088  1.00  0.00     0.067 A 
HETATM    9  C14 UNL     1       1.764  -2.153   1.159  1.00  0.00     0.026 A 
HETATM   10  C15 UNL     1       2.345  -3.098   2.007  1.00  0.00     0.037 A 
HETATM   11  C16 UNL     1       2.496  -4.420   1.661  1.00  0.00     0.102 A 
HETATM   12  C17 UNL     1       2.033  -4.791   0.397  1.00  0.00     0.111 A 
HETATM   13  N2  UNL     1       2.998  -5.517   2.243  1.00  0.00    -0.164 N 
HETATM   14  C18 UNL     1       1.472  -3.857  -0.410  1.00  0.00     0.063 A 
HETATM   15  O6  UNL     1       2.279  -6.080   0.289  1.00  0.00    -0.257 OA
HETATM   16  C19 UNL     1       2.841  -6.538   1.345  1.00  0.00     0.397 A 
HETATM   17  O7  UNL     1       3.215  -7.736   1.581  1.00  0.00    -0.235 OA
BRANCH  13  18
HETATM   18  O8  UNL     1       3.561  -5.594   3.486  1.00  0.00    -0.278 OA
ATOM     19  H8  UNL     1       3.917  -6.372   3.899  1.00  0.00     0.245 HD
ENDBRANCH  13  18
ENDBRANCH   5   8
ENDBRANCH   2   5
BRANCH   1  20
HETATM   20  C9  UNL     1      -0.145   1.894  -0.869  1.00  0.00     0.002 A 
HETATM   21  C2  UNL     1      -0.571   1.779   0.414  1.00  0.00     0.081 A 
HETATM   22  C3  UNL     1      -1.718   2.415   0.791  1.00  0.00     0.077 A 
HETATM   23  C4  UNL     1      -2.494   3.209  -0.129  1.00  0.00     0.104 A 
HETATM   24  C6  UNL     1      -2.016   3.302  -1.448  1.00  0.00     0.102 A 
HETATM   25  C8  UNL     1      -0.875   2.661  -1.801  1.00  0.00     0.054 A 
BRANCH  21  26
HETATM   26  O1  UNL     1       0.096   1.046   1.387  1.00  0.00    -0.355 OA
HETATM   27  C1  UNL     1      -0.297   0.906   2.710  1.00  0.00     0.210 C 
ENDBRANCH  21  26
BRANCH  23  28
HETATM   28  O2  UNL     1      -3.553   3.795   0.228  1.00  0.00    -0.353 OA
HETATM   29  C5  UNL     1      -4.593   4.275   0.890  1.00  0.00     0.210 C 
ENDBRANCH  23  28
BRANCH  24  30
HETATM   30  O3  UNL     1      -2.763   4.066  -2.331  1.00  0.00    -0.353 OA
HETATM   31  C7  UNL     1      -2.367   4.213  -3.654  1.00  0.00     0.210 C 
ENDBRANCH  24  30
ENDBRANCH   1  20
TORSDOF 7
