REMARK  4 active torsions:
REMARK  status: ('A' for Active; 'I' for Inactive)
REMARK    1  A    between atoms: C4_7  and  N2_8 
REMARK    2  A    between atoms: N4_14  and  C6_16 
REMARK    3  A    between atoms: C6_16  and  C8_18 
REMARK    4  A    between atoms: C8_18  and  N5_19 
ROOT
HETATM    1  C1  UNL     1      -5.171  -1.371  -1.190  1.00  0.00     0.057 C 
HETATM    2  C2  UNL     1      -4.228  -0.338  -0.617  1.00  0.00    -0.012 A 
HETATM    3  S1  UNL     1      -4.606   1.189   0.031  1.00  0.00    -0.075 SA
HETATM    4  C3  UNL     1      -3.033   1.706   0.440  1.00  0.00     0.105 A 
HETATM    5  N1  UNL     1      -2.521   2.846   1.013  1.00  0.00    -0.185 N 
ATOM      6  H1  UNL     1      -3.151   3.600   1.285  1.00  0.00     0.185 HD
HETATM    7  C4  UNL     1      -1.196   2.978   1.219  1.00  0.00     0.678 A 
HETATM    8  N3  UNL     1      -0.403   1.960   0.848  1.00  0.00    -0.176 N 
ATOM      9  H3  UNL     1       0.601   2.050   1.001  1.00  0.00     0.186 HD
HETATM   10  C5  UNL     1      -0.860   0.835   0.288  1.00  0.00     0.131 A 
HETATM   11  N4  UNL     1      -0.027  -0.086  -0.037  1.00  0.00    -0.369 N 
ATOM     12  H4  UNL     1      -0.411  -0.930  -0.461  1.00  0.00     0.161 HD
HETATM   13  C12 UNL     1      -2.242   0.665   0.058  1.00  0.00     0.050 A 
HETATM   14  C13 UNL     1      -2.868  -0.410  -0.498  1.00  0.00    -0.032 A 
HETATM   15  C14 UNL     1      -2.142  -1.665  -0.983  1.00  0.00     0.050 C 
ENDROOT
BRANCH  11  16
HETATM   16  C6  UNL     1       1.383  -0.035   0.141  1.00  0.00     0.097 C 
HETATM   17  C7  UNL     1       1.788  -0.244   1.571  1.00  0.00     0.034 C 
BRANCH  16  18
HETATM   18  C8  UNL     1       2.112  -1.085  -0.686  1.00  0.00     0.153 C 
BRANCH  18  19
HETATM   19  N5  UNL     1       3.527  -1.035  -0.509  1.00  0.00    -0.350 N 
HETATM   20  C9  UNL     1       4.388  -0.299  -1.242  1.00  0.00     0.108 A 
HETATM   21  C10 UNL     1       5.677  -0.495  -0.795  1.00  0.00     0.106 A 
HETATM   22  N6  UNL     1       5.582  -1.366   0.225  1.00  0.00    -0.361 N 
HETATM   23  C11 UNL     1       4.276  -1.691   0.394  1.00  0.00     0.182 A 
ATOM     24  H6  UNL     1       6.361  -1.722   0.779  1.00  0.00     0.166 HD
ENDBRANCH  18  19
ENDBRANCH  16  18
ENDBRANCH  11  16
BRANCH   7  25
HETATM   25  N2  UNL     1      -0.756   4.059   1.757  1.00  0.00    -0.234 N 
ATOM     26  H22 UNL     1      -1.358   4.832   2.039  1.00  0.00     0.174 HD
ATOM     27  H21 UNL     1       0.247   4.159   1.913  1.00  0.00     0.174 HD
ENDBRANCH   7  25
TORSDOF 4
