REMARK  5 active torsions:
REMARK  status: ('A' for Active; 'I' for Inactive)
REMARK    1  A    between atoms: C2_2  and  C3_3 
REMARK    2  A    between atoms: C3_3  and  N1_4 
REMARK    3  A    between atoms: C4_5  and  O1_6 
REMARK    4  A    between atoms: C8_11  and  N2_12 
REMARK    5  A    between atoms: N2_12  and  C9_14 
ROOT
HETATM    1  N1  UNL     1       1.755  -0.722  -0.583  1.00  0.00    -0.313 N 
HETATM    2  C4  UNL     1       1.401  -2.008  -0.404  1.00  0.00     0.150 A 
HETATM    3  C5  UNL     1       0.040  -2.108  -0.208  1.00  0.00     0.005 A 
HETATM    4  C6  UNL     1      -0.791  -3.313   0.028  1.00  0.00     0.054 C 
HETATM    5  C7  UNL     1      -0.437  -0.794  -0.276  1.00  0.00     0.047 A 
HETATM    6  C8  UNL     1      -1.706  -0.252  -0.157  1.00  0.00     0.073 A 
HETATM    7  C11 UNL     1      -1.881   1.124  -0.272  1.00  0.00     0.105 A 
HETATM    8  N3  UNL     1      -2.928   1.944  -0.212  1.00  0.00    -0.295 N 
ATOM      9  H3  UNL     1      -3.893   1.654  -0.051  1.00  0.00     0.187 HD
HETATM   10  N4  UNL     1      -2.533   3.174  -0.391  1.00  0.00    -0.288 N 
ATOM     11  H4  UNL     1      -3.136   3.996  -0.392  1.00  0.00     0.188 HD
HETATM   12  C12 UNL     1      -1.213   3.181  -0.572  1.00  0.00     0.158 A 
HETATM   13  C13 UNL     1      -0.369   4.320  -0.802  1.00  0.00     0.121 C 
HETATM   14  N5  UNL     1       0.295   5.241  -0.993  1.00  0.00    -0.190 NA
HETATM   15  C14 UNL     1      -0.756   1.886  -0.503  1.00  0.00     0.103 A 
HETATM   16  N6  UNL     1       0.491   1.376  -0.622  1.00  0.00    -0.337 N 
ATOM     17  H6  UNL     1       1.297   1.977  -0.793  1.00  0.00     0.167 HD
HETATM   18  C15 UNL     1       0.623   0.036  -0.505  1.00  0.00     0.123 A 
ENDROOT
BRANCH   6  19
HETATM   19  N2  UNL     1      -2.687  -1.001   0.053  1.00  0.00    -0.388 N 
ATOM     20  H2  UNL     1      -2.440  -1.988   0.119  1.00  0.00     0.159 HD
BRANCH  19  21
HETATM   21  C9  UNL     1      -4.068  -0.751   0.217  1.00  0.00     0.115 C 
HETATM   22  C10 UNL     1      -4.467  -0.230   1.575  1.00  0.00     0.026 C 
ENDBRANCH  19  21
ENDBRANCH   6  19
BRANCH   1  23
HETATM   23  C3  UNL     1       3.085  -0.205  -0.817  1.00  0.00     0.132 C 
BRANCH  23  24
HETATM   24  C2  UNL     1       3.733   0.116   0.536  1.00  0.00     0.016 C 
HETATM   25  C1  UNL     1       5.128   0.659   0.311  1.00  0.00     0.006 C 
ENDBRANCH  23  24
ENDBRANCH   1  23
BRANCH   2  26
HETATM   26  O1  UNL     1       2.241  -3.125  -0.406  1.00  0.00    -0.345 OA
ATOM     27  H1  UNL     1       1.991  -4.033  -0.280  1.00  0.00     0.219 HD
ENDBRANCH   2  26
TORSDOF 5
