REMARK  12 active torsions:
REMARK  status: ('A' for Active; 'I' for Inactive)
REMARK    1  A    between atoms: C6_6  and  C8_8 
REMARK    2  A    between atoms: C8_8  and  C9_9 
REMARK    3  A    between atoms: C9_9  and  C10_10 
REMARK    4  A    between atoms: C10_10  and  O2_12 
REMARK    5  A    between atoms: O2_12  and  C11_13 
REMARK    6  A    between atoms: C11_13  and  C12_14 
REMARK    7  A    between atoms: C12_14  and  C13_15 
REMARK    8  A    between atoms: C16_19  and  C17_20 
REMARK    9  A    between atoms: C19_22  and  C21_24 
REMARK   10  A    between atoms: C29_33  and  O5_34 
REMARK   11  A    between atoms: C32_38  and  O6_39 
REMARK   12  A    between atoms: C33_41  and  O7_42 
ROOT
HETATM    1  C1  UNL     1       0.219  -3.503  -2.626  1.00  0.00     0.017 C 
HETATM    2  C2  UNL     1      -0.573  -2.487  -2.952  1.00  0.00    -0.061 C 
HETATM    3  C3  UNL     1       0.019  -1.322  -3.639  1.00  0.00     0.036 C 
HETATM    4  C4  UNL     1       0.155  -0.082  -2.794  1.00  0.00     0.005 C 
HETATM    5  C5  UNL     1       1.186  -0.282  -1.697  1.00  0.00     0.012 C 
HETATM    6  C6  UNL     1       1.157   0.741  -0.639  1.00  0.00    -0.015 C 
HETATM    7  C7  UNL     1       0.801   2.027  -1.447  1.00  0.00     0.018 C 
HETATM    8  C15 UNL     1       0.198   0.660   0.488  1.00  0.00     0.165 C 
HETATM    9  O3  UNL     1      -0.805   1.556   0.319  1.00  0.00    -0.349 OA
HETATM   10  C16 UNL     1      -2.105   1.193   0.218  1.00  0.00     0.292 C 
HETATM   11  O4  UNL     1      -2.490  -0.078   0.378  1.00  0.00    -0.339 OA
HETATM   12  C24 UNL     1      -1.671  -1.047   0.815  1.00  0.00     0.121 C 
HETATM   13  C25 UNL     1      -2.319  -1.613   2.060  1.00  0.00    -0.052 C 
HETATM   14  C26 UNL     1      -3.473  -1.197   2.541  1.00  0.00     0.017 C 
HETATM   15  C27 UNL     1      -1.599  -2.697   2.742  1.00  0.00     0.039 C 
HETATM   16  C28 UNL     1      -1.564  -3.859   1.772  1.00  0.00     0.036 C 
HETATM   17  C29 UNL     1      -2.221  -3.509   0.456  1.00  0.00     0.126 C 
HETATM   18  C30 UNL     1      -1.689  -2.240  -0.154  1.00  0.00     0.059 C 
HETATM   19  C31 UNL     1      -2.494  -1.971  -1.389  1.00  0.00     0.046 C 
HETATM   20  C32 UNL     1      -1.997  -2.553  -2.656  1.00  0.00     0.146 C 
HETATM   21  C33 UNL     1      -0.230  -0.600   1.089  1.00  0.00     0.187 C 
ENDROOT
BRANCH   6  22
HETATM   22  C8  UNL     1       2.582   1.092  -0.243  1.00  0.00     0.021 C 
BRANCH  22  23
HETATM   23  C9  UNL     1       3.411  -0.010   0.283  1.00  0.00     0.112 C 
BRANCH  23  24
HETATM   24  C10 UNL     1       4.759   0.622   0.571  1.00  0.00     0.258 C 
HETATM   25  O1  UNL     1       4.918   1.266   1.625  1.00  0.00    -0.265 OA
BRANCH  24  26
HETATM   26  O2  UNL     1       5.785   0.492  -0.301  1.00  0.00    -0.321 OA
BRANCH  26  27
HETATM   27  C11 UNL     1       7.090   0.923  -0.296  1.00  0.00     0.178 C 
BRANCH  27  28
HETATM   28  C12 UNL     1       8.062   0.282   0.596  1.00  0.00     0.026 C 
BRANCH  28  29
HETATM   29  C13 UNL     1       7.790   0.318   2.035  1.00  0.00    -0.002 C 
HETATM   30  C14 UNL     1       9.007  -0.371   2.728  1.00  0.00     0.005 C 
ENDBRANCH  28  29
ENDBRANCH  27  28
ENDBRANCH  26  27
ENDBRANCH  24  26
ENDBRANCH  23  24
ENDBRANCH  22  23
ENDBRANCH   6  22
BRANCH  21  31
HETATM   31  O7  UNL     1       0.577  -1.708   0.919  1.00  0.00    -0.390 OA
ATOM     32  H7  UNL     1       0.299  -2.528   1.310  1.00  0.00     0.210 HD
ENDBRANCH  21  31
BRANCH  10  33
HETATM   33  C17 UNL     1      -2.881   2.209   0.967  1.00  0.00    -0.027 C 
HETATM   34  C18 UNL     1      -2.400   2.548   2.363  1.00  0.00     0.049 C 
HETATM   35  C19 UNL     1      -3.960   2.835   0.565  1.00  0.00    -0.074 C 
HETATM   36  C20 UNL     1      -4.659   3.850   1.416  1.00  0.00     0.044 C 
BRANCH  35  37
HETATM   37  C21 UNL     1      -4.566   2.542  -0.751  1.00  0.00     0.006 C 
HETATM   38  C22 UNL     1      -6.038   2.128  -0.580  1.00  0.00     0.014 C 
HETATM   39  C23 UNL     1      -4.584   3.766  -1.649  1.00  0.00     0.014 C 
ENDBRANCH  35  37
ENDBRANCH  10  33
BRANCH  20  40
HETATM   40  O6  UNL     1      -2.743  -1.919  -3.691  1.00  0.00    -0.391 OA
ATOM     41  H6  UNL     1      -3.672  -1.962  -3.498  1.00  0.00     0.210 HD
ENDBRANCH  20  40
BRANCH  17  42
HETATM   42  O5  UNL     1      -3.609  -3.558   0.541  1.00  0.00    -0.395 OA
ATOM     43  H5  UNL     1      -4.022  -3.338  -0.286  1.00  0.00     0.210 HD
ENDBRANCH  17  42
TORSDOF 12
