REMARK  8 active torsions:
REMARK  status: ('A' for Active; 'I' for Inactive)
REMARK    1  A    between atoms: C4_5  and  N2_6 
REMARK    2  A    between atoms: C5_11  and  N4_12 
REMARK    3  A    between atoms: N5_15  and  C6_16 
REMARK    4  A    between atoms: C6_16  and  N6_17 
REMARK    5  A    between atoms: N7_21  and  N8_22 
REMARK    6  A    between atoms: N9_25  and  C7_26 
REMARK    7  A    between atoms: C7_26  and  C8_27 
REMARK    8  A    between atoms: C8_27  and  C9_28 
ROOT
HETATM    1  C1  UNL     1       0.450   2.742  -0.942  1.00  0.00     0.177 C 
HETATM    2  N1  UNL     1      -0.591   1.767  -1.110  1.00  0.00    -0.169 N 
HETATM    3  C2  UNL     1      -0.678   0.742  -0.282  1.00  0.00     0.174 A 
HETATM    4  C3  UNL     1      -1.695  -0.196  -0.417  1.00  0.00     0.141 A 
HETATM    5  C4  UNL     1      -2.621  -0.081  -1.407  1.00  0.00     0.146 A 
HETATM    6  N3  UNL     1      -2.489   1.003  -2.247  1.00  0.00    -0.175 N 
ATOM      7  H3  UNL     1      -3.162   1.127  -3.004  1.00  0.00     0.186 HD
HETATM    8  C5  UNL     1      -1.514   1.890  -2.102  1.00  0.00     0.681 A 
HETATM    9  N5  UNL     1      -1.529  -1.127   0.647  1.00  0.00    -0.241 N 
HETATM   10  N7  UNL     1      -0.661  -0.560   1.560  1.00  0.00    -0.035 NA
HETATM   11  N9  UNL     1       0.142   0.349   0.792  1.00  0.00    -0.234 N 
ENDROOT
BRANCH   9  12
HETATM   12  C6  UNL     1      -2.152  -2.401   0.784  1.00  0.00     0.376 C 
BRANCH  12  13
HETATM   13  N6  UNL     1      -1.708  -3.174   1.928  1.00  0.00    -0.062 N 
ATOM     14  H63 UNL     1      -0.693  -3.276   1.913  1.00  0.00     0.276 HD
ATOM     15  H62 UNL     1      -1.818  -2.632   2.785  1.00  0.00     0.276 HD
ATOM     16  H61 UNL     1      -2.154  -4.086   2.026  1.00  0.00     0.276 HD
ENDBRANCH  12  13
ENDBRANCH   9  12
BRANCH  10  17
HETATM   17  N8  UNL     1       0.095  -1.501   2.166  1.00  0.00    -0.327 NA
ATOM     18  H82 UNL     1      -0.476  -2.147   2.712  1.00  0.00     0.174 HD
ATOM     19  H81 UNL     1       0.736  -1.082   2.840  1.00  0.00     0.174 HD
ENDBRANCH  10  17
BRANCH   5  20
HETATM   20  N2  UNL     1      -3.561  -0.898  -1.600  1.00  0.00    -0.383 N 
ATOM     21  H22 UNL     1      -3.659  -1.701  -0.978  1.00  0.00     0.157 HD
ATOM     22  H21 UNL     1      -4.255  -0.812  -2.342  1.00  0.00     0.157 HD
ENDBRANCH   5  20
BRANCH  11  23
HETATM   23  C7  UNL     1       1.456   0.654   1.132  1.00  0.00     0.098 C 
BRANCH  23  24
HETATM   24  C8  UNL     1       2.479   0.032   0.181  1.00  0.00     0.145 C 
BRANCH  24  25
HETATM   25  C9  UNL     1       3.869   0.414   0.617  1.00  0.00     0.235 C 
HETATM   26  N10 UNL     1       4.996  -0.047  -0.116  1.00  0.00    -0.062 NA
HETATM   27  O1  UNL     1       4.023   1.142   1.631  1.00  0.00    -0.277 OA
ENDBRANCH  24  25
ENDBRANCH  23  24
ENDBRANCH  11  23
BRANCH   8  28
HETATM   28  N4  UNL     1      -1.389   2.925  -2.904  1.00  0.00    -0.234 N 
ATOM     29  H42 UNL     1      -0.639   3.607  -2.792  1.00  0.00     0.174 HD
ATOM     30  H41 UNL     1      -2.081   3.017  -3.648  1.00  0.00     0.174 HD
ENDBRANCH   8  28
TORSDOF 8
