REMARK  7 active torsions:
REMARK  status: ('A' for Active; 'I' for Inactive)
REMARK       I    between atoms: C2_2  and  N1_4 
REMARK    1  A    between atoms: N1_4  and  N2_6 
REMARK    2  A    between atoms: N2_6  and  C3_8 
REMARK    3  A    between atoms: C6_18  and  N6_19 
REMARK    4  A    between atoms: N6_19  and  C7_21 
REMARK    5  A    between atoms: C7_21  and  C8_27 
REMARK    6  A    between atoms: N7_22  and  N8_24 
REMARK    7  A    between atoms: C8_27  and  N9_29 
ROOT
HETATM    1  C3  UNL     1       1.005  -1.201  -0.232  1.00  0.00     0.368 C 
HETATM    2  N3  UNL     1       1.820  -1.341  -1.429  1.00  0.00    -0.044 N 
ATOM      3  H31 UNL     1       2.787  -1.575  -1.205  1.00  0.00     0.280 HD
ATOM      4  H32 UNL     1       1.983  -0.443  -1.885  1.00  0.00     0.280 HD
HETATM    5  C4  UNL     1       1.217  -2.320  -2.346  1.00  0.00     0.256 C 
HETATM    6  C5  UNL     1       0.125  -1.695  -3.166  1.00  0.00     0.166 C 
HETATM    7  N4  UNL     1      -0.114  -0.295  -2.867  1.00  0.00    -0.333 N 
ATOM      8  H4  UNL     1      -0.064   0.343  -3.661  1.00  0.00     0.180 HD
HETATM    9  N5  UNL     1      -0.404   0.294  -1.629  1.00  0.00    -0.290 N 
ATOM     10  H5  UNL     1      -1.044   1.088  -1.647  1.00  0.00     0.188 HD
HETATM   11  C6  UNL     1       0.048  -0.054  -0.460  1.00  0.00     0.149 C 
ENDROOT
BRANCH  11  12
HETATM   12  N6  UNL     1      -0.385   0.652   0.689  1.00  0.00    -0.329 N 
ATOM     13  H6  UNL     1       0.203   0.699   1.521  1.00  0.00     0.168 HD
BRANCH  12  14
HETATM   14  C7  UNL     1      -1.650   1.292   0.663  1.00  0.00     0.127 C 
HETATM   15  N7  UNL     1      -1.664   2.551   0.397  1.00  0.00    -0.294 N 
ATOM     16  H7  UNL     1      -0.766   3.003   0.223  1.00  0.00     0.187 HD
BRANCH  15  17
HETATM   17  N8  UNL     1      -2.785   3.334   0.328  1.00  0.00    -0.344 N 
ATOM     18  H82 UNL     1      -3.674   2.865   0.505  1.00  0.00     0.176 HD
ATOM     19  H81 UNL     1      -2.796   4.332   0.117  1.00  0.00     0.176 HD
ENDBRANCH  15  17
BRANCH  14  20
HETATM   20  C8  UNL     1      -2.895   0.534   0.932  1.00  0.00     0.247 C 
HETATM   21  C9  UNL     1      -2.896  -0.087   2.308  1.00  0.00     0.048 C 
BRANCH  20  22
HETATM   22  N9  UNL     1      -3.086  -0.547  -0.023  1.00  0.00    -0.069 N 
ATOM     23  H93 UNL     1      -3.060  -0.203  -0.983  1.00  0.00     0.275 HD
ATOM     24  H92 UNL     1      -2.274  -1.164  -0.053  1.00  0.00     0.275 HD
ATOM     25  H91 UNL     1      -3.943  -1.069   0.162  1.00  0.00     0.275 HD
ENDBRANCH  20  22
ENDBRANCH  14  20
ENDBRANCH  12  14
ENDBRANCH  11  12
BRANCH   1  26
HETATM   26  N2  UNL     1       1.721  -1.210   0.928  1.00  0.00    -0.297 N 
ATOM     27  H2  UNL     1       1.507  -1.986   1.554  1.00  0.00     0.183 HD
BRANCH  26  28
HETATM   28  N1  UNL     1       2.657  -0.371   1.381  1.00  0.00    -0.273 N 
HETATM   29  C2  UNL     1       3.202   0.805   0.825  1.00  0.00     0.231 C 
HETATM   30  C1  UNL     1       4.265   1.516   1.639  1.00  0.00     0.119 C 
HETATM   31  O1  UNL     1       2.890   1.311  -0.271  1.00  0.00    -0.272 OA
ATOM     32  H1  UNL     1       3.046  -0.626   2.289  1.00  0.00     0.189 HD
ENDBRANCH  26  28
ENDBRANCH   1  26
TORSDOF 7
