REMARK  6 active torsions:
REMARK  status: ('A' for Active; 'I' for Inactive)
REMARK    1  A    between atoms: N5_15  and  C6_16 
REMARK    2  A    between atoms: C6_16  and  C7_17 
REMARK    3  A    between atoms: C7_17  and  C8_25 
REMARK    4  A    between atoms: N6_18  and  N7_20 
REMARK    5  A    between atoms: N7_20  and  N8_22 
REMARK       I    between atoms: C8_25  and  N9_27 
REMARK    6  A    between atoms: N9_27  and  N10_29 
ROOT
HETATM    1  C6  UNL     1      -0.244  -1.166  -1.037  1.00  0.00     0.195 C 
ENDROOT
BRANCH   1   2
HETATM    2  N5  UNL     1       0.802  -1.338  -0.101  1.00  0.00    -0.321 N 
HETATM    3  C3  UNL     1       1.895  -0.511  -0.097  1.00  0.00     0.140 A 
HETATM    4  N3  UNL     1       2.278   0.541  -0.832  1.00  0.00    -0.336 N 
HETATM    5  C4  UNL     1       2.724  -0.926   0.915  1.00  0.00     0.122 A 
HETATM    6  C2  UNL     1       3.435   1.164  -0.584  1.00  0.00     0.183 A 
ATOM      7  H3  UNL     1       1.680   0.871  -1.590  1.00  0.00     0.168 HD
HETATM    8  N2  UNL     1       4.250   0.751   0.416  1.00  0.00    -0.337 N 
HETATM    9  C1  UNL     1       3.917  -0.298   1.185  1.00  0.00     0.131 A 
ATOM     10  H2  UNL     1       5.127   1.243   0.587  1.00  0.00     0.168 HD
HETATM   11  N1  UNL     1       4.701  -0.678   2.130  1.00  0.00    -0.383 N 
ATOM     12  H12 UNL     1       5.586  -0.212   2.330  1.00  0.00     0.157 HD
ATOM     13  H11 UNL     1       4.448  -1.475   2.714  1.00  0.00     0.157 HD
HETATM   14  N4  UNL     1       2.115  -1.981   1.487  1.00  0.00    -0.346 N 
HETATM   15  C5  UNL     1       0.955  -2.241   0.885  1.00  0.00     0.185 A 
ATOM     16  H4  UNL     1       2.490  -2.510   2.274  1.00  0.00     0.167 HD
ENDBRANCH   1   2
BRANCH   1  17
HETATM   17  C7  UNL     1      -1.335  -0.238  -0.560  1.00  0.00     0.114 C 
HETATM   18  N6  UNL     1      -1.293   0.307   0.550  1.00  0.00    -0.284 N 
ATOM     19  H6  UNL     1      -0.445   0.031   1.046  1.00  0.00     0.188 HD
BRANCH  18  20
HETATM   20  N7  UNL     1      -2.021   1.152   1.306  1.00  0.00    -0.249 N 
ATOM     21  H7  UNL     1      -2.013   2.134   1.030  1.00  0.00     0.207 HD
BRANCH  20  22
HETATM   22  N8  UNL     1      -2.786   0.825   2.429  1.00  0.00    -0.331 N 
ATOM     23  H82 UNL     1      -2.782  -0.161   2.690  1.00  0.00     0.178 HD
ATOM     24  H81 UNL     1      -3.337   1.465   3.001  1.00  0.00     0.178 HD
ENDBRANCH  20  22
ENDBRANCH  18  20
BRANCH  17  25
HETATM   25  C8  UNL     1      -2.405  -0.049  -1.493  1.00  0.00     0.285 C 
HETATM   26  O1  UNL     1      -2.356  -0.660  -2.621  1.00  0.00    -0.265 OA
HETATM   27  N9  UNL     1      -3.515   0.750  -1.290  1.00  0.00    -0.271 N 
ATOM     28  H9  UNL     1      -3.614   1.263  -0.414  1.00  0.00     0.189 HD
BRANCH  27  29
HETATM   29  N10 UNL     1      -4.519   0.863  -2.289  1.00  0.00    -0.342 N 
ATOM     30 2H10 UNL     1      -4.405   0.343  -3.159  1.00  0.00     0.176 HD
ATOM     31 1H10 UNL     1      -5.338   1.452  -2.139  1.00  0.00     0.176 HD
ENDBRANCH  27  29
ENDBRANCH  17  25
ENDBRANCH   1  17
TORSDOF 6
