REMARK  3 active torsions:
REMARK  status: ('A' for Active; 'I' for Inactive)
REMARK    1  A    between atoms: O1_1  and  C1_3 
REMARK    2  A    between atoms: C1_3  and  C2_4 
REMARK    3  A    between atoms: C5_7  and  O2_8 
ROOT
HETATM    1  C2  UNL     1      -0.677  -0.198   0.222  1.00  0.00    -0.005 A 
HETATM    2  C3  UNL     1      -0.233   0.684  -0.874  1.00  0.00    -0.000 C 
HETATM    3  C4  UNL     1       1.026   0.020  -1.440  1.00  0.00     0.037 C 
HETATM    4  C5  UNL     1       1.374  -1.086  -0.494  1.00  0.00     0.123 C 
HETATM    5  C6  UNL     1       0.517  -0.852   0.733  1.00  0.00     0.031 A 
HETATM    6  C7  UNL     1       0.333   0.540   1.143  1.00  0.00     0.005 A 
HETATM    7  C8  UNL     1       0.201   1.682   0.191  1.00  0.00     0.011 C 
ENDROOT
BRANCH   1   8
HETATM    8  C1  UNL     1      -2.031  -0.256   0.770  1.00  0.00     0.175 C 
BRANCH   8   9
HETATM    9  O1  UNL     1      -2.996  -0.606  -0.161  1.00  0.00    -0.400 OA
ATOM     10  H1  UNL     1      -3.876  -0.644   0.195  1.00  0.00     0.209 HD
ENDBRANCH   8   9
ENDBRANCH   1   8
BRANCH   4  11
HETATM   11  O2  UNL     1       2.727  -1.121  -0.158  1.00  0.00    -0.395 OA
ATOM     12  H2  UNL     1       2.948  -1.823   0.443  1.00  0.00     0.210 HD
ENDBRANCH   4  11
TORSDOF 3
