REMARK  2 active torsions:
REMARK  status: ('A' for Active; 'I' for Inactive)
REMARK    1  A    between atoms: O1_1  and  C1_3 
REMARK    2  A    between atoms: C5_7  and  O2_8 
ROOT
HETATM    1  C1  UNL     1       1.602  -0.730   0.414  1.00  0.00     0.122 C 
HETATM    2  C2  UNL     1       1.576   0.773   0.145  1.00  0.00     0.065 C 
HETATM    3  C3  UNL     1       0.331   1.100  -0.626  1.00  0.00     0.191 C 
HETATM    4  C4  UNL     1      -0.872   1.334   0.248  1.00  0.00     0.067 C 
HETATM    5  C5  UNL     1      -1.759   0.122   0.011  1.00  0.00     0.150 C 
HETATM    6  C6  UNL     1      -0.688  -0.895  -0.412  1.00  0.00     0.217 C 
HETATM    7  C7  UNL     1       0.183  -1.121   0.793  1.00  0.00     0.067 C 
HETATM    8  N1  UNL     1       0.002  -0.079  -1.427  1.00  0.00    -0.064 N 
ATOM      9  H11 UNL     1       0.786  -0.528  -1.900  1.00  0.00     0.278 HD
ATOM     10  H12 UNL     1      -0.520   0.098  -2.285  1.00  0.00     0.278 HD
ENDROOT
BRANCH   1  11
HETATM   11  O1  UNL     1       1.941  -1.457  -0.709  1.00  0.00    -0.395 OA
ATOM     12  H1  UNL     1       1.957  -2.392  -0.542  1.00  0.00     0.210 HD
ENDBRANCH   1  11
BRANCH   5  13
HETATM   13  O2  UNL     1      -2.401  -0.293   1.163  1.00  0.00    -0.393 OA
ATOM     14  H2  UNL     1      -2.955  -1.050   1.015  1.00  0.00     0.210 HD
ENDBRANCH   5  13
TORSDOF 2
