REMARK  4 active torsions:
REMARK  status: ('A' for Active; 'I' for Inactive)
REMARK    1  A    between atoms: C2_2  and  C4_4 
REMARK    2  A    between atoms: C8_8  and  C9_9 
REMARK       I    between atoms: C9_9  and  N1_11 
REMARK    3  A    between atoms: C11_13  and  C12_14 
REMARK       I    between atoms: C12_14  and  N2_16 
REMARK    4  A    between atoms: N2_16  and  C13_18 
ROOT
HETATM    1  C9  UNL     1      -2.630   0.876  -0.858  1.00  0.00     0.248 C 
HETATM    2  O1  UNL     1      -3.242   1.775  -1.456  1.00  0.00    -0.271 OA
HETATM    3  N1  UNL     1      -1.204   1.005  -0.754  1.00  0.00    -0.218 N 
HETATM    4  C10 UNL     1      -0.325   0.181  -0.171  1.00  0.00     0.158 A 
HETATM    5  C11 UNL     1       0.946   0.694  -0.300  1.00  0.00     0.134 A 
HETATM    6  N3  UNL     1       0.797   1.844  -0.975  1.00  0.00    -0.279 N 
ATOM      7  H3  UNL     1       1.548   2.481  -1.242  1.00  0.00     0.189 HD
HETATM    8  N4  UNL     1      -0.484   2.010  -1.234  1.00  0.00    -0.233 N 
ATOM      9  H4  UNL     1      -0.872   2.808  -1.738  1.00  0.00     0.209 HD
ENDROOT
BRANCH   1  10
HETATM   10  C8  UNL     1      -3.228  -0.316  -0.242  1.00  0.00     0.084 C 
HETATM   11  C4  UNL     1      -4.709  -0.464  -0.462  1.00  0.00     0.002 C 
HETATM   12  C5  UNL     1      -5.287   0.708   0.228  1.00  0.00     0.006 C 
HETATM   13  C6  UNL     1      -4.295   1.043   1.329  1.00  0.00     0.001 C 
HETATM   14  C7  UNL     1      -3.237  -0.040   1.274  1.00  0.00     0.014 C 
BRANCH  11  15
HETATM   15  C2  UNL     1      -5.109  -0.657  -1.892  1.00  0.00    -0.018 C 
HETATM   16  C1  UNL     1      -6.571  -0.832  -2.095  1.00  0.00     0.010 C 
HETATM   17  C3  UNL     1      -4.391  -1.898  -2.387  1.00  0.00     0.010 C 
ENDBRANCH  11  15
ENDBRANCH   1  10
BRANCH   5  18
HETATM   18  C12 UNL     1       2.207   0.142   0.181  1.00  0.00     0.271 C 
HETATM   19  O2  UNL     1       2.235  -0.948   0.817  1.00  0.00    -0.266 OA
HETATM   20  N2  UNL     1       3.444   0.793  -0.040  1.00  0.00    -0.351 N 
ATOM     21  H2  UNL     1       3.446   1.675  -0.552  1.00  0.00     0.163 HD
BRANCH  20  22
HETATM   22  C13 UNL     1       4.707   0.261   0.430  1.00  0.00     0.084 C 
HETATM   23  C14 UNL     1       5.655  -0.036  -0.694  1.00  0.00     0.025 C 
HETATM   24  C15 UNL     1       6.996  -0.409  -0.126  1.00  0.00     0.002 C 
HETATM   25  C16 UNL     1       6.844  -0.828   1.296  1.00  0.00     0.000 C 
HETATM   26  C17 UNL     1       6.372   0.318   2.185  1.00  0.00     0.002 C 
HETATM   27  C18 UNL     1       5.384   1.194   1.401  1.00  0.00     0.025 C 
ENDBRANCH  20  22
ENDBRANCH   5  18
TORSDOF 4
