REMARK  2 active torsions:
REMARK  status: ('A' for Active; 'I' for Inactive)
REMARK    1  A    between atoms: C3_4  and  C4_5 
REMARK    2  A    between atoms: C8_14  and  C9_15 
ROOT
HETATM    1  N1  UNL     1      -0.527  -3.259   1.640  1.00  0.00    -0.191 NA
HETATM    2  C1  UNL     1      -0.356  -2.181   1.173  1.00  0.00     0.101 C 
HETATM    3  C2  UNL     1      -0.107  -0.862   0.569  1.00  0.00     0.070 A 
HETATM    4  C3  UNL     1      -1.126  -0.022   0.238  1.00  0.00     0.038 A 
HETATM    5  S1  UNL     1      -0.257   1.303  -0.488  1.00  0.00    -0.092 SA
HETATM    6  C10 UNL     1       1.325   0.729  -0.330  1.00  0.00    -0.009 A 
HETATM    7  C11 UNL     1       1.150  -0.479   0.281  1.00  0.00    -0.023 A 
HETATM    8  C12 UNL     1       2.261  -1.431   0.664  1.00  0.00     0.041 C 
HETATM    9  C13 UNL     1       3.433  -1.357  -0.252  1.00  0.00     0.005 C 
HETATM   10  C14 UNL     1       4.492  -0.395   0.170  1.00  0.00     0.000 C 
HETATM   11  C15 UNL     1       4.005   0.777   0.957  1.00  0.00     0.000 C 
HETATM   12  C16 UNL     1       3.489   1.904   0.134  1.00  0.00     0.005 C 
HETATM   13  C17 UNL     1       2.422   1.585  -0.844  1.00  0.00     0.046 C 
ENDROOT
BRANCH   4  14
HETATM   14  C4  UNL     1      -2.591  -0.102   0.339  1.00  0.00     0.007 A 
HETATM   15  C5  UNL     1      -3.232  -0.922   1.235  1.00  0.00     0.103 A 
HETATM   16  N2  UNL     1      -4.591  -1.068   1.302  1.00  0.00    -0.352 N 
HETATM   17  C6  UNL     1      -5.366  -0.396   0.474  1.00  0.00     0.099 A 
ATOM     18  H2  UNL     1      -5.004  -1.696   1.992  1.00  0.00     0.166 HD
HETATM   19  N3  UNL     1      -6.659  -0.556   0.561  1.00  0.00    -0.385 N 
HETATM   20  C7  UNL     1      -4.820   0.438  -0.442  1.00  0.00     0.058 A 
ATOM     21  H32 UNL     1      -7.070  -1.184   1.251  1.00  0.00     0.157 HD
ATOM     22  H31 UNL     1      -7.259  -0.036  -0.080  1.00  0.00     0.157 HD
HETATM   23  C8  UNL     1      -3.423   0.592  -0.517  1.00  0.00    -0.013 A 
BRANCH  23  24
HETATM   24  C9  UNL     1      -2.889   1.505  -1.539  1.00  0.00     0.262 C 
HETATM   25  F1  UNL     1      -3.974   1.986  -2.328  1.00  0.00    -0.251 F 
ENDBRANCH  23  24
ENDBRANCH   4  14
TORSDOF 2
