REMARK  3 active torsions:
REMARK  status: ('A' for Active; 'I' for Inactive)
REMARK    1  A    between atoms: C7_7  and  C8_8 
REMARK    2  A    between atoms: N1_9  and  C9_11 
REMARK    3  A    between atoms: C12_14  and  O1_15 
ROOT
HETATM    1  C1  UNL     1      -4.787   1.001   0.623  1.00  0.00     0.032 C 
HETATM    2  C2  UNL     1      -3.968  -0.273   0.869  1.00  0.00     0.078 C 
HETATM    3  C3  UNL     1      -3.808  -1.050  -0.383  1.00  0.00     0.029 C 
HETATM    4  C4  UNL     1      -2.478  -1.676  -0.591  1.00  0.00     0.043 C 
HETATM    5  C5  UNL     1      -1.347  -0.842  -0.147  1.00  0.00    -0.029 A 
HETATM    6  C6  UNL     1      -0.104  -0.915  -0.750  1.00  0.00     0.025 A 
HETATM    7  C7  UNL     1       0.963  -0.148  -0.352  1.00  0.00     0.014 A 
HETATM    8  C12 UNL     1       0.814   0.754   0.705  1.00  0.00     0.097 A 
HETATM    9  C13 UNL     1      -0.423   0.821   1.298  1.00  0.00     0.071 A 
HETATM   10 BR1  UNL     1      -0.671   2.036   2.742  1.00  0.00    -0.046 Br
HETATM   11  C14 UNL     1      -1.492   0.048   0.895  1.00  0.00     0.055 A 
HETATM   12  N2  UNL     1      -2.762   0.127   1.514  1.00  0.00    -0.384 N 
ATOM     13  H2  UNL     1      -2.817   0.487   2.467  1.00  0.00     0.160 HD
ENDROOT
BRANCH   7  14
HETATM   14  C8  UNL     1       2.252  -0.253  -1.008  1.00  0.00     0.097 C 
HETATM   15  N1  UNL     1       3.244   0.458  -0.641  1.00  0.00    -0.393 N 
ATOM     16  H1  UNL     1       3.099   1.105   0.134  1.00  0.00     0.159 HD
BRANCH  15  17
HETATM   17  C9  UNL     1       4.542   0.416  -1.233  1.00  0.00     0.081 A 
HETATM   18  C10 UNL     1       5.588  -0.518  -0.782  1.00  0.00     0.027 A 
HETATM   19  C11 UNL     1       5.727   0.904  -0.428  1.00  0.00     0.027 A 
ENDBRANCH  15  17
ENDBRANCH   7  14
BRANCH   8  20
HETATM   20  O1  UNL     1       1.895   1.518   1.094  1.00  0.00    -0.358 OA
ATOM     21  H1  UNL     1       1.794   2.131   1.813  1.00  0.00     0.217 HD
ENDBRANCH   8  20
TORSDOF 3
