REMARK  4 active torsions:
REMARK  status: ('A' for Active; 'I' for Inactive)
REMARK    1  A    between atoms: O1_2  and  C2_3 
REMARK    2  A    between atoms: C3_4  and  O2_5 
REMARK    3  A    between atoms: C6_10  and  O3_11 
REMARK    4  A    between atoms: C7_13  and  C8_14 
ROOT
HETATM    1  C2  UNL     1       2.139  -0.167  -0.373  1.00  0.00     0.111 A 
HETATM    2  C3  UNL     1       3.355   0.403  -0.206  1.00  0.00     0.101 A 
HETATM    3  C4  UNL     1       3.481   1.745   0.100  1.00  0.00     0.061 A 
HETATM    4  C5  UNL     1       2.354   2.526   0.240  1.00  0.00     0.047 A 
HETATM    5 BR1  UNL     1       2.501   4.364   0.732  1.00  0.00    -0.048 Br
HETATM    6  C6  UNL     1       1.076   1.932   0.060  1.00  0.00     0.092 A 
HETATM    7  C7  UNL     1       0.965   0.603  -0.245  1.00  0.00     0.020 A 
ENDROOT
BRANCH   7   8
HETATM    8  C8  UNL     1      -0.316  -0.070  -0.431  1.00  0.00     0.047 C 
HETATM    9  C9  UNL     1      -1.088  -0.170   0.866  1.00  0.00    -0.015 C 
HETATM   10  C10 UNL     1      -2.367  -0.553   0.734  1.00  0.00    -0.087 C 
HETATM   11  C11 UNL     1      -3.117  -0.630   2.037  1.00  0.00     0.043 C 
HETATM   12  C12 UNL     1      -3.057  -0.883  -0.514  1.00  0.00     0.033 C 
HETATM   13  C13 UNL     1      -2.293  -0.468  -1.748  1.00  0.00     0.005 C 
HETATM   14  C14 UNL     1      -1.336   0.693  -1.293  1.00  0.00     0.014 C 
ENDBRANCH   7   8
BRANCH   1  15
HETATM   15  O1  UNL     1       2.003  -1.491  -0.683  1.00  0.00    -0.352 OA
HETATM   16  C1  UNL     1       1.894  -2.592   0.154  1.00  0.00     0.210 C 
ENDBRANCH   1  15
BRANCH   6  17
HETATM   17  O3  UNL     1       0.054   2.801   0.231  1.00  0.00    -0.359 OA
ATOM     18  H3  UNL     1      -0.801   2.404   0.111  1.00  0.00     0.217 HD
ENDBRANCH   6  17
BRANCH   2  19
HETATM   19  O2  UNL     1       4.572  -0.305  -0.324  1.00  0.00    -0.358 OA
ATOM     20  H2  UNL     1       5.426   0.095  -0.207  1.00  0.00     0.217 HD
ENDBRANCH   2  19
TORSDOF 4
