REMARK  2 active torsions:
REMARK  status: ('A' for Active; 'I' for Inactive)
REMARK    1  A    between atoms: C4_6  and  C5_7 
REMARK    2  A    between atoms: C10_12  and  C11_13 
ROOT
HETATM    1  C11 UNL     1       1.297   0.205  -1.076  1.00  0.00     0.078 A 
HETATM    2  N1  UNL     1       1.625  -0.264  -2.324  1.00  0.00    -0.297 N 
ATOM      3  H1  UNL     1       1.236   0.062  -3.209  1.00  0.00     0.187 HD
HETATM    4  N2  UNL     1       2.548  -1.227  -2.173  1.00  0.00    -0.284 N 
ATOM      5  H2  UNL     1       2.981  -1.759  -2.928  1.00  0.00     0.188 HD
HETATM    6  C12 UNL     1       2.808  -1.374  -0.862  1.00  0.00     0.136 A 
HETATM    7  N3  UNL     1       3.666  -2.217  -0.231  1.00  0.00    -0.337 N 
ATOM      8  H3  UNL     1       4.239  -2.875  -0.759  1.00  0.00     0.168 HD
HETATM    9  C13 UNL     1       3.738  -2.159   1.118  1.00  0.00     0.183 A 
HETATM   10  N4  UNL     1       2.976  -1.287   1.783  1.00  0.00    -0.343 N 
ATOM     11  H4  UNL     1       3.051  -1.264   2.800  1.00  0.00     0.167 HD
HETATM   12  C14 UNL     1       2.115  -0.436   1.194  1.00  0.00     0.117 A 
HETATM   13  S1  UNL     1       1.209   0.616   2.090  1.00  0.00    -0.059 SA
HETATM   14  C15 UNL     1       2.032  -0.485  -0.162  1.00  0.00     0.076 A 
ENDROOT
BRANCH   1  15
HETATM   15  C10 UNL     1       0.355   1.313  -0.953  1.00  0.00     0.053 A 
HETATM   16  C1  UNL     1       0.806   2.731  -1.227  1.00  0.00     0.292 A 
HETATM   17  F1  UNL     1       1.908   3.091  -0.518  1.00  0.00    -0.196 F 
HETATM   18  F2  UNL     1       1.115   2.715  -2.606  1.00  0.00    -0.196 F 
HETATM   19  C2  UNL     1      -0.387   3.504  -0.970  1.00  0.00     0.057 A 
HETATM   20  C3  UNL     1      -1.357   2.714  -0.620  1.00  0.00     0.010 A 
HETATM   21  C4  UNL     1      -0.892   1.286  -0.606  1.00  0.00    -0.039 A 
BRANCH  21  22
HETATM   22  C5  UNL     1      -1.872   0.252  -0.287  1.00  0.00     0.019 C 
HETATM   23  C6  UNL     1      -2.555   0.464   1.026  1.00  0.00     0.009 C 
HETATM   24  C7  UNL     1      -2.657  -0.885   1.650  1.00  0.00     0.001 C 
HETATM   25  C8  UNL     1      -2.717  -1.820   0.461  1.00  0.00     0.001 C 
HETATM   26  C9  UNL     1      -1.490  -1.168  -0.313  1.00  0.00     0.009 C 
ENDBRANCH  21  22
ENDBRANCH   1  15
TORSDOF 2
