REMARK  14 active torsions:
REMARK  status: ('A' for Active; 'I' for Inactive)
REMARK    1  A    between atoms: C2_2  and  C3_3 
REMARK    2  A    between atoms: C3_3  and  C4_4 
REMARK    3  A    between atoms: C4_4  and  N1_5 
REMARK    4  A    between atoms: C9_10  and  C10_11 
REMARK    5  A    between atoms: C10_11  and  C11_12 
REMARK    6  A    between atoms: C12_14  and  C13_15 
REMARK    7  A    between atoms: C13_15  and  C14_16 
REMARK    8  A    between atoms: C19_21  and  N2_22 
REMARK       I    between atoms: N2_22  and  C20_24 
REMARK    9  A    between atoms: C20_24  and  C21_26 
REMARK   10  A    between atoms: C22_29  and  O5_30 
REMARK   11  A    between atoms: C25_33  and  O6_34 
REMARK   12  A    between atoms: C26_36  and  O7_37 
REMARK   13  A    between atoms: O7_37  and  C27_38 
REMARK   14  A    between atoms: C27_38  and  O8_39 
ROOT
HETATM    1  C11 UNL     1      -0.006  -0.620   0.243  1.00  0.00     0.155 C 
HETATM    2  O1  UNL     1      -0.986  -1.519   0.041  1.00  0.00    -0.372 OA
HETATM    3  C12 UNL     1      -2.175  -1.268  -0.472  1.00  0.00     0.069 C 
HETATM    4  C18 UNL     1      -3.249  -0.846   0.506  1.00  0.00     0.066 C 
HETATM    5  C19 UNL     1      -3.660   0.564   0.088  1.00  0.00     0.125 C 
HETATM    6  C22 UNL     1      -2.557   1.025  -0.784  1.00  0.00     0.112 C 
HETATM    7  C24 UNL     1      -2.312  -0.251  -1.560  1.00  0.00     0.081 C 
HETATM    8  C25 UNL     1      -1.312   1.524  -0.213  1.00  0.00     0.186 C 
HETATM    9  C26 UNL     1      -0.400   0.765   0.614  1.00  0.00     0.184 C 
ENDROOT
BRANCH   1  10
HETATM   10  C10 UNL     1       1.024  -0.757  -0.838  1.00  0.00     0.048 C 
BRANCH  10  11
HETATM   11  C9  UNL     1       2.193   0.151  -0.783  1.00  0.00     0.081 C 
HETATM   12  C8  UNL     1       3.102  -0.159  -2.005  1.00  0.00     0.020 C 
HETATM   13  C6  UNL     1       4.010   1.014  -2.132  1.00  0.00     0.000 C 
HETATM   14  C5  UNL     1       4.527   1.552  -0.828  1.00  0.00     0.130 C 
HETATM   15  C7  UNL     1       5.120   0.650  -3.110  1.00  0.00     0.011 C 
HETATM   16  N1  UNL     1       4.338   0.704   0.307  1.00  0.00    -0.351 N 
HETATM   17  C29 UNL     1       3.115  -0.065   0.365  1.00  0.00     0.224 C 
HETATM   18  O9  UNL     1       2.946  -0.810   1.327  1.00  0.00    -0.273 OA
BRANCH  16  19
HETATM   19  C4  UNL     1       5.262   0.612   1.389  1.00  0.00     0.125 C 
BRANCH  19  20
HETATM   20  C3  UNL     1       6.274  -0.481   1.325  1.00  0.00     0.020 C 
BRANCH  20  21
HETATM   21  C2  UNL     1       7.245  -0.461   0.211  1.00  0.00    -0.003 C 
HETATM   22  C1  UNL     1       8.159   0.738   0.170  1.00  0.00     0.005 C 
ENDBRANCH  20  21
ENDBRANCH  19  20
ENDBRANCH  16  19
ENDBRANCH  10  11
ENDBRANCH   1  10
BRANCH   9  23
HETATM   23  O7  UNL     1      -0.664   0.851   2.010  1.00  0.00    -0.356 OA
BRANCH  23  24
HETATM   24  C27 UNL     1       0.273   1.556   2.707  1.00  0.00     0.337 C 
BRANCH  24  25
HETATM   25  O8  UNL     1      -0.065   1.574   4.051  1.00  0.00    -0.372 OA
HETATM   26  C28 UNL     1      -1.309   2.175   4.183  1.00  0.00     0.204 C 
ENDBRANCH  24  25
ENDBRANCH  23  24
ENDBRANCH   9  23
BRANCH   3  27
HETATM   27  C13 UNL     1      -2.632  -2.595  -1.112  1.00  0.00     0.065 C 
BRANCH  27  28
HETATM   28  C14 UNL     1      -2.728  -3.688  -0.140  1.00  0.00    -0.022 C 
HETATM   29  C15 UNL     1      -3.838  -4.390  -0.018  1.00  0.00    -0.091 C 
HETATM   30  C16 UNL     1      -5.036  -4.120  -0.846  1.00  0.00     0.042 C 
HETATM   31  C17 UNL     1      -3.925  -5.504   0.982  1.00  0.00     0.042 C 
ENDBRANCH  27  28
ENDBRANCH   3  27
BRANCH   8  32
HETATM   32  O6  UNL     1      -1.604   2.723   0.494  1.00  0.00    -0.390 OA
ATOM     33  H6  UNL     1      -0.793   3.048   0.866  1.00  0.00     0.210 HD
ENDBRANCH   8  32
BRANCH   6  34
HETATM   34  O5  UNL     1      -3.033   2.059  -1.586  1.00  0.00    -0.380 OA
HETATM   35  C23 UNL     1      -4.043   1.804  -2.436  1.00  0.00     0.202 C 
ENDBRANCH   6  34
BRANCH   5  36
HETATM   36  N2  UNL     1      -4.119   1.394   1.124  1.00  0.00    -0.344 N 
HETATM   37  C20 UNL     1      -5.475   1.772   1.304  1.00  0.00     0.318 C 
HETATM   38  O2  UNL     1      -6.397   1.380   0.526  1.00  0.00    -0.261 OA
ATOM     39  H2  UNL     1      -3.433   1.748   1.790  1.00  0.00     0.163 HD
BRANCH  37  40
HETATM   40  C21 UNL     1      -5.900   2.642   2.401  1.00  0.00     0.270 C 
HETATM   41  O3  UNL     1      -4.993   3.052   3.202  1.00  0.00    -0.640 OA
HETATM   42  O4  UNL     1      -7.220   3.022   2.591  1.00  0.00    -0.640 OA
ENDBRANCH  37  40
ENDBRANCH   5  36
TORSDOF 14
