REMARK  17 active torsions:
REMARK  status: ('A' for Active; 'I' for Inactive)
REMARK    1  A    between atoms: C2_2  and  C4_4 
REMARK    2  A    between atoms: C4_4  and  C5_5 
REMARK    3  A    between atoms: C5_5  and  N1_6 
REMARK    4  A    between atoms: C5_5  and  C25_34 
REMARK    5  A    between atoms: N1_6  and  C6_8 
REMARK    6  A    between atoms: C6_8  and  O1_9 
REMARK    7  A    between atoms: C6_8  and  C7_11 
REMARK       I    between atoms: N2_18  and  C14_19 
REMARK    8  A    between atoms: C14_19  and  C15_21 
REMARK    9  A    between atoms: C15_21  and  C16_22 
REMARK   10  A    between atoms: C15_21  and  N3_26 
REMARK   11  A    between atoms: C16_22  and  C17_23 
REMARK       I    between atoms: N3_26  and  C20_27 
REMARK   12  A    between atoms: C20_27  and  O4_29 
REMARK   13  A    between atoms: O4_29  and  C21_30 
REMARK   14  A    between atoms: C25_34  and  C26_36 
REMARK   15  A    between atoms: C26_36  and  O7_38 
REMARK   16  A    between atoms: O7_38  and  C27_39 
REMARK   17  A    between atoms: C27_39  and  C28_40 
ROOT
HETATM    1  C7  UNL     1       1.167  -1.918   1.752  1.00  0.00     0.162 C 
HETATM    2  C8  UNL     1       1.570  -3.412   1.923  1.00  0.00     0.034 C 
HETATM    3  C9  UNL     1       1.627  -3.833   3.345  1.00  0.00     0.002 C 
HETATM    4  C10 UNL     1       0.566  -4.927   3.547  1.00  0.00     0.000 C 
HETATM    5  C11 UNL     1      -0.726  -4.269   3.874  1.00  0.00     0.002 C 
HETATM    6  C12 UNL     1      -1.421  -3.769   2.648  1.00  0.00     0.020 C 
HETATM    7  C13 UNL     1      -1.314  -2.315   2.393  1.00  0.00     0.127 C 
HETATM    8  N2  UNL     1      -0.253  -1.843   1.493  1.00  0.00    -0.334 N 
HETATM    9  C14 UNL     1      -0.776  -1.148   0.443  1.00  0.00     0.281 C 
HETATM   10  O2  UNL     1       0.047  -0.352  -0.171  1.00  0.00    -0.265 OA
ENDROOT
BRANCH   1  11
HETATM   11  C6  UNL     1       2.130  -1.252   0.897  1.00  0.00     0.135 C 
BRANCH  11  12
HETATM   12  N1  UNL     1       2.530   0.063   0.786  1.00  0.00    -0.361 N 
ATOM     13  H1  UNL     1       2.056   0.711   1.415  1.00  0.00     0.162 HD
BRANCH  12  14
HETATM   14  C5  UNL     1       3.524   0.673  -0.090  1.00  0.00     0.164 C 
BRANCH  14  15
HETATM   15  C4  UNL     1       3.379   0.154  -1.507  1.00  0.00     0.037 C 
BRANCH  15  16
HETATM   16  C2  UNL     1       4.237   0.728  -2.569  1.00  0.00    -0.020 C 
HETATM   17  C1  UNL     1       3.860  -0.114  -3.845  1.00  0.00     0.009 C 
HETATM   18  C3  UNL     1       3.844   2.135  -3.016  1.00  0.00     0.009 C 
ENDBRANCH  15  16
ENDBRANCH  14  15
BRANCH  14  19
HETATM   19  C25 UNL     1       3.722   2.079   0.100  1.00  0.00     0.246 C 
HETATM   20  O5  UNL     1       2.685   2.790   0.391  1.00  0.00    -0.284 OA
BRANCH  19  21
HETATM   21  C26 UNL     1       4.972   2.800   0.003  1.00  0.00     0.332 C 
HETATM   22  O6  UNL     1       6.036   2.159  -0.181  1.00  0.00    -0.256 OA
BRANCH  21  23
HETATM   23  O7  UNL     1       5.002   4.158   0.104  1.00  0.00    -0.305 OA
BRANCH  23  24
HETATM   24  C27 UNL     1       6.141   4.955   0.014  1.00  0.00     0.292 C 
BRANCH  24  25
HETATM   25  C28 UNL     1       7.102   4.670   1.072  1.00  0.00     0.198 C 
HETATM   26  O8  UNL     1       8.198   5.268   1.112  1.00  0.00    -0.646 OA
HETATM   27  O9  UNL     1       6.823   3.742   2.059  1.00  0.00    -0.646 OA
ENDBRANCH  24  25
ENDBRANCH  23  24
ENDBRANCH  21  23
ENDBRANCH  19  21
ENDBRANCH  14  19
ENDBRANCH  12  14
ENDBRANCH  11  12
BRANCH  11  28
HETATM   28  O1  UNL     1       2.730  -2.091   0.073  1.00  0.00    -0.348 OA
ATOM     29  H1  UNL     1       2.454  -2.997   0.149  1.00  0.00     0.219 HD
ENDBRANCH  11  28
ENDBRANCH   1  11
BRANCH   9  30
HETATM   30  C15 UNL     1      -2.135  -1.054  -0.216  1.00  0.00     0.158 C 
BRANCH  30  31
HETATM   31  C16 UNL     1      -2.901  -2.319  -0.324  1.00  0.00     0.082 C 
BRANCH  31  32
HETATM   32  C17 UNL     1      -4.261  -2.160  -1.037  1.00  0.00    -0.016 C 
HETATM   33  C18 UNL     1      -5.204  -1.239  -0.370  1.00  0.00     0.010 C 
HETATM   34  C19 UNL     1      -4.880  -3.568  -1.029  1.00  0.00     0.010 C 
ENDBRANCH  31  32
ENDBRANCH  30  31
BRANCH  30  35
HETATM   35  N3  UNL     1      -2.630   0.136  -0.324  1.00  0.00    -0.345 NA
HETATM   36  C20 UNL     1      -3.182   1.477  -0.432  1.00  0.00     0.441 C 
HETATM   37  O3  UNL     1      -3.095   2.328   0.493  1.00  0.00    -0.221 OA
BRANCH  36  38
HETATM   38  O4  UNL     1      -3.849   1.910  -1.572  1.00  0.00    -0.282 OA
BRANCH  38  39
HETATM   39  C21 UNL     1      -4.396   3.238  -1.566  1.00  0.00     0.062 C 
HETATM   40  C22 UNL     1      -3.374   4.280  -1.301  1.00  0.00     0.046 C 
HETATM   41  C23 UNL     1      -5.042   3.475  -2.924  1.00  0.00     0.046 C 
HETATM   42  C24 UNL     1      -5.550   3.309  -0.572  1.00  0.00     0.046 C 
ENDBRANCH  38  39
ENDBRANCH  36  38
ENDBRANCH  30  35
ENDBRANCH   9  30
TORSDOF 17
