REMARK  15 active torsions:
REMARK  status: ('A' for Active; 'I' for Inactive)
REMARK    1  A    between atoms: C2_2  and  C3_3 
REMARK    2  A    between atoms: C3_3  and  O1_4 
REMARK    3  A    between atoms: O1_4  and  C4_5 
REMARK    4  A    between atoms: C8_9  and  C9_10 
REMARK    5  A    between atoms: C9_10  and  N1_11 
REMARK    6  A    between atoms: C9_10  and  N6_40 
REMARK    7  A    between atoms: N1_11  and  C10_13 
REMARK    8  A    between atoms: C11_16  and  N3_17 
REMARK    9  A    between atoms: N3_17  and  C12_19 
REMARK   10  A    between atoms: C12_19  and  C13_20 
REMARK   11  A    between atoms: C13_20  and  C14_21 
REMARK   12  A    between atoms: C14_21  and  N4_22 
REMARK   13  A    between atoms: C21_30  and  O3_31 
REMARK   14  A    between atoms: C23_33  and  O4_34 
REMARK   15  A    between atoms: C29_44  and  O5_45 
ROOT
HETATM    1  C10 UNL     1      -0.392   1.705  -0.400  1.00  0.00     0.682 A 
HETATM    2  N2  UNL     1       0.773   1.004  -0.365  1.00  0.00    -0.176 N 
ATOM      3  H2  UNL     1       0.738  -0.009  -0.483  1.00  0.00     0.186 HD
HETATM    4  C11 UNL     1       1.962   1.587  -0.182  1.00  0.00     0.133 A 
HETATM    5  C19 UNL     1       1.997   2.957  -0.022  1.00  0.00     0.039 A 
HETATM    6  C20 UNL     1       3.182   3.597   0.167  1.00  0.00     0.057 A 
HETATM    7  C21 UNL     1       3.256   4.948   0.328  1.00  0.00     0.102 A 
HETATM    8  C23 UNL     1       2.071   5.685   0.295  1.00  0.00     0.103 A 
HETATM    9  C25 UNL     1       0.855   5.073   0.106  1.00  0.00     0.070 A 
HETATM   10  C26 UNL     1       0.816   3.707  -0.053  1.00  0.00     0.066 A 
HETATM   11  N5  UNL     1      -0.343   3.053  -0.241  1.00  0.00    -0.191 N 
ATOM     12  H5  UNL     1      -1.213   3.585  -0.265  1.00  0.00     0.184 HD
ENDROOT
BRANCH   1  13
HETATM   13  N1  UNL     1      -1.529   1.122  -0.579  1.00  0.00    -0.201 N 
ATOM     14  H1  UNL     1      -2.373   1.695  -0.596  1.00  0.00     0.180 HD
BRANCH  13  15
HETATM   15  C9  UNL     1      -1.662  -0.312  -0.757  1.00  0.00     0.228 C 
BRANCH  15  16
HETATM   16  C8  UNL     1      -3.071  -0.736  -0.618  1.00  0.00    -0.013 A 
HETATM   17  C7  UNL     1      -3.585  -1.707  -1.428  1.00  0.00     0.020 A 
HETATM   18  C5  UNL     1      -4.920  -2.122  -1.327  1.00  0.00    -0.025 A 
HETATM   19  C4  UNL     1      -5.766  -1.557  -0.396  1.00  0.00     0.108 A 
HETATM   20  C6  UNL     1      -5.449  -3.186  -2.232  1.00  0.00     0.051 C 
HETATM   21  C29 UNL     1      -5.225  -0.575   0.417  1.00  0.00     0.102 A 
HETATM   22  C28 UNL     1      -3.921  -0.171   0.316  1.00  0.00     0.050 A 
BRANCH  19  23
HETATM   23  O1  UNL     1      -7.088  -1.948  -0.275  1.00  0.00    -0.344 OA
BRANCH  23  24
HETATM   24  C3  UNL     1      -7.383  -3.017   0.628  1.00  0.00     0.202 C 
BRANCH  24  25
HETATM   25  C2  UNL     1      -8.826  -3.318   0.647  1.00  0.00    -0.011 C 
HETATM   26  C1  UNL     1      -9.501  -3.210   1.778  1.00  0.00     0.009 C 
ENDBRANCH  24  25
ENDBRANCH  23  24
ENDBRANCH  19  23
BRANCH  21  27
HETATM   27  O5  UNL     1      -6.090  -0.015   1.352  1.00  0.00    -0.353 OA
HETATM   28  C30 UNL     1      -5.592   0.989   2.204  1.00  0.00     0.210 C 
ENDBRANCH  21  27
ENDBRANCH  15  16
BRANCH  15  29
HETATM   29  N6  UNL     1      -1.189  -0.722  -2.062  1.00  0.00    -0.402 N 
HETATM   30  C27 UNL     1      -1.850  -0.100  -3.162  1.00  0.00     0.142 C 
ATOM     31  H6  UNL     1      -0.440  -1.404  -2.185  1.00  0.00     0.155 HD
ENDBRANCH  15  29
ENDBRANCH  13  15
ENDBRANCH   1  13
BRANCH   4  32
HETATM   32  N3  UNL     1       3.029   0.931  -0.152  1.00  0.00    -0.355 N 
ATOM     33  H3  UNL     1       3.852   1.515  -0.003  1.00  0.00     0.166 HD
BRANCH  32  34
HETATM   34  C12 UNL     1       3.338  -0.428  -0.278  1.00  0.00     0.064 C 
BRANCH  34  35
HETATM   35  C13 UNL     1       3.718  -1.132   0.999  1.00  0.00     0.074 C 
BRANCH  35  36
HETATM   36  C14 UNL     1       4.011  -2.572   0.631  1.00  0.00     0.277 C 
BRANCH  36  37
HETATM   37  N4  UNL     1       5.085  -2.687  -0.316  1.00  0.00     0.092 N 
HETATM   38  C15 UNL     1       5.287  -4.089  -0.598  1.00  0.00     0.298 C 
HETATM   39  C16 UNL     1       6.026  -4.796   0.525  1.00  0.00     0.198 C 
HETATM   40  O2  UNL     1       7.209  -4.160   0.857  1.00  0.00    -0.388 OA
HETATM   41  C17 UNL     1       6.901  -2.867   1.326  1.00  0.00     0.198 C 
HETATM   42  C18 UNL     1       6.319  -2.125   0.138  1.00  0.00     0.298 C 
ENDBRANCH  36  37
ENDBRANCH  35  36
ENDBRANCH  34  35
ENDBRANCH  32  34
ENDBRANCH   4  32
BRANCH   8  43
HETATM   43  O4  UNL     1       2.226   7.057   0.466  1.00  0.00    -0.353 OA
HETATM   44  C24 UNL     1       1.125   7.943   0.458  1.00  0.00     0.210 C 
ENDBRANCH   8  43
BRANCH   7  45
HETATM   45  O3  UNL     1       4.477   5.546   0.516  1.00  0.00    -0.353 OA
HETATM   46  C22 UNL     1       5.644   4.770   0.543  1.00  0.00     0.210 C 
ENDBRANCH   7  45
TORSDOF 15
