REMARK  14 active torsions:
REMARK  status: ('A' for Active; 'I' for Inactive)
REMARK    1  A    between atoms: C2_2  and  N1_3 
REMARK    2  A    between atoms: C4_5  and  C5_6 
REMARK    3  A    between atoms: C5_6  and  C6_7 
REMARK    4  A    between atoms: C6_7  and  C7_8 
REMARK    5  A    between atoms: C7_8  and  C8_9 
REMARK    6  A    between atoms: C8_9  and  C9_10 
REMARK    7  A    between atoms: C9_10  and  N2_11 
REMARK       I    between atoms: C10_13  and  N4_15 
REMARK    8  A    between atoms: N4_15  and  C11_17 
REMARK    9  A    between atoms: C13_19  and  O1_20 
REMARK   10  A    between atoms: O1_20  and  C14_21 
REMARK   11  A    between atoms: C14_21  and  C15_22 
REMARK   12  A    between atoms: C15_22  and  O2_23 
REMARK   13  A    between atoms: O2_23  and  C16_24 
REMARK   14  A    between atoms: C24_35  and  N7_36 
ROOT
HETATM    1  C11 UNL     1      -0.636   1.689   1.052  1.00  0.00     0.127 A 
HETATM    2  C12 UNL     1      -1.837   1.590   1.752  1.00  0.00     0.105 A 
HETATM    3  C13 UNL     1      -2.932   2.343   1.403  1.00  0.00     0.161 A 
HETATM    4  N6  UNL     1      -2.763   3.185   0.337  1.00  0.00    -0.170 N 
ATOM      5  H6  UNL     1      -3.555   3.760   0.051  1.00  0.00     0.186 HD
HETATM    6  C24 UNL     1      -1.630   3.299  -0.348  1.00  0.00     0.683 A 
HETATM    7  N8  UNL     1      -0.589   2.545   0.027  1.00  0.00    -0.176 N 
ATOM      8  H8  UNL     1       0.283   2.628  -0.496  1.00  0.00     0.186 HD
ENDROOT
BRANCH   1   9
HETATM    9  N4  UNL     1       0.391   0.960   1.406  1.00  0.00    -0.316 N 
HETATM   10  C10 UNL     1       1.579   1.134   0.623  1.00  0.00     0.189 C 
HETATM   11  N2  UNL     1       1.695   0.480  -0.469  1.00  0.00    -0.364 N 
HETATM   12  N3  UNL     1       2.566   2.027   1.103  1.00  0.00    -0.063 NA
ATOM     13  H2  UNL     1       0.916  -0.133  -0.708  1.00  0.00     0.162 HD
ATOM     14  H4  UNL     1       0.349   0.309   2.190  1.00  0.00     0.170 HD
BRANCH  11  15
HETATM   15  C9  UNL     1       2.778   0.502  -1.394  1.00  0.00     0.122 C 
BRANCH  15  16
HETATM   16  C8  UNL     1       4.101   0.077  -0.842  1.00  0.00     0.020 C 
BRANCH  16  17
HETATM   17  C7  UNL     1       4.100  -1.329  -0.298  1.00  0.00     0.002 C 
BRANCH  17  18
HETATM   18  C6  UNL     1       5.523  -1.597   0.205  1.00  0.00     0.003 C 
BRANCH  18  19
HETATM   19  C5  UNL     1       5.548  -2.984   0.752  1.00  0.00     0.034 C 
BRANCH  19  20
HETATM   20  C4  UNL     1       6.921  -3.383   1.279  1.00  0.00     0.151 C 
HETATM   21  C3  UNL     1       7.963  -3.334   0.212  1.00  0.00     0.160 C 
HETATM   22  N1  UNL     1       8.893  -2.319   0.627  1.00  0.00    -0.326 N 
HETATM   23  C30 UNL     1       8.652  -2.151   2.018  1.00  0.00     0.363 C 
HETATM   24  O3  UNL     1       7.354  -2.532   2.297  1.00  0.00    -0.297 OA
HETATM   25  O4  UNL     1       9.538  -1.714   2.819  1.00  0.00    -0.238 OA
BRANCH  22  26
HETATM   26  C2  UNL     1       9.847  -1.650  -0.233  1.00  0.00     0.123 C 
HETATM   27  C1  UNL     1      11.179  -2.389  -0.285  1.00  0.00     0.026 C 
ENDBRANCH  22  26
ENDBRANCH  19  20
ENDBRANCH  18  19
ENDBRANCH  17  18
ENDBRANCH  16  17
ENDBRANCH  15  16
ENDBRANCH  11  15
ENDBRANCH   1   9
BRANCH   3  28
HETATM   28  O1  UNL     1      -4.093   2.257   2.064  1.00  0.00    -0.333 OA
BRANCH  28  29
HETATM   29  C14 UNL     1      -4.623   1.570   3.101  1.00  0.00     0.203 C 
BRANCH  29  30
HETATM   30  C15 UNL     1      -4.710   0.075   2.900  1.00  0.00     0.197 C 
BRANCH  30  31
HETATM   31  O2  UNL     1      -5.510  -0.140   1.786  1.00  0.00    -0.355 OA
BRANCH  31  32
HETATM   32  C16 UNL     1      -5.692  -1.464   1.467  1.00  0.00     0.358 C 
HETATM   33  C17 UNL     1      -7.112  -1.930   1.527  1.00  0.00     0.065 C 
HETATM   34  C18 UNL     1      -7.671  -2.065   0.114  1.00  0.00     0.015 C 
HETATM   35  C19 UNL     1      -6.906  -3.154  -0.610  1.00  0.00    -0.021 C 
HETATM   36  C20 UNL     1      -6.824  -2.865  -2.073  1.00  0.00     0.016 C 
HETATM   37  C21 UNL     1      -7.625  -4.453  -0.396  1.00  0.00     0.016 C 
HETATM   38  C22 UNL     1      -5.470  -3.196  -0.083  1.00  0.00     0.283 C 
HETATM   39  N5  UNL     1      -5.105  -1.797   0.194  1.00  0.00     0.113 N 
HETATM   40  C23 UNL     1      -3.662  -1.679   0.178  1.00  0.00     0.313 C 
ENDBRANCH  31  32
ENDBRANCH  30  31
ENDBRANCH  29  30
ENDBRANCH  28  29
ENDBRANCH   3  28
BRANCH   6  41
HETATM   41  N7  UNL     1      -1.507   4.181  -1.430  1.00  0.00    -0.217 N 
HETATM   42  C25 UNL     1      -0.227   4.240  -2.156  1.00  0.00     0.141 C 
HETATM   43  C26 UNL     1       0.415   5.561  -1.777  1.00  0.00     0.020 C 
HETATM   44  C27 UNL     1      -0.628   6.541  -1.277  1.00  0.00     0.003 C 
HETATM   45  C28 UNL     1      -1.909   6.444  -2.079  1.00  0.00     0.020 C 
HETATM   46  C29 UNL     1      -2.529   5.072  -1.929  1.00  0.00     0.141 C 
ENDBRANCH   6  41
TORSDOF 14
