REMARK  16 active torsions:
REMARK  status: ('A' for Active; 'I' for Inactive)
REMARK    1  A    between atoms: C2_2  and  O1_3 
REMARK    2  A    between atoms: O1_3  and  C3_4 
REMARK    3  A    between atoms: C3_4  and  C4_6 
REMARK    4  A    between atoms: C4_6  and  C5_7 
REMARK    5  A    between atoms: C5_7  and  C6_8 
REMARK       I    between atoms: N1_9  and  C7_11 
REMARK    6  A    between atoms: C7_11  and  C8_13 
REMARK    7  A    between atoms: C8_13  and  C11_19 
REMARK       I    between atoms: N2_14  and  C9_16 
REMARK       I    between atoms: N3_23  and  C15_24 
REMARK    8  A    between atoms: C15_24  and  C16_26 
REMARK    9  A    between atoms: C16_26  and  C17_27 
REMARK   10  A    between atoms: C16_26  and  N5_36 
REMARK   11  A    between atoms: C17_27  and  C18_28 
REMARK   12  A    between atoms: C18_28  and  C19_29 
REMARK   13  A    between atoms: C19_29  and  C20_30 
REMARK   14  A    between atoms: C20_30  and  N4_31 
REMARK       I    between atoms: N4_31  and  C21_33 
REMARK       I    between atoms: N5_36  and  C23_38 
REMARK   15  A    between atoms: C23_38  and  O8_40 
REMARK   16  A    between atoms: O8_40  and  C24_41 
ROOT
HETATM    1  C11 UNL     1       1.598   1.054   1.612  1.00  0.00     0.059 C 
HETATM    2  C12 UNL     1       0.819   1.465   2.829  1.00  0.00     0.014 C 
HETATM    3  C13 UNL     1      -0.694   1.397   2.587  1.00  0.00     0.021 C 
HETATM    4  C14 UNL     1      -0.965  -0.084   2.321  1.00  0.00     0.126 C 
HETATM    5  N3  UNL     1      -0.399  -0.349   1.032  1.00  0.00    -0.350 N 
HETATM    6  C15 UNL     1      -1.145  -0.881  -0.052  1.00  0.00     0.242 C 
HETATM    7  O5  UNL     1      -0.478  -1.123  -1.127  1.00  0.00    -0.271 OA
HETATM    8  C28 UNL     1       1.006  -0.045   0.805  1.00  0.00     0.137 C 
ENDROOT
BRANCH   6   9
HETATM    9  C16 UNL     1      -2.586  -1.169  -0.036  1.00  0.00     0.179 C 
BRANCH   9  10
HETATM   10  C17 UNL     1      -3.460   0.073  -0.001  1.00  0.00     0.035 C 
BRANCH  10  11
HETATM   11  C18 UNL     1      -3.238   0.961  -1.177  1.00  0.00     0.004 C 
BRANCH  11  12
HETATM   12  C19 UNL     1      -4.127   2.169  -1.096  1.00  0.00     0.020 C 
BRANCH  12  13
HETATM   13  C20 UNL     1      -3.924   3.028   0.108  1.00  0.00     0.122 C 
BRANCH  13  14
HETATM   14  N4  UNL     1      -4.809   4.190   0.086  1.00  0.00    -0.361 N 
HETATM   15  C21 UNL     1      -4.730   5.098   1.175  1.00  0.00     0.213 C 
HETATM   16  C22 UNL     1      -5.605   6.309   1.211  1.00  0.00     0.117 C 
HETATM   17  O6  UNL     1      -3.939   4.915   2.119  1.00  0.00    -0.274 OA
ATOM     18  H4  UNL     1      -5.460   4.344  -0.684  1.00  0.00     0.162 HD
ENDBRANCH  13  14
ENDBRANCH  12  13
ENDBRANCH  11  12
ENDBRANCH  10  11
ENDBRANCH   9  10
BRANCH   9  19
HETATM   19  N5  UNL     1      -2.936  -1.933  -1.252  1.00  0.00    -0.324 N 
HETATM   20  C23 UNL     1      -3.389  -3.259  -1.149  1.00  0.00     0.362 C 
HETATM   21  O7  UNL     1      -3.509  -3.848  -0.019  1.00  0.00    -0.238 OA
ATOM     22  H5  UNL     1      -2.848  -1.496  -2.169  1.00  0.00     0.165 HD
BRANCH  20  23
HETATM   23  O8  UNL     1      -3.741  -4.046  -2.235  1.00  0.00    -0.294 OA
BRANCH  23  24
HETATM   24  C24 UNL     1      -4.182  -5.360  -2.130  1.00  0.00     0.061 C 
HETATM   25  C25 UNL     1      -5.417  -5.433  -1.299  1.00  0.00     0.046 C 
HETATM   26  C26 UNL     1      -4.555  -5.805  -3.552  1.00  0.00     0.046 C 
HETATM   27  C27 UNL     1      -3.141  -6.334  -1.657  1.00  0.00     0.046 C 
ENDBRANCH  23  24
ENDBRANCH  20  23
ENDBRANCH   9  19
ENDBRANCH   6   9
BRANCH   1  28
HETATM   28  C8  UNL     1       2.997   0.715   1.971  1.00  0.00     0.086 C 
HETATM   29  N2  UNL     1       3.480   0.739   3.095  1.00  0.00    -0.326 N 
HETATM   30  C9  UNL     1       3.400   0.952   4.407  1.00  0.00     0.218 C 
ATOM     31  H2  UNL     1       4.445   0.441   2.953  1.00  0.00     0.168 HD
HETATM   32  C10 UNL     1       3.436   2.296   5.083  1.00  0.00     0.117 C 
HETATM   33  O4  UNL     1       3.280  -0.023   5.231  1.00  0.00    -0.274 OA
BRANCH  28  34
HETATM   34  C7  UNL     1       3.896   0.299   0.864  1.00  0.00     0.268 C 
HETATM   35  N1  UNL     1       3.496   0.247  -0.463  1.00  0.00    -0.336 N 
HETATM   36  C6  UNL     1       3.936   1.031  -1.362  1.00  0.00     0.064 C 
ATOM     37  H1  UNL     1       2.811  -0.459  -0.733  1.00  0.00     0.168 HD
HETATM   38  O3  UNL     1       5.096  -0.025   1.142  1.00  0.00    -0.266 OA
BRANCH  36  39
HETATM   39  C5  UNL     1       4.926   2.083  -1.069  1.00  0.00     0.054 C 
BRANCH  39  40
HETATM   40  C4  UNL     1       6.092   2.022  -2.051  1.00  0.00     0.116 C 
BRANCH  40  41
HETATM   41  C3  UNL     1       6.780   0.718  -1.987  1.00  0.00     0.259 C 
HETATM   42  O2  UNL     1       6.319  -0.318  -2.570  1.00  0.00    -0.265 OA
BRANCH  41  43
HETATM   43  O1  UNL     1       7.960   0.544  -1.294  1.00  0.00    -0.322 OA
BRANCH  43  44
HETATM   44  C2  UNL     1       8.628  -0.699  -1.223  1.00  0.00     0.174 C 
HETATM   45  C1  UNL     1       9.014  -1.182  -2.592  1.00  0.00     0.034 C 
ENDBRANCH  43  44
ENDBRANCH  41  43
ENDBRANCH  40  41
ENDBRANCH  39  40
ENDBRANCH  36  39
ENDBRANCH  28  34
ENDBRANCH   1  28
TORSDOF 16
