REMARK  12 active torsions:
REMARK  status: ('A' for Active; 'I' for Inactive)
REMARK    1  A    between atoms: O1_2  and  C2_3 
REMARK    2  A    between atoms: C4_5  and  N1_6 
REMARK       I    between atoms: N1_6  and  C5_8 
REMARK       I    between atoms: C5_8  and  N2_10 
REMARK    3  A    between atoms: N2_10  and  C6_12 
REMARK    4  A    between atoms: C9_15  and  N3_16 
REMARK    5  A    between atoms: C19_27  and  O3_28 
REMARK    6  A    between atoms: O3_28  and  C20_29 
REMARK    7  A    between atoms: C20_29  and  C21_30 
REMARK    8  A    between atoms: C21_30  and  N5_31 
REMARK    9  A    between atoms: C27_38  and  O5_39 
REMARK   10  A    between atoms: O5_39  and  C28_40 
REMARK   11  A    between atoms: C28_40  and  C29_41 
REMARK   12  A    between atoms: C29_41  and  N6_42 
ROOT
HETATM    1  C2  UNL     1      -2.558   2.761  -1.289  1.00  0.00     0.103 A 
HETATM    2  C3  UNL     1      -1.264   2.245  -1.109  1.00  0.00     0.072 A 
HETATM    3  C4  UNL     1      -1.066   0.928  -0.806  1.00  0.00     0.072 A 
HETATM    4  C19 UNL     1      -2.190   0.124  -0.684  1.00  0.00     0.098 A 
HETATM    5  C26 UNL     1      -3.451   0.640  -0.863  1.00  0.00     0.078 A 
HETATM    6  C27 UNL     1      -3.672   1.964  -1.169  1.00  0.00     0.104 A 
ENDROOT
BRANCH   3   7
HETATM    7  N1  UNL     1       0.180   0.304  -0.643  1.00  0.00    -0.306 N 
HETATM    8  C5  UNL     1       1.449   0.943  -0.484  1.00  0.00     0.325 C 
HETATM    9  O2  UNL     1       1.477   2.184  -0.466  1.00  0.00    -0.247 OA
HETATM   10  N2  UNL     1       2.621   0.135  -0.352  1.00  0.00    -0.308 N 
ATOM     11  H2  UNL     1       2.490  -0.875  -0.397  1.00  0.00     0.170 HD
ATOM     12  H1  UNL     1       0.181  -0.716  -0.637  1.00  0.00     0.171 HD
BRANCH  10  13
HETATM   13  C6  UNL     1       3.944   0.597  -0.165  1.00  0.00     0.043 A 
HETATM   14  C7  UNL     1       4.262   1.898   0.162  1.00  0.00     0.032 A 
HETATM   15  C8  UNL     1       5.582   2.237   0.367  1.00  0.00     0.032 A 
HETATM   16  C9  UNL     1       6.631   1.323   0.262  1.00  0.00     0.036 A 
HETATM   17  C15 UNL     1       6.293   0.049  -0.062  1.00  0.00    -0.027 A 
HETATM   18  C16 UNL     1       7.372  -0.986  -0.222  1.00  0.00     0.051 C 
HETATM   19  C17 UNL     1       4.981  -0.352  -0.280  1.00  0.00    -0.027 A 
HETATM   20  C18 UNL     1       4.664  -1.760  -0.635  1.00  0.00     0.051 C 
BRANCH  16  21
HETATM   21  N3  UNL     1       7.959   1.738   0.517  1.00  0.00    -0.377 N 
HETATM   22  C10 UNL     1       8.643   1.195   1.669  1.00  0.00     0.142 C 
HETATM   23  C11 UNL     1      10.122   1.307   1.564  1.00  0.00     0.136 C 
HETATM   24  N4  UNL     1      10.683   1.421   0.273  1.00  0.00    -0.414 N 
HETATM   25  C12 UNL     1      11.399   0.275  -0.159  1.00  0.00     0.143 C 
HETATM   26  C13 UNL     1       9.977   2.134  -0.720  1.00  0.00     0.136 C 
HETATM   27  C14 UNL     1       8.652   2.700  -0.299  1.00  0.00     0.142 C 
ENDBRANCH  16  21
ENDBRANCH  10  13
ENDBRANCH   3   7
BRANCH   4  28
HETATM   28  O3  UNL     1      -2.056  -1.229  -0.376  1.00  0.00    -0.347 OA
BRANCH  28  29
HETATM   29  C20 UNL     1      -3.238  -2.040  -0.245  1.00  0.00     0.206 C 
BRANCH  29  30
HETATM   30  C21 UNL     1      -2.793  -3.425   0.102  1.00  0.00     0.299 C 
BRANCH  30  31
HETATM   31  N5  UNL     1      -3.904  -4.339   0.268  1.00  0.00     0.094 N 
HETATM   32  C22 UNL     1      -4.705  -4.051   1.415  1.00  0.00     0.298 C 
HETATM   33  C23 UNL     1      -5.272  -5.342   1.959  1.00  0.00     0.198 C 
HETATM   34  O4  UNL     1      -5.743  -6.202   0.993  1.00  0.00    -0.388 OA
HETATM   35  C24 UNL     1      -4.748  -6.614   0.119  1.00  0.00     0.198 C 
HETATM   36  C25 UNL     1      -3.533  -5.714   0.174  1.00  0.00     0.298 C 
ENDBRANCH  30  31
ENDBRANCH  29  30
ENDBRANCH  28  29
ENDBRANCH   4  28
BRANCH   1  37
HETATM   37  O1  UNL     1      -2.726   4.098  -1.595  1.00  0.00    -0.353 OA
HETATM   38  C1  UNL     1      -1.574   4.922  -1.716  1.00  0.00     0.210 C 
ENDBRANCH   1  37
BRANCH   6  39
HETATM   39  O5  UNL     1      -4.882   2.528  -1.352  1.00  0.00    -0.346 OA
BRANCH  39  40
HETATM   40  C28 UNL     1      -6.174   2.083  -1.281  1.00  0.00     0.206 C 
BRANCH  40  41
HETATM   41  C29 UNL     1      -6.645   1.598   0.055  1.00  0.00     0.299 C 
BRANCH  41  42
HETATM   42  N6  UNL     1      -8.045   1.186  -0.100  1.00  0.00     0.090 N 
HETATM   43  C30 UNL     1      -8.910   2.283  -0.332  1.00  0.00     0.272 C 
HETATM   44  C31 UNL     1     -10.286   1.727   0.072  1.00  0.00     0.032 C 
HETATM   45  C32 UNL     1      -9.894   0.930   1.307  1.00  0.00     0.032 C 
HETATM   46  C33 UNL     1      -8.458   0.559   1.107  1.00  0.00     0.272 C 
ENDBRANCH  41  42
ENDBRANCH  40  41
ENDBRANCH  39  40
ENDBRANCH   6  39
TORSDOF 12
