REMARK  13 active torsions:
REMARK  status: ('A' for Active; 'I' for Inactive)
REMARK    1  A    between atoms: O1_2  and  C2_3 
REMARK    2  A    between atoms: C2_3  and  C3_4 
REMARK    3  A    between atoms: C3_4  and  C4_5 
REMARK    4  A    between atoms: C4_5  and  N1_6 
REMARK    5  A    between atoms: C9_11  and  N2_12 
REMARK    6  A    between atoms: N2_12  and  C10_14 
REMARK    7  A    between atoms: C11_17  and  N4_18 
REMARK    8  A    between atoms: N4_18  and  C12_20 
REMARK    9  A    between atoms: C14_22  and  O2_23 
REMARK   10  A    between atoms: C18_27  and  O3_28 
REMARK   11  A    between atoms: C20_34  and  C21_35 
REMARK   12  A    between atoms: C24_38  and  O4_39 
REMARK   13  A    between atoms: C28_43  and  O5_44 
ROOT
HETATM    1  C10 UNL     1      -1.431   0.911   0.188  1.00  0.00     0.150 A 
HETATM    2  N3  UNL     1      -1.582  -0.427   0.221  1.00  0.00    -0.173 N 
ATOM      3  H3  UNL     1      -0.805  -0.995   0.559  1.00  0.00     0.186 HD
HETATM    4  C11 UNL     1      -2.712  -1.054  -0.171  1.00  0.00     0.699 A 
HETATM    5  N5  UNL     1      -3.767  -0.355  -0.628  1.00  0.00    -0.131 N 
ATOM      6  H5  UNL     1      -4.626  -0.814  -0.930  1.00  0.00     0.205 HD
HETATM    7  N6  UNL     1      -3.631   0.950  -0.664  1.00  0.00    -0.282 N 
ATOM      8  H6  UNL     1      -4.424   1.492  -1.007  1.00  0.00     0.187 HD
HETATM    9  C20 UNL     1      -2.537   1.634  -0.288  1.00  0.00     0.103 A 
ENDROOT
BRANCH   1  10
HETATM   10  N2  UNL     1      -0.412   1.560   0.496  1.00  0.00    -0.338 N 
ATOM     11  H2  UNL     1      -0.538   2.566   0.389  1.00  0.00     0.167 HD
BRANCH  10  12
HETATM   12  C9  UNL     1       0.848   1.226   0.949  1.00  0.00     0.068 A 
HETATM   13  C8  UNL     1       1.912   1.429   0.080  1.00  0.00     0.040 A 
HETATM   14  C7  UNL     1       3.237   1.142   0.441  1.00  0.00    -0.038 A 
HETATM   15  C6  UNL     1       4.331   1.331  -0.512  1.00  0.00     0.059 C 
HETATM   16  C31 UNL     1       3.453   0.647   1.704  1.00  0.00     0.041 A 
HETATM   17  C5  UNL     1       5.710   1.331   0.018  1.00  0.00     0.130 C 
HETATM   18  N1  UNL     1       5.932   0.642   1.255  1.00  0.00    -0.348 N 
HETATM   19  C32 UNL     1       4.832   0.389   2.119  1.00  0.00     0.254 C 
HETATM   20  O6  UNL     1       4.983  -0.074   3.297  1.00  0.00    -0.267 OA
HETATM   21  C30 UNL     1       2.383   0.453   2.542  1.00  0.00     0.056 A 
HETATM   22  C28 UNL     1       1.063   0.727   2.211  1.00  0.00     0.096 A 
BRANCH  18  23
HETATM   23  C4  UNL     1       7.270   0.270   1.627  1.00  0.00     0.128 C 
BRANCH  23  24
HETATM   24  C3  UNL     1       7.671  -1.132   1.298  1.00  0.00     0.046 C 
BRANCH  24  25
HETATM   25  C2  UNL     1       7.596  -1.479  -0.142  1.00  0.00     0.168 C 
BRANCH  25  26
HETATM   26  O1  UNL     1       8.011  -2.766  -0.402  1.00  0.00    -0.396 OA
HETATM   27  C1  UNL     1       7.303  -3.772   0.204  1.00  0.00     0.201 C 
ENDBRANCH  25  26
ENDBRANCH  24  25
ENDBRANCH  23  24
ENDBRANCH  18  23
BRANCH  22  28
HETATM   28  O5  UNL     1       0.034   0.502   3.119  1.00  0.00    -0.354 OA
HETATM   29  C29 UNL     1       0.235   0.000   4.405  1.00  0.00     0.210 C 
ENDBRANCH  22  28
ENDBRANCH  10  12
ENDBRANCH   1  10
BRANCH   9  30
HETATM   30  C21 UNL     1      -2.468   3.084  -0.353  1.00  0.00    -0.004 A 
HETATM   31  C22 UNL     1      -2.041   3.895   0.674  1.00  0.00     0.016 A 
HETATM   32  C23 UNL     1      -2.026   5.262   0.467  1.00  0.00     0.037 A 
HETATM   33  C24 UNL     1      -2.421   5.840  -0.721  1.00  0.00     0.068 A 
HETATM   34  C26 UNL     1      -2.850   5.039  -1.756  1.00  0.00     0.037 A 
HETATM   35  C27 UNL     1      -2.867   3.676  -1.555  1.00  0.00     0.016 A 
BRANCH  33  36
HETATM   36  O4  UNL     1      -2.402   7.213  -0.917  1.00  0.00    -0.356 OA
HETATM   37  C25 UNL     1      -2.804   7.780  -2.146  1.00  0.00     0.210 C 
ENDBRANCH  33  36
ENDBRANCH   9  30
BRANCH   4  38
HETATM   38  N4  UNL     1      -2.793  -2.361  -0.065  1.00  0.00    -0.188 N 
ATOM     39  H4  UNL     1      -2.012  -2.898   0.312  1.00  0.00     0.184 HD
BRANCH  38  40
HETATM   40  C12 UNL     1      -3.989  -3.021  -0.484  1.00  0.00     0.085 A 
HETATM   41  C13 UNL     1      -4.967  -3.362   0.429  1.00  0.00     0.069 A 
HETATM   42  C14 UNL     1      -6.154  -3.977   0.091  1.00  0.00     0.070 A 
HETATM   43  C16 UNL     1      -6.355  -4.258  -1.248  1.00  0.00     0.039 A 
HETATM   44  C17 UNL     1      -5.414  -3.941  -2.198  1.00  0.00     0.042 A 
HETATM   45  C18 UNL     1      -4.230  -3.319  -1.799  1.00  0.00     0.095 A 
BRANCH  42  46
HETATM   46  O2  UNL     1      -7.129  -4.316   1.001  1.00  0.00    -0.356 OA
HETATM   47  C15 UNL     1      -8.309  -4.942   0.548  1.00  0.00     0.210 C 
ENDBRANCH  42  46
BRANCH  45  48
HETATM   48  O3  UNL     1      -3.255  -2.985  -2.742  1.00  0.00    -0.354 OA
HETATM   49  C19 UNL     1      -3.515  -3.298  -4.093  1.00  0.00     0.210 C 
ENDBRANCH  45  48
ENDBRANCH  38  40
ENDBRANCH   4  38
TORSDOF 13
