REMARK  14 active torsions:
REMARK  status: ('A' for Active; 'I' for Inactive)
REMARK    1  A    between atoms: C4_4  and  C5_5 
REMARK    2  A    between atoms: C5_5  and  C6_6 
REMARK       I    between atoms: C6_6  and  N1_8 
REMARK    3  A    between atoms: N1_8  and  C7_10 
REMARK    4  A    between atoms: C8_15  and  C9_16 
REMARK    5  A    between atoms: C9_16  and  C10_17 
REMARK    6  A    between atoms: C10_17  and  C11_18 
REMARK    7  A    between atoms: C11_18  and  C12_19 
REMARK    8  A    between atoms: C12_19  and  C13_20 
REMARK       I    between atoms: N6_26  and  C15_28 
REMARK    9  A    between atoms: C15_28  and  C16_30 
REMARK   10  A    between atoms: C20_36  and  C21_37 
REMARK       I    between atoms: C21_37  and  N7_39 
REMARK   11  A    between atoms: N7_39  and  C22_41 
REMARK   12  A    between atoms: C22_41  and  C23_42 
REMARK   13  A    between atoms: C23_42  and  C24_43 
REMARK   14  A    between atoms: C24_43  and  C25_44 
ROOT
HETATM    1  C25 UNL     1      -7.790  -4.404  -1.101  1.00  0.00     0.124 C 
HETATM    2  C26 UNL     1      -8.786  -5.262  -0.480  1.00  0.00     0.059 C 
HETATM    3  N8  UNL     1      -9.581  -5.938   0.031  1.00  0.00    -0.197 NA
ENDROOT
BRANCH   1   4
HETATM    4  C24 UNL     1      -7.589  -3.124  -0.241  1.00  0.00     0.019 C 
BRANCH   4   5
HETATM    5  C23 UNL     1      -8.862  -2.392  -0.133  1.00  0.00     0.045 C 
BRANCH   5   6
HETATM    6  C22 UNL     1      -8.884  -1.185   0.698  1.00  0.00     0.064 C 
BRANCH   6   7
HETATM    7  N7  UNL     1      -8.078  -0.062   0.455  1.00  0.00    -0.337 N 
HETATM    8  C21 UNL     1      -6.698   0.145   0.541  1.00  0.00     0.255 C 
HETATM    9  O3  UNL     1      -5.941  -0.799   0.916  1.00  0.00    -0.267 OA
ATOM     10  H7  UNL     1      -8.600   0.763   0.158  1.00  0.00     0.168 HD
BRANCH   8  11
HETATM   11  C20 UNL     1      -6.057   1.447   0.206  1.00  0.00     0.033 A 
HETATM   12  C19 UNL     1      -4.675   1.494   0.091  1.00  0.00     0.024 A 
HETATM   13  C4  UNL     1      -4.047   2.678  -0.197  1.00  0.00    -0.048 A 
HETATM   14  C3  UNL     1      -4.804   3.817  -0.369  1.00  0.00     0.014 A 
HETATM   15  C2  UNL     1      -6.169   3.793  -0.259  1.00  0.00    -0.060 A 
HETATM   16  C1  UNL     1      -6.973   5.041  -0.451  1.00  0.00     0.048 C 
HETATM   17  C27 UNL     1      -6.784   2.578   0.033  1.00  0.00     0.023 A 
BRANCH  13  18
HETATM   18  C5  UNL     1      -2.556   2.688  -0.289  1.00  0.00     0.141 C 
BRANCH  18  19
HETATM   19  C6  UNL     1      -2.055   2.541  -1.657  1.00  0.00     0.227 C 
HETATM   20  O1  UNL     1      -2.906   2.346  -2.576  1.00  0.00    -0.273 OA
HETATM   21  N1  UNL     1      -0.723   2.610  -1.980  1.00  0.00    -0.306 N 
ATOM     22  H1  UNL     1      -0.504   2.902  -2.932  1.00  0.00     0.171 HD
BRANCH  21  23
HETATM   23  C7  UNL     1       0.285   2.347  -1.216  1.00  0.00     0.167 A 
HETATM   24  N2  UNL     1       1.595   2.430  -1.572  1.00  0.00    -0.279 N 
HETATM   25  N3  UNL     1       2.465   2.139  -0.708  1.00  0.00    -0.296 N 
ATOM     26  H2  UNL     1       1.866   2.720  -2.512  1.00  0.00     0.189 HD
HETATM   27  C8  UNL     1       2.126   1.761   0.512  1.00  0.00     0.069 A 
ATOM     28  H3  UNL     1       3.453   2.197  -0.956  1.00  0.00     0.187 HD
HETATM   29  S2  UNL     1       0.428   1.830   0.411  1.00  0.00    -0.038 SA
BRANCH  27  30
HETATM   30  C9  UNL     1       3.053   1.395   1.646  1.00  0.00     0.066 C 
BRANCH  30  31
HETATM   31  C10 UNL     1       3.375  -0.056   1.542  1.00  0.00     0.007 C 
BRANCH  31  32
HETATM   32  C11 UNL     1       4.314  -0.428   2.672  1.00  0.00     0.007 C 
BRANCH  32  33
HETATM   33  C12 UNL     1       5.612   0.345   2.641  1.00  0.00     0.066 C 
BRANCH  33  34
HETATM   34  C13 UNL     1       6.270   0.032   1.325  1.00  0.00     0.069 A 
HETATM   35  N4  UNL     1       6.169   0.617   0.160  1.00  0.00    -0.296 N 
HETATM   36  N5  UNL     1       6.813   0.213  -0.850  1.00  0.00    -0.279 N 
ATOM     37  H4  UNL     1       5.552   1.424   0.063  1.00  0.00     0.187 HD
HETATM   38  C14 UNL     1       7.622  -0.846  -0.712  1.00  0.00     0.167 A 
ATOM     39  H5  UNL     1       6.719   0.683  -1.750  1.00  0.00     0.189 HD
HETATM   40  N6  UNL     1       8.362  -1.413  -1.618  1.00  0.00    -0.306 N 
HETATM   41  S1  UNL     1       7.403  -1.227   0.951  1.00  0.00    -0.038 SA
HETATM   42  C15 UNL     1       9.165  -2.529  -1.302  1.00  0.00     0.227 C 
ATOM     43  H6  UNL     1       8.362  -1.046  -2.570  1.00  0.00     0.171 HD
HETATM   44  O2  UNL     1       8.823  -3.663  -1.686  1.00  0.00    -0.273 OA
BRANCH  42  45
HETATM   45  C16 UNL     1      10.396  -2.356  -0.524  1.00  0.00     0.070 C 
HETATM   46  C17 UNL     1      11.287  -1.297  -1.191  1.00  0.00     0.019 C 
HETATM   47  C18 UNL     1      11.211  -3.634  -0.452  1.00  0.00     0.019 C 
ENDBRANCH  42  45
ENDBRANCH  33  34
ENDBRANCH  32  33
ENDBRANCH  31  32
ENDBRANCH  30  31
ENDBRANCH  27  30
ENDBRANCH  21  23
ENDBRANCH  18  19
ENDBRANCH  13  18
ENDBRANCH   8  11
ENDBRANCH   6   7
ENDBRANCH   5   6
ENDBRANCH   4   5
ENDBRANCH   1   4
TORSDOF 14
