REMARK  13 active torsions:
REMARK  status: ('A' for Active; 'I' for Inactive)
REMARK    1  A    between atoms: O1_2  and  C2_3 
REMARK    2  A    between atoms: C6_7  and  C7_8 
REMARK       I    between atoms: C7_8  and  N1_10 
REMARK    3  A    between atoms: N1_10  and  C8_12 
REMARK    4  A    between atoms: C10_14  and  C11_15 
REMARK       I    between atoms: C11_15  and  N2_17 
REMARK    5  A    between atoms: N2_17  and  C12_19 
REMARK    6  A    between atoms: C14_21  and  C15_22 
REMARK       I    between atoms: C15_22  and  N3_24 
REMARK    7  A    between atoms: N3_24  and  C16_26 
REMARK    8  A    between atoms: C16_26  and  C17_27 
REMARK    9  A    between atoms: C17_27  and  C18_28 
REMARK   10  A    between atoms: C18_28  and  N4_29 
REMARK   11  A    between atoms: N4_29  and  C20_31 
REMARK   12  A    between atoms: C20_31  and  C21_32 
REMARK   13  A    between atoms: C21_32  and  N5_33 
ROOT
HETATM    1  C11 UNL     1       1.360   1.044   0.928  1.00  0.00     0.273 C 
HETATM    2  O3  UNL     1       1.165  -0.004   1.620  1.00  0.00    -0.266 OA
HETATM    3  N2  UNL     1       0.236   1.776   0.547  1.00  0.00    -0.320 N 
ATOM      4  H2  UNL     1       0.379   2.607  -0.028  1.00  0.00     0.169 HD
ENDROOT
BRANCH   1   5
HETATM    5  C10 UNL     1       2.712   1.409   0.578  1.00  0.00     0.105 A 
HETATM    6  C9  UNL     1       3.793   0.480   0.563  1.00  0.00     0.067 A 
HETATM    7  C8  UNL     1       4.929   1.133   0.255  1.00  0.00     0.059 A 
HETATM    8  C27 UNL     1       4.557   2.474   0.078  1.00  0.00     0.035 A 
HETATM    9  N7  UNL     1       3.221   2.607   0.278  1.00  0.00    -0.349 N 
HETATM   10  C28 UNL     1       5.508   3.538  -0.279  1.00  0.00     0.070 C 
HETATM   11  C26 UNL     1       2.567   3.897   0.182  1.00  0.00     0.156 C 
BRANCH   7  12
HETATM   12  N1  UNL     1       6.243   0.632   0.163  1.00  0.00    -0.321 N 
HETATM   13  C7  UNL     1       6.549  -0.725   0.163  1.00  0.00     0.256 C 
HETATM   14  O2  UNL     1       5.601  -1.571   0.222  1.00  0.00    -0.267 OA
ATOM     15  H1  UNL     1       7.011   1.300   0.093  1.00  0.00     0.169 HD
BRANCH  13  16
HETATM   16  C6  UNL     1       7.934  -1.221   0.090  1.00  0.00     0.038 A 
HETATM   17  C4  UNL     1       8.994  -0.661   0.740  1.00  0.00    -0.044 A 
HETATM   18  C3  UNL     1      10.285  -1.193   0.537  1.00  0.00     0.045 A 
HETATM   19  C5  UNL     1       8.864   0.463   1.694  1.00  0.00     0.049 C 
HETATM   20  C2  UNL     1      10.548  -2.251  -0.281  1.00  0.00     0.074 A 
HETATM   21  C30 UNL     1       9.457  -2.824  -0.946  1.00  0.00    -0.028 A 
HETATM   22  C29 UNL     1       8.199  -2.313  -0.753  1.00  0.00     0.027 A 
HETATM   23  C31 UNL     1       9.720  -3.978  -1.873  1.00  0.00     0.051 C 
BRANCH  20  24
HETATM   24  O1  UNL     1      11.808  -2.793  -0.497  1.00  0.00    -0.355 OA
HETATM   25  C1  UNL     1      12.927  -2.237   0.165  1.00  0.00     0.210 C 
ENDBRANCH  20  24
ENDBRANCH  13  16
ENDBRANCH   7  12
ENDBRANCH   1   5
BRANCH   3  26
HETATM   26  C12 UNL     1      -1.114   1.434   0.913  1.00  0.00     0.053 A 
HETATM   27  C13 UNL     1      -2.220   1.904   0.260  1.00  0.00     0.066 A 
HETATM   28  C14 UNL     1      -3.331   1.416   0.904  1.00  0.00     0.104 A 
HETATM   29  N6  UNL     1      -2.927   0.661   1.934  1.00  0.00    -0.354 N 
HETATM   30  C24 UNL     1      -3.827  -0.022   2.841  1.00  0.00     0.156 C 
HETATM   31  C25 UNL     1      -1.568   0.674   1.934  1.00  0.00     0.120 A 
BRANCH  28  32
HETATM   32  C15 UNL     1      -4.729   1.668   0.499  1.00  0.00     0.268 C 
HETATM   33  O4  UNL     1      -5.640   1.371   1.303  1.00  0.00    -0.266 OA
HETATM   34  N3  UNL     1      -5.024   2.229  -0.772  1.00  0.00    -0.355 N 
ATOM     35  H3  UNL     1      -4.242   2.444  -1.391  1.00  0.00     0.162 HD
BRANCH  34  36
HETATM   36  C16 UNL     1      -6.343   2.512  -1.241  1.00  0.00     0.128 C 
BRANCH  36  37
HETATM   37  C17 UNL     1      -7.269   1.303  -1.243  1.00  0.00     0.064 C 
BRANCH  37  38
HETATM   38  C18 UNL     1      -6.714   0.216  -2.081  1.00  0.00     0.064 C 
BRANCH  38  39
HETATM   39  N4  UNL     1      -7.365  -1.011  -2.185  1.00  0.00    -0.377 N 
HETATM   40  C19 UNL     1      -6.656  -1.906  -3.063  1.00  0.00     0.154 C 
BRANCH  39  41
HETATM   41  C20 UNL     1      -8.138  -1.594  -1.192  1.00  0.00     0.082 C 
BRANCH  41  42
HETATM   42  C21 UNL     1      -9.474  -1.006  -0.975  1.00  0.00     0.160 C 
BRANCH  42  43
HETATM   43  N5  UNL     1     -10.211  -1.647   0.106  1.00  0.00    -0.416 N 
HETATM   44  C22 UNL     1     -10.619  -2.985  -0.149  1.00  0.00     0.143 C 
HETATM   45  C23 UNL     1     -11.149  -0.806   0.766  1.00  0.00     0.143 C 
ENDBRANCH  42  43
ENDBRANCH  41  42
ENDBRANCH  39  41
ENDBRANCH  38  39
ENDBRANCH  37  38
ENDBRANCH  36  37
ENDBRANCH  34  36
ENDBRANCH  28  32
ENDBRANCH   3  26
TORSDOF 13
