REMARK  16 active torsions:
REMARK  status: ('A' for Active; 'I' for Inactive)
REMARK    1  A    between atoms: O1_2  and  C2_3 
REMARK    2  A    between atoms: C6_7  and  C7_8 
REMARK    3  A    between atoms: C7_8  and  C8_9 
REMARK    4  A    between atoms: N1_11  and  C10_12 
REMARK    5  A    between atoms: C10_12  and  C11_13 
REMARK    6  A    between atoms: C11_13  and  C14_16 
REMARK    7  A    between atoms: C14_16  and  O2_17 
REMARK    8  A    between atoms: C18_26  and  O5_27 
REMARK    9  A    between atoms: O5_27  and  C19_28 
REMARK   10  A    between atoms: C19_28  and  C20_29 
REMARK   11  A    between atoms: C20_29  and  O7_31 
REMARK   12  A    between atoms: O7_31  and  C21_32 
REMARK   13  A    between atoms: C21_32  and  C22_33 
REMARK   14  A    between atoms: C22_33  and  O8_34 
REMARK   15  A    between atoms: O8_34  and  C23_35 
REMARK   16  A    between atoms: C23_35  and  C26_38 
ROOT
HETATM    1  C2  UNL     1       2.206   0.761   2.821  1.00  0.00     0.107 A 
HETATM    2  C3  UNL     1       3.400   1.448   2.816  1.00  0.00    -0.025 A 
HETATM    3  C4  UNL     1       3.864   2.172   4.051  1.00  0.00     0.051 C 
HETATM    4  C5  UNL     1       4.150   1.458   1.669  1.00  0.00     0.017 A 
HETATM    5  C6  UNL     1       3.722   0.796   0.543  1.00  0.00    -0.050 A 
HETATM    6  C17 UNL     1       2.528   0.119   0.576  1.00  0.00     0.047 A 
HETATM    7  C18 UNL     1       1.738   0.081   1.711  1.00  0.00     0.103 A 
ENDROOT
BRANCH   7   8
HETATM    8  O5  UNL     1       0.521  -0.605   1.751  1.00  0.00    -0.339 OA
BRANCH   8   9
HETATM    9  C19 UNL     1       0.048  -1.289   0.615  1.00  0.00     0.286 C 
BRANCH   9  10
HETATM   10  C20 UNL     1      -1.260  -1.930   0.932  1.00  0.00     0.283 C 
HETATM   11  O6  UNL     1      -1.726  -1.818   2.089  1.00  0.00    -0.263 OA
BRANCH  10  12
HETATM   12  O7  UNL     1      -1.962  -2.636  -0.013  1.00  0.00    -0.318 OA
BRANCH  12  13
HETATM   13  C21 UNL     1      -3.172  -3.238   0.239  1.00  0.00     0.205 C 
BRANCH  13  14
HETATM   14  C22 UNL     1      -4.287  -2.249   0.664  1.00  0.00     0.195 C 
BRANCH  14  15
HETATM   15  O8  UNL     1      -4.549  -1.368  -0.165  1.00  0.00    -0.378 OA
BRANCH  15  16
HETATM   16  C23 UNL     1      -4.780  -0.474  -0.994  1.00  0.00     0.057 C 
HETATM   17  C24 UNL     1      -3.893  -0.654  -2.257  1.00  0.00     0.046 C 
HETATM   18  C25 UNL     1      -4.595   0.987  -0.611  1.00  0.00     0.046 C 
BRANCH  16  19
HETATM   19  C26 UNL     1      -6.223  -0.598  -1.547  1.00  0.00     0.020 C 
HETATM   20  C27 UNL     1      -6.565   0.449  -2.537  1.00  0.00     0.008 C 
HETATM   21  C28 UNL     1      -7.855   1.105  -2.094  1.00  0.00     0.010 C 
HETATM   22  C29 UNL     1      -8.309   0.376  -0.863  1.00  0.00    -0.040 C 
HETATM   23  C30 UNL     1      -8.659   1.417   0.197  1.00  0.00     0.009 C 
HETATM   24  C34 UNL     1      -9.528  -0.463  -1.186  1.00  0.00     0.009 C 
HETATM   25  C35 UNL     1      -7.190  -0.505  -0.409  1.00  0.00     0.017 C 
HETATM   26  C31 UNL     1     -10.056   1.917  -0.119  1.00  0.00     0.001 C 
HETATM   27  C32 UNL     1     -11.082   0.868   0.274  1.00  0.00     0.000 C 
HETATM   28  C33 UNL     1     -10.502  -0.499  -0.021  1.00  0.00     0.001 C 
ENDBRANCH  16  19
ENDBRANCH  15  16
ENDBRANCH  14  15
ENDBRANCH  13  14
ENDBRANCH  12  13
ENDBRANCH  10  12
ENDBRANCH   9  10
ENDBRANCH   8   9
ENDBRANCH   7   8
BRANCH   1  29
HETATM   29  O1  UNL     1       1.433   0.741   3.981  1.00  0.00    -0.353 OA
HETATM   30  C1  UNL     1       1.597  -0.263   4.961  1.00  0.00     0.210 C 
ENDBRANCH   1  29
BRANCH   5  31
HETATM   31  C7  UNL     1       4.519   0.810  -0.720  1.00  0.00     0.084 C 
BRANCH  31  32
HETATM   32  C8  UNL     1       5.722  -0.110  -0.604  1.00  0.00     0.030 A 
HETATM   33  C9  UNL     1       6.969   0.444  -0.398  1.00  0.00     0.108 A 
HETATM   34  N1  UNL     1       8.045  -0.332  -0.286  1.00  0.00    -0.308 N 
HETATM   35  C15 UNL     1       7.899  -1.660  -0.378  1.00  0.00     0.329 A 
HETATM   36  O3  UNL     1       8.882  -2.459  -0.280  1.00  0.00    -0.246 OA
HETATM   37  N2  UNL     1       6.709  -2.247  -0.578  1.00  0.00    -0.275 N 
HETATM   38  C16 UNL     1       5.600  -1.476  -0.695  1.00  0.00     0.257 A 
ATOM     39  H2  UNL     1       6.640  -3.263  -0.641  1.00  0.00     0.173 HD
HETATM   40  O4  UNL     1       4.465  -2.010  -0.886  1.00  0.00    -0.267 OA
BRANCH  34  41
HETATM   41  C10 UNL     1       9.352   0.205  -0.075  1.00  0.00     0.144 C 
BRANCH  41  42
HETATM   42  C11 UNL     1      10.138   0.534  -1.291  1.00  0.00    -0.010 C 
HETATM   43  C12 UNL     1      11.488   1.085  -0.803  1.00  0.00     0.018 C 
HETATM   44  C13 UNL     1       9.503   1.707  -2.038  1.00  0.00     0.018 C 
BRANCH  42  45
HETATM   45  C14 UNL     1      10.447  -0.599  -2.207  1.00  0.00     0.174 C 
BRANCH  45  46
HETATM   46  O2  UNL     1      11.194  -0.048  -3.277  1.00  0.00    -0.400 OA
ATOM     47  H2  UNL     1      11.391  -0.771  -3.861  1.00  0.00     0.209 HD
ENDBRANCH  45  46
ENDBRANCH  42  45
ENDBRANCH  41  42
ENDBRANCH  34  41
ENDBRANCH  31  32
ENDBRANCH   5  31
TORSDOF 16
