REMARK  14 active torsions:
REMARK  status: ('A' for Active; 'I' for Inactive)
REMARK    1  A    between atoms: C2_2  and  C4_4 
REMARK    2  A    between atoms: C4_4  and  C5_5 
REMARK    3  A    between atoms: C5_5  and  C6_6 
REMARK    4  A    between atoms: C8_9  and  C9_10 
REMARK    5  A    between atoms: C8_9  and  C14_17 
REMARK    6  A    between atoms: C10_11  and  C11_12 
REMARK    7  A    between atoms: C11_12  and  O3_14 
REMARK    8  A    between atoms: O3_14  and  C12_15 
REMARK    9  A    between atoms: C14_17  and  C15_18 
REMARK   10  A    between atoms: C17_22  and  C18_23 
REMARK   11  A    between atoms: C17_22  and  O6_25 
REMARK   12  A    between atoms: O6_25  and  C20_26 
REMARK   13  A    between atoms: C20_26  and  C21_27 
REMARK       I    between atoms: C21_27  and  N1_29 
REMARK   14  A    between atoms: N1_29  and  C22_31 
ROOT
HETATM    1  C6  UNL     1      -1.175  -1.783   0.135  1.00  0.00     0.170 C 
HETATM    2  C7  UNL     1      -2.706  -1.614  -0.142  1.00  0.00     0.293 C 
HETATM    3  O1  UNL     1      -3.178  -0.413   0.265  1.00  0.00    -0.344 OA
HETATM    4  C8  UNL     1      -2.637   0.626  -0.401  1.00  0.00     0.094 C 
HETATM    5  C16 UNL     1      -1.206   0.590  -0.711  1.00  0.00     0.083 C 
HETATM    6  C17 UNL     1      -0.523  -0.792  -0.752  1.00  0.00     0.092 C 
HETATM    7  O8  UNL     1      -3.244  -2.649   0.681  1.00  0.00    -0.323 OA
HETATM    8  C28 UNL     1      -3.611  -2.132   1.914  1.00  0.00     0.177 C 
HETATM    9  C29 UNL     1      -3.659  -3.271   2.900  1.00  0.00     0.080 C 
HETATM   10  C30 UNL     1      -4.999  -1.530   1.918  1.00  0.00     0.080 C 
HETATM   11  O9  UNL     1      -2.746  -1.181   2.422  1.00  0.00    -0.236 OA
HETATM   12  S1  UNL     1      -1.166  -1.325   1.871  1.00  0.00     0.284 S 
HETATM   13  O10 UNL     1      -0.417  -2.299   2.729  1.00  0.00    -0.197 OA
HETATM   14  O11 UNL     1      -0.491  -0.011   2.079  1.00  0.00    -0.197 OA
ENDROOT
BRANCH   6  15
HETATM   15  C18 UNL     1      -0.347  -1.022  -2.193  1.00  0.00     0.036 C 
HETATM   16  C19 UNL     1       0.455  -2.097  -2.771  1.00  0.00     0.008 C 
ENDBRANCH   6  15
BRANCH   6  17
HETATM   17  O6  UNL     1       0.769  -0.666  -0.201  1.00  0.00    -0.369 OA
BRANCH  17  18
HETATM   18  C20 UNL     1       1.639   0.164  -0.763  1.00  0.00     0.271 C 
BRANCH  18  19
HETATM   19  C21 UNL     1       2.913   0.133   0.039  1.00  0.00     0.241 C 
HETATM   20  O7  UNL     1       2.992  -0.589   1.042  1.00  0.00    -0.271 OA
HETATM   21  N1  UNL     1       4.032   0.930  -0.350  1.00  0.00    -0.355 N 
ATOM     22  H1  UNL     1       3.969   1.522  -1.178  1.00  0.00     0.162 HD
BRANCH  21  23
HETATM   23  C22 UNL     1       5.255   0.903   0.422  1.00  0.00     0.084 C 
HETATM   24  C23 UNL     1       5.496   2.304   0.943  1.00  0.00     0.025 C 
HETATM   25  C24 UNL     1       5.896   3.197  -0.212  1.00  0.00     0.002 C 
HETATM   26  C25 UNL     1       7.244   2.684  -0.709  1.00  0.00     0.000 C 
HETATM   27  C26 UNL     1       6.990   1.345  -1.350  1.00  0.00     0.002 C 
HETATM   28  C27 UNL     1       6.395   0.361  -0.391  1.00  0.00     0.025 C 
ENDBRANCH  21  23
ENDBRANCH  18  19
ENDBRANCH  17  18
ENDBRANCH   6  17
BRANCH   1  29
HETATM   29  C5  UNL     1      -0.936  -3.222  -0.025  1.00  0.00     0.040 C 
BRANCH  29  30
HETATM   30  C4  UNL     1       0.414  -3.805   0.227  1.00  0.00     0.035 C 
BRANCH  30  31
HETATM   31  C2  UNL     1       0.338  -5.281  -0.054  1.00  0.00    -0.093 C 
HETATM   32  C1  UNL     1      -0.746  -5.942  -0.394  1.00  0.00     0.014 C 
HETATM   33  C3  UNL     1       1.618  -6.028   0.060  1.00  0.00     0.042 C 
ENDBRANCH  30  31
ENDBRANCH  29  30
ENDBRANCH   1  29
BRANCH   4  34
HETATM   34  C9  UNL     1      -2.954   1.930   0.367  1.00  0.00     0.018 C 
HETATM   35  C10 UNL     1      -2.535   3.049  -0.138  1.00  0.00     0.081 C 
BRANCH  35  36
HETATM   36  C11 UNL     1      -2.812   4.301   0.556  1.00  0.00     0.282 C 
HETATM   37  O2  UNL     1      -3.451   4.305   1.632  1.00  0.00    -0.260 OA
BRANCH  36  38
HETATM   38  O3  UNL     1      -2.381   5.524   0.055  1.00  0.00    -0.319 OA
BRANCH  38  39
HETATM   39  C12 UNL     1      -2.609   6.756   0.664  1.00  0.00     0.174 C 
HETATM   40  C13 UNL     1      -2.004   6.774   2.040  1.00  0.00     0.034 C 
ENDBRANCH  38  39
ENDBRANCH  36  38
ENDBRANCH  35  36
ENDBRANCH   4  34
BRANCH   4  41
HETATM   41  C14 UNL     1      -3.438   0.868  -1.681  1.00  0.00     0.155 C 
BRANCH  41  42
HETATM   42  C15 UNL     1      -4.845   1.210  -1.444  1.00  0.00     0.175 C 
HETATM   43  O4  UNL     1      -5.293   1.306  -0.290  1.00  0.00    -0.648 OA
HETATM   44  O5  UNL     1      -5.668   1.423  -2.517  1.00  0.00    -0.648 OA
ENDBRANCH  41  42
ENDBRANCH   4  41
TORSDOF 14
