REMARK  15 active torsions:
REMARK  status: ('A' for Active; 'I' for Inactive)
REMARK    1  A    between atoms: C2_2  and  C3_3 
REMARK    2  A    between atoms: C3_3  and  N1_4 
REMARK       I    between atoms: N2_7  and  C6_8 
REMARK    3  A    between atoms: C6_8  and  C7_10 
REMARK    4  A    between atoms: C7_10  and  C8_11 
REMARK    5  A    between atoms: C8_11  and  C9_12 
REMARK    6  A    between atoms: C9_12  and  C10_13 
REMARK       I    between atoms: N4_18  and  C14_19 
REMARK    7  A    between atoms: C14_19  and  O3_21 
REMARK    8  A    between atoms: O3_21  and  C15_22 
REMARK    9  A    between atoms: C15_22  and  C16_23 
REMARK   10  A    between atoms: C20_27  and  O4_28 
REMARK   11  A    between atoms: O4_28  and  C21_29 
REMARK   12  A    between atoms: C26_34  and  O5_35 
REMARK   13  A    between atoms: C30_39  and  C31_40 
REMARK   14  A    between atoms: C31_40  and  O6_41 
REMARK   15  A    between atoms: N5_43  and  O7_45 
ROOT
HETATM    1  C10 UNL     1       3.088   1.934  -2.412  1.00  0.00     0.125 C 
HETATM    2  C11 UNL     1       2.780   1.192  -3.625  1.00  0.00     0.059 C 
HETATM    3  N3  UNL     1       2.527   0.622  -4.598  1.00  0.00    -0.197 NA
ENDROOT
BRANCH   1   4
HETATM    4  C9  UNL     1       2.316   1.687  -1.225  1.00  0.00     0.028 C 
BRANCH   4   5
HETATM    5  C8  UNL     1       2.206   0.490  -0.412  1.00  0.00    -0.014 C 
HETATM    6  C12 UNL     1       1.528  -0.629  -1.224  1.00  0.00     0.033 C 
HETATM    7  C13 UNL     1       0.139  -0.300  -1.641  1.00  0.00     0.129 C 
HETATM    8  N4  UNL     1      -0.664  -0.056  -0.459  1.00  0.00    -0.328 N 
HETATM    9  C14 UNL     1      -2.047   0.231  -0.478  1.00  0.00     0.363 C 
HETATM   10  C28 UNL     1       0.053  -0.124   0.789  1.00  0.00     0.129 C 
HETATM   11  O2  UNL     1      -2.681   0.286  -1.595  1.00  0.00    -0.238 OA
HETATM   12  C29 UNL     1       1.176   0.847   0.705  1.00  0.00     0.033 C 
BRANCH   5  13
HETATM   13  C7  UNL     1       3.356  -0.084   0.303  1.00  0.00     0.057 C 
BRANCH  13  14
HETATM   14  C6  UNL     1       4.530  -0.595  -0.389  1.00  0.00     0.241 C 
HETATM   15  N2  UNL     1       5.710  -0.967   0.371  1.00  0.00    -0.333 N 
HETATM   16  C5  UNL     1       5.799  -0.872   1.803  1.00  0.00     0.157 C 
HETATM   17  C30 UNL     1       6.877  -1.464  -0.316  1.00  0.00     0.192 C 
HETATM   18  C4  UNL     1       7.041  -0.078   2.159  1.00  0.00     0.292 C 
HETATM   19  N1  UNL     1       8.212  -0.554   1.497  1.00  0.00     0.095 N 
HETATM   20  C32 UNL     1       7.996  -1.719   0.692  1.00  0.00     0.306 C 
HETATM   21  O1  UNL     1       4.658  -0.763  -1.615  1.00  0.00    -0.269 OA
BRANCH  19  22
HETATM   22  C3  UNL     1       9.318  -0.805   2.368  1.00  0.00     0.299 C 
BRANCH  22  23
HETATM   23  C2  UNL     1       9.845   0.474   2.932  1.00  0.00    -0.007 C 
HETATM   24  C1  UNL     1      11.082   0.856   2.726  1.00  0.00     0.008 C 
ENDBRANCH  22  23
ENDBRANCH  19  22
BRANCH  17  25
HETATM   25  C31 UNL     1       7.329  -0.647  -1.441  1.00  0.00     0.160 C 
HETATM   26  N5  UNL     1       7.447  -1.117  -2.634  1.00  0.00    -0.249 N 
ATOM     27  H5  UNL     1       7.217  -2.096  -2.802  1.00  0.00     0.196 HD
BRANCH  25  28
HETATM   28  O6  UNL     1       7.646   0.685  -1.231  1.00  0.00    -0.347 OA
ATOM     29  H6  UNL     1       7.940   1.216  -1.962  1.00  0.00     0.219 HD
ENDBRANCH  25  28
BRANCH  26  30
HETATM   30  O7  UNL     1       7.866  -0.356  -3.674  1.00  0.00    -0.288 OA
ATOM     31  H7  UNL     1       7.953  -0.703  -4.554  1.00  0.00     0.244 HD
ENDBRANCH  26  30
ENDBRANCH  17  25
ENDBRANCH  13  14
ENDBRANCH   5  13
BRANCH   9  32
HETATM   32  O3  UNL     1      -2.799   0.466   0.657  1.00  0.00    -0.299 OA
BRANCH  32  33
HETATM   33  C15 UNL     1      -4.145   0.738   0.737  1.00  0.00     0.222 C 
BRANCH  33  34
HETATM   34  C16 UNL     1      -5.038  -0.364   0.296  1.00  0.00     0.002 A 
HETATM   35  C17 UNL     1      -4.561  -1.603  -0.033  1.00  0.00     0.012 A 
HETATM   36  C18 UNL     1      -5.411  -2.632  -0.391  1.00  0.00     0.003 A 
HETATM   37  C19 UNL     1      -6.748  -2.451  -0.428  1.00  0.00     0.040 A 
HETATM   38  C20 UNL     1      -7.265  -1.176  -0.089  1.00  0.00     0.103 A 
HETATM   39  C26 UNL     1      -6.420  -0.170   0.259  1.00  0.00     0.110 A 
BRANCH  38  40
HETATM   40  O4  UNL     1      -8.622  -1.119  -0.157  1.00  0.00    -0.343 OA
BRANCH  40  41
HETATM   41  C21 UNL     1      -9.545  -0.189   0.145  1.00  0.00     0.129 C 
HETATM   42  C22 UNL     1     -10.767  -0.788   0.893  1.00  0.00     0.032 C 
HETATM   43  C23 UNL     1     -11.668   0.435   0.914  1.00  0.00     0.002 C 
HETATM   44  C24 UNL     1     -11.404   1.133  -0.425  1.00  0.00     0.002 C 
HETATM   45  C25 UNL     1     -10.313   0.329  -1.098  1.00  0.00     0.032 C 
ENDBRANCH  40  41
ENDBRANCH  38  40
BRANCH  39  46
HETATM   46  O5  UNL     1      -6.860   1.108   0.597  1.00  0.00    -0.352 OA
HETATM   47  C27 UNL     1      -6.927   2.128  -0.434  1.00  0.00     0.210 C 
ENDBRANCH  39  46
ENDBRANCH  33  34
ENDBRANCH  32  33
ENDBRANCH   9  32
ENDBRANCH   4   5
ENDBRANCH   1   4
TORSDOF 15
