REMARK  15 active torsions:
REMARK  status: ('A' for Active; 'I' for Inactive)
REMARK    1  A    between atoms: C3_3  and  S1_4 
REMARK    2  A    between atoms: S1_4  and  C4_5 
REMARK    3  A    between atoms: C4_5  and  C5_6 
REMARK    4  A    between atoms: C5_6  and  C6_7 
REMARK    5  A    between atoms: C5_6  and  N5_20 
REMARK    6  A    between atoms: C6_7  and  N1_8 
REMARK       I    between atoms: N1_8  and  C7_10 
REMARK    7  A    between atoms: C7_10  and  C8_12 
REMARK    8  A    between atoms: C8_12  and  N2_13 
REMARK    9  A    between atoms: N2_13  and  N3_15 
REMARK   10  A    between atoms: N5_20  and  C9_22 
REMARK   11  A    between atoms: C9_22  and  C10_23 
REMARK   12  A    between atoms: C10_23  and  C11_24 
REMARK   13  A    between atoms: C11_24  and  N6_25 
REMARK   14  A    between atoms: N6_25  and  C12_27 
REMARK   15  A    between atoms: C15_32  and  N8_33 
ROOT
HETATM    1  C1  UNL     1      -4.367   3.431   0.565  1.00  0.00     0.098 C 
HETATM    2  C2  UNL     1      -3.216   3.385   0.163  1.00  0.00    -0.177 C 
HETATM    3  C3  UNL     1      -1.827   3.337  -0.297  1.00  0.00     0.153 C 
ENDROOT
BRANCH   3   4
HETATM    4  S1  UNL     1      -1.567   1.865  -1.322  1.00  0.00    -0.156 SA
BRANCH   4   5
HETATM    5  C4  UNL     1      -1.749   0.398  -0.306  1.00  0.00     0.101 C 
BRANCH   5   6
HETATM    6  C5  UNL     1      -1.551  -0.888  -1.077  1.00  0.00     0.103 C 
BRANCH   6   7
HETATM    7  C6  UNL     1      -1.727  -2.022  -0.142  1.00  0.00     0.148 C 
BRANCH   7   8
HETATM    8  N1  UNL     1      -3.042  -2.016   0.436  1.00  0.00    -0.358 N 
HETATM    9  C7  UNL     1      -4.223  -2.161  -0.322  1.00  0.00     0.236 C 
HETATM   10  O1  UNL     1      -4.191  -2.320  -1.592  1.00  0.00    -0.272 OA
ATOM     11  H1  UNL     1      -3.126  -1.901   1.446  1.00  0.00     0.162 HD
BRANCH   9  12
HETATM   12  C8  UNL     1      -5.596  -2.148   0.254  1.00  0.00     0.243 C 
BRANCH  12  13
HETATM   13  N2  UNL     1      -5.668  -1.952   1.661  1.00  0.00    -0.314 N 
ATOM     14  H2  UNL     1      -6.026  -2.694   2.262  1.00  0.00     0.182 HD
BRANCH  13  15
HETATM   15  N3  UNL     1      -5.249  -0.747   2.217  1.00  0.00    -0.253 N 
HETATM   16  N4  UNL     1      -5.119  -0.651   3.465  1.00  0.00    -0.331 N 
ATOM     17  H42 UNL     1      -5.323  -1.460   4.051  1.00  0.00     0.178 HD
ATOM     18  H41 UNL     1      -4.812   0.232   3.873  1.00  0.00     0.178 HD
ATOM     19  H3  UNL     1      -5.049   0.053   1.617  1.00  0.00     0.207 HD
ENDBRANCH  13  15
ENDBRANCH  12  13
ENDBRANCH   9  12
ENDBRANCH   7   8
ENDBRANCH   6   7
BRANCH   6  20
HETATM   20  N5  UNL     1      -0.282  -0.907  -1.775  1.00  0.00    -0.415 N 
ATOM     21  H5  UNL     1      -0.215  -0.955  -2.792  1.00  0.00     0.153 HD
BRANCH  20  22
HETATM   22  C9  UNL     1       0.867  -0.853  -0.932  1.00  0.00     0.115 C 
BRANCH  22  23
HETATM   23  C10 UNL     1       2.085  -0.889  -1.850  1.00  0.00     0.039 C 
BRANCH  23  24
HETATM   24  C11 UNL     1       3.367  -0.841  -1.048  1.00  0.00     0.123 C 
BRANCH  24  25
HETATM   25  N6  UNL     1       3.393   0.367  -0.284  1.00  0.00    -0.376 N 
ATOM     26  H6  UNL     1       2.558   0.951  -0.234  1.00  0.00     0.161 HD
BRANCH  25  27
HETATM   27  C12 UNL     1       4.453   0.722   0.337  1.00  0.00     0.118 A 
HETATM   28  C13 UNL     1       5.572  -0.063   0.268  1.00  0.00     0.066 A 
HETATM   29  C14 UNL     1       6.705   0.357   0.958  1.00  0.00     0.110 A 
HETATM   30  N7  UNL     1       6.622   1.506   1.646  1.00  0.00    -0.202 N 
HETATM   31  C15 UNL     1       5.528   2.266   1.708  1.00  0.00     0.677 A 
ATOM     32  H7  UNL     1       7.449   1.818   2.154  1.00  0.00     0.183 HD
HETATM   33  N9  UNL     1       4.417   1.862   1.036  1.00  0.00    -0.177 N 
ATOM     34  H9  UNL     1       3.565   2.422   1.065  1.00  0.00     0.185 HD
BRANCH  31  35
HETATM   35  N8  UNL     1       5.530   3.352   2.388  1.00  0.00    -0.234 N 
ATOM     36  H82 UNL     1       6.363   3.655   2.892  1.00  0.00     0.174 HD
ATOM     37  H81 UNL     1       4.693   3.933   2.435  1.00  0.00     0.174 HD
ENDBRANCH  31  35
ENDBRANCH  25  27
ENDBRANCH  24  25
ENDBRANCH  23  24
ENDBRANCH  22  23
ENDBRANCH  20  22
ENDBRANCH   6  20
ENDBRANCH   5   6
ENDBRANCH   4   5
ENDBRANCH   3   4
TORSDOF 15
