REMARK  14 active torsions:
REMARK  status: ('A' for Active; 'I' for Inactive)
REMARK    1  A    between atoms: N3_4  and  C2_6 
REMARK    2  A    between atoms: C2_6  and  C3_7 
REMARK    3  A    between atoms: C3_7  and  C4_8 
REMARK    4  A    between atoms: C4_8  and  N4_9 
REMARK    5  A    between atoms: N4_9  and  C5_10 
REMARK    6  A    between atoms: C5_10  and  C6_12 
REMARK    7  A    between atoms: C6_12  and  O1_13 
REMARK    8  A    between atoms: C6_12  and  C7_15 
REMARK    9  A    between atoms: C7_15  and  C8_16 
REMARK       I    between atoms: C8_16  and  N6_18 
REMARK   10  A    between atoms: N6_18  and  C9_19 
REMARK   11  A    between atoms: N6_18  and  C13_27 
REMARK   12  A    between atoms: C10_20  and  C11_21 
REMARK   13  A    between atoms: C11_21  and  N7_22 
REMARK   14  A    between atoms: C13_27  and  C14_28 
ROOT
HETATM    1  C7  UNL     1       0.123  -0.061   0.501  1.00  0.00     0.144 C 
ENDROOT
BRANCH   1   2
HETATM    2  C6  UNL     1       1.493  -0.624   0.552  1.00  0.00     0.206 C 
BRANCH   2   3
HETATM    3  C5  UNL     1       2.620   0.311   0.316  1.00  0.00     0.193 C 
HETATM    4  N5  UNL     1       3.023   0.664  -1.001  1.00  0.00    -0.069 NA
BRANCH   3   5
HETATM    5  N4  UNL     1       3.216   0.789   1.249  1.00  0.00    -0.409 NA
BRANCH   5   6
HETATM    6  C4  UNL     1       4.002   1.426   2.115  1.00  0.00     0.158 C 
BRANCH   6   7
HETATM    7  C3  UNL     1       5.521   1.161   2.046  1.00  0.00     0.079 C 
BRANCH   7   8
HETATM    8  C2  UNL     1       5.830  -0.279   2.289  1.00  0.00     0.128 C 
BRANCH   8   9
HETATM    9  N3  UNL     1       5.244  -1.192   1.345  1.00  0.00    -0.367 N 
HETATM   10  C1  UNL     1       5.965  -1.674   0.405  1.00  0.00     0.196 C 
HETATM   11  N1  UNL     1       7.328  -1.301   0.309  1.00  0.00    -0.067 NA
HETATM   12  N2  UNL     1       5.437  -2.590  -0.568  1.00  0.00    -0.067 NA
ATOM     13  H3  UNL     1       4.261  -1.453   1.424  1.00  0.00     0.161 HD
ENDBRANCH   8   9
ENDBRANCH   7   8
ENDBRANCH   6   7
ENDBRANCH   5   6
ENDBRANCH   3   5
ENDBRANCH   2   3
BRANCH   2  14
HETATM   14  O1  UNL     1       1.588  -1.133   1.892  1.00  0.00    -0.387 OA
ATOM     15  H1  UNL     1       0.866  -1.732   2.043  1.00  0.00     0.210 HD
ENDBRANCH   2  14
ENDBRANCH   1   2
BRANCH   1  16
HETATM   16  C8  UNL     1      -0.367   0.538  -0.709  1.00  0.00     0.230 C 
HETATM   17  O2  UNL     1       0.280   0.587  -1.764  1.00  0.00    -0.273 OA
HETATM   18  N6  UNL     1      -1.699   1.131  -0.728  1.00  0.00    -0.307 N 
BRANCH  18  19
HETATM   19  C9  UNL     1      -2.468   1.136   0.480  1.00  0.00     0.096 C 
HETATM   20  C10 UNL     1      -3.369   0.110   0.955  1.00  0.00     0.010 C 
BRANCH  20  21
HETATM   21  C11 UNL     1      -4.620  -0.244   0.247  1.00  0.00     0.150 C 
BRANCH  21  22
HETATM   22  N7  UNL     1      -5.362  -1.283   0.984  1.00  0.00    -0.363 N 
HETATM   23  C12 UNL     1      -6.609  -1.388   0.741  1.00  0.00     0.197 C 
HETATM   24  N8  UNL     1      -7.256  -0.554  -0.185  1.00  0.00    -0.067 NA
HETATM   25  N9  UNL     1      -7.353  -2.378   1.432  1.00  0.00    -0.067 NA
ATOM     26  H7  UNL     1      -4.898  -1.891   1.659  1.00  0.00     0.162 HD
ENDBRANCH  21  22
ENDBRANCH  20  21
ENDBRANCH  18  19
BRANCH  18  27
HETATM   27  C13 UNL     1      -2.173   1.868  -1.854  1.00  0.00     0.077 C 
BRANCH  27  28
HETATM   28  C14 UNL     1      -2.766   1.338  -3.061  1.00  0.00     0.025 A 
HETATM   29  C15 UNL     1      -2.060   0.452  -4.088  1.00  0.00     0.010 A 
HETATM   30  C16 UNL     1      -3.137  -0.092  -3.261  1.00  0.00     0.010 A 
ENDBRANCH  27  28
ENDBRANCH  18  27
ENDBRANCH   1  16
TORSDOF 14
