REMARK  13 active torsions:
REMARK  status: ('A' for Active; 'I' for Inactive)
REMARK    1  A    between atoms: N3_4  and  C2_6 
REMARK    2  A    between atoms: C2_6  and  C3_7 
REMARK    3  A    between atoms: C3_7  and  C4_8 
REMARK    4  A    between atoms: C4_8  and  N4_9 
REMARK    5  A    between atoms: C5_11  and  C6_13 
REMARK    6  A    between atoms: C6_13  and  N6_14 
REMARK    7  A    between atoms: N6_14  and  C7_16 
REMARK    8  A    between atoms: C7_16  and  C8_17 
REMARK    9  A    between atoms: C8_17  and  C9_18 
REMARK   10  A    between atoms: C9_18  and  N7_19 
REMARK       I    between atoms: N7_19  and  C10_21 
REMARK       I    between atoms: C10_21  and  N8_23 
REMARK   11  A    between atoms: N8_23  and  C11_25 
REMARK   12  A    between atoms: C11_25  and  C12_26 
REMARK   13  A    between atoms: C12_26  and  N9_27 
ROOT
HETATM    1  C8  UNL     1       0.933  -1.390  -1.821  1.00  0.00     0.039 C 
ENDROOT
BRANCH   1   2
HETATM    2  C7  UNL     1      -0.142  -0.488  -1.218  1.00  0.00     0.115 C 
BRANCH   2   3
HETATM    3  N6  UNL     1      -0.748  -1.165  -0.131  1.00  0.00    -0.415 N 
ATOM      4  H6  UNL     1      -0.485  -2.123   0.102  1.00  0.00     0.153 HD
BRANCH   3   5
HETATM    5  C6  UNL     1      -1.734  -0.472   0.627  1.00  0.00     0.186 C 
BRANCH   5   6
HETATM    6  C5  UNL     1      -2.982  -0.232  -0.119  1.00  0.00     0.106 C 
HETATM    7  N4  UNL     1      -4.058  -0.859   0.274  1.00  0.00    -0.381 N 
ATOM      8  H4  UNL     1      -4.026  -1.495   1.071  1.00  0.00     0.160 HD
HETATM    9  N5  UNL     1      -3.083   0.638  -1.231  1.00  0.00    -0.086 NA
BRANCH   7  10
HETATM   10  C4  UNL     1      -5.282  -0.638  -0.433  1.00  0.00     0.122 C 
BRANCH  10  11
HETATM   11  C3  UNL     1      -5.877   0.652   0.131  1.00  0.00     0.039 C 
BRANCH  11  12
HETATM   12  C2  UNL     1      -7.176   0.911  -0.602  1.00  0.00     0.123 C 
BRANCH  12  13
HETATM   13  N3  UNL     1      -8.056  -0.214  -0.369  1.00  0.00    -0.367 N 
HETATM   14  C1  UNL     1      -8.950  -0.151   0.537  1.00  0.00     0.196 C 
HETATM   15  N1  UNL     1      -9.088   1.013   1.319  1.00  0.00    -0.067 NA
HETATM   16  N2  UNL     1      -9.808  -1.250   0.761  1.00  0.00    -0.067 NA
ATOM     17  H3  UNL     1      -7.960  -1.060  -0.931  1.00  0.00     0.161 HD
ENDBRANCH  12  13
ENDBRANCH  11  12
ENDBRANCH  10  11
ENDBRANCH   7  10
ENDBRANCH   5   6
ENDBRANCH   3   5
ENDBRANCH   2   3
ENDBRANCH   1   2
BRANCH   1  18
HETATM   18  C9  UNL     1       1.983  -1.721  -0.778  1.00  0.00     0.126 C 
BRANCH  18  19
HETATM   19  N7  UNL     1       2.630  -0.547  -0.271  1.00  0.00    -0.343 N 
HETATM   20  C10 UNL     1       3.645  -0.565   0.715  1.00  0.00     0.316 C 
HETATM   21  O1  UNL     1       4.004  -1.674   1.177  1.00  0.00    -0.247 OA
HETATM   22  N8  UNL     1       4.270   0.600   1.204  1.00  0.00    -0.342 N 
ATOM     23  H8  UNL     1       3.966   1.494   0.817  1.00  0.00     0.164 HD
ATOM     24  H7  UNL     1       2.341   0.357  -0.644  1.00  0.00     0.164 HD
BRANCH  22  25
HETATM   25  C11 UNL     1       5.298   0.628   2.201  1.00  0.00     0.144 C 
BRANCH  25  26
HETATM   26  C12 UNL     1       6.539  -0.080   1.857  1.00  0.00     0.154 C 
BRANCH  26  27
HETATM   27  N9  UNL     1       7.286   0.329   0.732  1.00  0.00    -0.287 N 
HETATM   28  C13 UNL     1       8.329   1.328   0.682  1.00  0.00     0.226 C 
HETATM   29  O2  UNL     1       8.619   1.999   1.696  1.00  0.00    -0.273 OA
HETATM   30  C14 UNL     1       8.873   1.332  -0.699  1.00  0.00     0.112 C 
HETATM   31  C15 UNL     1       7.643   0.895  -1.491  1.00  0.00     0.112 C 
HETATM   32  C16 UNL     1       7.149  -0.203  -0.577  1.00  0.00     0.226 C 
HETATM   33  O3  UNL     1       6.729  -1.314  -0.974  1.00  0.00    -0.273 OA
ENDBRANCH  26  27
ENDBRANCH  25  26
ENDBRANCH  22  25
ENDBRANCH  18  19
ENDBRANCH   1  18
TORSDOF 13
