REMARK  12 active torsions:
REMARK  status: ('A' for Active; 'I' for Inactive)
REMARK    1  A    between atoms: N3_4  and  C2_6 
REMARK    2  A    between atoms: C2_6  and  C3_7 
REMARK    3  A    between atoms: C3_7  and  C4_8 
REMARK    4  A    between atoms: C4_8  and  N4_9 
REMARK       I    between atoms: N4_9  and  C5_11 
REMARK       I    between atoms: C5_11  and  N5_13 
REMARK    5  A    between atoms: N5_13  and  C6_15 
REMARK    6  A    between atoms: C6_15  and  C7_16 
REMARK    7  A    between atoms: C7_16  and  C8_17 
REMARK    8  A    between atoms: C8_17  and  N6_18 
REMARK    9  A    between atoms: C10_23  and  C11_24 
REMARK   10  A    between atoms: C11_24  and  C12_25 
REMARK   11  A    between atoms: C12_25  and  C13_26 
REMARK   12  A    between atoms: C13_26  and  N8_27 
ROOT
HETATM    1  C8  UNL     1      -1.317   2.162   0.209  1.00  0.00     0.129 C 
ENDROOT
BRANCH   1   2
HETATM    2  C7  UNL     1      -0.404   0.973  -0.005  1.00  0.00     0.040 C 
BRANCH   2   3
HETATM    3  C6  UNL     1       1.044   1.403  -0.026  1.00  0.00     0.126 C 
BRANCH   3   4
HETATM    4  N5  UNL     1       1.873   0.251  -0.231  1.00  0.00    -0.343 N 
HETATM    5  C5  UNL     1       3.304   0.391  -0.290  1.00  0.00     0.316 C 
HETATM    6  N4  UNL     1       4.121  -0.758  -0.494  1.00  0.00    -0.343 N 
HETATM    7  O1  UNL     1       3.746   1.553  -0.154  1.00  0.00    -0.247 OA
ATOM      8  H4  UNL     1       3.685  -1.673  -0.606  1.00  0.00     0.164 HD
ATOM      9  H5  UNL     1       1.447  -0.670  -0.335  1.00  0.00     0.164 HD
BRANCH   6  10
HETATM   10  C4  UNL     1       5.546  -0.644  -0.544  1.00  0.00     0.126 C 
BRANCH  10  11
HETATM   11  C3  UNL     1       6.092  -0.134   0.748  1.00  0.00     0.039 C 
BRANCH  11  12
HETATM   12  C2  UNL     1       7.613  -0.056   0.609  1.00  0.00     0.123 C 
BRANCH  12  13
HETATM   13  N3  UNL     1       8.175  -1.348   0.324  1.00  0.00    -0.367 N 
HETATM   14  C1  UNL     1       9.295  -1.509  -0.304  1.00  0.00     0.196 C 
HETATM   15  N1  UNL     1       9.842  -2.782  -0.580  1.00  0.00    -0.067 NA
HETATM   16  N2  UNL     1      10.011  -0.349  -0.737  1.00  0.00    -0.067 NA
ATOM     17  H3  UNL     1       7.667  -2.177   0.631  1.00  0.00     0.161 HD
ENDBRANCH  12  13
ENDBRANCH  11  12
ENDBRANCH  10  11
ENDBRANCH   6  10
ENDBRANCH   3   4
ENDBRANCH   2   3
ENDBRANCH   1   2
BRANCH   1  18
HETATM   18  N6  UNL     1      -2.699   1.805   0.235  1.00  0.00    -0.327 N 
HETATM   19  C9  UNL     1      -3.581   1.758  -0.940  1.00  0.00     0.360 C 
HETATM   20  N7  UNL     1      -4.819   1.174  -0.458  1.00  0.00    -0.046 N 
HETATM   21  C10 UNL     1      -4.913   1.629   0.881  1.00  0.00     0.279 C 
ATOM     22  H72 UNL     1      -5.635   1.387  -1.032  1.00  0.00     0.280 HD
ATOM     23  H71 UNL     1      -4.873   0.161  -0.562  1.00  0.00     0.280 HD
HETATM   24  C15 UNL     1      -3.495   1.432   1.354  1.00  0.00     0.252 C 
HETATM   25  O2  UNL     1      -3.069   1.040   2.452  1.00  0.00    -0.271 OA
BRANCH  21  26
HETATM   26  C11 UNL     1      -5.899   0.984   1.767  1.00  0.00     0.044 C 
BRANCH  26  27
HETATM   27  C12 UNL     1      -5.768  -0.469   2.016  1.00  0.00     0.022 C 
BRANCH  27  28
HETATM   28  C13 UNL     1      -5.856  -1.345   0.813  1.00  0.00     0.122 C 
BRANCH  28  29
HETATM   29  N8  UNL     1      -7.110  -1.207   0.109  1.00  0.00    -0.367 N 
HETATM   30  C14 UNL     1      -7.364  -1.719  -1.023  1.00  0.00     0.196 C 
HETATM   31  N9  UNL     1      -6.481  -2.503  -1.785  1.00  0.00    -0.067 NA
HETATM   32  N10 UNL     1      -8.667  -1.479  -1.576  1.00  0.00    -0.067 NA
ATOM     33  H8  UNL     1      -7.845  -0.658   0.555  1.00  0.00     0.161 HD
ENDBRANCH  28  29
ENDBRANCH  27  28
ENDBRANCH  26  27
ENDBRANCH  21  26
ENDBRANCH   1  18
TORSDOF 12
