REMARK  4 active torsions:
REMARK  status: ('A' for Active; 'I' for Inactive)
REMARK    1  A    between atoms: C1_2  and  C2_4 
REMARK    2  A    between atoms: C2_4  and  O3_5 
REMARK    3  A    between atoms: C2_4  and  C3_7 
REMARK    4  A    between atoms: C3_7  and  N1_8 
ROOT
HETATM    1  N1  UNL     1       1.274   0.269  -0.701  1.00  0.00    -0.304 N 
HETATM    2  C4  UNL     1       0.790  -0.331  -1.802  1.00  0.00     0.223 A 
HETATM    3  S1  UNL     1       1.750  -0.683  -3.074  1.00  0.00    -0.032 SA
HETATM    4  O4  UNL     1      -0.485  -0.669  -1.920  1.00  0.00    -0.280 OA
HETATM    5  C5  UNL     1      -1.336  -0.440  -0.978  1.00  0.00     0.157 A 
HETATM    6  C6  UNL     1      -0.892   0.179   0.187  1.00  0.00     0.103 A 
HETATM    7  C7  UNL     1       0.429   0.530   0.310  1.00  0.00     0.135 A 
HETATM    8  S2  UNL     1       0.881   1.255   1.701  1.00  0.00    -0.058 SA
HETATM    9  N2  UNL     1      -1.644   0.531   1.357  1.00  0.00    -0.385 N 
ATOM     10  H2  UNL     1      -1.252   1.222   1.996  1.00  0.00     0.159 HD
HETATM   11  C8  UNL     1      -2.937  -0.049   1.676  1.00  0.00     0.120 C 
HETATM   12  C9  UNL     1      -3.980   0.296   0.687  1.00  0.00     0.026 C 
HETATM   13  C10 UNL     1      -3.738   0.135  -0.733  1.00  0.00     0.088 C 
HETATM   14  C11 UNL     1      -2.742  -0.861  -1.214  1.00  0.00     0.294 C 
HETATM   15  F1  UNL     1      -2.977  -2.138  -0.743  1.00  0.00    -0.199 F 
HETATM   16  F2  UNL     1      -2.881  -0.944  -2.598  1.00  0.00    -0.199 F 
ENDROOT
BRANCH   1  17
HETATM   17  C3  UNL     1       2.651   0.633  -0.582  1.00  0.00     0.175 C 
BRANCH  17  18
HETATM   18  C2  UNL     1       3.534  -0.442   0.008  1.00  0.00     0.237 C 
BRANCH  18  19
HETATM   19  C1  UNL     1       4.906   0.104   0.055  1.00  0.00     0.204 C 
HETATM   20  O1  UNL     1       5.478   0.558  -0.957  1.00  0.00    -0.646 OA
HETATM   21  O2  UNL     1       5.579   0.113   1.258  1.00  0.00    -0.646 OA
ENDBRANCH  18  19
BRANCH  18  22
HETATM   22  O3  UNL     1       3.134  -0.877   1.252  1.00  0.00    -0.383 OA
ATOM     23  H3  UNL     1       2.252  -1.228   1.222  1.00  0.00     0.210 HD
ENDBRANCH  18  22
ENDBRANCH  17  18
ENDBRANCH   1  17
TORSDOF 4
