REMARK  3 active torsions:
REMARK  status: ('A' for Active; 'I' for Inactive)
REMARK    1  A    between atoms: N1_1  and  C1_4 
REMARK       I    between atoms: N3_7  and  C2_8 
REMARK       I    between atoms: C2_8  and  N4_10 
REMARK    2  A    between atoms: N7_17  and  N8_18 
REMARK    3  A    between atoms: C6_20  and  C7_21 
ROOT
HETATM    1  C1  UNL     1       0.710   1.448   0.547  1.00  0.00     0.716 A 
HETATM    2  N2  UNL     1      -0.636   1.220   0.451  1.00  0.00    -0.116 N 
ATOM      3  H2  UNL     1      -1.374   1.842   0.781  1.00  0.00     0.206 HD
HETATM    4  N3  UNL     1      -0.812   0.055  -0.144  1.00  0.00    -0.135 N 
HETATM    5  C2  UNL     1      -2.030  -0.613  -0.469  1.00  0.00     0.365 C 
HETATM    6  O1  UNL     1      -1.894  -1.751  -1.054  1.00  0.00    -0.243 OA
HETATM    7  N4  UNL     1      -3.323  -0.124  -0.198  1.00  0.00    -0.227 N 
HETATM    8  C3  UNL     1      -4.548  -0.817  -0.535  1.00  0.00     0.169 C 
HETATM    9  C4  UNL     1      -5.430   0.372  -0.919  1.00  0.00     0.153 C 
HETATM   10  N5  UNL     1      -4.982   1.366   0.029  1.00  0.00    -0.124 NA
HETATM   11  N6  UNL     1      -3.700   1.052   0.411  1.00  0.00    -0.025 NA
HETATM   12  C5  UNL     1       0.426  -0.439  -0.417  1.00  0.00     0.386 A 
HETATM   13  O2  UNL     1       0.721  -1.544  -0.988  1.00  0.00    -0.242 OA
HETATM   14  N7  UNL     1       1.371   0.413   0.006  1.00  0.00    -0.029 N 
ENDROOT
BRANCH  14  15
HETATM   15  N8  UNL     1       2.762   0.268  -0.090  1.00  0.00    -0.284 N 
HETATM   16  C6  UNL     1       3.370  -0.784   0.334  1.00  0.00     0.146 C 
ATOM     17  H8  UNL     1       3.309   1.020  -0.509  1.00  0.00     0.187 HD
BRANCH  16  18
HETATM   18  C7  UNL     1       4.848  -0.923   0.224  1.00  0.00     0.101 A 
HETATM   19  C8  UNL     1       5.468  -2.062   0.687  1.00  0.00     0.091 A 
HETATM   20  S1  UNL     1       7.104  -1.700   0.324  1.00  0.00    -0.062 SA
HETATM   21  C9  UNL     1       6.847  -0.161  -0.369  1.00  0.00     0.184 A 
HETATM   22  S2  UNL     1       7.939   0.915  -1.004  1.00  0.00    -0.044 SA
HETATM   23  O3  UNL     1       5.574  -0.029  -0.281  1.00  0.00    -0.290 OA
ENDBRANCH  16  18
ENDBRANCH  14  15
BRANCH   1  24
HETATM   24  N1  UNL     1       1.229   2.504   1.081  1.00  0.00    -0.231 N 
ATOM     25  H12 UNL     1       0.727   3.291   1.492  1.00  0.00     0.174 HD
ATOM     26  H11 UNL     1       2.232   2.674   1.153  1.00  0.00     0.174 HD
ENDBRANCH   1  24
TORSDOF 3
