REMARK  9 active torsions:
REMARK  status: ('A' for Active; 'I' for Inactive)
REMARK    1  A    between atoms: C2_2  and  O1_3 
REMARK    2  A    between atoms: C2_2  and  O2_5 
REMARK    3  A    between atoms: O2_5  and  N1_6 
REMARK       I    between atoms: N1_6  and  C3_8 
REMARK       I    between atoms: C3_8  and  N3_12 
REMARK    4  A    between atoms: N3_12  and  N5_15 
REMARK       I    between atoms: N5_15  and  C5_16 
REMARK    5  A    between atoms: C5_16  and  C6_18 
REMARK    6  A    between atoms: C7_20  and  N6_21 
REMARK    7  A    between atoms: N6_21  and  N7_23 
REMARK    8  A    between atoms: N7_23  and  O4_24 
REMARK    9  A    between atoms: C8_26  and  C9_27 
ROOT
HETATM    1  N1  UNL     1       3.901  -0.396   1.557  1.00  0.00    -0.091 N 
ATOM      2  H1  UNL     1       4.007  -0.369   2.571  1.00  0.00     0.213 HD
HETATM    3  C3  UNL     1       3.121  -1.444   0.945  1.00  0.00     0.737 C 
HETATM    4  N2  UNL     1       2.987  -2.569   1.444  1.00  0.00    -0.230 N 
ATOM      5  H21 UNL     1       2.436  -3.310   1.011  1.00  0.00     0.174 HD
ATOM      6  H22 UNL     1       3.414  -2.890   2.313  1.00  0.00     0.174 HD
HETATM    7  N3  UNL     1       2.507  -0.982  -0.305  1.00  0.00     0.058 N 
HETATM    8  C4  UNL     1       3.071  -1.319  -1.548  1.00  0.00     0.234 C 
HETATM    9  N4  UNL     1       3.562  -1.603  -2.596  1.00  0.00    -0.169 NA
ENDROOT
BRANCH   7  10
HETATM   10  N5  UNL     1       1.499  -0.201  -0.254  1.00  0.00    -0.249 NA
HETATM   11  C5  UNL     1       0.407   0.656  -0.197  1.00  0.00     0.356 C 
HETATM   12  O3  UNL     1       0.464   1.887  -0.135  1.00  0.00    -0.248 OA
BRANCH  11  13
HETATM   13  C6  UNL     1      -1.030   0.148  -0.175  1.00  0.00     0.116 A 
HETATM   14  S1  UNL     1      -1.585  -1.403   0.030  1.00  0.00    -0.062 SA
HETATM   15  C7  UNL     1      -3.227  -1.117   0.211  1.00  0.00     0.104 A 
HETATM   16  C8  UNL     1      -3.313   0.266   0.105  1.00  0.00     0.070 A 
HETATM   17  C11 UNL     1      -2.128   0.929  -0.105  1.00  0.00     0.087 A 
HETATM   18  N8  UNL     1      -1.954   2.389  -0.254  1.00  0.00    -0.100 NA
BRANCH  15  19
HETATM   19  N6  UNL     1      -4.399  -1.945   0.456  1.00  0.00    -0.271 N 
ATOM     20  H6  UNL     1      -4.809  -1.982   1.389  1.00  0.00     0.185 HD
BRANCH  19  21
HETATM   21  N7  UNL     1      -4.959  -2.683  -0.576  1.00  0.00     0.019 NA
BRANCH  21  22
HETATM   22  O4  UNL     1      -4.718  -4.018  -0.362  1.00  0.00    -0.277 OA
ATOM     23  H4  UNL     1      -5.102  -4.524  -1.069  1.00  0.00     0.240 HD
ENDBRANCH  21  22
ENDBRANCH  19  21
ENDBRANCH  15  19
BRANCH  16  24
HETATM   24  C9  UNL     1      -4.626   0.995   0.295  1.00  0.00     0.160 C 
HETATM   25  C10 UNL     1      -4.673   2.468   0.095  1.00  0.00     0.097 C 
HETATM   26  O5  UNL     1      -5.626   0.357   0.597  1.00  0.00    -0.293 OA
ENDBRANCH  16  24
ENDBRANCH  11  13
ENDBRANCH   7  10
BRANCH   1  27
HETATM   27  O2  UNL     1       4.501   0.565   0.783  1.00  0.00    -0.234 OA
BRANCH  27  28
HETATM   28  C2  UNL     1       5.602   0.575   0.110  1.00  0.00     0.282 C 
HETATM   29  C1  UNL     1       6.508   1.269  -0.749  1.00  0.00     0.073 C 
BRANCH  28  30
HETATM   30  O1  UNL     1       6.206  -0.721   0.302  1.00  0.00    -0.369 OA
ATOM     31  H1  UNL     1       5.603  -1.183   0.873  1.00  0.00     0.212 HD
ENDBRANCH  28  30
ENDBRANCH  27  28
ENDBRANCH   1  27
TORSDOF 9
