REMARK  6 active torsions:
REMARK  status: ('A' for Active; 'I' for Inactive)
REMARK    1  A    between atoms: C4_5  and  N2_6 
REMARK    2  A    between atoms: N2_6  and  N3_8 
REMARK    3  A    between atoms: C7_15  and  N6_16 
REMARK    4  A    between atoms: C8_19  and  N7_20 
REMARK    5  A    between atoms: N7_20  and  O3_22 
REMARK    6  A    between atoms: C10_28  and  N9_29 
ROOT
HETATM    1  N3  UNL     1       0.071  -1.134   0.487  1.00  0.00    -0.280 N 
ATOM      2  H3  UNL     1       0.214  -1.685  -0.359  1.00  0.00     0.188 HD
HETATM    3  C5  UNL     1      -1.077  -0.709   0.528  1.00  0.00     0.191 C 
HETATM    4  N4  UNL     1      -1.865  -1.070  -0.551  1.00  0.00    -0.323 N 
ATOM      5  H4  UNL     1      -1.427  -1.675  -1.246  1.00  0.00     0.169 HD
HETATM    6  C6  UNL     1      -3.145  -0.715  -0.792  1.00  0.00     0.155 C 
HETATM    7  N5  UNL     1      -3.935  -1.595  -1.558  1.00  0.00    -0.080 NA
HETATM    8  C7  UNL     1      -3.774   0.429  -0.360  1.00  0.00     0.189 C 
HETATM    9  C8  UNL     1      -3.370   1.283   0.685  1.00  0.00     0.165 C 
HETATM   10  N8  UNL     1      -2.372   1.096   1.579  1.00  0.00    -0.303 N 
ATOM     11  H8  UNL     1      -2.277   1.797   2.314  1.00  0.00     0.171 HD
HETATM   12  C9  UNL     1      -1.473   0.056   1.596  1.00  0.00     0.292 C 
HETATM   13  O4  UNL     1      -0.949  -0.240   2.691  1.00  0.00    -0.264 OA
ENDROOT
BRANCH   1  14
HETATM   14  N2  UNL     1       1.219  -1.096   1.228  1.00  0.00    -0.297 N 
ATOM     15  H2  UNL     1       1.238  -1.225   2.240  1.00  0.00     0.187 HD
BRANCH  14  16
HETATM   16  C4  UNL     1       2.410  -0.854   0.432  1.00  0.00     0.081 A 
HETATM   17  C3  UNL     1       2.616  -1.588  -0.725  1.00  0.00     0.035 A 
HETATM   18  C2  UNL     1       3.687  -1.371  -1.556  1.00  0.00     0.029 A 
HETATM   19  C1  UNL     1       4.608  -0.377  -1.234  1.00  0.00     0.048 A 
HETATM   20  N1  UNL     1       5.699  -0.148  -2.114  1.00  0.00    -0.102 NA
HETATM   21  C11 UNL     1       4.398   0.343  -0.088  1.00  0.00     0.065 A 
HETATM   22  C10 UNL     1       3.303   0.120   0.763  1.00  0.00     0.132 A 
BRANCH  22  23
HETATM   23  N9  UNL     1       3.183   0.912   1.925  1.00  0.00    -0.113 N 
HETATM   24  O5  UNL     1       2.072   1.188   2.375  1.00  0.00    -0.532 OA
HETATM   25  O6  UNL     1       4.304   1.383   2.549  1.00  0.00    -0.532 OA
ENDBRANCH  22  23
ENDBRANCH  14  16
ENDBRANCH   1  14
BRANCH   8  26
HETATM   26  N6  UNL     1      -4.953   0.761  -1.065  1.00  0.00    -0.108 N 
HETATM   27  O1  UNL     1      -4.853   1.211  -2.218  1.00  0.00    -0.532 OA
HETATM   28  O2  UNL     1      -6.196   0.603  -0.526  1.00  0.00    -0.532 OA
ENDBRANCH   8  26
BRANCH   9  29
HETATM   29  N7  UNL     1      -4.022   2.366   0.805  1.00  0.00    -0.251 N 
ATOM     30  H7  UNL     1      -4.787   2.567   0.161  1.00  0.00     0.196 HD
BRANCH  29  31
HETATM   31  O3  UNL     1      -3.715   3.257   1.777  1.00  0.00    -0.288 OA
ATOM     32  H3  UNL     1      -4.203   4.067   1.867  1.00  0.00     0.244 HD
ENDBRANCH  29  31
ENDBRANCH   9  29
TORSDOF 6
