REMARK  9 active torsions:
REMARK  status: ('A' for Active; 'I' for Inactive)
REMARK    1  A    between atoms: N1_2  and  N2_4 
REMARK    2  A    between atoms: N2_4  and  C4_7 
REMARK    3  A    between atoms: C5_10  and  N5_11 
REMARK    4  A    between atoms: C6_14  and  N6_15 
REMARK    5  A    between atoms: C7_19  and  C8_20 
REMARK    6  A    between atoms: C8_20  and  N10_22 
REMARK    7  A    between atoms: N10_22  and  O1_24 
REMARK    8  A    between atoms: C9_28  and  N12_29 
REMARK    9  A    between atoms: N12_29  and  C10_31 
ROOT
HETATM    1  N2  UNL     1      -3.628   0.180   0.727  1.00  0.00    -0.037 N 
HETATM    2  C3  UNL     1      -4.036  -1.113   1.073  1.00  0.00     0.216 C 
HETATM    3  N3  UNL     1      -4.372  -2.183   1.376  1.00  0.00    -0.170 NA
ENDROOT
BRANCH   1   4
HETATM    4  N1  UNL     1      -4.554   1.201   0.818  1.00  0.00    -0.208 NA
HETATM    5  C1  UNL     1      -4.173   2.275   1.684  1.00  0.00     0.137 C 
HETATM    6  C2  UNL     1      -5.073   1.629  -0.454  1.00  0.00     0.137 C 
ENDBRANCH   1   4
BRANCH   1   7
HETATM    7  C4  UNL     1      -2.291   0.435   0.291  1.00  0.00     0.712 A 
HETATM    8  N4  UNL     1      -1.907   1.673  -0.038  1.00  0.00    -0.172 N 
HETATM    9  C5  UNL     1      -0.642   1.856  -0.440  1.00  0.00     0.149 A 
ATOM     10  H4  UNL     1      -2.559   2.456   0.016  1.00  0.00     0.186 HD
HETATM   11  C6  UNL     1       0.246   0.790  -0.513  1.00  0.00     0.161 A 
HETATM   12  C9  UNL     1      -0.159  -0.484  -0.171  1.00  0.00     0.151 A 
HETATM   13  N13 UNL     1      -1.426  -0.614   0.222  1.00  0.00    -0.172 N 
ATOM     14  H13 UNL     1      -1.763  -1.541   0.483  1.00  0.00     0.186 HD
BRANCH   9  15
HETATM   15  N5  UNL     1      -0.191   3.035  -0.779  1.00  0.00    -0.383 N 
ATOM     16  H52 UNL     1      -0.843   3.818  -0.725  1.00  0.00     0.157 HD
ATOM     17  H51 UNL     1       0.772   3.174  -1.085  1.00  0.00     0.157 HD
ENDBRANCH   9  15
BRANCH  11  18
HETATM   18  N6  UNL     1       1.591   1.043  -0.950  1.00  0.00    -0.171 N 
HETATM   19  N7  UNL     1       2.057   0.792  -2.164  1.00  0.00     0.003 NA
HETATM   20  N8  UNL     1       3.332   1.141  -2.236  1.00  0.00    -0.264 N 
HETATM   21  C7  UNL     1       3.707   1.637  -1.024  1.00  0.00     0.178 A 
ATOM     22  H8  UNL     1       3.930   1.054  -3.057  1.00  0.00     0.186 HD
HETATM   23  N11 UNL     1       2.599   1.555  -0.266  1.00  0.00    -0.261 N 
ATOM     24  H11 UNL     1       2.544   1.849   0.709  1.00  0.00     0.190 HD
BRANCH  21  25
HETATM   25  C8  UNL     1       5.026   2.136  -0.666  1.00  0.00     0.182 C 
HETATM   26  N9  UNL     1       5.276   2.623   0.632  1.00  0.00    -0.077 NA
BRANCH  25  27
HETATM   27  N10 UNL     1       5.965   2.130  -1.543  1.00  0.00    -0.252 N 
ATOM     28  H10 UNL     1       5.743   1.769  -2.471  1.00  0.00     0.195 HD
BRANCH  27  29
HETATM   29  O1  UNL     1       7.227   2.568  -1.325  1.00  0.00    -0.288 OA
ATOM     30  H1  UNL     1       7.921   2.564  -1.973  1.00  0.00     0.244 HD
ENDBRANCH  27  29
ENDBRANCH  25  27
ENDBRANCH  21  25
ENDBRANCH  11  18
BRANCH  12  31
HETATM   31  N12 UNL     1       0.766  -1.544  -0.257  1.00  0.00    -0.366 N 
ATOM     32  H12 UNL     1       1.706  -1.308  -0.576  1.00  0.00     0.162 HD
BRANCH  31  33
HETATM   33  C10 UNL     1       0.518  -2.925   0.060  1.00  0.00     0.021 C 
HETATM   34  C11 UNL     1       1.740  -3.790  -0.176  1.00  0.00     0.037 C 
HETATM   35  C12 UNL     1       0.067  -3.160   1.464  1.00  0.00     0.037 C 
HETATM   36  C13 UNL     1      -0.548  -3.446  -0.886  1.00  0.00     0.037 C 
ENDBRANCH  31  33
ENDBRANCH  12  31
ENDBRANCH   1   7
TORSDOF 9
