REMARK  6 active torsions:
REMARK  status: ('A' for Active; 'I' for Inactive)
REMARK    1  A    between atoms: C4_4  and  O1_5 
REMARK    2  A    between atoms: O1_5  and  C5_6 
REMARK    3  A    between atoms: C5_6  and  C6_7 
REMARK    4  A    between atoms: N1_8  and  C7_10 
REMARK    5  A    between atoms: C8_13  and  N3_14 
REMARK    6  A    between atoms: N3_14  and  C10_16 
ROOT
HETATM    1  C7  UNL     1       0.698  -1.648  -0.793  1.00  0.00     0.145 A 
HETATM    2  N2  UNL     1      -0.179  -0.939   0.017  1.00  0.00    -0.174 N 
ATOM      3  H2  UNL     1       0.124  -0.033   0.374  1.00  0.00     0.186 HD
HETATM    4  C8  UNL     1      -1.382  -1.368   0.352  1.00  0.00     0.701 A 
HETATM    5  N9  UNL     1      -1.803  -2.565  -0.110  1.00  0.00    -0.176 N 
ATOM      6  H9  UNL     1      -2.729  -2.912   0.139  1.00  0.00     0.185 HD
HETATM    7  C16 UNL     1      -1.001  -3.296  -0.896  1.00  0.00     0.156 A 
HETATM    8  N10 UNL     1      -1.419  -4.573  -1.406  1.00  0.00    -0.080 NA
HETATM    9  C17 UNL     1       0.261  -2.866  -1.258  1.00  0.00     0.130 A 
HETATM   10  C18 UNL     1       1.092  -3.716  -2.105  1.00  0.00     0.107 C 
HETATM   11  N11 UNL     1       1.733  -4.408  -2.763  1.00  0.00    -0.191 NA
ENDROOT
BRANCH   1  12
HETATM   12  N1  UNL     1       1.792  -1.178  -1.064  1.00  0.00    -0.352 N 
HETATM   13  C6  UNL     1       3.005  -1.215  -1.669  1.00  0.00     0.089 C 
ATOM     14  H1  UNL     1       1.795  -0.282  -0.577  1.00  0.00     0.166 HD
BRANCH  13  15
HETATM   15  C5  UNL     1       4.097  -1.968  -0.928  1.00  0.00     0.222 C 
BRANCH  15  16
HETATM   16  O1  UNL     1       4.290  -1.387   0.318  1.00  0.00    -0.331 OA
BRANCH  16  17
HETATM   17  C4  UNL     1       4.701  -0.099   0.554  1.00  0.00     0.145 A 
HETATM   18  C3  UNL     1       4.838   0.341   1.891  1.00  0.00     0.080 A 
HETATM   19  C2  UNL     1       5.248   1.624   2.149  1.00  0.00     0.010 A 
HETATM   20  C1  UNL     1       5.390   2.102   3.542  1.00  0.00     0.068 C 
HETATM   21  N13 UNL     1       5.519   2.462   1.145  1.00  0.00    -0.350 N 
HETATM   22  C19 UNL     1       5.397   2.067  -0.153  1.00  0.00     0.079 A 
ATOM     23  H13 UNL     1       5.822   3.413   1.354  1.00  0.00     0.167 HD
HETATM   24  N12 UNL     1       4.999   0.822  -0.369  1.00  0.00    -0.327 N 
HETATM   25  C20 UNL     1       5.713   3.053  -1.194  1.00  0.00     0.089 C 
ATOM     26  H12 UNL     1       4.910   0.535  -1.344  1.00  0.00     0.169 HD
ENDBRANCH  16  17
ENDBRANCH  15  16
ENDBRANCH  13  15
ENDBRANCH   1  12
BRANCH   4  27
HETATM   27  N3  UNL     1      -2.264  -0.656   1.184  1.00  0.00    -0.018 N 
HETATM   28  C9  UNL     1      -2.338  -1.003   2.602  1.00  0.00     0.195 C 
BRANCH  27  29
HETATM   29  C10 UNL     1      -3.087   0.411   0.730  1.00  0.00     0.702 A 
HETATM   30  N4  UNL     1      -2.672   1.697   0.883  1.00  0.00    -0.174 N 
HETATM   31  C11 UNL     1      -3.386   2.748   0.476  1.00  0.00     0.145 A 
ATOM     32  H4  UNL     1      -1.771   1.866   1.331  1.00  0.00     0.186 HD
HETATM   33  N5  UNL     1      -2.988   3.966   0.624  1.00  0.00    -0.383 N 
HETATM   34  C12 UNL     1      -4.610   2.548  -0.134  1.00  0.00     0.123 A 
ATOM     35  H52 UNL     1      -2.085   4.114   1.074  1.00  0.00     0.157 HD
ATOM     36  H51 UNL     1      -3.534   4.770   0.313  1.00  0.00     0.157 HD
HETATM   37  N6  UNL     1      -5.552   3.358  -0.647  1.00  0.00    -0.346 N 
HETATM   38  C15 UNL     1      -5.057   1.259  -0.302  1.00  0.00     0.154 A 
HETATM   39  C13 UNL     1      -6.561   2.610  -1.124  1.00  0.00     0.184 A 
ATOM     40  H6  UNL     1      -5.508   4.377  -0.670  1.00  0.00     0.167 HD
HETATM   41  N7  UNL     1      -6.252   1.323  -0.911  1.00  0.00    -0.331 N 
HETATM   42  C14 UNL     1      -7.065   0.194  -1.278  1.00  0.00     0.158 C 
HETATM   43  N8  UNL     1      -4.279   0.234   0.136  1.00  0.00    -0.173 N 
ATOM     44  H8  UNL     1      -4.618  -0.719   0.007  1.00  0.00     0.186 HD
ENDBRANCH  27  29
ENDBRANCH   4  27
TORSDOF 6
