REMARK  8 active torsions:
REMARK  status: ('A' for Active; 'I' for Inactive)
REMARK    1  A    between atoms: C4_7  and  S2_8 
REMARK    2  A    between atoms: S2_8  and  C5_9 
REMARK    3  A    between atoms: C5_9  and  C6_10 
REMARK    4  A    between atoms: C6_10  and  C7_11 
REMARK    5  A    between atoms: N2_13  and  C9_14 
REMARK    6  A    between atoms: C10_20  and  N5_21 
REMARK    7  A    between atoms: C13_35  and  S3_36 
REMARK    8  A    between atoms: S3_36  and  N10_37 
ROOT
HETATM    1  C1  UNL     1      -6.052   0.050  -2.079  1.00  0.00     0.058 C 
HETATM    2  C2  UNL     1      -4.781   0.238  -1.319  1.00  0.00     0.005 A 
HETATM    3  S1  UNL     1      -3.406   1.089  -1.825  1.00  0.00    -0.075 SA
HETATM    4  C3  UNL     1      -2.417   0.859  -0.450  1.00  0.00     0.092 A 
HETATM    5  N1  UNL     1      -1.154   1.268  -0.112  1.00  0.00    -0.330 N 
ATOM      6  H1  UNL     1      -0.615   1.825  -0.775  1.00  0.00     0.168 HD
HETATM    7  C4  UNL     1      -0.613   0.952   1.071  1.00  0.00     0.146 A 
HETATM    8  N8  UNL     1      -1.348   0.232   1.895  1.00  0.00    -0.323 N 
ATOM      9  H8  UNL     1      -0.948  -0.015   2.800  1.00  0.00     0.169 HD
HETATM   10  C11 UNL     1      -2.591  -0.197   1.617  1.00  0.00     0.115 A 
HETATM   11  N9  UNL     1      -3.162  -0.858   2.536  1.00  0.00    -0.385 N 
ATOM     12  H91 UNL     1      -4.105  -1.184   2.325  1.00  0.00     0.157 HD
ATOM     13  H92 UNL     1      -2.725  -1.082   3.430  1.00  0.00     0.157 HD
HETATM   14  C12 UNL     1      -3.197   0.113   0.378  1.00  0.00     0.066 A 
HETATM   15  C13 UNL     1      -4.439  -0.220  -0.068  1.00  0.00     0.108 A 
ENDROOT
BRANCH   7  16
HETATM   16  S2  UNL     1       1.032   1.475   1.542  1.00  0.00    -0.093 SA
BRANCH  16  17
HETATM   17  C5  UNL     1       1.777   2.444   0.191  1.00  0.00     0.088 C 
BRANCH  17  18
HETATM   18  C6  UNL     1       2.015   1.568  -1.029  1.00  0.00     0.071 C 
BRANCH  18  19
HETATM   19  C7  UNL     1       2.947   0.486  -0.554  1.00  0.00     0.045 A 
HETATM   20  C8  UNL     1       4.324   0.538  -0.580  1.00  0.00     0.146 A 
HETATM   21  N2  UNL     1       4.793  -0.625  -0.068  1.00  0.00    -0.230 N 
HETATM   22  N6  UNL     1       3.731  -1.334   0.247  1.00  0.00    -0.234 N 
HETATM   23  N7  UNL     1       2.619  -0.699  -0.030  1.00  0.00    -0.289 N 
ATOM     24  H6  UNL     1       3.769  -2.267   0.658  1.00  0.00     0.209 HD
ATOM     25  H7  UNL     1       1.673  -1.047   0.126  1.00  0.00     0.188 HD
BRANCH  21  26
HETATM   26  C9  UNL     1       6.148  -1.011   0.099  1.00  0.00     0.195 A 
HETATM   27  N3  UNL     1       6.838  -0.996   1.250  1.00  0.00    -0.220 N 
HETATM   28  O1  UNL     1       8.056  -1.421   1.005  1.00  0.00    -0.153 OA
ATOM     29  H3  UNL     1       6.478  -0.705   2.159  1.00  0.00     0.198 HD
HETATM   30  N4  UNL     1       8.213  -1.718  -0.244  1.00  0.00    -0.222 N 
HETATM   31  C10 UNL     1       7.036  -1.473  -0.846  1.00  0.00     0.169 A 
ATOM     32  H4  UNL     1       9.063  -2.069  -0.686  1.00  0.00     0.198 HD
BRANCH  31  33
HETATM   33  N5  UNL     1       6.795  -1.648  -2.101  1.00  0.00    -0.381 N 
ATOM     34  H52 UNL     1       5.902  -1.462  -2.558  1.00  0.00     0.157 HD
ATOM     35  H51 UNL     1       7.453  -1.990  -2.801  1.00  0.00     0.157 HD
ENDBRANCH  31  33
ENDBRANCH  21  26
ENDBRANCH  18  19
ENDBRANCH  17  18
ENDBRANCH  16  17
ENDBRANCH   7  16
BRANCH  15  36
HETATM   36  S3  UNL     1      -5.632  -1.181   0.853  1.00  0.00     0.258 S 
HETATM   37  O2  UNL     1      -6.744  -1.633  -0.118  1.00  0.00    -0.201 OA
HETATM   38  O3  UNL     1      -5.079  -2.472   1.343  1.00  0.00    -0.201 OA
BRANCH  36  39
HETATM   39  N10 UNL     1      -6.443  -0.236   2.016  1.00  0.00    -0.324 N 
ATOM     40 2H10 UNL     1      -6.259   0.757   2.157  1.00  0.00     0.169 HD
ATOM     41 1H10 UNL     1      -7.124  -0.784   2.542  1.00  0.00     0.169 HD
ENDBRANCH  36  39
ENDBRANCH  15  36
TORSDOF 8
