REMARK  8 active torsions:
REMARK  status: ('A' for Active; 'I' for Inactive)
REMARK    1  A    between atoms: C2_2  and  C4_4 
REMARK    2  A    between atoms: C4_4  and  N1_5 
REMARK    3  A    between atoms: C6_8  and  N3_9 
REMARK       I    between atoms: N3_9  and  C7_11 
REMARK    4  A    between atoms: C7_11  and  C8_13 
REMARK    5  A    between atoms: C8_13  and  S1_14 
REMARK    6  A    between atoms: S1_14  and  C9_15 
REMARK    7  A    between atoms: C11_19  and  N5_20 
REMARK    8  A    between atoms: C12_25  and  N7_26 
ROOT
HETATM    1  S1  UNL     1      -1.841   0.584  -0.382  1.00  0.00    -0.084 SA
ENDROOT
BRANCH   1   2
HETATM    2  C8  UNL     1      -0.933  -0.916   0.056  1.00  0.00     0.185 C 
BRANCH   2   3
HETATM    3  C7  UNL     1       0.478  -0.666   0.342  1.00  0.00     0.232 C 
HETATM    4  N3  UNL     1       1.095   0.613   0.290  1.00  0.00    -0.319 N 
ATOM      5  H3  UNL     1       0.530   1.424   0.037  1.00  0.00     0.169 HD
HETATM    6  O1  UNL     1       1.196  -1.652   0.656  1.00  0.00    -0.272 OA
BRANCH   4   7
HETATM    7  C6  UNL     1       2.473   0.797   0.579  1.00  0.00     0.145 A 
HETATM    8  C5  UNL     1       3.458   0.725  -0.392  1.00  0.00     0.155 A 
HETATM    9  N1  UNL     1       4.778   0.899  -0.125  1.00  0.00    -0.285 N 
HETATM   10  N2  UNL     1       3.010   0.483  -1.708  1.00  0.00    -0.080 NA
HETATM   11  C18 UNL     1       5.123   1.156   1.164  1.00  0.00     0.332 A 
HETATM   12  N10 UNL     1       4.182   1.229   2.120  1.00  0.00    -0.269 N 
HETATM   13  O3  UNL     1       6.329   1.336   1.508  1.00  0.00    -0.246 OA
HETATM   14  C16 UNL     1       2.870   1.058   1.870  1.00  0.00     0.281 A 
HETATM   15  C17 UNL     1       4.636   1.511   3.496  1.00  0.00     0.164 C 
HETATM   16  O2  UNL     1       2.025   1.136   2.801  1.00  0.00    -0.265 OA
BRANCH   9  17
HETATM   17  C4  UNL     1       5.774   0.814  -1.147  1.00  0.00     0.139 C 
BRANCH  17  18
HETATM   18  C2  UNL     1       6.390  -0.507  -1.393  1.00  0.00    -0.004 C 
HETATM   19  C1  UNL     1       5.480  -1.617  -1.797  1.00  0.00     0.011 C 
HETATM   20  C3  UNL     1       7.322  -0.980  -0.276  1.00  0.00     0.011 C 
ENDBRANCH  17  18
ENDBRANCH   9  17
ENDBRANCH   4   7
ENDBRANCH   2   3
ENDBRANCH   1   2
BRANCH   1  21
HETATM   21  C9  UNL     1      -3.547   0.253  -0.724  1.00  0.00     0.148 A 
HETATM   22  N4  UNL     1      -4.016  -0.057  -1.940  1.00  0.00    -0.331 N 
HETATM   23  C10 UNL     1      -5.331  -0.233  -1.800  1.00  0.00     0.124 A 
ATOM     24  H4  UNL     1      -3.476  -0.142  -2.801  1.00  0.00     0.168 HD
HETATM   25  C11 UNL     1      -6.323  -0.561  -2.692  1.00  0.00     0.145 A 
HETATM   26  C14 UNL     1      -5.705  -0.030  -0.466  1.00  0.00     0.157 A 
HETATM   27  N6  UNL     1      -7.576  -0.668  -2.251  1.00  0.00    -0.175 N 
HETATM   28  C12 UNL     1      -7.930  -0.475  -0.983  1.00  0.00     0.681 A 
ATOM     29  H6  UNL     1      -8.304  -0.911  -2.923  1.00  0.00     0.186 HD
HETATM   30  N8  UNL     1      -6.986  -0.153  -0.083  1.00  0.00    -0.170 N 
HETATM   31  C13 UNL     1      -7.363   0.059   1.298  1.00  0.00     0.177 C 
HETATM   32  N9  UNL     1      -4.558   0.273   0.180  1.00  0.00    -0.316 N 
HETATM   33  C15 UNL     1      -4.431   0.567   1.582  1.00  0.00     0.160 C 
BRANCH  25  34
HETATM   34  N5  UNL     1      -6.025  -0.756  -3.930  1.00  0.00    -0.383 N 
ATOM     35  H52 UNL     1      -5.066  -0.674  -4.268  1.00  0.00     0.157 HD
ATOM     36  H51 UNL     1      -6.762  -1.000  -4.592  1.00  0.00     0.157 HD
ENDBRANCH  25  34
BRANCH  28  37
HETATM   37  N7  UNL     1      -9.189  -0.596  -0.606  1.00  0.00    -0.234 N 
ATOM     38  H72 UNL     1      -9.906  -0.840  -1.289  1.00  0.00     0.174 HD
ATOM     39  H71 UNL     1      -9.460  -0.448   0.366  1.00  0.00     0.174 HD
ENDBRANCH  28  37
ENDBRANCH   1  21
TORSDOF 8
