REMARK  9 active torsions:
REMARK  status: ('A' for Active; 'I' for Inactive)
REMARK    1  A    between atoms: C2_2  and  O1_3 
REMARK    2  A    between atoms: O1_3  and  C3_4 
REMARK    3  A    between atoms: C5_6  and  C6_7 
REMARK    4  A    between atoms: N3_14  and  C9_15 
REMARK    5  A    between atoms: C9_15  and  C10_16 
REMARK    6  A    between atoms: C11_17  and  C12_18 
REMARK    7  A    between atoms: C12_18  and  O2_19 
REMARK    8  A    between atoms: C17_35  and  N8_36 
REMARK    9  A    between atoms: N8_36  and  C18_38 
ROOT
HETATM    1  C6  UNL     1      -0.567   1.177  -1.226  1.00  0.00     0.136 A 
HETATM    2  N1  UNL     1      -1.082   1.623  -2.381  1.00  0.00    -0.324 N 
ATOM      3  H1  UNL     1      -0.565   1.725  -3.254  1.00  0.00     0.169 HD
HETATM    4  C7  UNL     1      -2.388   1.917  -2.213  1.00  0.00     0.153 A 
HETATM    5  N2  UNL     1      -3.520   2.378  -2.770  1.00  0.00    -0.335 N 
ATOM      6  H2  UNL     1      -3.619   2.670  -3.742  1.00  0.00     0.168 HD
HETATM    7  C8  UNL     1      -4.497   2.396  -1.859  1.00  0.00     0.186 A 
HETATM    8  N3  UNL     1      -4.004   1.931  -0.656  1.00  0.00    -0.322 N 
HETATM    9  C15 UNL     1      -2.716   1.651  -0.915  1.00  0.00     0.155 A 
HETATM   10  N6  UNL     1      -1.575   1.204  -0.354  1.00  0.00    -0.323 N 
ATOM     11  H6  UNL     1      -1.492   0.920   0.622  1.00  0.00     0.169 HD
ENDROOT
BRANCH   1  12
HETATM   12  C5  UNL     1       0.826   0.755  -0.999  1.00  0.00     0.079 A 
HETATM   13  C4  UNL     1       1.260   0.310   0.230  1.00  0.00     0.072 A 
HETATM   14  C3  UNL     1       2.582  -0.085   0.417  1.00  0.00     0.098 A 
HETATM   15  C17 UNL     1       3.485  -0.037  -0.625  1.00  0.00     0.078 A 
HETATM   16  C16 UNL     1       3.022   0.415  -1.852  1.00  0.00     0.120 A 
HETATM   17  N7  UNL     1       1.724   0.791  -1.997  1.00  0.00    -0.361 N 
ATOM     18  H7  UNL     1       1.415   1.118  -2.913  1.00  0.00     0.165 HD
BRANCH  14  19
HETATM   19  O1  UNL     1       3.002  -0.525   1.641  1.00  0.00    -0.349 OA
BRANCH  19  20
HETATM   20  C2  UNL     1       2.203  -0.627   2.792  1.00  0.00     0.171 C 
HETATM   21  C1  UNL     1       3.080  -1.156   3.907  1.00  0.00     0.034 C 
ENDBRANCH  19  20
ENDBRANCH  14  19
BRANCH  15  22
HETATM   22  N8  UNL     1       4.819  -0.445  -0.379  1.00  0.00    -0.379 N 
ATOM     23  H8  UNL     1       5.055  -0.749   0.566  1.00  0.00     0.160 HD
BRANCH  22  24
HETATM   24  C18 UNL     1       5.873  -0.461  -1.374  1.00  0.00     0.019 C 
HETATM   25  C19 UNL     1       7.167  -0.927  -0.691  1.00  0.00     0.037 C 
HETATM   26  C20 UNL     1       6.176   0.943  -1.877  1.00  0.00     0.037 C 
HETATM   27  C21 UNL     1       5.569  -1.419  -2.506  1.00  0.00     0.037 C 
ENDBRANCH  22  24
ENDBRANCH  15  22
ENDBRANCH   1  12
BRANCH   8  28
HETATM   28  C9  UNL     1      -4.805   1.806   0.520  1.00  0.00     0.178 C 
BRANCH  28  29
HETATM   29  C10 UNL     1      -5.678   0.621   0.569  1.00  0.00     0.053 A 
HETATM   30  C11 UNL     1      -5.338  -0.635   0.947  1.00  0.00     0.050 A 
HETATM   31  N4  UNL     1      -6.275  -1.625   0.945  1.00  0.00    -0.309 N 
HETATM   32  C13 UNL     1      -7.545  -1.436   0.585  1.00  0.00     0.327 A 
ATOM     33  H4  UNL     1      -5.989  -2.560   1.234  1.00  0.00     0.170 HD
HETATM   34  O3  UNL     1      -8.393  -2.384   0.595  1.00  0.00    -0.247 OA
HETATM   35  N5  UNL     1      -7.906  -0.208   0.210  1.00  0.00    -0.275 N 
HETATM   36  C14 UNL     1      -7.032   0.789   0.195  1.00  0.00     0.259 A 
ATOM     37  H5  UNL     1      -8.871  -0.033  -0.070  1.00  0.00     0.173 HD
HETATM   38  O4  UNL     1      -7.444   1.935  -0.171  1.00  0.00    -0.267 OA
BRANCH  30  39
HETATM   39  C12 UNL     1      -3.963  -0.994   1.382  1.00  0.00     0.222 C 
BRANCH  39  40
HETATM   40  O2  UNL     1      -3.930  -2.355   1.776  1.00  0.00    -0.395 OA
ATOM     41  H2  UNL     1      -3.051  -2.584   2.054  1.00  0.00     0.209 HD
ENDBRANCH  39  40
ENDBRANCH  30  39
ENDBRANCH  28  29
ENDBRANCH   8  28
TORSDOF 9
