REMARK  12 active torsions:
REMARK  status: ('A' for Active; 'I' for Inactive)
REMARK    1  A    between atoms: C2_2  and  C3_3 
REMARK    2  A    between atoms: C3_3  and  C4_4 
REMARK    3  A    between atoms: C4_4  and  O1_5 
REMARK    4  A    between atoms: O1_5  and  C5_6 
REMARK    5  A    between atoms: C5_6  and  C6_8 
REMARK    6  A    between atoms: C7_11  and  N2_12 
REMARK    7  A    between atoms: N2_12  and  C8_14 
REMARK    8  A    between atoms: C11_21  and  N5_22 
REMARK    9  A    between atoms: N5_22  and  C12_24 
REMARK   10  A    between atoms: C12_24  and  N6_26 
REMARK   11  A    between atoms: C12_24  and  C14_30 
REMARK   12  A    between atoms: C14_30  and  O3_31 
ROOT
HETATM    1  C8  UNL     1       0.863  -0.524   0.510  1.00  0.00     0.137 A 
HETATM    2  N3  UNL     1       0.321   0.673   0.795  1.00  0.00    -0.337 N 
ATOM      3  H3  UNL     1      -0.680   0.735   0.979  1.00  0.00     0.168 HD
HETATM    4  C9  UNL     1       1.070   1.795   0.843  1.00  0.00     0.182 A 
HETATM    5  N4  UNL     1       2.389   1.768   0.610  1.00  0.00    -0.347 N 
ATOM      6  H4  UNL     1       2.935   2.629   0.653  1.00  0.00     0.167 HD
HETATM    7  C10 UNL     1       2.993   0.594   0.318  1.00  0.00     0.108 A 
HETATM    8  C11 UNL     1       4.374   0.594   0.078  1.00  0.00     0.134 A 
HETATM    9  N7  UNL     1       4.901  -0.606  -0.205  1.00  0.00    -0.331 N 
ATOM     10  H7  UNL     1       5.902  -0.670  -0.389  1.00  0.00     0.168 HD
HETATM   11  C15 UNL     1       4.152  -1.743  -0.256  1.00  0.00     0.079 A 
HETATM   12  C16 UNL     1       4.834  -3.038  -0.580  1.00  0.00     0.089 C 
HETATM   13  N8  UNL     1       2.829  -1.720  -0.022  1.00  0.00    -0.341 N 
ATOM     14  H8  UNL     1       2.282  -2.580  -0.064  1.00  0.00     0.167 HD
HETATM   15  C17 UNL     1       2.241  -0.560   0.265  1.00  0.00     0.109 A 
ENDROOT
BRANCH   1  16
HETATM   16  N2  UNL     1       0.185  -1.598   0.457  1.00  0.00    -0.321 N 
ATOM     17  H2  UNL     1       0.619  -2.495   0.239  1.00  0.00     0.169 HD
BRANCH  16  18
HETATM   18  C7  UNL     1      -1.239  -1.485   0.723  1.00  0.00     0.151 A 
HETATM   19  N1  UNL     1      -2.215  -1.462  -0.143  1.00  0.00    -0.331 N 
HETATM   20  C6  UNL     1      -3.463  -1.355   0.257  1.00  0.00     0.123 A 
ATOM     21  H1  UNL     1      -2.008  -1.528  -1.140  1.00  0.00     0.168 HD
HETATM   22  C18 UNL     1      -3.672  -1.272   1.599  1.00  0.00     0.015 A 
HETATM   23  S1  UNL     1      -2.053  -1.352   2.210  1.00  0.00    -0.056 SA
HETATM   24  C19 UNL     1      -4.935  -1.169   2.385  1.00  0.00     0.059 C 
BRANCH  20  25
HETATM   25  C5  UNL     1      -4.541  -1.368  -0.760  1.00  0.00     0.311 C 
HETATM   26  O2  UNL     1      -4.287  -1.565  -1.988  1.00  0.00    -0.258 OA
BRANCH  25  27
HETATM   27  O1  UNL     1      -5.855  -1.170  -0.428  1.00  0.00    -0.316 OA
BRANCH  27  28
HETATM   28  C4  UNL     1      -6.789  -1.241  -1.516  1.00  0.00     0.179 C 
BRANCH  28  29
HETATM   29  C3  UNL     1      -8.164  -0.943  -1.068  1.00  0.00     0.026 C 
BRANCH  29  30
HETATM   30  C2  UNL     1      -8.341   0.467  -0.613  1.00  0.00    -0.002 C 
HETATM   31  C1  UNL     1      -7.506   0.873   0.542  1.00  0.00     0.005 C 
ENDBRANCH  29  30
ENDBRANCH  28  29
ENDBRANCH  27  28
ENDBRANCH  25  27
ENDBRANCH  20  25
ENDBRANCH  16  18
ENDBRANCH   1  16
BRANCH   8  32
HETATM   32  N5  UNL     1       4.980   1.700   0.148  1.00  0.00    -0.341 N 
ATOM     33  H5  UNL     1       4.383   2.495   0.378  1.00  0.00     0.163 HD
BRANCH  32  34
HETATM   34  C12 UNL     1       6.344   2.027  -0.037  1.00  0.00     0.214 C 
HETATM   35  C13 UNL     1       7.333   1.226   0.738  1.00  0.00     0.073 C 
BRANCH  34  36
HETATM   36  N6  UNL     1       6.500   3.435   0.334  1.00  0.00    -0.051 N 
ATOM     37  H63 UNL     1       5.867   4.055  -0.171  1.00  0.00     0.277 HD
ATOM     38  H62 UNL     1       6.162   3.642   1.274  1.00  0.00     0.277 HD
ATOM     39  H61 UNL     1       7.483   3.671   0.201  1.00  0.00     0.277 HD
ENDBRANCH  34  36
BRANCH  34  40
HETATM   40  C14 UNL     1       6.632   1.971  -1.544  1.00  0.00     0.225 C 
BRANCH  40  41
HETATM   41  O3  UNL     1       7.963   2.288  -1.720  1.00  0.00    -0.397 OA
ATOM     42  H3  UNL     1       8.141   2.253  -2.652  1.00  0.00     0.209 HD
ENDBRANCH  40  41
ENDBRANCH  34  40
ENDBRANCH  32  34
ENDBRANCH   8  32
TORSDOF 12
