REMARK  12 active torsions:
REMARK  status: ('A' for Active; 'I' for Inactive)
REMARK    1  A    between atoms: C2_2  and  C4_4 
REMARK    2  A    between atoms: C4_4  and  O1_5 
REMARK    3  A    between atoms: C4_4  and  C5_7 
REMARK    4  A    between atoms: C5_7  and  N1_8 
REMARK    5  A    between atoms: C5_7  and  C12_33 
REMARK    6  A    between atoms: N1_8  and  C6_10 
REMARK    7  A    between atoms: C9_20  and  N6_21 
REMARK    8  A    between atoms: N6_21  and  C10_23 
REMARK    9  A    between atoms: C10_23  and  N7_25 
REMARK   10  A    between atoms: C10_23  and  N8_29 
REMARK   11  A    between atoms: C12_33  and  O2_34 
REMARK   12  A    between atoms: C12_33  and  O3_36 
ROOT
HETATM    1  C6  UNL     1      -0.415   1.035  -0.104  1.00  0.00     0.150 A 
HETATM    2  N2  UNL     1      -0.205   2.308  -0.524  1.00  0.00    -0.316 N 
ATOM      3  H2  UNL     1       0.710   2.741  -0.404  1.00  0.00     0.170 HD
HETATM    4  C7  UNL     1      -1.207   2.997  -1.099  1.00  0.00     0.204 A 
HETATM    5  C8  UNL     1      -0.932   4.338  -1.525  1.00  0.00     0.138 C 
HETATM    6  N3  UNL     1      -0.728   5.430  -1.866  1.00  0.00    -0.188 NA
HETATM    7  N4  UNL     1      -2.407   2.412  -1.249  1.00  0.00    -0.275 N 
ATOM      8  H4  UNL     1      -3.166   2.936  -1.685  1.00  0.00     0.189 HD
HETATM    9  N5  UNL     1      -2.629   1.156  -0.839  1.00  0.00    -0.281 N 
ATOM     10  H5  UNL     1      -3.552   0.740  -0.967  1.00  0.00     0.188 HD
HETATM   11  C9  UNL     1      -1.654   0.439  -0.263  1.00  0.00     0.164 A 
ENDROOT
BRANCH   1  12
HETATM   12  N1  UNL     1       0.515   0.329   0.455  1.00  0.00    -0.361 N 
ATOM     13  H1  UNL     1       0.331  -0.626   0.762  1.00  0.00     0.162 HD
BRANCH  12  14
HETATM   14  C5  UNL     1       1.824   0.925   0.636  1.00  0.00     0.167 C 
BRANCH  14  15
HETATM   15  C4  UNL     1       2.892  -0.131   0.808  1.00  0.00     0.149 C 
BRANCH  15  16
HETATM   16  C2  UNL     1       2.993  -1.053  -0.361  1.00  0.00     0.008 C 
HETATM   17  C1  UNL     1       3.364  -0.353  -1.645  1.00  0.00     0.012 C 
HETATM   18  C3  UNL     1       1.780  -1.896  -0.606  1.00  0.00     0.012 C 
ENDBRANCH  15  16
BRANCH  15  19
HETATM   19  O1  UNL     1       4.135   0.472   0.980  1.00  0.00    -0.393 OA
ATOM     20  H1  UNL     1       4.071   1.059   1.724  1.00  0.00     0.210 HD
ENDBRANCH  15  19
ENDBRANCH  14  15
BRANCH  14  21
HETATM   21  C12 UNL     1       1.757   1.805   1.865  1.00  0.00     0.278 C 
BRANCH  21  22
HETATM   22  O2  UNL     1       1.421   1.084   3.005  1.00  0.00    -0.369 OA
ATOM     23  H2  UNL     1       1.379   1.637   3.777  1.00  0.00     0.212 HD
ENDBRANCH  21  22
BRANCH  21  24
HETATM   24  O3  UNL     1       3.017   2.411   2.077  1.00  0.00    -0.369 OA
ATOM     25  H3  UNL     1       2.975   2.964   2.849  1.00  0.00     0.212 HD
ENDBRANCH  21  24
ENDBRANCH  14  21
ENDBRANCH  12  14
ENDBRANCH   1  12
BRANCH  11  26
HETATM   26  N6  UNL     1      -1.853  -0.896   0.184  1.00  0.00    -0.317 N 
ATOM     27  H6  UNL     1      -1.085  -1.408   0.618  1.00  0.00     0.165 HD
BRANCH  26  28
HETATM   28  C10 UNL     1      -3.144  -1.530   0.024  1.00  0.00     0.355 C 
HETATM   29  C11 UNL     1      -3.106  -2.941   0.574  1.00  0.00     0.104 C 
BRANCH  28  30
HETATM   30  N7  UNL     1      -3.509  -1.643  -1.382  1.00  0.00    -0.027 N 
ATOM     31  H73 UNL     1      -3.476  -0.738  -1.851  1.00  0.00     0.279 HD
ATOM     32  H72 UNL     1      -2.787  -2.124  -1.918  1.00  0.00     0.279 HD
ATOM     33  H71 UNL     1      -4.419  -2.090  -1.495  1.00  0.00     0.279 HD
ENDBRANCH  28  30
BRANCH  28  34
HETATM   34  N8  UNL     1      -4.154  -0.812   0.776  1.00  0.00    -0.027 N 
ATOM     35  H83 UNL     1      -3.898  -0.713   1.758  1.00  0.00     0.279 HD
ATOM     36  H82 UNL     1      -4.182   0.177   0.527  1.00  0.00     0.279 HD
ATOM     37  H81 UNL     1      -5.064  -1.259   0.663  1.00  0.00     0.279 HD
ENDBRANCH  28  34
ENDBRANCH  26  28
ENDBRANCH  11  26
TORSDOF 12
