REMARK  5 active torsions:
REMARK  status: ('A' for Active; 'I' for Inactive)
REMARK    1  A    between atoms: N1_2  and  C2_4 
REMARK    2  A    between atoms: C6_10  and  C7_11 
REMARK       I    between atoms: C7_11  and  N3_13 
REMARK    3  A    between atoms: C8_15  and  N4_16 
REMARK    4  A    between atoms: C8_15  and  C12_21 
REMARK    5  A    between atoms: N4_16  and  C9_18 
ROOT
HETATM    1  C7  UNL     1      -0.701   0.127  -2.153  1.00  0.00     0.273 C 
HETATM    2  O1  UNL     1      -1.003   0.712  -3.204  1.00  0.00    -0.266 OA
HETATM    3  N3  UNL     1      -1.659  -0.416  -1.258  1.00  0.00    -0.307 N 
ATOM      4  H3  UNL     1      -2.097  -1.300  -1.516  1.00  0.00     0.170 HD
HETATM    5  C8  UNL     1      -2.014   0.118  -0.155  1.00  0.00     0.122 C 
ENDROOT
BRANCH   1   6
HETATM    6  C6  UNL     1       0.716  -0.034  -1.775  1.00  0.00     0.101 A 
HETATM    7  N2  UNL     1       1.095  -0.658  -0.648  1.00  0.00    -0.350 N 
HETATM    8  C5  UNL     1       2.369  -0.828  -0.264  1.00  0.00     0.059 A 
ATOM      9  H2  UNL     1       0.363  -1.029  -0.042  1.00  0.00     0.166 HD
HETATM   10  C4  UNL     1       2.733  -1.473   0.900  1.00  0.00     0.035 A 
HETATM   11  C19 UNL     1       3.373  -0.326  -1.084  1.00  0.00     0.060 A 
HETATM   12  C3  UNL     1       4.046  -1.639   1.279  1.00  0.00     0.050 A 
HETATM   13  C2  UNL     1       5.007  -1.120   0.427  1.00  0.00     0.101 A 
HETATM   14  N5  UNL     1       4.658  -0.486  -0.715  1.00  0.00    -0.341 N 
ATOM     15  H5  UNL     1       5.393  -0.116  -1.318  1.00  0.00     0.167 HD
HETATM   16  C18 UNL     1       3.016   0.322  -2.251  1.00  0.00     0.034 A 
HETATM   17  C17 UNL     1       1.710   0.475  -2.607  1.00  0.00     0.037 A 
BRANCH  13  18
HETATM   18  N1  UNL     1       6.251  -1.247   0.735  1.00  0.00    -0.381 N 
HETATM   19  C1  UNL     1       6.673  -1.919   1.949  1.00  0.00     0.147 C 
ATOM     20  H1  UNL     1       6.959  -0.865   0.108  1.00  0.00     0.160 HD
ENDBRANCH  13  18
ENDBRANCH   1   6
BRANCH   5  21
HETATM   21  N4  UNL     1      -1.451   1.342   0.269  1.00  0.00    -0.371 N 
ATOM     22  H4  UNL     1      -0.630   1.346   0.874  1.00  0.00     0.161 HD
BRANCH  21  23
HETATM   23  C9  UNL     1      -2.042   2.583  -0.158  1.00  0.00     0.075 C 
HETATM   24  C10 UNL     1      -3.473   2.621   0.332  1.00  0.00     0.031 C 
HETATM   25  C11 UNL     1      -1.260   3.785   0.302  1.00  0.00     0.031 C 
ENDBRANCH  21  23
ENDBRANCH   5  21
BRANCH   5  26
HETATM   26  C12 UNL     1      -3.023  -0.588   0.644  1.00  0.00     0.054 A 
HETATM   27  S1  UNL     1      -3.184  -0.592   2.338  1.00  0.00    -0.098 SA
HETATM   28  C13 UNL     1      -4.545  -1.609   2.493  1.00  0.00     0.051 A 
HETATM   29  C14 UNL     1      -4.836  -1.919   1.192  1.00  0.00     0.015 A 
HETATM   30  C15 UNL     1      -4.047  -1.390   0.236  1.00  0.00    -0.041 A 
HETATM   31  C16 UNL     1      -4.267  -1.658  -1.238  1.00  0.00     0.049 C 
ENDBRANCH   5  26
TORSDOF 5
