REMARK  4 active torsions:
REMARK  status: ('A' for Active; 'I' for Inactive)
REMARK    1  A    between atoms: C4_6  and  N2_7 
REMARK    2  A    between atoms: N2_7  and  C5_9 
REMARK    3  A    between atoms: C10_18  and  C11_19 
REMARK       I    between atoms: N5_24  and  C16_26 
REMARK    4  A    between atoms: C16_26  and  C17_28 
ROOT
HETATM    1  C1  UNL     1       0.422  -3.131  -2.115  1.00  0.00     0.052 C 
HETATM    2  C2  UNL     1       1.611  -2.453  -1.614  1.00  0.00    -0.017 A 
HETATM    3  C3  UNL     1       2.834  -2.883  -2.188  1.00  0.00     0.115 A 
HETATM    4  N1  UNL     1       3.983  -2.321  -1.841  1.00  0.00    -0.201 N 
ATOM      5  H1  UNL     1       4.867  -2.625  -2.249  1.00  0.00     0.183 HD
HETATM    6  C4  UNL     1       3.935  -1.338  -0.933  1.00  0.00     0.684 A 
HETATM    7  N4  UNL     1       2.795  -0.928  -0.389  1.00  0.00    -0.189 N 
ATOM      8  H4  UNL     1       2.831  -0.174   0.297  1.00  0.00     0.184 HD
HETATM    9  C10 UNL     1       1.566  -1.468  -0.703  1.00  0.00     0.083 A 
ENDROOT
BRANCH   9  10
HETATM   10  C11 UNL     1       0.395  -0.926  -0.059  1.00  0.00     0.061 A 
HETATM   11  C12 UNL     1       0.616   0.179   0.792  1.00  0.00     0.032 A 
HETATM   12  C13 UNL     1      -0.350   0.852   1.455  1.00  0.00     0.006 A 
HETATM   13  C14 UNL     1      -1.654   0.444   1.302  1.00  0.00     0.049 A 
HETATM   14  C15 UNL     1      -1.882  -0.623   0.483  1.00  0.00     0.108 A 
HETATM   15  N5  UNL     1      -3.110  -1.044   0.310  1.00  0.00    -0.309 N 
HETATM   16  N6  UNL     1      -0.873  -1.276  -0.169  1.00  0.00    -0.341 N 
HETATM   17  C16 UNL     1      -4.176  -0.404   0.959  1.00  0.00     0.257 C 
ATOM     18  H5  UNL     1      -3.292  -1.841  -0.300  1.00  0.00     0.170 HD
HETATM   19  O1  UNL     1      -4.552  -0.721   2.119  1.00  0.00    -0.267 OA
ATOM     20  H6  UNL     1      -1.110  -2.068  -0.766  1.00  0.00     0.167 HD
BRANCH  17  21
HETATM   21  C17 UNL     1      -4.892   0.671   0.288  1.00  0.00     0.032 A 
HETATM   22  C18 UNL     1      -4.536   1.070  -0.983  1.00  0.00     0.017 A 
HETATM   23  C19 UNL     1      -5.184   2.070  -1.637  1.00  0.00     0.001 A 
HETATM   24  C20 UNL     1      -6.249   2.744  -1.048  1.00  0.00     0.000 A 
HETATM   25  C21 UNL     1      -6.614   2.352   0.224  1.00  0.00     0.001 A 
HETATM   26  C22 UNL     1      -5.950   1.336   0.879  1.00  0.00     0.017 A 
ENDBRANCH  17  21
ENDBRANCH   9  10
BRANCH   6  27
HETATM   27  N2  UNL     1       5.050  -0.794  -0.598  1.00  0.00    -0.176 N 
ATOM     28  H2  UNL     1       5.925  -1.110  -1.016  1.00  0.00     0.186 HD
BRANCH  27  29
HETATM   29  C5  UNL     1       5.050   0.248   0.357  1.00  0.00     0.120 A 
HETATM   30  C6  UNL     1       4.663  -0.048   1.643  1.00  0.00     0.049 A 
HETATM   31  C7  UNL     1       4.653   0.937   2.586  1.00  0.00     0.005 A 
HETATM   32  C8  UNL     1       5.042   2.209   2.186  1.00  0.00     0.017 A 
HETATM   33  C9  UNL     1       5.424   2.465   0.884  1.00  0.00     0.089 A 
HETATM   34  N3  UNL     1       5.421   1.481  -0.009  1.00  0.00    -0.352 N 
ATOM     35  H3  UNL     1       5.701   1.665  -0.972  1.00  0.00     0.166 HD
ENDBRANCH  27  29
ENDBRANCH   6  27
TORSDOF 4
