REMARK  4 active torsions:
REMARK  status: ('A' for Active; 'I' for Inactive)
REMARK    1  A    between atoms: C5_5  and  N1_6 
REMARK       I    between atoms: N1_6  and  C6_8 
REMARK    2  A    between atoms: C6_8  and  C7_10 
REMARK    3  A    between atoms: C10_13  and  N2_14 
REMARK    4  A    between atoms: C12_19  and  C13_20 
ROOT
HETATM    1  C7  UNL     1      -1.469  -1.169   1.202  1.00  0.00     0.032 A 
HETATM    2  C8  UNL     1      -1.295  -0.594  -0.035  1.00  0.00     0.019 A 
HETATM    3  C9  UNL     1      -0.182   0.190  -0.252  1.00  0.00     0.031 A 
HETATM    4  C10 UNL     1       0.758   0.405   0.754  1.00  0.00     0.049 A 
HETATM    5  C20 UNL     1       0.543  -0.196   1.995  1.00  0.00     0.031 A 
HETATM    6  C21 UNL     1      -0.557  -0.981   2.235  1.00  0.00     0.019 A 
ENDROOT
BRANCH   4   7
HETATM    7  N2  UNL     1       1.901   1.211   0.517  1.00  0.00    -0.192 N 
HETATM    8  C11 UNL     1       2.879   0.683  -0.147  1.00  0.00     0.683 A 
HETATM    9  N3  UNL     1       3.950   1.515  -0.341  1.00  0.00    -0.191 N 
HETATM   10  N5  UNL     1       2.885  -0.566  -0.628  1.00  0.00    -0.202 N 
HETATM   11  C12 UNL     1       5.044   1.121  -1.016  1.00  0.00     0.062 A 
ATOM     12  H3  UNL     1       3.916   2.461   0.038  1.00  0.00     0.184 HD
HETATM   13  C18 UNL     1       5.031  -0.165  -1.502  1.00  0.00     0.048 A 
HETATM   14  C19 UNL     1       3.951  -1.015  -1.311  1.00  0.00     0.108 A 
ATOM     15  H5  UNL     1       2.082  -1.176  -0.476  1.00  0.00     0.183 HD
ATOM     16  H2  UNL     1       1.951   2.171   0.857  1.00  0.00     0.184 HD
BRANCH  11  17
HETATM   17  C13 UNL     1       6.159   2.050  -1.183  1.00  0.00     0.007 A 
HETATM   18  C14 UNL     1       6.119   3.325  -0.627  1.00  0.00     0.016 A 
HETATM   19  C15 UNL     1       7.165   4.211  -0.779  1.00  0.00     0.018 A 
HETATM   20  C16 UNL     1       8.282   3.847  -1.492  1.00  0.00     0.087 A 
HETATM   21  N4  UNL     1       8.315   2.616  -2.026  1.00  0.00    -0.374 N 
HETATM   22  C17 UNL     1       7.290   1.725  -1.887  1.00  0.00     0.101 A 
ATOM     23  H4  UNL     1       9.139   2.335  -2.557  1.00  0.00     0.164 HD
ENDBRANCH  11  17
ENDBRANCH   4   7
BRANCH   1  24
HETATM   24  C6  UNL     1      -2.608  -2.040   1.443  1.00  0.00     0.257 C 
HETATM   25  N1  UNL     1      -3.465  -2.375   0.395  1.00  0.00    -0.309 N 
ATOM     26  H1  UNL     1      -3.104  -2.914  -0.392  1.00  0.00     0.170 HD
HETATM   27  O1  UNL     1      -2.810  -2.487   2.582  1.00  0.00    -0.267 OA
BRANCH  25  28
HETATM   28  C5  UNL     1      -4.729  -2.011   0.399  1.00  0.00     0.107 A 
HETATM   29  C4  UNL     1      -5.268  -1.287   1.421  1.00  0.00     0.049 A 
HETATM   30  C3  UNL     1      -6.610  -0.927   1.433  1.00  0.00     0.012 A 
HETATM   31  C2  UNL     1      -7.404  -1.314   0.388  1.00  0.00    -0.046 A 
HETATM   32  C1  UNL     1      -8.844  -0.956   0.357  1.00  0.00     0.049 C 
HETATM   33  C22 UNL     1      -6.823  -2.044  -0.626  1.00  0.00     0.096 A 
HETATM   34  N6  UNL     1      -5.523  -2.384  -0.623  1.00  0.00    -0.352 N 
ATOM     35  H6  UNL     1      -5.137  -2.926  -1.396  1.00  0.00     0.166 HD
ENDBRANCH  25  28
ENDBRANCH   1  24
TORSDOF 4
