REMARK  6 active torsions:
REMARK  status: ('A' for Active; 'I' for Inactive)
REMARK    1  A    between atoms: C2_2  and  C3_3 
REMARK    2  A    between atoms: C3_3  and  C4_4 
REMARK    3  A    between atoms: C5_5  and  C6_6 
REMARK    4  A    between atoms: C11_11  and  C12_12 
REMARK    5  A    between atoms: C15_17  and  N2_18 
REMARK    6  A    between atoms: N2_18  and  C16_20 
ROOT
HETATM    1  C12 UNL     1      -1.363   1.223  -0.069  1.00  0.00     0.062 A 
HETATM    2  C13 UNL     1      -1.361   0.038  -0.737  1.00  0.00     0.048 A 
HETATM    3  C14 UNL     1      -0.236  -0.810  -0.808  1.00  0.00     0.108 A 
HETATM    4  N1  UNL     1       0.880  -0.413  -0.181  1.00  0.00    -0.202 N 
ATOM      5  H1  UNL     1       1.712  -1.002  -0.210  1.00  0.00     0.183 HD
HETATM    6  C15 UNL     1       0.914   0.754   0.486  1.00  0.00     0.683 A 
HETATM    7  N5  UNL     1      -0.164   1.539   0.540  1.00  0.00    -0.191 N 
ATOM      8  H5  UNL     1      -0.099   2.416   1.057  1.00  0.00     0.184 HD
ENDROOT
BRANCH   6   9
HETATM    9  N2  UNL     1       2.019   1.085   1.070  1.00  0.00    -0.190 N 
ATOM     10  H2  UNL     1       2.053   1.968   1.579  1.00  0.00     0.184 HD
BRANCH   9  11
HETATM   11  C16 UNL     1       3.184   0.282   1.038  1.00  0.00     0.065 A 
HETATM   12  C17 UNL     1       3.360  -0.663   2.024  1.00  0.00     0.119 A 
HETATM   13  N3  UNL     1       4.433  -1.470   2.074  1.00  0.00    -0.349 N 
HETATM   14  C18 UNL     1       5.390  -1.350   1.112  1.00  0.00     0.118 A 
ATOM     15  H3  UNL     1       4.529  -2.160   2.819  1.00  0.00     0.167 HD
HETATM   16  N4  UNL     1       6.484  -2.138   1.122  1.00  0.00    -0.309 N 
HETATM   17  C22 UNL     1       5.274  -0.423   0.098  1.00  0.00     0.010 A 
HETATM   18  C19 UNL     1       7.435  -2.029   0.179  1.00  0.00     0.246 A 
ATOM     19  H4  UNL     1       6.592  -2.832   1.862  1.00  0.00     0.170 HD
HETATM   20  O1  UNL     1       8.437  -2.778   0.221  1.00  0.00    -0.268 OA
HETATM   21  C20 UNL     1       7.365  -1.120  -0.854  1.00  0.00     0.075 A 
HETATM   22  C21 UNL     1       6.258  -0.301  -0.890  1.00  0.00     0.021 A 
HETATM   23  C23 UNL     1       4.156   0.393   0.074  1.00  0.00     0.046 A 
ENDBRANCH   9  11
ENDBRANCH   6   9
BRANCH   1  24
HETATM   24  C11 UNL     1      -2.447   2.180  -0.020  1.00  0.00     0.010 A 
HETATM   25  C6  UNL     1      -3.750   1.854   0.084  1.00  0.00     0.030 A 
HETATM   26  C7  UNL     1      -4.750   2.851   0.177  1.00  0.00     0.021 A 
HETATM   27  C8  UNL     1      -4.368   4.167   0.161  1.00  0.00     0.002 A 
HETATM   28  C9  UNL     1      -3.050   4.554   0.059  1.00  0.00     0.001 A 
HETATM   29  C10 UNL     1      -2.120   3.563  -0.029  1.00  0.00     0.015 A 
BRANCH  25  30
HETATM   30  C5  UNL     1      -4.186   0.493   0.203  1.00  0.00    -0.066 C 
HETATM   31  C4  UNL     1      -4.586  -0.660   0.339  1.00  0.00    -0.097 C 
BRANCH  31  32
HETATM   32  C3  UNL     1      -5.040  -2.040   0.511  1.00  0.00     0.120 C 
BRANCH  32  33
HETATM   33  C2  UNL     1      -5.238  -2.607  -0.845  1.00  0.00    -0.025 C 
HETATM   34  C1  UNL     1      -6.426  -3.051  -1.222  1.00  0.00     0.008 C 
ENDBRANCH  32  33
ENDBRANCH  31  32
ENDBRANCH  25  30
ENDBRANCH   1  24
TORSDOF 6
