REMARK  5 active torsions:
REMARK  status: ('A' for Active; 'I' for Inactive)
REMARK    1  A    between atoms: C5_5  and  N1_6 
REMARK    2  A    between atoms: N1_6  and  C6_8 
REMARK    3  A    between atoms: C10_14  and  C11_15 
REMARK    4  A    between atoms: C14_20  and  N4_21 
REMARK       I    between atoms: N4_21  and  C15_23 
REMARK    5  A    between atoms: C15_23  and  C16_25 
ROOT
HETATM    1  C11 UNL     1       0.533  -1.999   0.888  1.00  0.00     0.064 A 
HETATM    2  C12 UNL     1       1.674  -2.648   1.293  1.00  0.00     0.048 A 
HETATM    3  C13 UNL     1       2.818  -1.930   1.647  1.00  0.00     0.108 A 
HETATM    4  N3  UNL     1       2.754  -0.595   1.574  1.00  0.00    -0.202 N 
ATOM      5  H3  UNL     1       3.576  -0.046   1.827  1.00  0.00     0.183 HD
HETATM    6  C14 UNL     1       1.640   0.043   1.178  1.00  0.00     0.685 A 
HETATM    7  N5  UNL     1       0.549  -0.651   0.841  1.00  0.00    -0.191 N 
ATOM      8  H5  UNL     1      -0.289  -0.151   0.542  1.00  0.00     0.184 HD
ENDROOT
BRANCH   1   9
HETATM    9  C10 UNL     1      -0.675  -2.744   0.513  1.00  0.00     0.035 A 
HETATM   10  C6  UNL     1      -1.795  -2.032   0.111  1.00  0.00     0.118 A 
HETATM   11  N2  UNL     1      -2.957  -2.649  -0.253  1.00  0.00    -0.352 N 
HETATM   12  C7  UNL     1      -3.060  -3.989  -0.235  1.00  0.00     0.090 A 
ATOM     13  H2  UNL     1      -3.757  -2.086  -0.542  1.00  0.00     0.166 HD
HETATM   14  C8  UNL     1      -1.959  -4.709   0.162  1.00  0.00     0.018 A 
HETATM   15  C9  UNL     1      -0.749  -4.109   0.542  1.00  0.00     0.019 A 
BRANCH  10  16
HETATM   16  N1  UNL     1      -1.697  -0.743   0.093  1.00  0.00    -0.341 N 
ATOM     17  H1  UNL     1      -0.828  -0.283   0.365  1.00  0.00     0.167 HD
BRANCH  16  18
HETATM   18  C5  UNL     1      -2.826   0.021  -0.314  1.00  0.00     0.049 A 
HETATM   19  C4  UNL     1      -2.946   0.454  -1.631  1.00  0.00     0.033 A 
HETATM   20  C3  UNL     1      -4.058   1.190  -1.973  1.00  0.00     0.027 A 
HETATM   21  C2  UNL     1      -5.045   1.510  -1.073  1.00  0.00     0.005 A 
HETATM   22  C1  UNL     1      -6.236   2.310  -1.481  1.00  0.00     0.068 C 
HETATM   23  N6  UNL     1      -4.917   1.086   0.191  1.00  0.00    -0.367 N 
HETATM   24  C22 UNL     1      -3.843   0.371   0.535  1.00  0.00     0.117 A 
ATOM     25  H6  UNL     1      -5.632   1.307   0.884  1.00  0.00     0.165 HD
ENDBRANCH  16  18
ENDBRANCH  10  16
ENDBRANCH   1   9
BRANCH   6  26
HETATM   26  N4  UNL     1       1.662   1.353   1.134  1.00  0.00    -0.155 N 
HETATM   27  C15 UNL     1       2.833   2.069   1.497  1.00  0.00     0.269 C 
HETATM   28  O1  UNL     1       2.969   2.457   2.695  1.00  0.00    -0.267 OA
ATOM     29  H4  UNL     1       0.830   1.863   0.836  1.00  0.00     0.187 HD
BRANCH  27  30
HETATM   30  C16 UNL     1       3.890   2.381   0.559  1.00  0.00     0.032 A 
HETATM   31  C17 UNL     1       5.018   3.077   0.935  1.00  0.00     0.017 A 
HETATM   32  C18 UNL     1       6.011   3.363   0.023  1.00  0.00     0.001 A 
HETATM   33  C19 UNL     1       5.915   2.969  -1.278  1.00  0.00     0.000 A 
HETATM   34  C20 UNL     1       4.777   2.267  -1.658  1.00  0.00     0.001 A 
HETATM   35  C21 UNL     1       3.779   1.976  -0.754  1.00  0.00     0.017 A 
ENDBRANCH  27  30
ENDBRANCH   6  26
TORSDOF 5
