REMARK  6 active torsions:
REMARK  status: ('A' for Active; 'I' for Inactive)
REMARK    1  A    between atoms: C5_7  and  N2_8 
REMARK    2  A    between atoms: N2_8  and  C6_9 
REMARK    3  A    between atoms: C6_9  and  O1_10 
REMARK    4  A    between atoms: C6_9  and  C7_12 
REMARK    5  A    between atoms: C8_15  and  C9_16 
REMARK    6  A    between atoms: C18_26  and  C19_27 
ROOT
HETATM    1  C9  UNL     1       3.124  -0.754   0.418  1.00  0.00    -0.008 A 
HETATM    2  C10 UNL     1       4.484  -0.670   0.548  1.00  0.00     0.014 A 
HETATM    3  C11 UNL     1       5.310  -1.795   0.404  1.00  0.00     0.002 A 
HETATM    4  C12 UNL     1       4.789  -3.033   0.124  1.00  0.00     0.023 A 
HETATM    5  C13 UNL     1       3.426  -3.132  -0.010  1.00  0.00     0.045 A 
HETATM    6  C14 UNL     1       2.868  -4.418  -0.300  1.00  0.00     0.099 C 
HETATM    7  N4  UNL     1       2.436  -5.456  -0.519  1.00  0.00    -0.191 NA
HETATM    8  C15 UNL     1       2.614  -2.028   0.132  1.00  0.00     0.036 A 
ENDROOT
BRANCH   1   9
HETATM    9  C8  UNL     1       2.223   0.377   0.559  1.00  0.00     0.043 A 
HETATM   10  N3  UNL     1       0.899   0.263   0.452  1.00  0.00    -0.350 N 
HETATM   11  C7  UNL     1       0.052   1.333   0.586  1.00  0.00     0.111 A 
ATOM     12  H3  UNL     1       0.500  -0.657   0.263  1.00  0.00     0.166 HD
HETATM   13  C18 UNL     1       0.518   2.564   0.824  1.00  0.00     0.023 A 
HETATM   14  C17 UNL     1       1.928   2.731   0.951  1.00  0.00     0.018 A 
HETATM   15  C16 UNL     1       2.730   1.623   0.812  1.00  0.00     0.031 A 
BRANCH  11  16
HETATM   16  C6  UNL     1      -1.409   1.041   0.556  1.00  0.00     0.246 C 
BRANCH  16  17
HETATM   17  N2  UNL     1      -1.969  -0.087   0.326  1.00  0.00    -0.344 NA
BRANCH  17  18
HETATM   18  C5  UNL     1      -2.493  -1.146   0.112  1.00  0.00     0.261 A 
HETATM   19  N1  UNL     1      -1.768  -2.305   0.194  1.00  0.00    -0.326 N 
HETATM   20  C4  UNL     1      -2.363  -3.470  -0.067  1.00  0.00     0.094 A 
ATOM     21  H1  UNL     1      -0.782  -2.278   0.452  1.00  0.00     0.169 HD
HETATM   22  C3  UNL     1      -3.695  -3.529  -0.417  1.00  0.00     0.041 A 
HETATM   23  C2  UNL     1      -4.433  -2.369  -0.502  1.00  0.00     0.010 A 
HETATM   24  C1  UNL     1      -5.873  -2.469  -0.881  1.00  0.00     0.068 C 
HETATM   25  N6  UNL     1      -3.837  -1.212  -0.242  1.00  0.00    -0.320 N 
ATOM     26  H6  UNL     1      -4.378  -0.349  -0.303  1.00  0.00     0.169 HD
ENDBRANCH  17  18
ENDBRANCH  16  17
BRANCH  16  27
HETATM   27  O1  UNL     1      -2.177   2.073   0.790  1.00  0.00    -0.334 OA
ATOM     28  H1  UNL     1      -1.761   2.910   0.961  1.00  0.00     0.220 HD
ENDBRANCH  16  27
ENDBRANCH  11  16
BRANCH  13  29
HETATM   29  C19 UNL     1      -0.215   3.802   0.728  1.00  0.00     0.044 A 
HETATM   30  C20 UNL     1      -1.080   4.347  -0.177  1.00  0.00     0.032 A 
HETATM   31  C21 UNL     1      -1.332   5.660   0.170  1.00  0.00     0.019 A 
HETATM   32  C22 UNL     1      -0.609   5.926   1.306  1.00  0.00     0.088 A 
HETATM   33  N5  UNL     1       0.042   4.820   1.617  1.00  0.00    -0.365 N 
ATOM     34  H5  UNL     1       0.662   4.731   2.422  1.00  0.00     0.165 HD
ENDBRANCH  13  29
ENDBRANCH   1   9
TORSDOF 6
