REMARK  5 active torsions:
REMARK  status: ('A' for Active; 'I' for Inactive)
REMARK    1  A    between atoms: C2_3  and  N2_4 
REMARK    2  A    between atoms: C2_3  and  O2_10 
REMARK    3  A    between atoms: N2_4  and  C3_6 
REMARK    4  A    between atoms: C3_6  and  C4_7 
REMARK    5  A    between atoms: O2_10  and  C6_11 
ROOT
HETATM    1  C1  UNL     1       2.446   0.098   2.801  1.00  0.00     0.233 C 
HETATM    2  N1  UNL     1       2.376   0.123   1.471  1.00  0.00    -0.390 NA
HETATM    3  C2  UNL     1       2.313   0.145   0.279  1.00  0.00     0.295 C 
ENDROOT
BRANCH   3   4
HETATM    4  N2  UNL     1       3.296   0.817  -0.520  1.00  0.00    -0.338 N 
ATOM      5  H2  UNL     1       3.026   1.452  -1.271  1.00  0.00     0.164 HD
BRANCH   4   6
HETATM    6  C3  UNL     1       4.677   0.559  -0.219  1.00  0.00     0.202 C 
BRANCH   6   7
HETATM    7  C4  UNL     1       5.603   1.305  -1.105  1.00  0.00     0.140 C 
HETATM    8  C5  UNL     1       7.072   1.207  -0.991  1.00  0.00     0.092 C 
HETATM    9  O1  UNL     1       5.126   2.024  -1.958  1.00  0.00    -0.297 OA
ENDBRANCH   6   7
ENDBRANCH   4   6
ENDBRANCH   3   4
BRANCH   3  10
HETATM   10  O2  UNL     1       1.250  -0.502  -0.391  1.00  0.00    -0.305 OA
BRANCH  10  11
HETATM   11  C6  UNL     1       0.056  -0.706   0.263  1.00  0.00     0.144 C 
HETATM   12  C7  UNL     1      -0.715   0.440   0.740  1.00  0.00     0.054 C 
HETATM   13  C8  UNL     1      -0.569   1.770   0.113  1.00  0.00     0.230 C 
HETATM   14  C15 UNL     1      -2.200   0.088   0.489  1.00  0.00     0.004 C 
HETATM   15  C9  UNL     1      -0.813   1.849  -1.356  1.00  0.00     0.036 C 
HETATM   16  N3  UNL     1      -1.419   2.704   0.792  1.00  0.00     0.093 N 
HETATM   17  C10 UNL     1      -0.085   3.104  -1.866  1.00  0.00     0.004 C 
HETATM   18  C11 UNL     1      -0.402   4.195  -0.871  1.00  0.00     0.030 C 
HETATM   19  C12 UNL     1      -1.609   3.861  -0.060  1.00  0.00     0.273 C 
HETATM   20  C13 UNL     1      -2.638   2.300   1.323  1.00  0.00     0.273 C 
HETATM   21  C14 UNL     1      -2.930   0.848   1.502  1.00  0.00     0.036 C 
HETATM   22  C16 UNL     1      -2.149  -1.376   0.510  1.00  0.00    -0.034 C 
HETATM   23  C17 UNL     1      -1.769  -1.998   1.807  1.00  0.00     0.016 C 
HETATM   24  C18 UNL     1      -3.278  -2.070  -0.191  1.00  0.00     0.010 C 
HETATM   25  C23 UNL     1      -0.958  -1.555  -0.463  1.00  0.00     0.024 C 
HETATM   26  C19 UNL     1      -3.036  -3.528  -0.391  1.00  0.00     0.005 C 
HETATM   27  C20 UNL     1      -1.658  -3.972  -0.608  1.00  0.00    -0.018 C 
HETATM   28  C21 UNL     1      -1.611  -4.858  -1.866  1.00  0.00     0.010 C 
HETATM   29  C22 UNL     1      -0.582  -2.959  -0.673  1.00  0.00     0.012 C 
ENDBRANCH  10  11
ENDBRANCH   3  10
TORSDOF 5
