REMARK  4 active torsions:
REMARK  status: ('A' for Active; 'I' for Inactive)
REMARK    1  A    between atoms: C9_9  and  N1_10 
REMARK    2  A    between atoms: N1_10  and  C10_12 
REMARK    3  A    between atoms: C14_16  and  N2_17 
REMARK    4  A    between atoms: N3_20  and  C17_21 
ROOT
HETATM    1  C10 UNL     1      -1.477  -1.369  -0.605  1.00  0.00     0.103 C 
HETATM    2  C11 UNL     1      -2.174  -2.425  -1.380  1.00  0.00     0.027 C 
HETATM    3  C12 UNL     1      -1.094  -3.469  -1.718  1.00  0.00     0.004 C 
HETATM    4  C13 UNL     1      -0.387  -3.535  -0.364  1.00  0.00     0.027 C 
HETATM    5  C14 UNL     1      -0.341  -2.133   0.118  1.00  0.00     0.101 C 
ENDROOT
BRANCH   5   6
HETATM    6  N2  UNL     1       0.867  -1.447  -0.006  1.00  0.00    -0.403 N 
HETATM    7  C15 UNL     1       0.972  -0.159   0.564  1.00  0.00     0.147 C 
HETATM    8  C16 UNL     1       2.212   0.590   0.234  1.00  0.00     0.292 C 
HETATM    9  N3  UNL     1       3.335  -0.240  -0.041  1.00  0.00     0.096 N 
HETATM   10  C23 UNL     1       3.140  -1.335  -0.915  1.00  0.00     0.292 C 
HETATM   11  C24 UNL     1       1.686  -1.690  -1.143  1.00  0.00     0.147 C 
BRANCH   9  12
HETATM   12  C17 UNL     1       4.465   0.586  -0.412  1.00  0.00     0.226 C 
HETATM   13  C18 UNL     1       4.867   1.485   0.738  1.00  0.00     0.066 C 
HETATM   14  C19 UNL     1       6.234   2.059   0.468  1.00  0.00     0.274 C 
HETATM   15  N4  UNL     1       7.264   1.071   0.333  1.00  0.00     0.084 N 
HETATM   16  C20 UNL     1       8.349   1.199   1.254  1.00  0.00     0.309 C 
HETATM   17  C21 UNL     1       6.704  -0.261   0.295  1.00  0.00     0.274 C 
HETATM   18  C22 UNL     1       5.635  -0.253  -0.797  1.00  0.00     0.066 C 
ENDBRANCH   9  12
ENDBRANCH   5   6
BRANCH   1  19
HETATM   19  N1  UNL     1      -2.215  -0.621   0.291  1.00  0.00    -0.389 N 
ATOM     20  H1  UNL     1      -1.983  -0.726   1.279  1.00  0.00     0.159 HD
BRANCH  19  21
HETATM   21  C9  UNL     1      -3.254   0.270  -0.024  1.00  0.00    -0.014 C 
HETATM   22  C2  UNL     1      -4.502  -0.289  -0.559  1.00  0.00     0.027 C 
HETATM   23  C1  UNL     1      -5.270  -1.252   0.297  1.00  0.00     0.016 C 
HETATM   24  C3  UNL     1      -5.397   0.779  -1.179  1.00  0.00     0.010 C 
HETATM   25  C4  UNL     1      -6.361   1.453  -0.301  1.00  0.00     0.001 C 
HETATM   26  C5  UNL     1      -5.882   2.861   0.059  1.00  0.00     0.000 C 
HETATM   27  C6  UNL     1      -5.267   2.926   1.413  1.00  0.00     0.000 C 
HETATM   28  C7  UNL     1      -4.503   1.634   1.769  1.00  0.00     0.006 C 
HETATM   29  C8  UNL     1      -3.343   1.442   0.906  1.00  0.00     0.052 C 
ENDBRANCH  19  21
ENDBRANCH   1  19
TORSDOF 4
