REMARK  14 active torsions:
REMARK  status: ('A' for Active; 'I' for Inactive)
REMARK    1  A    between atoms: C2_2  and  O1_5 
REMARK    2  A    between atoms: O1_5  and  C5_6 
REMARK       I    between atoms: C5_6  and  N1_8 
REMARK    3  A    between atoms: N1_8  and  C6_10 
REMARK    4  A    between atoms: C6_10  and  C7_11 
REMARK    5  A    between atoms: C7_11  and  O3_12 
REMARK    6  A    between atoms: O3_12  and  C8_13 
REMARK    7  A    between atoms: C10_17  and  O4_18 
REMARK    8  A    between atoms: O4_18  and  C11_19 
REMARK    9  A    between atoms: C11_19  and  C12_20 
REMARK   10  A    between atoms: C12_20  and  C13_21 
REMARK       I    between atoms: C13_21  and  N3_23 
REMARK   11  A    between atoms: C19_29  and  C20_30 
REMARK       I    between atoms: C20_30  and  N4_32 
REMARK   12  A    between atoms: N5_35  and  C23_36 
REMARK   13  A    between atoms: C23_36  and  C24_37 
REMARK   14  A    between atoms: C24_37  and  C25_38 
ROOT
HETATM    1  C8  UNL     1      -2.133  -0.682  -1.181  1.00  0.00     0.158 A 
HETATM    2  N2  UNL     1      -3.235  -0.085  -0.695  1.00  0.00    -0.343 N 
ATOM      3  H2  UNL     1      -4.027  -0.662  -0.411  1.00  0.00     0.167 HD
HETATM    4  C9  UNL     1      -3.323   1.245  -0.573  1.00  0.00     0.127 A 
HETATM    5  C10 UNL     1      -2.285   2.077  -0.940  1.00  0.00     0.085 A 
HETATM    6  C18 UNL     1      -1.136   1.514  -1.442  1.00  0.00     0.059 A 
HETATM    7  C19 UNL     1      -1.059   0.147  -1.562  1.00  0.00     0.085 A 
ENDROOT
BRANCH   7   8
HETATM    8  C20 UNL     1       0.151  -0.466  -2.095  1.00  0.00     0.258 C 
HETATM    9  O6  UNL     1       0.178  -0.620  -3.358  1.00  0.00    -0.267 OA
HETATM   10  N4  UNL     1       1.244  -0.877  -1.301  1.00  0.00    -0.345 N 
HETATM   11  C21 UNL     1       2.388  -1.468  -1.918  1.00  0.00     0.145 C 
HETATM   12  C31 UNL     1       1.196  -0.697   0.134  1.00  0.00     0.145 C 
HETATM   13  C22 UNL     1       3.345  -2.071  -0.923  1.00  0.00     0.136 C 
HETATM   14  N5  UNL     1       3.476  -1.374   0.305  1.00  0.00    -0.409 N 
HETATM   15  C30 UNL     1       2.593  -0.293   0.552  1.00  0.00     0.136 C 
BRANCH  14  16
HETATM   16  C23 UNL     1       4.851  -1.101   0.672  1.00  0.00     0.119 C 
BRANCH  16  17
HETATM   17  C24 UNL     1       5.513  -0.114  -0.223  1.00  0.00     0.052 C 
BRANCH  17  18
HETATM   18  C25 UNL     1       6.931   0.106   0.249  1.00  0.00     0.187 C 
HETATM   19  C26 UNL     1       7.643   1.118  -0.638  1.00  0.00     0.033 C 
HETATM   20  C27 UNL     1       8.934   1.484   0.033  1.00  0.00     0.004 C 
HETATM   21  C28 UNL     1       9.778   0.219   0.176  1.00  0.00     0.027 C 
HETATM   22  C29 UNL     1       8.975  -0.740   1.001  1.00  0.00     0.232 C 
HETATM   23  N6  UNL     1       7.742  -1.067   0.288  1.00  0.00    -0.071 N 
ATOM     24  H62 UNL     1       7.256  -1.870   0.688  1.00  0.00     0.277 HD
ATOM     25  H61 UNL     1       7.914  -1.459  -0.638  1.00  0.00     0.277 HD
ENDBRANCH  17  18
ENDBRANCH  16  17
ENDBRANCH  14  16
ENDBRANCH   7   8
BRANCH   1  26
HETATM   26  O3  UNL     1      -1.950  -2.024  -1.345  1.00  0.00    -0.333 OA
BRANCH  26  27
HETATM   27  C7  UNL     1      -2.845  -3.040  -1.043  1.00  0.00     0.197 C 
BRANCH  27  28
HETATM   28  C6  UNL     1      -3.151  -3.061   0.427  1.00  0.00     0.151 C 
BRANCH  28  29
HETATM   29  N1  UNL     1      -4.074  -4.091   0.822  1.00  0.00    -0.335 N 
HETATM   30  C5  UNL     1      -3.764  -5.459   0.623  1.00  0.00     0.361 C 
HETATM   31  O2  UNL     1      -2.703  -5.883   0.110  1.00  0.00    -0.238 OA
ATOM     32  H1  UNL     1      -4.963  -3.833   1.251  1.00  0.00     0.164 HD
BRANCH  30  33
HETATM   33  O1  UNL     1      -4.688  -6.447   1.014  1.00  0.00    -0.294 OA
BRANCH  33  34
HETATM   34  C2  UNL     1      -4.388  -7.792   0.818  1.00  0.00     0.061 C 
HETATM   35  C1  UNL     1      -3.158  -8.280   1.518  1.00  0.00     0.046 C 
HETATM   36  C3  UNL     1      -5.566  -8.614   1.347  1.00  0.00     0.046 C 
HETATM   37  C4  UNL     1      -4.232  -8.128  -0.657  1.00  0.00     0.046 C 
ENDBRANCH  33  34
ENDBRANCH  30  33
ENDBRANCH  28  29
ENDBRANCH  27  28
ENDBRANCH  26  27
ENDBRANCH   1  26
BRANCH   5  38
HETATM   38  O4  UNL     1      -2.427   3.431  -0.794  1.00  0.00    -0.349 OA
BRANCH  38  39
HETATM   39  C11 UNL     1      -3.541   4.110  -0.297  1.00  0.00     0.185 C 
BRANCH  39  40
HETATM   40  C12 UNL     1      -3.220   5.594  -0.341  1.00  0.00     0.129 C 
BRANCH  40  41
HETATM   41  C13 UNL     1      -4.391   6.337   0.187  1.00  0.00     0.221 C 
HETATM   42  O5  UNL     1      -5.403   5.700   0.631  1.00  0.00    -0.273 OA
HETATM   43  N3  UNL     1      -4.398   7.746   0.204  1.00  0.00    -0.352 N 
HETATM   44  C14 UNL     1      -3.342   8.603  -0.260  1.00  0.00     0.126 C 
HETATM   45  C17 UNL     1      -5.462   8.582   0.688  1.00  0.00     0.126 C 
HETATM   46  C15 UNL     1      -3.343   9.720   0.759  1.00  0.00     0.021 C 
HETATM   47  C16 UNL     1      -4.700   9.647   1.452  1.00  0.00     0.021 C 
ENDBRANCH  40  41
ENDBRANCH  39  40
ENDBRANCH  38  39
ENDBRANCH   5  38
TORSDOF 14
