REMARK  14 active torsions:
REMARK  status: ('A' for Active; 'I' for Inactive)
REMARK    1  A    between atoms: C2_2  and  O1_3 
REMARK    2  A    between atoms: O1_3  and  C3_4 
REMARK    3  A    between atoms: C3_4  and  C4_6 
REMARK    4  A    between atoms: C5_7  and  C6_8 
REMARK    5  A    between atoms: C6_8  and  N1_9 
REMARK       I    between atoms: N2_12  and  C9_13 
REMARK    6  A    between atoms: C9_13  and  C10_15 
REMARK    7  A    between atoms: C10_15  and  C11_16 
REMARK    8  A    between atoms: C11_16  and  C12_17 
REMARK    9  A    between atoms: C12_17  and  C13_18 
REMARK   10  A    between atoms: C17_29  and  C18_30 
REMARK   11  A    between atoms: C20_32  and  O7_33 
REMARK   12  A    between atoms: C22_35  and  O8_36 
REMARK   13  A    between atoms: C24_38  and  O9_39 
REMARK   14  A    between atoms: C26_41  and  C27_42 
ROOT
HETATM    1  C4  UNL     1      -0.564   0.216  -1.551  1.00  0.00     0.160 C 
HETATM    2  C5  UNL     1       0.793  -0.521  -1.548  1.00  0.00     0.035 C 
HETATM    3  N3  UNL     1       0.869  -1.799  -1.671  1.00  0.00    -0.314 N 
ATOM      4  H3  UNL     1       1.783  -2.251  -1.672  1.00  0.00     0.170 HD
HETATM    5  C16 UNL     1      -0.303  -2.587  -1.805  1.00  0.00     0.320 C 
HETATM    6  O6  UNL     1      -0.375  -3.821  -1.945  1.00  0.00    -0.247 OA
HETATM    7  N4  UNL     1      -1.545  -1.843  -1.776  1.00  0.00    -0.333 N 
ATOM      8  H4  UNL     1      -2.346  -2.061  -2.368  1.00  0.00     0.165 HD
HETATM    9  C17 UNL     1      -1.530  -0.740  -0.804  1.00  0.00     0.139 C 
ENDROOT
BRANCH   9  10
HETATM   10  C18 UNL     1      -2.760  -0.097  -0.477  1.00  0.00    -0.022 A 
HETATM   11  C19 UNL     1      -3.029   1.201  -0.953  1.00  0.00     0.049 A 
HETATM   12  C20 UNL     1      -4.208   1.882  -0.748  1.00  0.00     0.104 A 
HETATM   13  C22 UNL     1      -5.206   1.294  -0.041  1.00  0.00     0.135 A 
HETATM   14  C24 UNL     1      -4.971  -0.001   0.451  1.00  0.00     0.112 A 
HETATM   15  C26 UNL     1      -3.798  -0.703   0.267  1.00  0.00    -0.006 A 
BRANCH  12  16
HETATM   16  O7  UNL     1      -4.297   3.160  -1.293  1.00  0.00    -0.353 OA
HETATM   17  C21 UNL     1      -3.246   3.753  -2.017  1.00  0.00     0.210 C 
ENDBRANCH  12  16
BRANCH  13  18
HETATM   18  O8  UNL     1      -6.406   1.962   0.176  1.00  0.00    -0.351 OA
HETATM   19  C23 UNL     1      -6.615   2.788   1.308  1.00  0.00     0.210 C 
ENDBRANCH  13  18
BRANCH  14  20
HETATM   20  O9  UNL     1      -6.082  -0.485   1.140  1.00  0.00    -0.352 OA
HETATM   21  C25 UNL     1      -7.123  -1.007   0.248  1.00  0.00     0.210 C 
ENDBRANCH  14  20
BRANCH  15  22
HETATM   22  C27 UNL     1      -3.620  -1.961   0.935  1.00  0.00    -0.021 C 
HETATM   23  C28 UNL     1      -2.396  -1.786   1.897  1.00  0.00     0.019 C 
HETATM   24  C29 UNL     1      -4.695  -2.288   2.013  1.00  0.00     0.019 C 
HETATM   25  C30 UNL     1      -3.407  -3.250   0.275  1.00  0.00     0.019 C 
ENDBRANCH  15  22
ENDBRANCH   9  10
BRANCH   1  26
HETATM   26  C3  UNL     1      -0.806   0.400  -2.975  1.00  0.00     0.271 C 
HETATM   27  O2  UNL     1      -0.541   1.525  -3.546  1.00  0.00    -0.264 OA
BRANCH  26  28
HETATM   28  O1  UNL     1      -1.306  -0.547  -3.811  1.00  0.00    -0.321 OA
BRANCH  28  29
HETATM   29  C2  UNL     1      -1.503  -0.283  -5.182  1.00  0.00     0.174 C 
HETATM   30  C1  UNL     1      -2.065  -1.528  -5.842  1.00  0.00     0.034 C 
ENDBRANCH  28  29
ENDBRANCH  26  28
ENDBRANCH   1  26
BRANCH   2  31
HETATM   31  C6  UNL     1       1.990   0.310  -1.401  1.00  0.00     0.326 C 
BRANCH  31  32
HETATM   32  N1  UNL     1       2.052   1.007  -0.131  1.00  0.00     0.096 N 
HETATM   33  C7  UNL     1       3.258   1.809  -0.148  1.00  0.00     0.292 C 
HETATM   34  C8  UNL     1       4.482   1.009   0.213  1.00  0.00     0.156 C 
HETATM   35  N2  UNL     1       4.324   0.607   1.592  1.00  0.00    -0.349 N 
HETATM   36  C9  UNL     1       5.469   0.462   2.413  1.00  0.00     0.219 C 
HETATM   37  C14 UNL     1       2.982   0.374   2.073  1.00  0.00     0.156 C 
HETATM   38  O3  UNL     1       5.299   0.094   3.625  1.00  0.00    -0.273 OA
HETATM   39  C15 UNL     1       2.005   0.077   0.969  1.00  0.00     0.292 C 
BRANCH  36  40
HETATM   40  C10 UNL     1       6.843   0.718   1.926  1.00  0.00     0.103 C 
BRANCH  40  41
HETATM   41  C11 UNL     1       7.879   0.410   2.984  1.00  0.00     0.020 C 
BRANCH  41  42
HETATM   42  C12 UNL     1       9.269   0.686   2.459  1.00  0.00     0.113 C 
BRANCH  42  43
HETATM   43  C13 UNL     1      10.253   0.351   3.546  1.00  0.00     0.172 C 
HETATM   44  O4  UNL     1      10.368   1.055   4.564  1.00  0.00    -0.648 OA
HETATM   45  O5  UNL     1      11.010  -0.772   3.347  1.00  0.00    -0.648 OA
ENDBRANCH  42  43
ENDBRANCH  41  42
ENDBRANCH  40  41
ENDBRANCH  36  40
ENDBRANCH  31  32
ENDBRANCH   2  31
TORSDOF 14
