REMARK  12 active torsions:
REMARK  status: ('A' for Active; 'I' for Inactive)
REMARK    1  A    between atoms: C2_2  and  C3_3 
REMARK    2  A    between atoms: C3_3  and  N1_4 
REMARK    3  A    between atoms: C5_6  and  C6_7 
REMARK       I    between atoms: C6_7  and  N2_9 
REMARK    4  A    between atoms: N2_9  and  C7_11 
REMARK    5  A    between atoms: C7_11  and  C8_12 
REMARK    6  A    between atoms: C8_12  and  C9_13 
REMARK    7  A    between atoms: C9_13  and  N3_14 
REMARK    8  A    between atoms: N4_17  and  C12_18 
REMARK    9  A    between atoms: C12_18  and  C13_19 
REMARK   10  A    between atoms: C13_19  and  C14_20 
REMARK   11  A    between atoms: C14_20  and  N5_21 
REMARK   12  A    between atoms: C27_35  and  O3_36 
ROOT
HETATM    1  N1  UNL     1      -6.674   1.040   2.256  1.00  0.00    -0.354 N 
HETATM    2  C4  UNL     1      -5.340   0.971   2.536  1.00  0.00     0.112 A 
HETATM    3  C5  UNL     1      -4.368   0.385   1.760  1.00  0.00     0.098 A 
HETATM    4  C22 UNL     1      -4.782  -0.179   0.605  1.00  0.00     0.201 A 
HETATM    5  O2  UNL     1      -4.015  -0.757  -0.212  1.00  0.00    -0.286 OA
HETATM    6  C23 UNL     1      -6.111  -0.145   0.266  1.00  0.00     0.044 A 
HETATM    7  C24 UNL     1      -6.513  -0.739  -0.926  1.00  0.00     0.031 A 
HETATM    8  C25 UNL     1      -7.824  -0.742  -1.310  1.00  0.00    -0.004 A 
HETATM    9  C26 UNL     1      -8.247  -1.317  -2.477  1.00  0.00     0.056 A 
HETATM   10  C27 UNL     1      -9.590  -1.307  -2.846  1.00  0.00     0.137 A 
HETATM   11  C29 UNL     1     -10.436  -0.684  -1.959  1.00  0.00     0.279 A 
HETATM   12  O4  UNL     1     -11.670  -0.662  -2.275  1.00  0.00    -0.265 OA
HETATM   13  N6  UNL     1     -10.038  -0.110  -0.803  1.00  0.00    -0.319 N 
ATOM     14  H6  UNL     1     -10.715   0.338  -0.186  1.00  0.00     0.169 HD
HETATM   15  C30 UNL     1      -8.729  -0.140  -0.480  1.00  0.00     0.068 A 
HETATM   16  C31 UNL     1      -8.375   0.476   0.738  1.00  0.00     0.100 A 
HETATM   17  C32 UNL     1      -9.429   1.029   1.529  1.00  0.00     0.104 C 
HETATM   18  N7  UNL     1     -10.342   1.450   2.118  1.00  0.00    -0.191 NA
HETATM   19  C33 UNL     1      -7.066   0.472   1.103  1.00  0.00     0.071 A 
ENDROOT
BRANCH   1  20
HETATM   20  C3  UNL     1      -7.512   1.764   3.132  1.00  0.00     0.128 C 
BRANCH  20  21
HETATM   21  C2  UNL     1      -7.474   3.273   2.929  1.00  0.00     0.016 C 
HETATM   22  C1  UNL     1      -6.107   3.869   3.144  1.00  0.00     0.006 C 
ENDBRANCH  20  21
ENDBRANCH   1  20
BRANCH  10  23
HETATM   23  O3  UNL     1     -10.041  -1.887  -4.029  1.00  0.00    -0.351 OA
HETATM   24  C28 UNL     1      -9.094  -2.505  -4.879  1.00  0.00     0.210 C 
ENDBRANCH  10  23
BRANCH   3  25
HETATM   25  C6  UNL     1      -2.973   0.433   2.176  1.00  0.00     0.257 C 
HETATM   26  O1  UNL     1      -2.779   0.662   3.408  1.00  0.00    -0.267 OA
HETATM   27  N2  UNL     1      -1.899   0.245   1.286  1.00  0.00    -0.356 N 
ATOM     28  H2  UNL     1      -2.040   0.064   0.292  1.00  0.00     0.162 HD
BRANCH  27  29
HETATM   29  C7  UNL     1      -0.560   0.327   1.888  1.00  0.00     0.128 C 
BRANCH  29  30
HETATM   30  C8  UNL     1       0.520   0.099   0.823  1.00  0.00     0.065 C 
BRANCH  30  31
HETATM   31  C9  UNL     1       1.832   0.216   1.570  1.00  0.00     0.069 C 
BRANCH  31  32
HETATM   32  N3  UNL     1       2.994   0.041   0.829  1.00  0.00    -0.351 N 
HETATM   33  C10 UNL     1       3.385   0.970  -0.153  1.00  0.00     0.098 C 
HETATM   34  C11 UNL     1       4.878   1.171  -0.057  1.00  0.00     0.318 C 
HETATM   35  N4  UNL     1       5.542  -0.080  -0.302  1.00  0.00     0.098 N 
HETATM   36  C20 UNL     1       4.696  -1.233  -0.339  1.00  0.00     0.318 C 
HETATM   37  C21 UNL     1       3.626  -1.215   0.754  1.00  0.00     0.098 C 
BRANCH  35  38
HETATM   38  C12 UNL     1       6.191   0.030  -1.624  1.00  0.00     0.278 C 
BRANCH  38  39
HETATM   39  C13 UNL     1       6.963  -1.217  -1.911  1.00  0.00     0.074 C 
BRANCH  39  40
HETATM   40  C14 UNL     1       8.073  -1.508  -0.970  1.00  0.00     0.060 C 
BRANCH  40  41
HETATM   41  N5  UNL     1       9.161  -0.634  -0.891  1.00  0.00    -0.393 N 
HETATM   42  C15 UNL     1       9.075   0.651  -0.352  1.00  0.00     0.122 C 
HETATM   43  C16 UNL     1      10.428   0.954   0.338  1.00  0.00     0.020 C 
HETATM   44  C17 UNL     1      11.492   0.023  -0.218  1.00  0.00     0.003 C 
HETATM   45  C18 UNL     1      11.385  -0.102  -1.717  1.00  0.00     0.020 C 
HETATM   46  C19 UNL     1      10.013  -0.612  -2.057  1.00  0.00     0.122 C 
ENDBRANCH  40  41
ENDBRANCH  39  40
ENDBRANCH  38  39
ENDBRANCH  35  38
ENDBRANCH  31  32
ENDBRANCH  30  31
ENDBRANCH  29  30
ENDBRANCH  27  29
ENDBRANCH   3  25
TORSDOF 12
