REMARK  12 active torsions:
REMARK  status: ('A' for Active; 'I' for Inactive)
REMARK    1  A    between atoms: C2_2  and  C3_3 
REMARK    2  A    between atoms: C5_5  and  C6_6 
REMARK       I    between atoms: C6_6  and  N1_8 
REMARK    3  A    between atoms: N1_8  and  C7_10 
REMARK    4  A    between atoms: C7_10  and  C8_11 
REMARK       I    between atoms: C8_11  and  N2_13 
REMARK    5  A    between atoms: N2_13  and  C9_15 
REMARK    6  A    between atoms: N3_18  and  C12_19 
REMARK    7  A    between atoms: C12_19  and  C13_20 
REMARK    8  A    between atoms: N4_23  and  C16_24 
REMARK    9  A    between atoms: C16_24  and  C17_25 
REMARK   10  A    between atoms: C17_25  and  C18_26 
REMARK   11  A    between atoms: N5_29  and  C21_30 
REMARK   12  A    between atoms: C24_37  and  N8_38 
ROOT
HETATM    1  C13 UNL     1      -0.634   2.013   0.779  1.00  0.00     0.055 A 
HETATM    2  C14 UNL     1       0.203   3.022   0.364  1.00  0.00     0.047 A 
HETATM    3  C15 UNL     1       1.144   2.393  -0.423  1.00  0.00     0.112 A 
HETATM    4  N4  UNL     1       0.868   1.087  -0.463  1.00  0.00    -0.303 N 
HETATM    5  N9  UNL     1      -0.202   0.873   0.262  1.00  0.00    -0.301 N 
ATOM      6  H9  UNL     1      -0.638  -0.038   0.407  1.00  0.00     0.187 HD
ENDROOT
BRANCH   4   7
HETATM    7  C16 UNL     1       1.594   0.043  -1.162  1.00  0.00     0.148 C 
BRANCH   7   8
HETATM    8  C17 UNL     1       2.651  -0.633  -0.358  1.00  0.00     0.026 C 
BRANCH   8   9
HETATM    9  C18 UNL     1       3.717   0.333   0.092  1.00  0.00    -0.010 C 
HETATM   10  C19 UNL     1       4.429   1.004  -1.051  1.00  0.00     0.024 C 
HETATM   11  C20 UNL     1       5.936   0.883  -0.856  1.00  0.00     0.125 C 
HETATM   12  N5  UNL     1       6.298  -0.505  -0.693  1.00  0.00    -0.365 N 
HETATM   13  C30 UNL     1       5.728  -1.152   0.472  1.00  0.00     0.125 C 
HETATM   14  C31 UNL     1       4.651  -0.301   1.103  1.00  0.00     0.024 C 
BRANCH  12  15
HETATM   15  C21 UNL     1       7.116  -1.183  -1.579  1.00  0.00     0.132 A 
HETATM   16  N6  UNL     1       6.490  -1.820  -2.615  1.00  0.00    -0.337 N 
HETATM   17  C22 UNL     1       7.110  -2.496  -3.571  1.00  0.00     0.182 A 
ATOM     18  H6  UNL     1       5.472  -1.771  -2.654  1.00  0.00     0.168 HD
HETATM   19  N7  UNL     1       8.447  -2.558  -3.513  1.00  0.00    -0.360 N 
HETATM   20  C23 UNL     1       9.163  -1.977  -2.550  1.00  0.00     0.122 A 
ATOM     21  H7  UNL     1       8.941  -3.075  -4.241  1.00  0.00     0.166 HD
HETATM   22  C24 UNL     1       8.484  -1.262  -1.540  1.00  0.00     0.090 A 
BRANCH  22  23
HETATM   23  N8  UNL     1       9.266  -0.677  -0.555  1.00  0.00    -0.377 N 
HETATM   24  C25 UNL     1      10.539  -1.335  -0.195  1.00  0.00     0.123 C 
HETATM   25  C26 UNL     1      10.565  -1.510   1.326  1.00  0.00     0.020 C 
HETATM   26  C27 UNL     1      10.805  -0.118   1.880  1.00  0.00     0.003 C 
HETATM   27  C28 UNL     1      10.388   0.941   0.901  1.00  0.00     0.020 C 
HETATM   28  C29 UNL     1       9.069   0.529   0.196  1.00  0.00     0.123 C 
ENDBRANCH  22  23
ENDBRANCH  12  15
ENDBRANCH   8   9
ENDBRANCH   7   8
ENDBRANCH   4   7
BRANCH   1  29
HETATM   29  C12 UNL     1      -1.821   2.209   1.674  1.00  0.00     0.330 C 
BRANCH  29  30
HETATM   30  N3  UNL     1      -2.610   1.033   1.857  1.00  0.00     0.094 N 
HETATM   31  C11 UNL     1      -3.675   1.388   2.795  1.00  0.00     0.275 C 
HETATM   32  C10 UNL     1      -4.887   1.939   2.096  1.00  0.00     0.055 C 
HETATM   33  C9  UNL     1      -5.533   0.874   1.236  1.00  0.00     0.087 C 
HETATM   34  C33 UNL     1      -4.496  -0.203   0.989  1.00  0.00     0.055 C 
HETATM   35  C32 UNL     1      -3.191   0.518   0.627  1.00  0.00     0.275 C 
BRANCH  33  36
HETATM   36  N2  UNL     1      -6.716   0.322   1.877  1.00  0.00    -0.355 N 
HETATM   37  C8  UNL     1      -7.993   0.395   1.236  1.00  0.00     0.235 C 
HETATM   38  O2  UNL     1      -8.071   0.947   0.115  1.00  0.00    -0.272 OA
ATOM     39  H2  UNL     1      -6.635  -0.121   2.792  1.00  0.00     0.162 HD
BRANCH  37  40
HETATM   40  C7  UNL     1      -9.178  -0.181   1.910  1.00  0.00     0.225 C 
BRANCH  40  41
HETATM   41  N1  UNL     1     -10.373  -0.039   1.135  1.00  0.00    -0.352 N 
HETATM   42  C6  UNL     1     -10.502  -0.639  -0.150  1.00  0.00     0.222 C 
HETATM   43  O1  UNL     1      -9.576  -1.314  -0.648  1.00  0.00    -0.273 OA
ATOM     44  H1  UNL     1     -11.150   0.504   1.512  1.00  0.00     0.162 HD
BRANCH  42  45
HETATM   45  C5  UNL     1     -11.764  -0.477  -0.951  1.00  0.00     0.086 A 
HETATM   46  C3  UNL     1     -12.135  -1.485  -1.950  1.00  0.00     0.021 A 
HETATM   47  C4  UNL     1     -11.526  -0.211  -2.427  1.00  0.00     0.024 A 
BRANCH  46  48
HETATM   48  C2  UNL     1     -13.586  -1.663  -2.215  1.00  0.00    -0.031 C 
HETATM   49  C1  UNL     1     -14.117  -2.865  -1.991  1.00  0.00     0.007 C 
ENDBRANCH  46  48
ENDBRANCH  42  45
ENDBRANCH  40  41
ENDBRANCH  37  40
ENDBRANCH  33  36
ENDBRANCH  29  30
ENDBRANCH   1  29
TORSDOF 12
