REMARK  7 active torsions:
REMARK  status: ('A' for Active; 'I' for Inactive)
REMARK    1  A    between atoms: C2_2  and  C4_4 
REMARK    2  A    between atoms: C10_10  and  C12_12 
REMARK    3  A    between atoms: C13_13  and  C15_15 
REMARK    4  A    between atoms: C19_20  and  O1_21 
REMARK    5  A    between atoms: O1_21  and  C20_22 
REMARK    6  A    between atoms: C23_26  and  C24_27 
REMARK    7  A    between atoms: C24_27  and  C25_28 
ROOT
HETATM    1  C4  UNL     1      -3.137  -0.932   0.562  1.00  0.00    -0.065 C 
HETATM    2  C5  UNL     1      -2.982  -1.927   1.626  1.00  0.00     0.036 C 
HETATM    3  C6  UNL     1      -1.861  -2.907   1.244  1.00  0.00     0.005 C 
HETATM    4  C7  UNL     1      -0.658  -1.954   1.421  1.00  0.00     0.012 C 
HETATM    5  C8  UNL     1      -0.653  -1.095   0.180  1.00  0.00    -0.019 C 
HETATM    6  C9  UNL     1       0.187  -1.948  -0.770  1.00  0.00     0.017 C 
HETATM    7  C10 UNL     1       0.277   0.097   0.516  1.00  0.00     0.009 C 
HETATM    8  C11 UNL     1      -0.054   0.507   2.015  1.00  0.00     0.023 C 
HETATM    9  C19 UNL     1      -0.257   1.197  -0.265  1.00  0.00     0.145 C 
HETATM   10  C22 UNL     1      -1.771   0.890  -0.262  1.00  0.00     0.049 C 
HETATM   11  C23 UNL     1      -1.929  -0.605  -0.313  1.00  0.00     0.004 C 
ENDROOT
BRANCH   7  12
HETATM   12  C12 UNL     1       1.640  -0.307   0.596  1.00  0.00    -0.006 C 
HETATM   13  C13 UNL     1       2.847  -0.371   0.177  1.00  0.00    -0.043 C 
HETATM   14  C14 UNL     1       3.810  -1.183   1.125  1.00  0.00     0.049 C 
BRANCH  13  15
HETATM   15  C15 UNL     1       3.498   0.085  -1.001  1.00  0.00     0.041 C 
HETATM   16 CL1  UNL     1       2.543   0.862  -2.299  1.00  0.00    -0.084 Cl
HETATM   17  C16 UNL     1       4.768  -0.004  -1.341  1.00  0.00    -0.065 C 
HETATM   18  C17 UNL     1       5.932  -0.567  -0.685  1.00  0.00     0.044 C 
HETATM   19  C18 UNL     1       5.070   0.619  -2.709  1.00  0.00     0.044 C 
ENDBRANCH  13  15
ENDBRANCH   7  12
BRANCH   9  20
HETATM   20  O1  UNL     1      -0.053   2.416   0.444  1.00  0.00    -0.315 OA
BRANCH  20  21
HETATM   21  C20 UNL     1       0.385   3.594  -0.056  1.00  0.00     0.255 C 
HETATM   22  C21 UNL     1       0.582   4.829   0.770  1.00  0.00     0.126 C 
HETATM   23  O2  UNL     1       0.638   3.662  -1.266  1.00  0.00    -0.266 OA
ENDBRANCH  20  21
ENDBRANCH   9  20
BRANCH  11  24
HETATM   24  C24 UNL     1      -2.379  -1.006  -1.700  1.00  0.00     0.128 C 
BRANCH  24  25
HETATM   25  C25 UNL     1      -1.572  -0.884  -2.878  1.00  0.00     0.173 C 
HETATM   26  O3  UNL     1      -1.214  -1.945  -3.516  1.00  0.00    -0.648 OA
HETATM   27  O4  UNL     1      -1.083   0.252  -3.490  1.00  0.00    -0.648 OA
ENDBRANCH  24  25
ENDBRANCH  11  24
BRANCH   1  28
HETATM   28  C2  UNL     1      -3.984   0.186   1.010  1.00  0.00    -0.068 C 
HETATM   29  C1  UNL     1      -4.152   0.546   2.279  1.00  0.00     0.018 C 
HETATM   30  C3  UNL     1      -4.832   1.005   0.056  1.00  0.00     0.047 C 
ENDBRANCH   1  28
TORSDOF 7
