REMARK  7 active torsions:
REMARK  status: ('A' for Active; 'I' for Inactive)
REMARK    1  A    between atoms: C2_2  and  O1_3 
REMARK    2  A    between atoms: O1_3  and  C3_4 
REMARK    3  A    between atoms: C7_8  and  C8_9 
REMARK    4  A    between atoms: C9_10  and  C10_11 
REMARK    5  A    between atoms: C14_17  and  O2_18 
REMARK    6  A    between atoms: O2_18  and  C15_19 
REMARK    7  A    between atoms: C23_28  and  O3_29 
ROOT
HETATM    1  C10 UNL     1       0.950  -0.259   2.506  1.00  0.00     0.046 A 
HETATM    2  C11 UNL     1       0.649  -0.337   3.849  1.00  0.00     0.110 A 
HETATM    3  N1  UNL     1      -0.625  -0.645   4.039  1.00  0.00    -0.364 N 
ATOM      4  H1  UNL     1      -1.091  -0.761   4.939  1.00  0.00     0.165 HD
HETATM    5  C12 UNL     1      -1.199  -0.779   2.809  1.00  0.00     0.046 A 
HETATM    6  C13 UNL     1      -2.464  -1.083   2.392  1.00  0.00     0.070 A 
HETATM    7  C14 UNL     1      -2.801  -1.159   1.032  1.00  0.00     0.111 A 
HETATM    8  C23 UNL     1      -1.810  -0.915   0.130  1.00  0.00     0.103 A 
HETATM    9  C25 UNL     1      -0.496  -0.600   0.511  1.00  0.00     0.055 A 
HETATM   10  C26 UNL     1      -0.228  -0.541   1.851  1.00  0.00     0.013 A 
ENDROOT
BRANCH   1  11
HETATM   11  C9  UNL     1       2.186   0.042   1.847  1.00  0.00    -0.059 C 
HETATM   12  C8  UNL     1       3.240   0.298   1.309  1.00  0.00    -0.061 C 
BRANCH  12  13
HETATM   13  C7  UNL     1       4.483   0.619   0.652  1.00  0.00     0.020 A 
HETATM   14  C6  UNL     1       4.927   1.919   0.524  1.00  0.00     0.021 A 
HETATM   15  C5  UNL     1       6.108   2.244  -0.097  1.00  0.00     0.004 A 
HETATM   16  C4  UNL     1       6.912   1.255  -0.628  1.00  0.00     0.037 A 
HETATM   17  C3  UNL     1       6.515  -0.058  -0.528  1.00  0.00     0.070 A 
HETATM   18  C27 UNL     1       5.295  -0.349   0.119  1.00  0.00     0.057 A 
BRANCH  17  19
HETATM   19  O1  UNL     1       7.263  -1.102  -1.036  1.00  0.00    -0.351 OA
BRANCH  19  20
HETATM   20  C2  UNL     1       8.466  -0.942  -1.709  1.00  0.00     0.171 C 
HETATM   21  C1  UNL     1       8.312  -0.162  -2.976  1.00  0.00     0.034 C 
ENDBRANCH  19  20
ENDBRANCH  17  19
ENDBRANCH  12  13
ENDBRANCH   1  11
BRANCH   8  22
HETATM   22  O3  UNL     1      -2.122  -0.982  -1.230  1.00  0.00    -0.353 OA
HETATM   23  C24 UNL     1      -1.138  -0.737  -2.195  1.00  0.00     0.210 C 
ENDBRANCH   8  22
BRANCH   7  24
HETATM   24  O2  UNL     1      -4.110  -1.473   0.790  1.00  0.00    -0.306 OA
BRANCH  24  25
HETATM   25  C15 UNL     1      -5.075  -0.840   0.091  1.00  0.00     0.103 A 
HETATM   26  C16 UNL     1      -5.646   0.364   0.524  1.00  0.00    -0.026 A 
HETATM   27  C17 UNL     1      -5.178   0.971   1.796  1.00  0.00     0.051 C 
HETATM   28  C18 UNL     1      -6.626   0.970  -0.217  1.00  0.00     0.016 A 
HETATM   29  C19 UNL     1      -7.100   0.456  -1.399  1.00  0.00    -0.060 A 
HETATM   30  C20 UNL     1      -8.174   1.164  -2.169  1.00  0.00     0.048 C 
HETATM   31  C21 UNL     1      -6.552  -0.725  -1.839  1.00  0.00     0.033 A 
HETATM   32  C22 UNL     1      -5.550  -1.353  -1.089  1.00  0.00     0.069 A 
HETATM   33 CL1  UNL     1      -5.003  -2.898  -1.753  1.00  0.00    -0.081 Cl
ENDBRANCH  24  25
ENDBRANCH   7  24
TORSDOF 7
