REMARK  3 active torsions:
REMARK  status: ('A' for Active; 'I' for Inactive)
REMARK    1  A    between atoms: C3_3  and  N1_4 
REMARK    2  A    between atoms: C5_7  and  N2_8 
REMARK    3  A    between atoms: C6_10  and  C7_11 
ROOT
HETATM    1  C1  UNL     1       5.041  -4.346   0.399  1.00  0.00     0.098 C 
HETATM    2  C2  UNL     1       4.318  -3.782  -0.411  1.00  0.00    -0.167 C 
HETATM    3  C3  UNL     1       3.437  -3.127  -1.373  1.00  0.00     0.212 C 
ENDROOT
BRANCH   3   4
HETATM    4  N1  UNL     1       3.212  -1.762  -1.017  1.00  0.00    -0.299 N 
HETATM    5  C4  UNL     1       2.174  -1.428  -0.233  1.00  0.00     0.293 A 
HETATM    6  O1  UNL     1       1.442  -2.351   0.153  1.00  0.00    -0.264 OA
HETATM    7  C5  UNL     1       1.895  -0.100   0.154  1.00  0.00     0.175 A 
HETATM    8  N4  UNL     1       2.738   0.869  -0.300  1.00  0.00    -0.336 N 
HETATM    9  C19 UNL     1       3.782   0.554  -1.084  1.00  0.00     0.061 A 
ATOM     10  H4  UNL     1       2.575   1.842  -0.042  1.00  0.00     0.168 HD
HETATM   11  C20 UNL     1       4.606   1.594  -1.509  1.00  0.00     0.032 A 
HETATM   12  C24 UNL     1       4.007  -0.760  -1.434  1.00  0.00     0.065 A 
HETATM   13  C21 UNL     1       5.677   1.266  -2.311  1.00  0.00     0.002 A 
HETATM   14  C22 UNL     1       5.898  -0.035  -2.659  1.00  0.00     0.002 A 
HETATM   15  C23 UNL     1       5.086  -1.073  -2.240  1.00  0.00     0.032 A 
BRANCH   7  16
HETATM   16  N2  UNL     1       0.951   0.215   0.866  1.00  0.00    -0.347 N 
HETATM   17  C6  UNL     1      -0.107  -0.269   1.548  1.00  0.00     0.101 C 
ATOM     18  H2  UNL     1       0.972   1.227   0.991  1.00  0.00     0.167 HD
BRANCH  17  19
HETATM   19  C7  UNL     1      -1.339   0.596   1.533  1.00  0.00    -0.018 A 
HETATM   20  C8  UNL     1      -1.270   1.880   2.075  1.00  0.00     0.014 A 
HETATM   21  C9  UNL     1      -2.425   2.632   2.070  1.00  0.00     0.014 A 
HETATM   22  C10 UNL     1      -3.626   2.210   1.574  1.00  0.00    -0.009 A 
HETATM   23  C11 UNL     1      -4.774   3.001   1.590  1.00  0.00     0.016 A 
HETATM   24  C17 UNL     1      -3.665   0.916   1.035  1.00  0.00     0.050 A 
HETATM   25  C12 UNL     1      -5.926   2.438   1.049  1.00  0.00     0.031 A 
HETATM   26  C13 UNL     1      -5.938   1.193   0.536  1.00  0.00     0.039 A 
HETATM   27  C14 UNL     1      -6.940   0.420  -0.045  1.00  0.00     0.031 A 
HETATM   28  N3  UNL     1      -4.812   0.430   0.528  1.00  0.00    -0.322 N 
HETATM   29  C15 UNL     1      -6.423  -0.799  -0.402  1.00  0.00     0.020 A 
HETATM   30  C16 UNL     1      -5.098  -0.753  -0.028  1.00  0.00     0.097 A 
HETATM   31  C18 UNL     1      -2.527   0.149   1.028  1.00  0.00     0.043 A 
ENDBRANCH  17  19
ENDBRANCH   7  16
ENDBRANCH   3   4
TORSDOF 3
