REMARK  4 active torsions:
REMARK  status: ('A' for Active; 'I' for Inactive)
REMARK    1  A    between atoms: N1_1  and  C1_4 
REMARK    2  A    between atoms: C2_5  and  C3_6 
REMARK       I    between atoms: C3_6  and  N2_8 
REMARK    3  A    between atoms: N2_8  and  N3_10 
REMARK    4  A    between atoms: N6_19  and  N7_20 
ROOT
HETATM    1  C1  UNL     1       0.944  -0.655   0.558  1.00  0.00     0.159 A 
HETATM    2  C2  UNL     1      -0.185   0.087   0.230  1.00  0.00     0.163 A 
HETATM    3  N4  UNL     1       0.023   1.396  -0.046  1.00  0.00    -0.288 N 
ATOM      4  H4  UNL     1      -0.781   1.974  -0.291  1.00  0.00     0.187 HD
HETATM    5  N5  UNL     1       1.216   1.962  -0.013  1.00  0.00    -0.249 N 
ATOM      6  H5  UNL     1       1.304   2.955  -0.231  1.00  0.00     0.192 HD
HETATM    7  C4  UNL     1       2.317   1.257   0.302  1.00  0.00     0.361 A 
HETATM    8  O2  UNL     1       3.465   1.773   0.341  1.00  0.00    -0.243 OA
HETATM    9  N6  UNL     1       2.147  -0.056   0.584  1.00  0.00    -0.192 N 
ENDROOT
BRANCH   2  10
HETATM   10  C3  UNL     1      -1.490  -0.519   0.191  1.00  0.00     0.291 C 
HETATM   11  O1  UNL     1      -1.624  -1.721   0.452  1.00  0.00    -0.264 OA
HETATM   12  N2  UNL     1      -2.613   0.273  -0.148  1.00  0.00    -0.271 N 
ATOM     13  H2  UNL     1      -2.478   1.262  -0.359  1.00  0.00     0.189 HD
BRANCH  12  14
HETATM   14  N3  UNL     1      -3.900  -0.265  -0.201  1.00  0.00    -0.342 N 
ATOM     15  H32 UNL     1      -4.017  -1.256   0.013  1.00  0.00     0.176 HD
ATOM     16  H31 UNL     1      -4.709   0.306  -0.445  1.00  0.00     0.176 HD
ENDBRANCH  12  14
ENDBRANCH   2  10
BRANCH   1  17
HETATM   17  N1  UNL     1       0.794  -1.907   0.829  1.00  0.00    -0.382 N 
ATOM     18  H12 UNL     1      -0.119  -2.362   0.809  1.00  0.00     0.157 HD
ATOM     19  H11 UNL     1       1.622  -2.451   1.070  1.00  0.00     0.157 HD
ENDBRANCH   1  17
BRANCH   9  20
HETATM   20  N7  UNL     1       3.286  -0.780   0.910  1.00  0.00    -0.333 N 
ATOM     21  H72 UNL     1       3.158  -1.769   1.122  1.00  0.00     0.177 HD
ATOM     22  H71 UNL     1       4.199  -0.325   0.930  1.00  0.00     0.177 HD
ENDBRANCH   9  20
TORSDOF 4
