REMARK  3 active torsions:
REMARK  status: ('A' for Active; 'I' for Inactive)
REMARK    1  A    between atoms: N1_1  and  N2_4 
REMARK    2  A    between atoms: C4_14  and  C5_15 
REMARK       I    between atoms: C5_15  and  N5_17 
REMARK    3  A    between atoms: N5_17  and  N6_19 
ROOT
HETATM    1  N2  UNL     1       0.102   1.592  -0.362  1.00  0.00    -0.291 N 
ATOM      2  H2  UNL     1       1.110   1.489  -0.483  1.00  0.00     0.188 HD
HETATM    3  C1  UNL     1      -0.622   0.563  -0.087  1.00  0.00     0.140 A 
HETATM    4  N3  UNL     1      -1.975   0.718   0.073  1.00  0.00    -0.293 N 
ATOM      5  H3  UNL     1      -2.386   1.648  -0.005  1.00  0.00     0.172 HD
HETATM    6  C2  UNL     1      -2.767  -0.332   0.330  1.00  0.00     0.325 A 
HETATM    7  O1  UNL     1      -4.006  -0.158   0.472  1.00  0.00    -0.247 OA
HETATM    8  N4  UNL     1      -2.197  -1.547   0.427  1.00  0.00    -0.318 N 
ATOM      9  H4  UNL     1      -2.795  -2.350   0.622  1.00  0.00     0.170 HD
HETATM   10  C3  UNL     1      -0.885  -1.751   0.280  1.00  0.00     0.114 A 
HETATM   11  C4  UNL     1      -0.034  -0.663   0.011  1.00  0.00     0.094 A 
ENDROOT
BRANCH  11  12
HETATM   12  C5  UNL     1       1.409  -0.940  -0.102  1.00  0.00     0.274 C 
HETATM   13  O2  UNL     1       1.757  -2.159  -0.332  1.00  0.00    -0.266 OA
HETATM   14  N5  UNL     1       2.453  -0.023   0.015  1.00  0.00    -0.272 N 
ATOM     15  H5  UNL     1       2.257   0.960   0.203  1.00  0.00     0.189 HD
BRANCH  14  16
HETATM   16  N6  UNL     1       3.775  -0.466  -0.128  1.00  0.00    -0.342 N 
ATOM     17  H62 UNL     1       3.955  -1.452  -0.316  1.00  0.00     0.176 HD
ATOM     18  H61 UNL     1       4.539   0.205  -0.042  1.00  0.00     0.176 HD
ENDBRANCH  14  16
ENDBRANCH  11  12
BRANCH   1  19
HETATM   19  N1  UNL     1      -0.487   2.837  -0.493  1.00  0.00    -0.344 N 
ATOM     20  H12 UNL     1      -1.496   2.923  -0.369  1.00  0.00     0.176 HD
ATOM     21  H11 UNL     1       0.086   3.652  -0.711  1.00  0.00     0.176 HD
ENDBRANCH   1  19
TORSDOF 3
