REMARK  3 active torsions:
REMARK  status: ('A' for Active; 'I' for Inactive)
REMARK    1  A    between atoms: C1_2  and  N1_3 
REMARK    2  A    between atoms: N1_3  and  N2_5 
REMARK    3  A    between atoms: C2_7  and  C3_8 
ROOT
HETATM    1  C3  UNL     1       0.907  -0.586  -0.279  1.00  0.00     0.014 A 
HETATM    2  C4  UNL     1       2.207  -1.055  -0.104  1.00  0.00     0.121 A 
HETATM    3  N3  UNL     1       2.976   0.008   0.181  1.00  0.00    -0.311 N 
ATOM      4  H3  UNL     1       3.979  -0.043   0.358  1.00  0.00     0.186 HD
HETATM    5  N4  UNL     1       2.277   1.128   0.204  1.00  0.00    -0.311 N 
ATOM      6  H4  UNL     1       2.625   2.068   0.394  1.00  0.00     0.186 HD
HETATM    7  C5  UNL     1       1.011   0.771  -0.076  1.00  0.00     0.121 A 
ENDROOT
BRANCH   1   8
HETATM    8  C2  UNL     1      -0.218  -1.417  -0.597  1.00  0.00     0.121 C 
HETATM    9  N2  UNL     1      -1.423  -1.051  -0.769  1.00  0.00    -0.309 N 
ATOM     10  H2  UNL     1      -2.075  -1.803  -0.991  1.00  0.00     0.186 HD
BRANCH   9  11
HETATM   11  N1  UNL     1      -1.977   0.194  -0.702  1.00  0.00    -0.278 N 
ATOM     12  H1  UNL     1      -1.734   0.856  -1.439  1.00  0.00     0.189 HD
BRANCH  11  13
HETATM   13  C1  UNL     1      -2.865   0.641   0.312  1.00  0.00     0.368 C 
HETATM   14  O1  UNL     1      -3.228  -0.091   1.263  1.00  0.00    -0.282 OA
ENDBRANCH  11  13
ENDBRANCH   9  11
ENDBRANCH   1   8
TORSDOF 3
