REMARK  4 active torsions:
REMARK  status: ('A' for Active; 'I' for Inactive)
REMARK    1  A    between atoms: C1_4  and  N2_5 
REMARK    2  A    between atoms: N2_5  and  O1_7 
REMARK    3  A    between atoms: O1_7  and  C2_8 
REMARK    4  A    between atoms: C2_8  and  C3_9 
ROOT
HETATM    1  C2  UNL     1       0.399  -0.287  -0.518  1.00  0.00     0.241 C 
ENDROOT
BRANCH   1   2
HETATM    2  O1  UNL     1       1.251   0.806  -0.722  1.00  0.00    -0.275 OA
BRANCH   2   3
HETATM    3  N2  UNL     1       2.418   0.296  -1.155  1.00  0.00    -0.263 N 
ATOM      4  H2  UNL     1       2.570   0.083  -2.141  1.00  0.00     0.195 HD
BRANCH   3   5
HETATM    5  C1  UNL     1       3.426   0.067  -0.191  1.00  0.00     0.197 C 
HETATM    6  N1  UNL     1       3.983   1.109   0.338  1.00  0.00    -0.394 N 
ATOM      7  H12 UNL     1       3.696   2.047   0.060  1.00  0.00     0.156 HD
ATOM      8  H11 UNL     1       4.710   0.944   1.034  1.00  0.00     0.156 HD
ENDBRANCH   3   5
ENDBRANCH   2   3
ENDBRANCH   1   2
BRANCH   1   9
HETATM    9  C3  UNL     1      -0.934   0.154  -0.035  1.00  0.00    -0.017 A 
HETATM   10  C4  UNL     1      -1.876  -0.813   0.208  1.00  0.00     0.012 A 
HETATM   11  C5  UNL     1      -3.149  -0.484   0.663  1.00  0.00     0.018 A 
HETATM   12  C6  UNL     1      -3.423   0.866   0.858  1.00  0.00     0.087 A 
HETATM   13  N3  UNL     1      -2.481   1.792   0.612  1.00  0.00    -0.375 N 
HETATM   14  C7  UNL     1      -1.249   1.493   0.173  1.00  0.00     0.096 A 
ATOM     15  H3  UNL     1      -2.715   2.773   0.767  1.00  0.00     0.164 HD
ENDBRANCH   1   9
TORSDOF 4
