REMARK  2 active torsions:
REMARK  status: ('A' for Active; 'I' for Inactive)
REMARK    1  A    between atoms: C4_4  and  C5_5 
REMARK    2  A    between atoms: N2_8  and  O1_10 
ROOT
HETATM    1  C5  UNL     1       1.940  -0.415   0.180  1.00  0.00     0.117 C 
HETATM    2  C6  UNL     1       1.998  -1.834   0.374  1.00  0.00     0.115 C 
HETATM    3  N1  UNL     1       2.071  -3.001   0.533  1.00  0.00    -0.190 NA
HETATM    4  N2  UNL     1       3.081   0.127  -0.181  1.00  0.00    -0.263 N 
ATOM      5  H2  UNL     1       3.896  -0.476  -0.293  1.00  0.00     0.194 HD
ENDROOT
BRANCH   1   6
HETATM    6  C4  UNL     1       0.729   0.371   0.361  1.00  0.00     0.065 A 
HETATM    7  C2  UNL     1      -0.527   0.140  -0.444  1.00  0.00    -0.029 A 
HETATM    8  C1  UNL     1      -0.439  -0.900  -1.483  1.00  0.00     0.016 C 
HETATM    9  C3  UNL     1      -1.365   1.353  -0.872  1.00  0.00     0.016 C 
HETATM   10  C7  UNL     1      -0.491  -0.079   1.007  1.00  0.00    -0.029 A 
HETATM   11  C8  UNL     1      -0.755  -1.468   1.488  1.00  0.00     0.016 C 
HETATM   12  C9  UNL     1      -1.169   0.968   1.918  1.00  0.00     0.016 C 
ENDBRANCH   1   6
BRANCH   4  13
HETATM   13  O1  UNL     1       3.218   1.461  -0.411  1.00  0.00    -0.289 OA
ATOM     14  H1  UNL     1       4.043   1.853  -0.672  1.00  0.00     0.244 HD
ENDBRANCH   4  13
TORSDOF 2
