REMARK  1 active torsions:
REMARK  status: ('A' for Active; 'I' for Inactive)
REMARK       I    between atoms: C2_2  and  N1_4 
REMARK    1  A    between atoms: N1_4  and  C3_6 
ROOT
HETATM    1  C3  UNL     1       0.577  -0.201  -0.231  1.00  0.00     0.290 C 
HETATM    2  O2  UNL     1       0.079   0.462  -1.319  1.00  0.00    -0.209 OA
HETATM    3  O3  UNL     1      -1.142   0.822  -1.259  1.00  0.00    -0.199 OA
HETATM    4  C4  UNL     1      -1.977   0.144  -0.435  1.00  0.00     0.190 C 
HETATM    5  C5  UNL     1      -2.485  -1.163  -1.057  1.00  0.00     0.081 C 
HETATM    6  C6  UNL     1      -3.234   1.000  -0.232  1.00  0.00     0.081 C 
HETATM    7  O4  UNL     1      -1.493  -0.163   0.806  1.00  0.00    -0.344 OA
HETATM    8  C7  UNL     1      -0.162   0.209   1.005  1.00  0.00     0.173 C 
HETATM    9  C8  UNL     1      -0.124   1.673   1.290  1.00  0.00     0.044 C 
ENDROOT
BRANCH   1  10
HETATM   10  N1  UNL     1       2.008  -0.117  -0.095  1.00  0.00    -0.330 N 
HETATM   11  C2  UNL     1       2.899  -1.199  -0.155  1.00  0.00     0.215 C 
HETATM   12  C1  UNL     1       4.345  -0.976   0.000  1.00  0.00     0.117 C 
HETATM   13  O1  UNL     1       2.478  -2.359  -0.339  1.00  0.00    -0.274 OA
ATOM     14  H1  UNL     1       2.408   0.809   0.058  1.00  0.00     0.165 HD
ENDBRANCH   1  10
TORSDOF 1
