REMARK  2 active torsions:
REMARK  status: ('A' for Active; 'I' for Inactive)
REMARK    1  A    between atoms: C2_2  and  O1_3 
REMARK    2  A    between atoms: O1_3  and  O2_4 
ROOT
HETATM    1  C1  UNL     1      -1.303   1.483   0.269  1.00  0.00     0.050 C 
HETATM    2  C2  UNL     1      -1.103   0.034  -0.100  1.00  0.00     0.101 C 
HETATM    3  C3  UNL     1      -0.046  -0.190  -1.120  1.00  0.00     0.044 C 
HETATM    4  C4  UNL     1       1.302   0.314  -0.863  1.00  0.00     0.033 C 
HETATM    5  C5  UNL     1       1.820   0.440   0.504  1.00  0.00     0.154 C 
HETATM    6  C6  UNL     1       2.837  -0.590   0.823  1.00  0.00     0.074 C 
HETATM    7  N1  UNL     1       3.626  -1.406   1.057  1.00  0.00    -0.196 NA
HETATM    8  S1  UNL     1       0.594   0.358   1.824  1.00  0.00    -0.146 SA
HETATM    9  C7  UNL     1      -0.731  -0.702   1.171  1.00  0.00     0.116 C 
ENDROOT
BRANCH   2  10
HETATM   10  O1  UNL     1      -2.316  -0.418  -0.624  1.00  0.00    -0.232 OA
BRANCH  10  11
HETATM   11  O2  UNL     1      -2.292  -1.658  -0.987  1.00  0.00    -0.250 OA
ATOM     12  H2  UNL     1      -3.117  -1.965  -1.343  1.00  0.00     0.253 HD
ENDBRANCH  10  11
ENDBRANCH   2  10
TORSDOF 2
