REMARK  2 active torsions:
REMARK  status: ('A' for Active; 'I' for Inactive)
REMARK    1  A    between atoms: C5_5  and  O1_7 
REMARK    2  A    between atoms: C17_19  and  O2_20 
ROOT
HETATM    1  C1  UNL     1       2.085  -0.362   1.510  1.00  0.00     0.018 C 
HETATM    2  C2  UNL     1       1.901   0.353   0.224  1.00  0.00    -0.014 C 
HETATM    3  C3  UNL     1       1.520   1.810   0.377  1.00  0.00     0.015 C 
HETATM    4  C4  UNL     1       0.348   1.822   1.305  1.00  0.00     0.039 C 
HETATM    5  C5  UNL     1      -0.915   1.589   0.537  1.00  0.00     0.062 C 
HETATM    6  C6  UNL     1      -0.991   2.417  -0.732  1.00  0.00     0.046 C 
HETATM    7  C7  UNL     1      -1.270   0.191   0.263  1.00  0.00    -0.005 C 
HETATM    8  C8  UNL     1      -1.894  -0.411   1.533  1.00  0.00     0.013 C 
HETATM    9  C9  UNL     1      -2.999  -1.316   1.069  1.00  0.00     0.005 C 
HETATM   10  C10 UNL     1      -3.171  -1.069  -0.394  1.00  0.00    -0.014 C 
HETATM   11  C11 UNL     1      -2.283  -2.056  -1.133  1.00  0.00     0.005 C 
HETATM   12  C12 UNL     1      -0.960  -1.461  -1.489  1.00  0.00     0.006 C 
HETATM   13  C13 UNL     1      -0.313  -0.743  -0.285  1.00  0.00     0.002 C 
HETATM   14  C14 UNL     1       1.009  -0.295  -0.762  1.00  0.00     0.001 C 
HETATM   15  C15 UNL     1       1.830  -1.567  -1.071  1.00  0.00     0.008 C 
HETATM   16  C16 UNL     1       3.275  -1.105  -0.992  1.00  0.00     0.033 C 
HETATM   17  C17 UNL     1       3.247   0.332  -0.511  1.00  0.00     0.126 C 
HETATM   18  C18 UNL     1      -2.553   0.277  -0.591  1.00  0.00     0.017 C 
ENDROOT
BRANCH   5  19
HETATM   19  O1  UNL     1      -1.949   2.127   1.353  1.00  0.00    -0.389 OA
ATOM     20  H1  UNL     1      -2.751   1.979   0.865  1.00  0.00     0.210 HD
ENDBRANCH   5  19
BRANCH  17  21
HETATM   21  O2  UNL     1       4.219   0.556   0.446  1.00  0.00    -0.395 OA
ATOM     22  H2  UNL     1       5.053   0.543  -0.009  1.00  0.00     0.210 HD
ENDBRANCH  17  21
TORSDOF 2
