REMARK  3 active torsions:
REMARK  status: ('A' for Active; 'I' for Inactive)
REMARK    1  A    between atoms: C6_6  and  O1_7 
REMARK    2  A    between atoms: C11_13  and  O2_14 
REMARK    3  A    between atoms: C13_17  and  O3_19 
ROOT
HETATM    1  C1  UNL     1       3.514   0.851   0.042  1.00  0.00     0.016 C 
HETATM    2  C2  UNL     1       1.986   0.594   0.177  1.00  0.00    -0.036 C 
HETATM    3  C3  UNL     1       1.493   1.730   0.994  1.00  0.00     0.010 C 
HETATM    4  C4  UNL     1       0.029   1.982   1.018  1.00  0.00     0.009 C 
HETATM    5  C5  UNL     1      -0.737   1.480  -0.187  1.00  0.00     0.025 C 
HETATM    6  C6  UNL     1       0.118   1.272  -1.385  1.00  0.00     0.128 C 
HETATM    7  C7  UNL     1       1.384   0.501  -1.181  1.00  0.00     0.023 C 
HETATM    8  C8  UNL     1       1.331  -0.888  -1.746  1.00  0.00     0.008 C 
HETATM    9  C9  UNL     1       0.652  -1.943  -1.072  1.00  0.00     0.011 C 
HETATM   10  C10 UNL     1      -0.194  -1.652   0.176  1.00  0.00     0.049 C 
HETATM   11  C11 UNL     1       0.661  -1.267   1.311  1.00  0.00     0.126 C 
HETATM   12  C12 UNL     1       2.006  -0.716   0.922  1.00  0.00     0.041 C 
HETATM   13  C13 UNL     1      -1.460  -0.985  -0.096  1.00  0.00     0.067 C 
HETATM   14  C14 UNL     1      -2.621  -1.702   0.646  1.00  0.00     0.047 C 
HETATM   15  C15 UNL     1      -1.737   0.423   0.082  1.00  0.00    -0.011 C 
HETATM   16  C16 UNL     1      -2.413   0.773   1.421  1.00  0.00     0.018 C 
HETATM   17  C17 UNL     1      -2.928   0.706  -0.886  1.00  0.00     0.018 C 
ENDROOT
BRANCH  13  18
HETATM   18  O3  UNL     1      -1.726  -1.345  -1.453  1.00  0.00    -0.389 OA
ATOM     19  H3  UNL     1      -2.552  -0.910  -1.630  1.00  0.00     0.210 HD
ENDBRANCH  13  18
BRANCH  11  20
HETATM   20  O2  UNL     1       1.051  -2.390   2.112  1.00  0.00    -0.395 OA
ATOM     21  H2  UNL     1       1.603  -2.142   2.844  1.00  0.00     0.210 HD
ENDBRANCH  11  20
BRANCH   6  22
HETATM   22  O1  UNL     1       0.328   2.500  -2.068  1.00  0.00    -0.395 OA
ATOM     23  H1  UNL     1       0.874   2.367  -2.834  1.00  0.00     0.210 HD
ENDBRANCH   6  22
TORSDOF 3
