REMARK  2 active torsions:
REMARK  status: ('A' for Active; 'I' for Inactive)
REMARK    1  A    between atoms: C10_10  and  O1_11 
REMARK    2  A    between atoms: C14_16  and  O2_17 
ROOT
HETATM    1  C1  UNL     1       5.137  -1.314   0.299  1.00  0.00     0.014 C 
HETATM    2  C2  UNL     1       3.932  -0.973  -0.111  1.00  0.00    -0.089 C 
HETATM    3  C3  UNL     1       2.983  -1.996  -0.559  1.00  0.00     0.034 C 
HETATM    4  C4  UNL     1       1.551  -1.448  -0.649  1.00  0.00     0.009 C 
HETATM    5  C5  UNL     1       1.328  -0.578   0.544  1.00  0.00    -0.005 C 
HETATM    6  C6  UNL     1       2.210   0.655   0.542  1.00  0.00    -0.006 C 
HETATM    7  C7  UNL     1       3.524   0.455  -0.123  1.00  0.00     0.038 C 
HETATM    8  C8  UNL     1       1.326   1.676  -0.146  1.00  0.00     0.012 C 
HETATM    9  C9  UNL     1       0.065   1.467   0.647  1.00  0.00     0.019 C 
HETATM   10  C10 UNL     1      -1.134   2.139   0.115  1.00  0.00     0.123 C 
HETATM   11  C11 UNL     1      -2.340   1.451   0.710  1.00  0.00     0.044 C 
HETATM   12  C12 UNL     1      -2.438   0.004   0.399  1.00  0.00    -0.012 C 
HETATM   13  C13 UNL     1      -2.981  -0.708   1.642  1.00  0.00     0.018 C 
HETATM   14  C14 UNL     1      -3.424  -0.199  -0.701  1.00  0.00     0.126 C 
HETATM   15  C15 UNL     1      -2.611  -0.452  -1.947  1.00  0.00     0.033 C 
HETATM   16  C16 UNL     1      -1.163  -0.611  -1.487  1.00  0.00     0.008 C 
HETATM   17  C17 UNL     1      -1.139  -0.639  -0.032  1.00  0.00     0.001 C 
HETATM   18  C18 UNL     1      -0.030  -0.039   0.723  1.00  0.00     0.001 C 
ENDROOT
BRANCH  10  19
HETATM   19  O1  UNL     1      -1.163   3.463   0.619  1.00  0.00    -0.395 OA
ATOM     20  H1  UNL     1      -1.936   3.896   0.276  1.00  0.00     0.210 HD
ENDBRANCH  10  19
BRANCH  14  21
HETATM   21  O2  UNL     1      -4.323  -1.244  -0.447  1.00  0.00    -0.395 OA
ATOM     22  H2  UNL     1      -4.951  -1.373  -1.148  1.00  0.00     0.210 HD
ENDBRANCH  14  21
TORSDOF 2
