REMARK  2 active torsions:
REMARK  status: ('A' for Active; 'I' for Inactive)
REMARK    1  A    between atoms: C10_10  and  O1_11 
REMARK    2  A    between atoms: C14_16  and  O2_17 
ROOT
HETATM    1  C1  UNL     1      -3.840  -0.045   0.834  1.00  0.00     0.015 C 
HETATM    2  C2  UNL     1      -2.897   0.010  -0.372  1.00  0.00    -0.044 C 
HETATM    3  C3  UNL     1      -3.517  -0.858  -1.436  1.00  0.00     0.015 C 
HETATM    4  C4  UNL     1      -2.878   1.438  -0.837  1.00  0.00     0.009 C 
HETATM    5  C5  UNL     1      -2.269   2.365   0.170  1.00  0.00     0.001 C 
HETATM    6  C6  UNL     1      -1.125   1.697   0.947  1.00  0.00     0.006 C 
HETATM    7  C7  UNL     1      -0.531   0.672   0.055  1.00  0.00    -0.000 C 
HETATM    8  C8  UNL     1      -1.512  -0.483   0.001  1.00  0.00     0.001 C 
HETATM    9  C9  UNL     1      -0.988  -1.440  -1.020  1.00  0.00     0.038 C 
HETATM   10  C10 UNL     1       0.365  -1.922  -0.641  1.00  0.00     0.123 C 
HETATM   11  C11 UNL     1       1.392  -0.768  -0.557  1.00  0.00     0.024 C 
HETATM   12  C12 UNL     1       2.677  -1.378  -0.344  1.00  0.00     0.011 C 
HETATM   13  C13 UNL     1       3.992  -0.790  -0.817  1.00  0.00     0.044 C 
HETATM   14  C14 UNL     1       4.225   0.653  -0.251  1.00  0.00     0.184 C 
HETATM   15  C15 UNL     1       2.984   1.085   0.255  1.00  0.00    -0.151 C 
HETATM   16  C16 UNL     1       1.697   1.427   0.707  1.00  0.00     0.092 C 
HETATM   17  C17 UNL     1       0.788   0.172   0.489  1.00  0.00    -0.025 C 
HETATM   18  C18 UNL     1       0.720  -0.502   1.812  1.00  0.00     0.017 C 
ENDROOT
BRANCH  10  19
HETATM   19  O1  UNL     1       0.832  -2.686  -1.744  1.00  0.00    -0.395 OA
ATOM     20  H1  UNL     1       1.697  -2.994  -1.502  1.00  0.00     0.210 HD
ENDBRANCH  10  19
BRANCH  14  21
HETATM   21  O2  UNL     1       4.781   1.367  -1.349  1.00  0.00    -0.384 OA
ATOM     22  H2  UNL     1       4.922   2.242  -1.006  1.00  0.00     0.211 HD
ENDBRANCH  14  21
TORSDOF 2
