REMARK  3 active torsions:
REMARK  status: ('A' for Active; 'I' for Inactive)
REMARK    1  A    between atoms: C5_5  and  O1_7 
REMARK    2  A    between atoms: C12_14  and  C13_15 
REMARK    3  A    between atoms: C13_15  and  O2_16 
ROOT
HETATM    1  C1  UNL     1       1.499  -1.634   2.619  1.00  0.00     0.015 C 
HETATM    2  C2  UNL     1       1.575  -0.701   1.418  1.00  0.00    -0.038 C 
HETATM    3  C3  UNL     1       2.254   0.565   1.712  1.00  0.00     0.012 C 
HETATM    4  C4  UNL     1       2.757   1.235   0.464  1.00  0.00     0.039 C 
HETATM    5  C5  UNL     1       2.012   0.794  -0.774  1.00  0.00     0.062 C 
HETATM    6  C6  UNL     1       3.120   0.495  -1.814  1.00  0.00     0.046 C 
HETATM    7  C7  UNL     1       1.276  -0.449  -0.601  1.00  0.00    -0.004 C 
HETATM    8  C8  UNL     1       0.545  -0.968  -1.774  1.00  0.00     0.014 C 
HETATM    9  C9  UNL     1      -0.808  -0.297  -1.827  1.00  0.00     0.011 C 
HETATM   10  C10 UNL     1      -1.625  -0.385  -0.609  1.00  0.00    -0.034 C 
HETATM   11  C11 UNL     1      -2.289  -1.764  -0.525  1.00  0.00     0.016 C 
HETATM   12  C12 UNL     1      -2.712   0.629  -0.576  1.00  0.00     0.018 C 
HETATM   13  C14 UNL     1      -2.075   1.853  -0.014  1.00  0.00     0.008 C 
HETATM   14  C15 UNL     1      -1.070   1.331   1.019  1.00  0.00     0.006 C 
HETATM   15  C16 UNL     1      -0.865  -0.084   0.697  1.00  0.00    -0.000 C 
HETATM   16  C17 UNL     1       0.396  -0.716   0.576  1.00  0.00     0.010 C 
HETATM   17  C18 UNL     1       2.187  -1.419   0.181  1.00  0.00     0.022 C 
ENDROOT
BRANCH   5  18
HETATM   18  O1  UNL     1       1.320   1.852  -1.379  1.00  0.00    -0.389 OA
ATOM     19  H1  UNL     1       0.852   1.575  -2.158  1.00  0.00     0.210 HD
ENDBRANCH   5  18
BRANCH  12  20
HETATM   20  C13 UNL     1      -3.847   0.229   0.362  1.00  0.00     0.169 C 
BRANCH  20  21
HETATM   21  O2  UNL     1      -4.795   1.268   0.295  1.00  0.00    -0.400 OA
ATOM     22  H2  UNL     1      -5.502   1.019   0.879  1.00  0.00     0.209 HD
ENDBRANCH  20  21
ENDBRANCH  12  20
TORSDOF 3
