REMARK  13 active torsions:
REMARK  status: ('A' for Active; 'I' for Inactive)
REMARK    1  A    between atoms: O1_2  and  C2_3 
REMARK    2  A    between atoms: C2_3  and  C3_5 
REMARK    3  A    between atoms: C3_5  and  N1_6 
REMARK    4  A    between atoms: C3_5  and  C34_50 
REMARK       I    between atoms: N1_6  and  C4_8 
REMARK    5  A    between atoms: C4_8  and  C5_10 
REMARK    6  A    between atoms: C5_10  and  C6_11 
REMARK    7  A    between atoms: C5_10  and  C29_45 
REMARK    8  A    between atoms: C7_13  and  C8_14 
REMARK    9  A    between atoms: C8_14  and  N3_15 
REMARK       I    between atoms: N3_15  and  C9_17 
REMARK   10  A    between atoms: C9_17  and  C10_19 
REMARK   11  A    between atoms: C10_19  and  C11_20 
REMARK       I    between atoms: N4_24  and  C15_25 
REMARK       I    between atoms: C15_25  and  N7_30 
REMARK   12  A    between atoms: C19_33  and  O5_34 
REMARK   13  A    between atoms: C29_45  and  C30_46 
ROOT
HETATM    1  C11 UNL     1       4.903  -1.648   0.193  1.00  0.00    -0.018 C 
HETATM    2  C12 UNL     1       5.098  -0.666   1.322  1.00  0.00     0.017 C 
HETATM    3  C13 UNL     1       5.790  -2.890   0.389  1.00  0.00     0.032 C 
HETATM    4  C14 UNL     1       6.544  -3.002  -0.945  1.00  0.00     0.142 C 
HETATM    5  N4  UNL     1       6.757  -1.571  -1.193  1.00  0.00    -0.216 N 
HETATM    6  C15 UNL     1       7.993  -0.978  -1.462  1.00  0.00     0.687 C 
HETATM    7  N5  UNL     1       8.753  -1.420  -2.402  1.00  0.00    -0.126 N 
ATOM      8  H5  UNL     1       9.650  -0.968  -2.578  1.00  0.00     0.197 HD
HETATM    9  C16 UNL     1       8.372  -2.496  -3.175  1.00  0.00     0.196 C 
HETATM   10  N6  UNL     1       8.069  -3.404  -3.838  1.00  0.00    -0.171 NA
HETATM   11  N7  UNL     1       8.501   0.144  -0.727  1.00  0.00    -0.217 N 
HETATM   12  C17 UNL     1       8.561   1.413  -1.411  1.00  0.00     0.143 C 
HETATM   13  C18 UNL     1       9.613   2.345  -0.900  1.00  0.00     0.052 C 
HETATM   14  C19 UNL     1      10.725   1.571  -0.239  1.00  0.00     0.121 C 
HETATM   15  C20 UNL     1      10.199   0.789   0.946  1.00  0.00     0.052 C 
HETATM   16  C21 UNL     1       8.939   0.047   0.636  1.00  0.00     0.143 C 
HETATM   17  C22 UNL     1       5.419  -1.010  -1.075  1.00  0.00     0.151 C 
ENDROOT
BRANCH   1  18
HETATM   18  C10 UNL     1       3.509  -2.147   0.077  1.00  0.00     0.113 C 
BRANCH  18  19
HETATM   19  C9  UNL     1       2.512  -1.030  -0.163  1.00  0.00     0.218 C 
HETATM   20  N3  UNL     1       1.182  -1.361  -0.265  1.00  0.00    -0.359 N 
ATOM     21  H3  UNL     1       1.043  -2.368  -0.183  1.00  0.00     0.162 HD
HETATM   22  O4  UNL     1       3.013   0.083  -0.240  1.00  0.00    -0.274 OA
BRANCH  20  23
HETATM   23  C8  UNL     1      -0.047  -0.684  -0.453  1.00  0.00     0.147 C 
BRANCH  23  24
HETATM   24  C7  UNL     1      -0.487   0.234   0.649  1.00  0.00     0.102 C 
HETATM   25  N2  UNL     1      -1.725   0.856   0.530  1.00  0.00    -0.380 N 
HETATM   26  C6  UNL     1      -2.799   0.506  -0.224  1.00  0.00     0.073 C 
HETATM   27  C25 UNL     1      -1.735   2.157   1.081  1.00  0.00     0.097 A 
HETATM   28  C24 UNL     1      -0.332   2.604   1.243  1.00  0.00     0.021 A 
HETATM   29  C26 UNL     1      -1.250   2.462   2.417  1.00  0.00    -0.021 A 
HETATM   30  C23 UNL     1       0.493   1.416   0.786  1.00  0.00     0.034 C 
HETATM   31  C27 UNL     1      -1.738   3.820   2.958  1.00  0.00     0.017 C 
HETATM   32  C28 UNL     1      -0.828   1.505   3.476  1.00  0.00     0.017 C 
BRANCH  26  33
HETATM   33  C5  UNL     1      -3.587  -0.728   0.248  1.00  0.00     0.117 C 
BRANCH  33  34
HETATM   34  C4  UNL     1      -4.676  -0.897  -0.727  1.00  0.00     0.227 C 
HETATM   35  N1  UNL     1      -5.639   0.117  -0.919  1.00  0.00    -0.346 N 
ATOM     36  H1  UNL     1      -5.593   0.951  -0.333  1.00  0.00     0.163 HD
HETATM   37  O3  UNL     1      -4.764  -1.939  -1.422  1.00  0.00    -0.273 OA
BRANCH  35  38
HETATM   38  C3  UNL     1      -6.701   0.024  -1.923  1.00  0.00     0.191 C 
BRANCH  38  39
HETATM   39  C2  UNL     1      -6.317   1.087  -2.933  1.00  0.00     0.282 C 
HETATM   40  O2  UNL     1      -5.312   1.836  -2.765  1.00  0.00    -0.263 OA
BRANCH  39  41
HETATM   41  O1  UNL     1      -7.031   1.301  -4.091  1.00  0.00    -0.325 OA
HETATM   42  C1  UNL     1      -6.655   2.301  -5.025  1.00  0.00     0.213 C 
ENDBRANCH  39  41
ENDBRANCH  38  39
BRANCH  38  43
HETATM   43  C34 UNL     1      -8.066   0.320  -1.440  1.00  0.00    -0.022 C 
HETATM   44  C35 UNL     1      -8.180   1.674  -0.768  1.00  0.00     0.017 C 
HETATM   45  C36 UNL     1      -8.675  -0.712  -0.546  1.00  0.00     0.017 C 
HETATM   46  C37 UNL     1      -9.001   0.401  -2.660  1.00  0.00     0.017 C 
ENDBRANCH  38  43
ENDBRANCH  35  38
ENDBRANCH  33  34
BRANCH  33  47
HETATM   47  C29 UNL     1      -3.995  -0.581   1.649  1.00  0.00     0.028 C 
BRANCH  47  48
HETATM   48  C30 UNL     1      -4.709  -1.630   2.371  1.00  0.00    -0.050 C 
HETATM   49  C31 UNL     1      -6.047  -2.065   1.877  1.00  0.00     0.014 C 
HETATM   50  C32 UNL     1      -4.961  -1.091   3.803  1.00  0.00     0.014 C 
HETATM   51  C33 UNL     1      -3.895  -2.894   2.603  1.00  0.00     0.014 C 
ENDBRANCH  47  48
ENDBRANCH  33  47
ENDBRANCH  26  33
ENDBRANCH  23  24
ENDBRANCH  20  23
ENDBRANCH  18  19
ENDBRANCH   1  18
BRANCH  14  52
HETATM   52  O5  UNL     1      11.366   0.725  -1.150  1.00  0.00    -0.395 OA
ATOM     53  H5  UNL     1      12.067   0.237  -0.733  1.00  0.00     0.210 HD
ENDBRANCH  14  52
TORSDOF 13
