REMARK  11 active torsions:
REMARK  status: ('A' for Active; 'I' for Inactive)
REMARK    1  A    between atoms: C2_2  and  C4_4 
REMARK    2  A    between atoms: C2_2  and  C36_54 
REMARK    3  A    between atoms: C4_4  and  C5_5 
REMARK    4  A    between atoms: C6_9  and  C7_10 
REMARK    5  A    between atoms: C7_10  and  C8_11 
REMARK    6  A    between atoms: C8_11  and  C9_12 
REMARK    7  A    between atoms: C9_12  and  C10_13 
REMARK    8  A    between atoms: C10_13  and  N2_14 
REMARK    9  A    between atoms: C20_33  and  N5_34 
REMARK   10  A    between atoms: C35_51  and  O3_52 
REMARK   11  A    between atoms: C36_54  and  N7_55 
ROOT
HETATM    1  C5  UNL     1       2.392   0.062   1.087  1.00  0.00     0.261 C 
HETATM    2  N1  UNL     1       1.311  -0.946   1.113  1.00  0.00    -0.051 N 
ATOM      3  H11 UNL     1       0.722  -0.857   0.285  1.00  0.00     0.279 HD
ATOM      4  H12 UNL     1       0.630  -0.719   1.838  1.00  0.00     0.279 HD
HETATM    5  C6  UNL     1       1.777  -2.334   1.264  1.00  0.00     0.277 C 
HETATM    6  C11 UNL     1       2.549  -2.789   0.116  1.00  0.00     0.248 C 
HETATM    7  O1  UNL     1       3.796  -2.496   0.073  1.00  0.00    -0.271 OA
HETATM    8  N3  UNL     1       1.981  -3.550  -0.970  1.00  0.00    -0.359 N 
ATOM      9  H3  UNL     1       2.329  -3.365  -1.911  1.00  0.00     0.162 HD
HETATM   10  C12 UNL     1       0.967  -4.544  -0.822  1.00  0.00     0.122 C 
HETATM   11  C13 UNL     1       0.289  -4.866  -2.133  1.00  0.00     0.020 C 
HETATM   12  C14 UNL     1      -0.717  -3.838  -2.552  1.00  0.00     0.002 C 
HETATM   13  C15 UNL     1      -1.947  -4.472  -3.182  1.00  0.00     0.002 C 
HETATM   14  C16 UNL     1      -3.071  -3.488  -3.113  1.00  0.00     0.027 C 
HETATM   15  C17 UNL     1      -3.681  -3.555  -1.726  1.00  0.00     0.232 C 
HETATM   16  N4  UNL     1      -4.531  -2.390  -1.476  1.00  0.00    -0.075 N 
ATOM     17  H41 UNL     1      -5.448  -2.658  -1.118  1.00  0.00     0.277 HD
ATOM     18  H42 UNL     1      -4.831  -1.945  -2.344  1.00  0.00     0.277 HD
HETATM   19  C18 UNL     1      -3.857  -1.452  -0.591  1.00  0.00     0.234 C 
HETATM   20  C19 UNL     1      -3.850  -0.095  -1.258  1.00  0.00     0.061 C 
HETATM   21  C20 UNL     1      -3.868   1.024  -0.213  1.00  0.00     0.192 C 
HETATM   22  C27 UNL     1      -2.731   1.937  -0.514  1.00  0.00     0.041 C 
HETATM   23  C28 UNL     1      -1.405   1.383  -0.139  1.00  0.00     0.087 C 
HETATM   24  C29 UNL     1      -1.081   1.403   1.310  1.00  0.00     0.172 C 
HETATM   25  O2  UNL     1      -1.706   0.514   1.935  1.00  0.00    -0.291 OA
HETATM   26  C30 UNL     1      -0.202   2.257   2.041  1.00  0.00     0.059 C 
HETATM   27  C31 UNL     1      -0.226   3.686   1.432  1.00  0.00     0.061 C 
HETATM   28  C32 UNL     1       0.377   4.664   2.378  1.00  0.00     0.008 C 
HETATM   29  C33 UNL     1       1.561   4.204   3.143  1.00  0.00     0.021 C 
HETATM   30  C34 UNL     1       1.419   2.832   3.669  1.00  0.00     0.131 C 
HETATM   31  N6  UNL     1       1.106   1.914   2.503  1.00  0.00    -0.330 N 
HETATM   32  C35 UNL     1       2.088   1.009   2.193  1.00  0.00     0.149 C 
ENDROOT
BRANCH   1  33
HETATM   33  C4  UNL     1       2.615   0.585  -0.255  1.00  0.00     0.052 C 
BRANCH  33  34
HETATM   34  C2  UNL     1       3.708   1.538  -0.605  1.00  0.00    -0.021 C 
HETATM   35  C1  UNL     1       3.573   2.827   0.144  1.00  0.00     0.016 C 
HETATM   36  C3  UNL     1       5.070   0.981  -0.151  1.00  0.00     0.016 C 
BRANCH  34  37
HETATM   37  C36 UNL     1       3.608   1.707  -2.087  1.00  0.00     0.244 C 
BRANCH  37  38
HETATM   38  N7  UNL     1       4.446   2.506  -2.831  1.00  0.00    -0.078 N 
HETATM   39  C37 UNL     1       3.907   3.871  -3.080  1.00  0.00     0.271 C 
HETATM   40  C38 UNL     1       4.409   1.932  -4.213  1.00  0.00     0.271 C 
HETATM   41  C39 UNL     1       5.840   2.583  -2.549  1.00  0.00     0.271 C 
ENDBRANCH  37  38
ENDBRANCH  34  37
ENDBRANCH  33  34
ENDBRANCH   1  33
BRANCH  32  42
HETATM   42  O3  UNL     1       3.034   0.932   3.114  1.00  0.00    -0.348 OA
ATOM     43  H3  UNL     1       2.840   1.537   3.820  1.00  0.00     0.219 HD
ENDBRANCH  32  42
BRANCH   5  44
HETATM   44  C7  UNL     1       2.279  -2.601   2.621  1.00  0.00     0.043 C 
BRANCH  44  45
HETATM   45  C8  UNL     1       2.702  -3.960   2.983  1.00  0.00     0.004 C 
BRANCH  45  46
HETATM   46  C9  UNL     1       3.801  -4.642   2.252  1.00  0.00     0.027 C 
BRANCH  46  47
HETATM   47  C10 UNL     1       4.070  -6.036   2.907  1.00  0.00     0.229 C 
BRANCH  47  48
HETATM   48  N2  UNL     1       4.437  -5.765   4.269  1.00  0.00    -0.079 N 
ATOM     49  H23 UNL     1       5.217  -5.114   4.359  1.00  0.00     0.274 HD
ATOM     50  H22 UNL     1       3.750  -5.203   4.772  1.00  0.00     0.274 HD
ATOM     51  H21 UNL     1       4.612  -6.674   4.696  1.00  0.00     0.274 HD
ENDBRANCH  47  48
ENDBRANCH  46  47
ENDBRANCH  45  46
ENDBRANCH  44  45
ENDBRANCH   5  44
BRANCH  21  52
HETATM   52  N5  UNL     1      -5.160   1.730  -0.285  1.00  0.00    -0.067 N 
HETATM   53  C21 UNL     1      -5.498   2.040  -1.676  1.00  0.00     0.273 C 
HETATM   54  C22 UNL     1      -6.137   0.775   0.174  1.00  0.00     0.237 C 
HETATM   55  C23 UNL     1      -7.498   1.339   0.403  1.00  0.00     0.028 C 
HETATM   56  C24 UNL     1      -7.346   2.405   1.496  1.00  0.00     0.003 C 
HETATM   57  C25 UNL     1      -6.435   3.449   0.945  1.00  0.00     0.028 C 
HETATM   58  C26 UNL     1      -5.132   2.955   0.431  1.00  0.00     0.237 C 
ENDBRANCH  21  52
TORSDOF 11
