REMARK  7 active torsions:
REMARK  status: ('A' for Active; 'I' for Inactive)
REMARK    1  A    between atoms: O1_1  and  C1_3 
REMARK    2  A    between atoms: C1_3  and  C2_4 
REMARK    3  A    between atoms: C2_4  and  O2_5 
REMARK    4  A    between atoms: C2_4  and  C3_7 
REMARK    5  A    between atoms: C3_7  and  N1_8 
REMARK    6  A    between atoms: C6_11  and  C7_12 
REMARK    7  A    between atoms: C7_12  and  C8_13 
ROOT
HETATM    1  N1  UNL     1       3.179   0.439  -0.012  1.00  0.00    -0.391 N 
HETATM    2  C4  UNL     1       2.801  -0.774   0.532  1.00  0.00     0.058 C 
HETATM    3  C5  UNL     1       1.326  -1.044   0.744  1.00  0.00     0.049 C 
HETATM    4  C6  UNL     1       0.600  -0.465  -0.441  1.00  0.00    -0.008 C 
HETATM    5  C18 UNL     1       0.827   1.017  -0.389  1.00  0.00     0.024 C 
HETATM    6  C19 UNL     1       2.288   1.220  -0.782  1.00  0.00     0.122 C 
ENDROOT
BRANCH   4   7
HETATM    7  C7  UNL     1      -0.758  -0.907  -0.698  1.00  0.00     0.010 C 
BRANCH   7   8
HETATM    8  C8  UNL     1      -1.864  -0.764   0.237  1.00  0.00    -0.006 C 
HETATM    9  C9  UNL     1      -2.284   0.603   0.663  1.00  0.00    -0.009 C 
HETATM   10  C10 UNL     1      -2.897   1.445  -0.433  1.00  0.00     0.010 C 
HETATM   11  C14 UNL     1      -3.418   0.459   1.695  1.00  0.00     0.010 C 
HETATM   12  C11 UNL     1      -3.986   0.696  -1.137  1.00  0.00    -0.013 C 
HETATM   13  C12 UNL     1      -5.132   0.527  -0.130  1.00  0.00     0.009 C 
HETATM   14  C17 UNL     1      -3.587  -0.701  -1.556  1.00  0.00     0.010 C 
HETATM   15  C13 UNL     1      -4.609  -0.203   1.070  1.00  0.00    -0.013 C 
HETATM   16  C15 UNL     1      -4.191  -1.592   0.646  1.00  0.00     0.010 C 
HETATM   17  C16 UNL     1      -3.092  -1.454  -0.379  1.00  0.00    -0.009 C 
ENDBRANCH   7   8
ENDBRANCH   4   7
BRANCH   1  18
HETATM   18  C3  UNL     1       4.228   1.163   0.643  1.00  0.00     0.155 C 
BRANCH  18  19
HETATM   19  C2  UNL     1       5.520   0.395   0.472  1.00  0.00     0.159 C 
BRANCH  19  20
HETATM   20  C1  UNL     1       5.748   0.104  -0.985  1.00  0.00     0.197 C 
BRANCH  20  21
HETATM   21  O1  UNL     1       6.850  -0.727  -1.171  1.00  0.00    -0.398 OA
ATOM     22  H1  UNL     1       6.994  -0.911  -2.092  1.00  0.00     0.209 HD
ENDBRANCH  20  21
ENDBRANCH  19  20
BRANCH  19  23
HETATM   23  O2  UNL     1       6.601   1.030   1.079  1.00  0.00    -0.392 OA
ATOM     24  H2  UNL     1       6.457   1.214   2.000  1.00  0.00     0.210 HD
ENDBRANCH  19  23
ENDBRANCH  18  19
ENDBRANCH   1  18
TORSDOF 7
