REMARK  6 active torsions:
REMARK  status: ('A' for Active; 'I' for Inactive)
REMARK    1  A    between atoms: C2_2  and  C3_3 
REMARK    2  A    between atoms: C5_7  and  N2_8 
REMARK       I    between atoms: N2_8  and  C6_10 
REMARK    3  A    between atoms: C6_10  and  C7_12 
REMARK    4  A    between atoms: C7_12  and  C8_13 
REMARK    5  A    between atoms: C16_21  and  C17_22 
REMARK    6  A    between atoms: C17_22  and  O2_23 
ROOT
HETATM    1  C7  UNL     1      -0.380  -0.125  -0.770  1.00  0.00     0.065 C 
HETATM    2  C14 UNL     1      -0.360  -1.273  -1.768  1.00  0.00     0.024 C 
HETATM    3  C15 UNL     1      -0.404  -2.243  -0.619  1.00  0.00     0.010 C 
HETATM    4  C16 UNL     1       0.057  -1.055   0.254  1.00  0.00     0.031 C 
ENDROOT
BRANCH   1   5
HETATM    5  C6  UNL     1       0.863   0.721  -1.118  1.00  0.00     0.236 C 
HETATM    6  N2  UNL     1       2.117   0.084  -1.188  1.00  0.00    -0.306 N 
ATOM      7  H2  UNL     1       2.238  -0.694  -1.836  1.00  0.00     0.171 HD
HETATM    8  O1  UNL     1       0.803   1.932  -1.340  1.00  0.00    -0.272 OA
BRANCH   6   9
HETATM    9  C5  UNL     1       3.134   0.455  -0.450  1.00  0.00     0.151 A 
HETATM   10  N1  UNL     1       3.162   1.441   0.443  1.00  0.00    -0.345 N 
HETATM   11  C4  UNL     1       4.268   1.672   1.089  1.00  0.00     0.109 A 
ATOM     12  H1  UNL     1       2.331   2.006   0.618  1.00  0.00     0.167 HD
HETATM   13  C3  UNL     1       5.347   0.880   0.810  1.00  0.00     0.023 A 
HETATM   14  S1  UNL     1       4.715  -0.172  -0.382  1.00  0.00    -0.053 SA
BRANCH  13  15
HETATM   15  C2  UNL     1       6.708   0.925   1.391  1.00  0.00     0.010 C 
HETATM   16  C1  UNL     1       7.634   0.091   1.013  1.00  0.00     0.013 C 
ENDBRANCH  13  15
ENDBRANCH   6   9
ENDBRANCH   1   5
BRANCH   1  17
HETATM   17  C8  UNL     1      -1.492   0.789  -0.785  1.00  0.00    -0.004 C 
HETATM   18  C9  UNL     1      -2.889   0.600  -0.561  1.00  0.00    -0.082 C 
HETATM   19  C10 UNL     1      -3.597  -0.384  -1.520  1.00  0.00     0.034 C 
HETATM   20  C13 UNL     1      -3.584   0.317   0.681  1.00  0.00     0.034 C 
HETATM   21  C11 UNL     1      -5.038  -0.064  -1.167  1.00  0.00     0.005 C 
HETATM   22  C12 UNL     1      -5.056   0.479   0.233  1.00  0.00     0.005 C 
ENDBRANCH   1  17
BRANCH   4  23
HETATM   23  C17 UNL     1      -0.475  -1.199   1.607  1.00  0.00     0.170 C 
BRANCH  23  24
HETATM   24  O2  UNL     1      -0.414  -0.089   2.423  1.00  0.00    -0.400 OA
ATOM     25  H2  UNL     1      -0.760  -0.183   3.303  1.00  0.00     0.209 HD
ENDBRANCH  23  24
ENDBRANCH   4  23
TORSDOF 6
